MODEL 1
REMARK VINA RESULT: -7.670254446      0.000      0.000
REMARK  10 active torsions:
REMARK  status: ('A' for Active; 'I' for Inactive)
REMARK    1  A    between atoms: C2_2  and  C3_3 
REMARK    2  A    between atoms: C3_3  and  C5_5 
REMARK    3  A    between atoms: C6_6  and  C7_7 
REMARK    4  A    between atoms: C9_9  and  C10_10 
REMARK    5  A    between atoms: C10_10  and  C11_11 
REMARK    6  A    between atoms: C12_12  and  O1_14 
REMARK    7  A    between atoms: C16_18  and  C18_20 
REMARK    8  A    between atoms: C24_30  and  C26_32 
REMARK    9  A    between atoms: C26_32  and  O3_33 
REMARK   10  A    between atoms: O3_33  and  C27_34 
ROOT
HETATM    1  C11 UNL     1     -24.653 -17.025 -45.633  1.00  0.00     0.034 C 
HETATM    2  C12 UNL     1     -24.557 -15.994 -44.556  1.00  0.00     0.059 C 
HETATM    3  C13 UNL     1     -23.441 -14.977 -44.887  1.00  0.00     0.046 C 
HETATM    4  C14 UNL     1     -25.797 -15.189 -44.379  1.00  0.00     0.044 C 
HETATM    5  C15 UNL     1     -27.110 -15.889 -44.408  1.00  0.00     0.011 C 
HETATM    6  C16 UNL     1     -27.839 -15.915 -43.094  1.00  0.00    -0.002 C 
HETATM    7  C17 UNL     1     -29.366 -15.861 -43.298  1.00  0.00     0.021 C 
HETATM    8  C19 UNL     1     -27.577 -17.046 -42.191  1.00  0.00     0.093 C 
HETATM    9  C20 UNL     1     -27.586 -18.286 -42.966  1.00  0.00     0.128 C 
HETATM   10  O2  UNL     1     -27.822 -19.326 -42.368  1.00  0.00    -0.298 OA
HETATM   11  C21 UNL     1     -27.336 -18.408 -44.418  1.00  0.00     0.088 C 
HETATM   12  C22 UNL     1     -27.172 -17.165 -45.193  1.00  0.00    -0.023 C 
HETATM   13  C23 UNL     1     -28.416 -17.078 -46.085  1.00  0.00     0.017 C 
HETATM   14  C24 UNL     1     -25.998 -17.277 -46.169  1.00  0.00    -0.007 C 
HETATM   15  C25 UNL     1     -26.287 -16.166 -47.205  1.00  0.00     0.019 C 
ENDROOT
BRANCH   1  16
HETATM   16  C10 UNL     1     -23.825 -18.277 -45.309  1.00  0.00     0.036 C 
BRANCH  16  17
HETATM   17  C9  UNL     1     -24.317 -18.923 -44.074  1.00  0.00    -0.020 C 
HETATM   18  C7  UNL     1     -23.713 -19.872 -43.388  1.00  0.00    -0.066 C 
HETATM   19  C8  UNL     1     -22.410 -20.487 -43.719  1.00  0.00     0.048 C 
BRANCH  18  20
HETATM   20  C6  UNL     1     -24.347 -20.416 -42.162  1.00  0.00     0.003 C 
HETATM   21  C5  UNL     1     -24.706 -19.707 -41.144  1.00  0.00    -0.018 C 
BRANCH  21  22
HETATM   22  C3  UNL     1     -25.336 -20.311 -39.945  1.00  0.00     0.026 C 
HETATM   23  C4  UNL     1     -26.090 -21.570 -40.270  1.00  0.00     0.018 C 
BRANCH  22  24
HETATM   24  C2  UNL     1     -26.287 -19.318 -39.395  1.00  0.00    -0.029 C 
HETATM   25  C1  UNL     1     -26.709 -19.390 -38.150  1.00  0.00     0.007 C 
ENDBRANCH  22  24
ENDBRANCH  21  22
ENDBRANCH  18  20
ENDBRANCH  16  17
ENDBRANCH   1  16
BRANCH   2  26
HETATM   26  O1  UNL     1     -24.175 -16.483 -43.311  1.00  0.00    -0.390 OA
ATOM     27  H1  UNL     1     -24.892 -16.772 -42.759  1.00  0.00     0.210 HD
ENDBRANCH   2  26
BRANCH  14  28
HETATM   28  C26 UNL     1     -26.130 -18.559 -46.951  1.00  0.00     0.189 C 
BRANCH  28  29
HETATM   29  O3  UNL     1     -26.754 -18.345 -48.209  1.00  0.00    -0.321 OA
BRANCH  29  30
HETATM   30  C27 UNL     1     -27.700 -19.174 -48.742  1.00  0.00     0.254 C 
HETATM   31  C28 UNL     1     -28.024 -20.524 -48.205  1.00  0.00     0.126 C 
HETATM   32  O4  UNL     1     -28.336 -18.745 -49.764  1.00  0.00    -0.266 OA
ENDBRANCH  29  30
ENDBRANCH  28  29
ENDBRANCH  14  28
BRANCH   6  33
HETATM   33  C18 UNL     1     -27.541 -14.647 -42.357  1.00  0.00     0.062 C 
HETATM   34  N1  UNL     1     -28.274 -13.610 -42.433  1.00  0.00    -0.410 N 
ATOM     35  H12 UNL     1     -29.099 -13.661 -43.030  1.00  0.00     0.155 HD
ATOM     36  H11 UNL     1     -28.072 -12.745 -41.931  1.00  0.00     0.155 HD
ENDBRANCH   6  33
TORSDOF 10
ENDMDL
MODEL 2
REMARK VINA RESULT: -7.518015026      3.615      7.058
REMARK  10 active torsions:
REMARK  status: ('A' for Active; 'I' for Inactive)
REMARK    1  A    between atoms: C2_2  and  C3_3 
REMARK    2  A    between atoms: C3_3  and  C5_5 
REMARK    3  A    between atoms: C6_6  and  C7_7 
REMARK    4  A    between atoms: C9_9  and  C10_10 
REMARK    5  A    between atoms: C10_10  and  C11_11 
REMARK    6  A    between atoms: C12_12  and  O1_14 
REMARK    7  A    between atoms: C16_18  and  C18_20 
REMARK    8  A    between atoms: C24_30  and  C26_32 
REMARK    9  A    between atoms: C26_32  and  O3_33 
REMARK   10  A    between atoms: O3_33  and  C27_34 
ROOT
HETATM    1  C11 UNL     1     -26.692 -20.246 -40.547  1.00  0.00     0.034 C 
HETATM    2  C12 UNL     1     -27.167 -19.773 -39.213  1.00  0.00     0.059 C 
HETATM    3  C13 UNL     1     -27.558 -18.279 -39.282  1.00  0.00     0.046 C 
HETATM    4  C14 UNL     1     -28.378 -20.484 -38.716  1.00  0.00     0.044 C 
HETATM    5  C15 UNL     1     -28.452 -21.961 -38.877  1.00  0.00     0.011 C 
HETATM    6  C16 UNL     1     -28.389 -22.739 -37.592  1.00  0.00    -0.002 C 
HETATM    7  C17 UNL     1     -29.239 -24.023 -37.672  1.00  0.00     0.021 C 
HETATM    8  C19 UNL     1     -27.063 -23.143 -37.103  1.00  0.00     0.093 C 
HETATM    9  C20 UNL     1     -26.283 -23.671 -38.222  1.00  0.00     0.128 C 
HETATM   10  O2  UNL     1     -25.366 -24.436 -37.963  1.00  0.00    -0.298 OA
HETATM   11  C21 UNL     1     -26.499 -23.369 -39.653  1.00  0.00     0.088 C 
HETATM   12  C22 UNL     1     -27.671 -22.552 -40.014  1.00  0.00    -0.023 C 
HETATM   13  C23 UNL     1     -28.617 -23.505 -40.754  1.00  0.00     0.017 C 
HETATM   14  C24 UNL     1     -27.302 -21.486 -41.049  1.00  0.00    -0.007 C 
HETATM   15  C25 UNL     1     -28.665 -21.101 -41.668  1.00  0.00     0.019 C 
ENDROOT
BRANCH   1  16
HETATM   16  C10 UNL     1     -25.165 -20.159 -40.682  1.00  0.00     0.036 C 
BRANCH  16  17
HETATM   17  C9  UNL     1     -24.786 -19.120 -41.663  1.00  0.00    -0.020 C 
HETATM   18  C7  UNL     1     -24.018 -19.281 -42.722  1.00  0.00    -0.066 C 
HETATM   19  C8  UNL     1     -23.377 -20.544 -43.145  1.00  0.00     0.048 C 
BRANCH  18  20
HETATM   20  C6  UNL     1     -23.734 -18.128 -43.611  1.00  0.00     0.003 C 
HETATM   21  C5  UNL     1     -22.852 -18.128 -44.554  1.00  0.00    -0.018 C 
BRANCH  21  22
HETATM   22  C3  UNL     1     -22.614 -16.942 -45.412  1.00  0.00     0.026 C 
HETATM   23  C4  UNL     1     -23.558 -15.814 -45.099  1.00  0.00     0.018 C 
BRANCH  22  24
HETATM   24  C2  UNL     1     -22.823 -17.360 -46.817  1.00  0.00    -0.029 C 
HETATM   25  C1  UNL     1     -24.032 -17.464 -47.329  1.00  0.00     0.007 C 
ENDBRANCH  22  24
ENDBRANCH  21  22
ENDBRANCH  18  20
ENDBRANCH  16  17
ENDBRANCH   1  16
BRANCH   2  26
HETATM   26  O1  UNL     1     -26.206 -19.798 -38.208  1.00  0.00    -0.390 OA
ATOM     27  H1  UNL     1     -25.328 -19.573 -38.490  1.00  0.00     0.210 HD
ENDBRANCH   2  26
BRANCH  14  28
HETATM   28  C26 UNL     1     -26.550 -22.141 -42.179  1.00  0.00     0.189 C 
BRANCH  28  29
HETATM   29  O3  UNL     1     -26.789 -21.486 -43.418  1.00  0.00    -0.321 OA
BRANCH  29  30
HETATM   30  C27 UNL     1     -26.879 -22.134 -44.617  1.00  0.00     0.254 C 
HETATM   31  C28 UNL     1     -26.320 -23.489 -44.878  1.00  0.00     0.126 C 
HETATM   32  O4  UNL     1     -27.485 -21.522 -45.561  1.00  0.00    -0.266 OA
ENDBRANCH  29  30
ENDBRANCH  28  29
ENDBRANCH  14  28
BRANCH   6  33
HETATM   33  C18 UNL     1     -29.063 -21.942 -36.519  1.00  0.00     0.062 C 
HETATM   34  N1  UNL     1     -28.758 -22.037 -35.287  1.00  0.00    -0.410 N 
ATOM     35  H12 UNL     1     -28.017 -22.691 -35.036  1.00  0.00     0.155 HD
ATOM     36  H11 UNL     1     -29.217 -21.494 -34.555  1.00  0.00     0.155 HD
ENDBRANCH   6  33
TORSDOF 10
ENDMDL
MODEL 3
REMARK VINA RESULT: -7.475565076      2.606      4.980
REMARK  10 active torsions:
REMARK  status: ('A' for Active; 'I' for Inactive)
REMARK    1  A    between atoms: C2_2  and  C3_3 
REMARK    2  A    between atoms: C3_3  and  C5_5 
REMARK    3  A    between atoms: C6_6  and  C7_7 
REMARK    4  A    between atoms: C9_9  and  C10_10 
REMARK    5  A    between atoms: C10_10  and  C11_11 
REMARK    6  A    between atoms: C12_12  and  O1_14 
REMARK    7  A    between atoms: C16_18  and  C18_20 
REMARK    8  A    between atoms: C24_30  and  C26_32 
REMARK    9  A    between atoms: C26_32  and  O3_33 
REMARK   10  A    between atoms: O3_33  and  C27_34 
ROOT
HETATM    1  C11 UNL     1     -25.762 -19.723 -42.609  1.00  0.00     0.034 C 
HETATM    2  C12 UNL     1     -24.351 -19.342 -42.917  1.00  0.00     0.059 C 
HETATM    3  C13 UNL     1     -23.414 -20.555 -42.717  1.00  0.00     0.046 C 
HETATM    4  C14 UNL     1     -24.139 -18.895 -44.321  1.00  0.00     0.044 C 
HETATM    5  C15 UNL     1     -25.142 -17.984 -44.936  1.00  0.00     0.011 C 
HETATM    6  C16 UNL     1     -24.644 -16.593 -45.212  1.00  0.00    -0.002 C 
HETATM    7  C17 UNL     1     -25.299 -16.003 -46.478  1.00  0.00     0.021 C 
HETATM    8  C19 UNL     1     -24.803 -15.589 -44.151  1.00  0.00     0.093 C 
HETATM    9  C20 UNL     1     -26.149 -15.698 -43.588  1.00  0.00     0.128 C 
HETATM   10  O2  UNL     1     -26.613 -14.714 -43.033  1.00  0.00    -0.298 OA
HETATM   11  C21 UNL     1     -27.014 -16.897 -43.628  1.00  0.00     0.088 C 
HETATM   12  C22 UNL     1     -26.539 -18.062 -44.396  1.00  0.00    -0.023 C 
HETATM   13  C23 UNL     1     -27.478 -18.158 -45.605  1.00  0.00     0.017 C 
HETATM   14  C24 UNL     1     -26.766 -19.362 -43.622  1.00  0.00    -0.007 C 
HETATM   15  C25 UNL     1     -26.710 -20.448 -44.720  1.00  0.00     0.019 C 
ENDROOT
BRANCH   1  16
HETATM   16  C10 UNL     1     -26.144 -19.403 -41.157  1.00  0.00     0.036 C 
BRANCH  16  17
HETATM   17  C9  UNL     1     -26.114 -20.626 -40.328  1.00  0.00    -0.020 C 
HETATM   18  C7  UNL     1     -26.410 -20.717 -39.047  1.00  0.00    -0.066 C 
HETATM   19  C8  UNL     1     -26.838 -19.602 -38.174  1.00  0.00     0.048 C 
BRANCH  18  20
HETATM   20  C6  UNL     1     -26.328 -22.028 -38.359  1.00  0.00     0.003 C 
HETATM   21  C5  UNL     1     -26.107 -23.155 -38.950  1.00  0.00    -0.018 C 
BRANCH  21  22
HETATM   22  C3  UNL     1     -26.036 -24.435 -38.205  1.00  0.00     0.026 C 
HETATM   23  C4  UNL     1     -27.349 -25.168 -38.204  1.00  0.00     0.018 C 
BRANCH  22  24
HETATM   24  C2  UNL     1     -25.670 -24.117 -36.806  1.00  0.00    -0.029 C 
HETATM   25  C1  UNL     1     -24.584 -24.613 -36.251  1.00  0.00     0.007 C 
ENDBRANCH  22  24
ENDBRANCH  21  22
ENDBRANCH  18  20
ENDBRANCH  16  17
ENDBRANCH   1  16
BRANCH   2  26
HETATM   26  O1  UNL     1     -23.807 -18.384 -42.069  1.00  0.00    -0.390 OA
ATOM     27  H1  UNL     1     -23.330 -18.734 -41.325  1.00  0.00     0.210 HD
ENDBRANCH   2  26
BRANCH  14  28
HETATM   28  C26 UNL     1     -28.191 -19.399 -43.132  1.00  0.00     0.189 C 
BRANCH  28  29
HETATM   29  O3  UNL     1     -28.743 -20.705 -43.221  1.00  0.00    -0.321 OA
BRANCH  29  30
HETATM   30  C27 UNL     1     -29.078 -21.467 -42.138  1.00  0.00     0.254 C 
HETATM   31  C28 UNL     1     -28.598 -22.858 -41.916  1.00  0.00     0.126 C 
HETATM   32  O4  UNL     1     -29.852 -20.934 -41.272  1.00  0.00    -0.266 OA
ENDBRANCH  29  30
ENDBRANCH  28  29
ENDBRANCH  14  28
BRANCH   6  33
HETATM   33  C18 UNL     1     -23.194 -16.668 -45.574  1.00  0.00     0.062 C 
HETATM   34  N1  UNL     1     -22.778 -17.095 -46.699  1.00  0.00    -0.410 N 
ATOM     35  H12 UNL     1     -23.480 -17.397 -47.374  1.00  0.00     0.155 HD
ATOM     36  H11 UNL     1     -21.790 -17.146 -46.946  1.00  0.00     0.155 HD
ENDBRANCH   6  33
TORSDOF 10
ENDMDL
MODEL 4
REMARK VINA RESULT: -7.334378941      0.794      1.239
REMARK  10 active torsions:
REMARK  status: ('A' for Active; 'I' for Inactive)
REMARK    1  A    between atoms: C2_2  and  C3_3 
REMARK    2  A    between atoms: C3_3  and  C5_5 
REMARK    3  A    between atoms: C6_6  and  C7_7 
REMARK    4  A    between atoms: C9_9  and  C10_10 
REMARK    5  A    between atoms: C10_10  and  C11_11 
REMARK    6  A    between atoms: C12_12  and  O1_14 
REMARK    7  A    between atoms: C16_18  and  C18_20 
REMARK    8  A    between atoms: C24_30  and  C26_32 
REMARK    9  A    between atoms: C26_32  and  O3_33 
REMARK   10  A    between atoms: O3_33  and  C27_34 
ROOT
HETATM    1  C11 UNL     1     -25.106 -17.225 -45.340  1.00  0.00     0.034 C 
HETATM    2  C12 UNL     1     -24.936 -16.131 -44.337  1.00  0.00     0.059 C 
HETATM    3  C13 UNL     1     -23.759 -15.214 -44.740  1.00  0.00     0.046 C 
HETATM    4  C14 UNL     1     -26.121 -15.237 -44.211  1.00  0.00     0.044 C 
HETATM    5  C15 UNL     1     -27.475 -15.851 -44.188  1.00  0.00     0.011 C 
HETATM    6  C16 UNL     1     -28.195 -15.741 -42.873  1.00  0.00    -0.002 C 
HETATM    7  C17 UNL     1     -29.717 -15.602 -43.076  1.00  0.00     0.021 C 
HETATM    8  C19 UNL     1     -27.999 -16.822 -41.896  1.00  0.00     0.093 C 
HETATM    9  C20 UNL     1     -28.094 -18.109 -42.584  1.00  0.00     0.128 C 
HETATM   10  O2  UNL     1     -28.393 -19.088 -41.917  1.00  0.00    -0.298 OA
HETATM   11  C21 UNL     1     -27.864 -18.345 -44.026  1.00  0.00     0.088 C 
HETATM   12  C22 UNL     1     -27.626 -17.172 -44.885  1.00  0.00    -0.023 C 
HETATM   13  C23 UNL     1     -28.868 -17.064 -45.777  1.00  0.00     0.017 C 
HETATM   14  C24 UNL     1     -26.469 -17.425 -45.855  1.00  0.00    -0.007 C 
HETATM   15  C25 UNL     1     -26.693 -16.370 -46.963  1.00  0.00     0.019 C 
ENDROOT
BRANCH   1  16
HETATM   16  C10 UNL     1     -24.358 -18.503 -44.935  1.00  0.00     0.036 C 
BRANCH  16  17
HETATM   17  C9  UNL     1     -24.878 -19.027 -43.654  1.00  0.00    -0.020 C 
HETATM   18  C7  UNL     1     -24.302 -19.924 -42.879  1.00  0.00    -0.066 C 
HETATM   19  C8  UNL     1     -23.008 -20.592 -43.138  1.00  0.00     0.048 C 
BRANCH  18  20
HETATM   20  C6  UNL     1     -24.960 -20.344 -41.618  1.00  0.00     0.003 C 
HETATM   21  C5  UNL     1     -25.837 -21.288 -41.526  1.00  0.00    -0.018 C 
BRANCH  21  22
HETATM   22  C3  UNL     1     -26.459 -21.663 -40.233  1.00  0.00     0.026 C 
HETATM   23  C4  UNL     1     -25.981 -20.799 -39.099  1.00  0.00     0.018 C 
BRANCH  22  24
HETATM   24  C2  UNL     1     -26.086 -23.067 -39.950  1.00  0.00    -0.029 C 
HETATM   25  C1  UNL     1     -26.317 -23.614 -38.775  1.00  0.00     0.007 C 
ENDBRANCH  22  24
ENDBRANCH  21  22
ENDBRANCH  18  20
ENDBRANCH  16  17
ENDBRANCH   1  16
BRANCH   2  26
HETATM   26  O1  UNL     1     -24.577 -16.558 -43.063  1.00  0.00    -0.390 OA
ATOM     27  H1  UNL     1     -24.672 -15.904 -42.381  1.00  0.00     0.210 HD
ENDBRANCH   2  26
BRANCH  14  28
HETATM   28  C26 UNL     1     -26.689 -18.746 -46.546  1.00  0.00     0.189 C 
BRANCH  28  29
HETATM   29  O3  UNL     1     -26.794 -18.591 -47.954  1.00  0.00    -0.321 OA
BRANCH  29  30
HETATM   30  C27 UNL     1     -27.671 -19.288 -48.735  1.00  0.00     0.254 C 
HETATM   31  C28 UNL     1     -27.953 -20.741 -48.580  1.00  0.00     0.126 C 
HETATM   32  O4  UNL     1     -28.278 -18.634 -49.650  1.00  0.00    -0.266 OA
ENDBRANCH  29  30
ENDBRANCH  28  29
ENDBRANCH  14  28
BRANCH   6  33
HETATM   33  C18 UNL     1     -27.811 -14.448 -42.225  1.00  0.00     0.062 C 
HETATM   34  N1  UNL     1     -28.362 -13.337 -42.509  1.00  0.00    -0.410 N 
ATOM     35  H12 UNL     1     -29.099 -13.345 -43.214  1.00  0.00     0.155 HD
ATOM     36  H11 UNL     1     -28.101 -12.455 -42.068  1.00  0.00     0.155 HD
ENDBRANCH   6  33
TORSDOF 10
ENDMDL
MODEL 5
REMARK VINA RESULT: -7.314324406      2.756      5.739
REMARK  10 active torsions:
REMARK  status: ('A' for Active; 'I' for Inactive)
REMARK    1  A    between atoms: C2_2  and  C3_3 
REMARK    2  A    between atoms: C3_3  and  C5_5 
REMARK    3  A    between atoms: C6_6  and  C7_7 
REMARK    4  A    between atoms: C9_9  and  C10_10 
REMARK    5  A    between atoms: C10_10  and  C11_11 
REMARK    6  A    between atoms: C12_12  and  O1_14 
REMARK    7  A    between atoms: C16_18  and  C18_20 
REMARK    8  A    between atoms: C24_30  and  C26_32 
REMARK    9  A    between atoms: C26_32  and  O3_33 
REMARK   10  A    between atoms: O3_33  and  C27_34 
ROOT
HETATM    1  C11 UNL     1     -26.104 -19.376 -42.346  1.00  0.00     0.034 C 
HETATM    2  C12 UNL     1     -25.673 -19.936 -43.662  1.00  0.00     0.059 C 
HETATM    3  C13 UNL     1     -26.313 -21.325 -43.888  1.00  0.00     0.046 C 
HETATM    4  C14 UNL     1     -26.080 -19.109 -44.832  1.00  0.00     0.044 C 
HETATM    5  C15 UNL     1     -25.932 -17.632 -44.745  1.00  0.00     0.011 C 
HETATM    6  C16 UNL     1     -24.883 -17.049 -45.651  1.00  0.00    -0.002 C 
HETATM    7  C17 UNL     1     -25.287 -15.644 -46.145  1.00  0.00     0.021 C 
HETATM    8  C19 UNL     1     -23.516 -16.932 -45.125  1.00  0.00     0.093 C 
HETATM    9  C20 UNL     1     -23.572 -16.395 -43.766  1.00  0.00     0.128 C 
HETATM   10  O2  UNL     1     -22.577 -15.830 -43.338  1.00  0.00    -0.298 OA
HETATM   11  C21 UNL     1     -24.729 -16.469 -42.848  1.00  0.00     0.088 C 
HETATM   12  C22 UNL     1     -25.987 -17.032 -43.371  1.00  0.00    -0.023 C 
HETATM   13  C23 UNL     1     -26.960 -15.849 -43.441  1.00  0.00     0.017 C 
HETATM   14  C24 UNL     1     -26.618 -17.998 -42.366  1.00  0.00    -0.007 C 
HETATM   15  C25 UNL     1     -28.094 -18.074 -42.819  1.00  0.00     0.019 C 
ENDROOT
BRANCH   1  16
HETATM   16  C10 UNL     1     -25.100 -19.691 -41.227  1.00  0.00     0.036 C 
BRANCH  16  17
HETATM   17  C9  UNL     1     -25.525 -20.885 -40.467  1.00  0.00    -0.020 C 
HETATM   18  C7  UNL     1     -26.088 -20.901 -39.276  1.00  0.00    -0.066 C 
HETATM   19  C8  UNL     1     -26.413 -19.715 -38.454  1.00  0.00     0.048 C 
BRANCH  18  20
HETATM   20  C6  UNL     1     -26.455 -22.193 -38.648  1.00  0.00     0.003 C 
HETATM   21  C5  UNL     1     -26.012 -23.346 -39.025  1.00  0.00    -0.018 C 
BRANCH  21  22
HETATM   22  C3  UNL     1     -26.417 -24.605 -38.355  1.00  0.00     0.026 C 
HETATM   23  C4  UNL     1     -27.881 -24.898 -38.530  1.00  0.00     0.018 C 
BRANCH  22  24
HETATM   24  C2  UNL     1     -26.134 -24.451 -36.910  1.00  0.00    -0.029 C 
HETATM   25  C1  UNL     1     -24.926 -24.646 -36.422  1.00  0.00     0.007 C 
ENDBRANCH  22  24
ENDBRANCH  21  22
ENDBRANCH  18  20
ENDBRANCH  16  17
ENDBRANCH   1  16
BRANCH   2  26
HETATM   26  O1  UNL     1     -24.311 -20.198 -43.768  1.00  0.00    -0.390 OA
ATOM     27  H1  UNL     1     -23.932 -20.004 -44.617  1.00  0.00     0.210 HD
ENDBRANCH   2  26
BRANCH  14  28
HETATM   28  C26 UNL     1     -26.675 -17.332 -41.015  1.00  0.00     0.189 C 
BRANCH  28  29
HETATM   29  O3  UNL     1     -27.997 -17.318 -40.493  1.00  0.00    -0.321 OA
BRANCH  29  30
HETATM   30  C27 UNL     1     -28.495 -16.317 -39.708  1.00  0.00     0.254 C 
HETATM   31  C28 UNL     1     -28.434 -14.872 -40.059  1.00  0.00     0.126 C 
HETATM   32  O4  UNL     1     -29.045 -16.664 -38.608  1.00  0.00    -0.266 OA
ENDBRANCH  29  30
ENDBRANCH  28  29
ENDBRANCH  14  28
BRANCH   6  33
HETATM   33  C18 UNL     1     -24.835 -17.859 -46.909  1.00  0.00     0.062 C 
HETATM   34  N1  UNL     1     -24.166 -17.513 -47.934  1.00  0.00    -0.410 N 
ATOM     35  H12 UNL     1     -23.643 -16.639 -47.880  1.00  0.00     0.155 HD
ATOM     36  H11 UNL     1     -24.133 -18.065 -48.791  1.00  0.00     0.155 HD
ENDBRANCH   6  33
TORSDOF 10
ENDMDL
