MODEL 1
REMARK VINA RESULT: -3.931303525      0.000      0.000
REMARK  1 active torsions:
REMARK  status: ('A' for Active; 'I' for Inactive)
REMARK       I    between atoms: C2_2  and  N1_4 
REMARK    1  A    between atoms: N1_4  and  C3_6 
ROOT
HETATM    1  C3  UNL     1      17.062  18.710  16.036  1.00  0.00     0.171 C 
HETATM    2  C4  UNL     1      15.800  19.422  15.978  1.00  0.00     0.102 C 
HETATM    3  N2  UNL     1      14.806  20.000  15.924  1.00  0.00    -0.194 NA
HETATM    4  C5  UNL     1      18.255  19.595  16.150  1.00  0.00     0.059 C 
HETATM    5  C6  UNL     1      18.690  19.980  14.762  1.00  0.00     0.014 C 
HETATM    6  C7  UNL     1      18.951  18.646  14.048  1.00  0.00     0.077 C 
HETATM    7  S1  UNL     1      17.381  17.818  14.461  1.00  0.00    -0.123 SA
ENDROOT
BRANCH   1   8
HETATM    8  N1  UNL     1      17.080  17.707  17.074  1.00  0.00    -0.331 N 
HETATM    9  C2  UNL     1      16.983  18.037  18.449  1.00  0.00     0.215 C 
HETATM   10  C1  UNL     1      17.005  16.978  19.487  1.00  0.00     0.117 C 
HETATM   11  O1  UNL     1      16.873  19.232  18.835  1.00  0.00    -0.274 OA
ATOM     12  H1  UNL     1      17.166  16.726  16.809  1.00  0.00     0.165 HD
ENDBRANCH   1   8
TORSDOF 1
ENDMDL
MODEL 2
REMARK VINA RESULT: -3.844310025     10.594     11.408
REMARK  1 active torsions:
REMARK  status: ('A' for Active; 'I' for Inactive)
REMARK       I    between atoms: C2_2  and  N1_4 
REMARK    1  A    between atoms: N1_4  and  C3_6 
ROOT
HETATM    1  C3  UNL     1       7.223  16.374  11.369  1.00  0.00     0.171 C 
HETATM    2  C4  UNL     1       8.196  15.371  11.752  1.00  0.00     0.102 C 
HETATM    3  N2  UNL     1       8.971  14.568  12.040  1.00  0.00    -0.194 NA
HETATM    4  C5  UNL     1       6.290  15.937  10.293  1.00  0.00     0.059 C 
HETATM    5  C6  UNL     1       6.929  16.245   8.965  1.00  0.00     0.014 C 
HETATM    6  C7  UNL     1       7.200  17.755   9.000  1.00  0.00     0.077 C 
HETATM    7  S1  UNL     1       8.048  17.831  10.610  1.00  0.00    -0.123 SA
ENDROOT
BRANCH   1   8
HETATM    8  N1  UNL     1       6.481  16.880  12.500  1.00  0.00    -0.331 N 
HETATM    9  C2  UNL     1       7.117  17.471  13.621  1.00  0.00     0.215 C 
HETATM   10  C1  UNL     1       6.321  17.979  14.764  1.00  0.00     0.117 C 
HETATM   11  O1  UNL     1       8.371  17.586  13.684  1.00  0.00    -0.274 OA
ATOM     12  H1  UNL     1       5.464  16.810  12.493  1.00  0.00     0.165 HD
ENDBRANCH   1   8
TORSDOF 1
ENDMDL
MODEL 3
REMARK VINA RESULT: -3.690490691      5.986      7.162
REMARK  1 active torsions:
REMARK  status: ('A' for Active; 'I' for Inactive)
REMARK       I    between atoms: C2_2  and  N1_4 
REMARK    1  A    between atoms: N1_4  and  C3_6 
ROOT
HETATM    1  C3  UNL     1      11.917  23.557  15.211  1.00  0.00     0.171 C 
HETATM    2  C4  UNL     1      10.469  23.543  15.141  1.00  0.00     0.102 C 
HETATM    3  N2  UNL     1       9.318  23.549  15.090  1.00  0.00    -0.194 NA
HETATM    4  C5  UNL     1      12.468  24.493  16.231  1.00  0.00     0.059 C 
HETATM    5  C6  UNL     1      12.619  25.847  15.593  1.00  0.00     0.014 C 
HETATM    6  C7  UNL     1      13.535  25.611  14.383  1.00  0.00     0.077 C 
HETATM    7  S1  UNL     1      12.640  24.204  13.650  1.00  0.00    -0.123 SA
ENDROOT
BRANCH   1   8
HETATM    8  N1  UNL     1      12.471  22.236  15.391  1.00  0.00    -0.331 N 
HETATM    9  C2  UNL     1      12.303  21.500  16.591  1.00  0.00     0.215 C 
HETATM   10  C1  UNL     1      12.888  20.145  16.738  1.00  0.00     0.117 C 
HETATM   11  O1  UNL     1      11.655  21.966  17.566  1.00  0.00    -0.274 OA
ATOM     12  H1  UNL     1      13.003  21.817  14.628  1.00  0.00     0.165 HD
ENDBRANCH   1   8
TORSDOF 1
ENDMDL
MODEL 4
REMARK VINA RESULT: -3.651820792      6.081      7.236
REMARK  1 active torsions:
REMARK  status: ('A' for Active; 'I' for Inactive)
REMARK       I    between atoms: C2_2  and  N1_4 
REMARK    1  A    between atoms: N1_4  and  C3_6 
ROOT
HETATM    1  C3  UNL     1      11.831  23.794  15.750  1.00  0.00     0.171 C 
HETATM    2  C4  UNL     1      10.507  23.506  15.235  1.00  0.00     0.102 C 
HETATM    3  N2  UNL     1       9.453  23.295  14.820  1.00  0.00    -0.194 NA
HETATM    4  C5  UNL     1      11.999  25.184  16.257  1.00  0.00     0.059 C 
HETATM    5  C6  UNL     1      12.406  26.059  15.102  1.00  0.00     0.014 C 
HETATM    6  C7  UNL     1      13.690  25.420  14.557  1.00  0.00     0.077 C 
HETATM    7  S1  UNL     1      13.086  23.707  14.410  1.00  0.00    -0.123 SA
ENDROOT
BRANCH   1   8
HETATM    8  N1  UNL     1      12.250  22.840  16.751  1.00  0.00    -0.331 N 
HETATM    9  C2  UNL     1      12.219  21.441  16.526  1.00  0.00     0.215 C 
HETATM   10  C1  UNL     1      12.656  20.494  17.579  1.00  0.00     0.117 C 
HETATM   11  O1  UNL     1      11.822  20.957  15.432  1.00  0.00    -0.274 OA
ATOM     12  H1  UNL     1      12.580  23.186  17.652  1.00  0.00     0.165 HD
ENDBRANCH   1   8
TORSDOF 1
ENDMDL
MODEL 5
REMARK VINA RESULT: -3.528364279      6.972      8.375
REMARK  1 active torsions:
REMARK  status: ('A' for Active; 'I' for Inactive)
REMARK       I    between atoms: C2_2  and  N1_4 
REMARK    1  A    between atoms: N1_4  and  C3_6 
ROOT
HETATM    1  C3  UNL     1      11.768  24.417  14.770  1.00  0.00     0.171 C 
HETATM    2  C4  UNL     1      12.323  24.016  13.492  1.00  0.00     0.102 C 
HETATM    3  N2  UNL     1      12.750  23.706  12.468  1.00  0.00    -0.194 NA
HETATM    4  C5  UNL     1      10.284  24.540  14.778  1.00  0.00     0.059 C 
HETATM    5  C6  UNL     1       9.926  25.935  14.339  1.00  0.00     0.014 C 
HETATM    6  C7  UNL     1      10.648  26.857  15.330  1.00  0.00     0.077 C 
HETATM    7  S1  UNL     1      12.309  26.117  15.213  1.00  0.00    -0.123 SA
ENDROOT
BRANCH   1   8
HETATM    8  N1  UNL     1      12.207  23.565  15.851  1.00  0.00    -0.331 N 
HETATM    9  C2  UNL     1      12.012  22.161  15.836  1.00  0.00     0.215 C 
HETATM   10  C1  UNL     1      12.476  21.319  16.965  1.00  0.00     0.117 C 
HETATM   11  O1  UNL     1      11.443  21.584  14.871  1.00  0.00    -0.274 OA
ATOM     12  H1  UNL     1      12.673  23.988  16.653  1.00  0.00     0.165 HD
ENDBRANCH   1   8
TORSDOF 1
ENDMDL
