MODEL 1
REMARK VINA RESULT: -7.773803718      0.000      0.000
REMARK  10 active torsions:
REMARK  status: ('A' for Active; 'I' for Inactive)
REMARK       I    between atoms: N1_2  and  C2_3 
REMARK       I    between atoms: C2_3  and  N2_4 
REMARK       I    between atoms: C2_3  and  N3_7 
REMARK       I    between atoms: N3_7  and  C4_8 
REMARK    1  A    between atoms: C4_8  and  O2_10 
REMARK    2  A    between atoms: O2_10  and  C5_11 
REMARK    3  A    between atoms: C6_12  and  O3_13 
REMARK    4  A    between atoms: O3_13  and  C7_14 
REMARK    5  A    between atoms: C9_16  and  O4_17 
REMARK    6  A    between atoms: C10_19  and  O5_20 
REMARK    7  A    between atoms: C11_22  and  O6_23 
REMARK    8  A    between atoms: C13_25  and  O7_26 
REMARK    9  A    between atoms: C16_30  and  C17_31 
REMARK   10  A    between atoms: C17_31  and  O9_33 
ROOT
HETATM    1  C7  UNL     1      12.744  75.936  -5.032  1.00  0.00     0.075 C 
HETATM    2  C8  UNL     1      11.568  75.486  -5.361  1.00  0.00     0.043 A 
HETATM    3  C9  UNL     1      11.003  75.684  -6.613  1.00  0.00     0.115 A 
HETATM    4  C10 UNL     1       9.778  75.127  -6.963  1.00  0.00     0.136 A 
HETATM    5  C11 UNL     1       9.044  74.350  -6.111  1.00  0.00     0.138 A 
HETATM    6  C13 UNL     1       9.613  74.135  -4.865  1.00  0.00     0.113 A 
HETATM    7  C14 UNL     1      10.829  74.665  -4.496  1.00  0.00     0.013 A 
HETATM    8  C15 UNL     1      11.335  74.280  -3.353  1.00  0.00     0.004 C 
HETATM    9  C16 UNL     1      12.722  74.621  -2.879  1.00  0.00     0.123 C 
HETATM   10  C19 UNL     1      13.298  75.739  -3.647  1.00  0.00     0.019 C 
HETATM   11  C20 UNL     1      14.806  75.787  -3.629  1.00  0.00     0.023 C 
HETATM   12  C21 UNL     1      12.857  77.008  -2.860  1.00  0.00     0.023 C 
ENDROOT
BRANCH   1  13
HETATM   13  O3  UNL     1      13.574  76.654  -5.894  1.00  0.00    -0.323 OA
BRANCH  13  14
HETATM   14  C6  UNL     1      13.793  77.997  -5.891  1.00  0.00     0.167 C 
HETATM   15  C5  UNL     1      13.319  79.146  -6.187  1.00  0.00     0.173 C 
BRANCH  15  16
HETATM   16  O2  UNL     1      14.012  80.342  -5.967  1.00  0.00    -0.260 OA
BRANCH  16  17
HETATM   17  C4  UNL     1      15.094  80.832  -6.662  1.00  0.00     0.448 C 
HETATM   18  N3  UNL     1      15.875  81.899  -6.191  1.00  0.00    -0.296 NA
HETATM   19  C2  UNL     1      16.601  82.885  -5.762  1.00  0.00     0.338 C 
HETATM   20  N1  UNL     1      17.233  83.744  -5.386  1.00  0.00    -0.384 NA
HETATM   21  N2  UNL     1      16.098  82.610  -4.060  1.00  0.00    -0.324 N 
HETATM   22  C1  UNL     1      18.042  84.787  -5.189  1.00  0.00     0.234 C 
HETATM   23  C3  UNL     1      16.891  81.611  -3.573  1.00  0.00     0.123 C 
ATOM     24  H2  UNL     1      15.363  83.105  -3.555  1.00  0.00     0.169 HD
HETATM   25  O1  UNL     1      15.404  80.350  -7.778  1.00  0.00    -0.220 OA
ENDBRANCH  16  17
ENDBRANCH  15  16
ENDBRANCH  13  14
ENDBRANCH   1  13
BRANCH   3  26
HETATM   26  O4  UNL     1      11.638  76.437  -7.574  1.00  0.00    -0.357 OA
ATOM     27  H4  UNL     1      11.705  76.136  -8.473  1.00  0.00     0.217 HD
ENDBRANCH   3  26
BRANCH   9  28
HETATM   28  C17 UNL     1      13.443  73.320  -3.209  1.00  0.00     0.267 C 
HETATM   29  O8  UNL     1      13.280  72.628  -4.202  1.00  0.00    -0.265 OA
BRANCH  28  30
HETATM   30  O9  UNL     1      14.370  72.895  -2.274  1.00  0.00    -0.326 OA
HETATM   31  C18 UNL     1      14.210  73.283  -0.905  1.00  0.00     0.213 C 
ENDBRANCH  28  30
ENDBRANCH   9  28
BRANCH   4  32
HETATM   32  O5  UNL     1       9.270  75.374  -8.238  1.00  0.00    -0.356 OA
ATOM     33  H5  UNL     1       8.437  74.987  -8.480  1.00  0.00     0.218 HD
ENDBRANCH   4  32
BRANCH   6  34
HETATM   34  O7  UNL     1       8.900  73.347  -3.981  1.00  0.00    -0.357 OA
ATOM     35  H7  UNL     1       9.233  73.290  -3.094  1.00  0.00     0.217 HD
ENDBRANCH   6  34
BRANCH   5  36
HETATM   36  O6  UNL     1       7.837  73.805  -6.416  1.00  0.00    -0.351 OA
HETATM   37  C12 UNL     1       6.572  74.431  -6.286  1.00  0.00     0.210 C 
ENDBRANCH   5  36
TORSDOF 10
ENDMDL
MODEL 2
REMARK VINA RESULT: -7.762970695      4.026      8.855
REMARK  10 active torsions:
REMARK  status: ('A' for Active; 'I' for Inactive)
REMARK       I    between atoms: N1_2  and  C2_3 
REMARK       I    between atoms: C2_3  and  N2_4 
REMARK       I    between atoms: C2_3  and  N3_7 
REMARK       I    between atoms: N3_7  and  C4_8 
REMARK    1  A    between atoms: C4_8  and  O2_10 
REMARK    2  A    between atoms: O2_10  and  C5_11 
REMARK    3  A    between atoms: C6_12  and  O3_13 
REMARK    4  A    between atoms: O3_13  and  C7_14 
REMARK    5  A    between atoms: C9_16  and  O4_17 
REMARK    6  A    between atoms: C10_19  and  O5_20 
REMARK    7  A    between atoms: C11_22  and  O6_23 
REMARK    8  A    between atoms: C13_25  and  O7_26 
REMARK    9  A    between atoms: C16_30  and  C17_31 
REMARK   10  A    between atoms: C17_31  and  O9_33 
ROOT
HETATM    1  C7  UNL     1      14.387  78.126  -4.358  1.00  0.00     0.075 C 
HETATM    2  C8  UNL     1      14.637  78.890  -3.335  1.00  0.00     0.043 A 
HETATM    3  C9  UNL     1      15.245  78.428  -2.175  1.00  0.00     0.115 A 
HETATM    4  C10 UNL     1      15.571  79.281  -1.126  1.00  0.00     0.136 A 
HETATM    5  C11 UNL     1      15.323  80.624  -1.157  1.00  0.00     0.138 A 
HETATM    6  C13 UNL     1      14.733  81.093  -2.320  1.00  0.00     0.113 A 
HETATM    7  C14 UNL     1      14.409  80.273  -3.378  1.00  0.00     0.013 A 
HETATM    8  C15 UNL     1      13.990  80.843  -4.479  1.00  0.00     0.004 C 
HETATM    9  C16 UNL     1      13.761  80.116  -5.777  1.00  0.00     0.123 C 
HETATM   10  C19 UNL     1      13.683  78.659  -5.577  1.00  0.00     0.019 C 
HETATM   11  C20 UNL     1      14.000  77.850  -6.811  1.00  0.00     0.023 C 
HETATM   12  C21 UNL     1      12.172  78.392  -5.311  1.00  0.00     0.023 C 
ENDROOT
BRANCH   1  13
HETATM   13  O3  UNL     1      14.704  76.769  -4.416  1.00  0.00    -0.323 OA
BRANCH  13  14
HETATM   14  C6  UNL     1      13.972  75.734  -3.920  1.00  0.00     0.167 C 
HETATM   15  C5  UNL     1      13.871  74.466  -3.816  1.00  0.00     0.173 C 
BRANCH  15  16
HETATM   16  O2  UNL     1      12.822  73.831  -3.139  1.00  0.00    -0.260 OA
BRANCH  16  17
HETATM   17  C4  UNL     1      11.933  72.905  -3.636  1.00  0.00     0.448 C 
HETATM   18  N3  UNL     1      10.675  73.263  -4.145  1.00  0.00    -0.296 NA
HETATM   19  C2  UNL     1       9.511  73.587  -4.616  1.00  0.00     0.338 C 
HETATM   20  N1  UNL     1       8.496  73.871  -5.027  1.00  0.00    -0.384 NA
HETATM   21  N2  UNL     1      10.030  75.275  -4.942  1.00  0.00    -0.324 N 
HETATM   22  C1  UNL     1       7.236  73.963  -5.460  1.00  0.00     0.234 C 
HETATM   23  C3  UNL     1      10.683  75.260  -6.142  1.00  0.00     0.123 C 
ATOM     24  H2  UNL     1       9.869  76.087  -4.347  1.00  0.00     0.169 HD
HETATM   25  O1  UNL     1      12.214  71.683  -3.621  1.00  0.00    -0.220 OA
ENDBRANCH  16  17
ENDBRANCH  15  16
ENDBRANCH  13  14
ENDBRANCH   1  13
BRANCH   3  26
HETATM   26  O4  UNL     1      15.561  77.099  -2.013  1.00  0.00    -0.357 OA
ATOM     27  H4  UNL     1      16.350  76.831  -1.556  1.00  0.00     0.217 HD
ENDBRANCH   3  26
BRANCH   9  28
HETATM   28  C17 UNL     1      15.041  80.486  -6.517  1.00  0.00     0.267 C 
HETATM   29  O8  UNL     1      15.300  80.251  -7.687  1.00  0.00    -0.265 OA
BRANCH  28  30
HETATM   30  O9  UNL     1      15.995  81.152  -5.768  1.00  0.00    -0.326 OA
HETATM   31  C18 UNL     1      16.331  82.501  -6.107  1.00  0.00     0.213 C 
ENDBRANCH  28  30
ENDBRANCH   9  28
BRANCH   4  32
HETATM   32  O5  UNL     1      16.174  78.743   0.011  1.00  0.00    -0.356 OA
ATOM     33  H5  UNL     1      15.752  78.867   0.853  1.00  0.00     0.218 HD
ENDBRANCH   4  32
BRANCH   6  34
HETATM   34  O7  UNL     1      14.475  82.449  -2.387  1.00  0.00    -0.357 OA
ATOM     35  H7  UNL     1      15.149  82.995  -2.773  1.00  0.00     0.217 HD
ENDBRANCH   6  34
BRANCH   5  36
HETATM   36  O6  UNL     1      15.614  81.482  -0.143  1.00  0.00    -0.351 OA
HETATM   37  C12 UNL     1      14.821  81.731   1.005  1.00  0.00     0.210 C 
ENDBRANCH   5  36
TORSDOF 10
ENDMDL
MODEL 3
REMARK VINA RESULT: -7.679644726      4.135      8.785
REMARK  10 active torsions:
REMARK  status: ('A' for Active; 'I' for Inactive)
REMARK       I    between atoms: N1_2  and  C2_3 
REMARK       I    between atoms: C2_3  and  N2_4 
REMARK       I    between atoms: C2_3  and  N3_7 
REMARK       I    between atoms: N3_7  and  C4_8 
REMARK    1  A    between atoms: C4_8  and  O2_10 
REMARK    2  A    between atoms: O2_10  and  C5_11 
REMARK    3  A    between atoms: C6_12  and  O3_13 
REMARK    4  A    between atoms: O3_13  and  C7_14 
REMARK    5  A    between atoms: C9_16  and  O4_17 
REMARK    6  A    between atoms: C10_19  and  O5_20 
REMARK    7  A    between atoms: C11_22  and  O6_23 
REMARK    8  A    between atoms: C13_25  and  O7_26 
REMARK    9  A    between atoms: C16_30  and  C17_31 
REMARK   10  A    between atoms: C17_31  and  O9_33 
ROOT
HETATM    1  C7  UNL     1      14.527  78.258  -4.509  1.00  0.00     0.075 C 
HETATM    2  C8  UNL     1      14.723  78.980  -3.444  1.00  0.00     0.043 A 
HETATM    3  C9  UNL     1      15.318  78.486  -2.292  1.00  0.00     0.115 A 
HETATM    4  C10 UNL     1      15.585  79.298  -1.196  1.00  0.00     0.136 A 
HETATM    5  C11 UNL     1      15.287  80.632  -1.169  1.00  0.00     0.138 A 
HETATM    6  C13 UNL     1      14.709  81.134  -2.325  1.00  0.00     0.113 A 
HETATM    7  C14 UNL     1      14.443  80.354  -3.428  1.00  0.00     0.013 A 
HETATM    8  C15 UNL     1      14.030  80.961  -4.512  1.00  0.00     0.004 C 
HETATM    9  C16 UNL     1      13.862  80.290  -5.849  1.00  0.00     0.123 C 
HETATM   10  C19 UNL     1      13.834  78.822  -5.720  1.00  0.00     0.019 C 
HETATM   11  C20 UNL     1      14.212  78.086  -6.982  1.00  0.00     0.023 C 
HETATM   12  C21 UNL     1      12.328  78.488  -5.507  1.00  0.00     0.023 C 
ENDROOT
BRANCH   1  13
HETATM   13  O3  UNL     1      14.897  76.917  -4.622  1.00  0.00    -0.323 OA
BRANCH  13  14
HETATM   14  C6  UNL     1      14.075  75.834  -4.581  1.00  0.00     0.167 C 
HETATM   15  C5  UNL     1      12.925  75.392  -4.245  1.00  0.00     0.173 C 
BRANCH  15  16
HETATM   16  O2  UNL     1      12.530  74.061  -4.427  1.00  0.00    -0.260 OA
BRANCH  16  17
HETATM   17  C4  UNL     1      11.895  73.237  -3.525  1.00  0.00     0.448 C 
HETATM   18  N3  UNL     1      12.464  72.887  -2.290  1.00  0.00    -0.296 NA
HETATM   19  C2  UNL     1      12.983  72.560  -1.148  1.00  0.00     0.338 C 
HETATM   20  N1  UNL     1      13.437  72.276  -0.153  1.00  0.00    -0.384 NA
HETATM   21  N2  UNL     1      14.059  73.998  -1.142  1.00  0.00    -0.324 N 
HETATM   22  C1  UNL     1      13.816  71.739   1.010  1.00  0.00     0.234 C 
HETATM   23  C3  UNL     1      13.314  75.044  -0.678  1.00  0.00     0.123 C 
ATOM     24  H2  UNL     1      15.038  74.027  -1.429  1.00  0.00     0.169 HD
HETATM   25  O1  UNL     1      10.778  72.738  -3.798  1.00  0.00    -0.220 OA
ENDBRANCH  16  17
ENDBRANCH  15  16
ENDBRANCH  13  14
ENDBRANCH   1  13
BRANCH   3  26
HETATM   26  O4  UNL     1      15.681  77.163  -2.185  1.00  0.00    -0.357 OA
ATOM     27  H4  UNL     1      16.331  76.879  -1.552  1.00  0.00     0.217 HD
ENDBRANCH   3  26
BRANCH   9  28
HETATM   28  C17 UNL     1      15.144  80.741  -6.536  1.00  0.00     0.267 C 
HETATM   29  O8  UNL     1      15.403  80.653  -7.726  1.00  0.00    -0.265 OA
BRANCH  28  30
HETATM   30  O9  UNL     1      16.102  81.302  -5.709  1.00  0.00    -0.326 OA
HETATM   31  C18 UNL     1      16.513  82.654  -5.935  1.00  0.00     0.213 C 
ENDBRANCH  28  30
ENDBRANCH   9  28
BRANCH   4  32
HETATM   32  O5  UNL     1      16.180  78.730  -0.070  1.00  0.00    -0.356 OA
ATOM     33  H5  UNL     1      16.196  79.228   0.739  1.00  0.00     0.218 HD
ENDBRANCH   4  32
BRANCH   6  34
HETATM   34  O7  UNL     1      14.401  82.481  -2.334  1.00  0.00    -0.357 OA
ATOM     35  H7  UNL     1      13.904  82.803  -3.077  1.00  0.00     0.217 HD
ENDBRANCH   6  34
BRANCH   5  36
HETATM   36  O6  UNL     1      15.520  81.450  -0.109  1.00  0.00    -0.351 OA
HETATM   37  C12 UNL     1      14.733  81.554   1.065  1.00  0.00     0.210 C 
ENDBRANCH   5  36
TORSDOF 10
ENDMDL
MODEL 4
REMARK VINA RESULT: -7.641603104      3.987      8.608
REMARK  10 active torsions:
REMARK  status: ('A' for Active; 'I' for Inactive)
REMARK       I    between atoms: N1_2  and  C2_3 
REMARK       I    between atoms: C2_3  and  N2_4 
REMARK       I    between atoms: C2_3  and  N3_7 
REMARK       I    between atoms: N3_7  and  C4_8 
REMARK    1  A    between atoms: C4_8  and  O2_10 
REMARK    2  A    between atoms: O2_10  and  C5_11 
REMARK    3  A    between atoms: C6_12  and  O3_13 
REMARK    4  A    between atoms: O3_13  and  C7_14 
REMARK    5  A    between atoms: C9_16  and  O4_17 
REMARK    6  A    between atoms: C10_19  and  O5_20 
REMARK    7  A    between atoms: C11_22  and  O6_23 
REMARK    8  A    between atoms: C13_25  and  O7_26 
REMARK    9  A    between atoms: C16_30  and  C17_31 
REMARK   10  A    between atoms: C17_31  and  O9_33 
ROOT
HETATM    1  C7  UNL     1      12.671  76.218  -5.090  1.00  0.00     0.075 C 
HETATM    2  C8  UNL     1      13.675  76.160  -4.265  1.00  0.00     0.043 A 
HETATM    3  C9  UNL     1      14.111  74.978  -3.682  1.00  0.00     0.115 A 
HETATM    4  C10 UNL     1      15.234  74.933  -2.864  1.00  0.00     0.136 A 
HETATM    5  C11 UNL     1      15.989  76.035  -2.575  1.00  0.00     0.138 A 
HETATM    6  C13 UNL     1      15.568  77.215  -3.169  1.00  0.00     0.113 A 
HETATM    7  C14 UNL     1      14.466  77.286  -3.992  1.00  0.00     0.013 A 
HETATM    8  C15 UNL     1      14.246  78.418  -4.612  1.00  0.00     0.004 C 
HETATM    9  C16 UNL     1      13.197  78.615  -5.673  1.00  0.00     0.123 C 
HETATM   10  C19 UNL     1      12.202  77.529  -5.661  1.00  0.00     0.019 C 
HETATM   11  C20 UNL     1      11.474  77.347  -6.971  1.00  0.00     0.023 C 
HETATM   12  C21 UNL     1      11.108  78.026  -4.671  1.00  0.00     0.023 C 
ENDROOT
BRANCH   1  13
HETATM   13  O3  UNL     1      11.925  75.109  -5.491  1.00  0.00    -0.323 OA
BRANCH  13  14
HETATM   14  C6  UNL     1      10.760  74.663  -4.946  1.00  0.00     0.167 C 
HETATM   15  C5  UNL     1      10.042  73.642  -4.677  1.00  0.00     0.173 C 
BRANCH  15  16
HETATM   16  O2  UNL     1       8.794  73.725  -4.049  1.00  0.00    -0.260 OA
BRANCH  16  17
HETATM   17  C4  UNL     1       7.565  73.381  -4.563  1.00  0.00     0.448 C 
HETATM   18  N3  UNL     1       6.936  74.119  -5.579  1.00  0.00    -0.296 NA
HETATM   19  C2  UNL     1       6.350  74.797  -6.515  1.00  0.00     0.338 C 
HETATM   20  N1  UNL     1       5.841  75.390  -7.333  1.00  0.00    -0.384 NA
HETATM   21  N2  UNL     1       7.903  75.503  -7.078  1.00  0.00    -0.324 N 
HETATM   22  C1  UNL     1       5.024  75.982  -8.208  1.00  0.00     0.234 C 
HETATM   23  C3  UNL     1       8.481  74.576  -7.897  1.00  0.00     0.123 C 
ATOM     24  H2  UNL     1       8.280  76.418  -6.833  1.00  0.00     0.169 HD
HETATM   25  O1  UNL     1       6.940  72.392  -4.110  1.00  0.00    -0.220 OA
ENDBRANCH  16  17
ENDBRANCH  15  16
ENDBRANCH  13  14
ENDBRANCH   1  13
BRANCH   3  26
HETATM   26  O4  UNL     1      13.452  73.790  -3.895  1.00  0.00    -0.357 OA
ATOM     27  H4  UNL     1      13.642  73.018  -3.374  1.00  0.00     0.217 HD
ENDBRANCH   3  26
BRANCH   9  28
HETATM   28  C17 UNL     1      14.065  78.532  -6.922  1.00  0.00     0.267 C 
HETATM   29  O8  UNL     1      14.715  77.567  -7.294  1.00  0.00    -0.265 OA
BRANCH  28  30
HETATM   30  O9  UNL     1      14.109  79.676  -7.699  1.00  0.00    -0.326 OA
HETATM   31  C18 UNL     1      14.992  80.739  -7.326  1.00  0.00     0.213 C 
ENDBRANCH  28  30
ENDBRANCH   9  28
BRANCH   4  32
HETATM   32  O5  UNL     1      15.608  73.709  -2.308  1.00  0.00    -0.356 OA
ATOM     33  H5  UNL     1      16.294  73.697  -1.651  1.00  0.00     0.218 HD
ENDBRANCH   4  32
BRANCH   6  34
HETATM   34  O7  UNL     1      16.313  78.348  -2.904  1.00  0.00    -0.357 OA
ATOM     35  H7  UNL     1      15.856  79.077  -2.504  1.00  0.00     0.217 HD
ENDBRANCH   6  34
BRANCH   5  36
HETATM   36  O6  UNL     1      17.082  76.027  -1.768  1.00  0.00    -0.351 OA
HETATM   37  C12 UNL     1      18.393  75.625  -2.126  1.00  0.00     0.210 C 
ENDBRANCH   5  36
TORSDOF 10
ENDMDL
MODEL 5
REMARK VINA RESULT: -7.461451990      1.149      1.367
REMARK  10 active torsions:
REMARK  status: ('A' for Active; 'I' for Inactive)
REMARK       I    between atoms: N1_2  and  C2_3 
REMARK       I    between atoms: C2_3  and  N2_4 
REMARK       I    between atoms: C2_3  and  N3_7 
REMARK       I    between atoms: N3_7  and  C4_8 
REMARK    1  A    between atoms: C4_8  and  O2_10 
REMARK    2  A    between atoms: O2_10  and  C5_11 
REMARK    3  A    between atoms: C6_12  and  O3_13 
REMARK    4  A    between atoms: O3_13  and  C7_14 
REMARK    5  A    between atoms: C9_16  and  O4_17 
REMARK    6  A    between atoms: C10_19  and  O5_20 
REMARK    7  A    between atoms: C11_22  and  O6_23 
REMARK    8  A    between atoms: C13_25  and  O7_26 
REMARK    9  A    between atoms: C16_30  and  C17_31 
REMARK   10  A    between atoms: C17_31  and  O9_33 
ROOT
HETATM    1  C7  UNL     1      12.931  75.946  -4.789  1.00  0.00     0.075 C 
HETATM    2  C8  UNL     1      11.774  75.484  -5.164  1.00  0.00     0.043 A 
HETATM    3  C9  UNL     1      11.220  75.747  -6.409  1.00  0.00     0.115 A 
HETATM    4  C10 UNL     1      10.018  75.178  -6.813  1.00  0.00     0.136 A 
HETATM    5  C11 UNL     1       9.298  74.324  -6.026  1.00  0.00     0.138 A 
HETATM    6  C13 UNL     1       9.856  74.044  -4.788  1.00  0.00     0.113 A 
HETATM    7  C14 UNL     1      11.050  74.585  -4.367  1.00  0.00     0.013 A 
HETATM    8  C15 UNL     1      11.553  74.140  -3.244  1.00  0.00     0.004 C 
HETATM    9  C16 UNL     1      12.923  74.492  -2.728  1.00  0.00     0.123 C 
HETATM   10  C19 UNL     1      13.473  75.675  -3.412  1.00  0.00     0.019 C 
HETATM   11  C20 UNL     1      14.978  75.768  -3.368  1.00  0.00     0.023 C 
HETATM   12  C21 UNL     1      12.982  76.875  -2.549  1.00  0.00     0.023 C 
ENDROOT
BRANCH   1  13
HETATM   13  O3  UNL     1      13.749  76.746  -5.589  1.00  0.00    -0.323 OA
BRANCH  13  14
HETATM   14  C6  UNL     1      13.859  78.102  -5.552  1.00  0.00     0.167 C 
HETATM   15  C5  UNL     1      13.255  79.205  -5.338  1.00  0.00     0.173 C 
BRANCH  15  16
HETATM   16  O2  UNL     1      13.875  80.456  -5.448  1.00  0.00    -0.260 OA
BRANCH  16  17
HETATM   17  C4  UNL     1      15.210  80.721  -5.651  1.00  0.00     0.448 C 
HETATM   18  N3  UNL     1      16.092  81.016  -4.599  1.00  0.00    -0.296 NA
HETATM   19  C2  UNL     1      16.911  81.290  -3.632  1.00  0.00     0.338 C 
HETATM   20  N1  UNL     1      17.623  81.528  -2.787  1.00  0.00    -0.384 NA
HETATM   21  N2  UNL     1      15.861  80.485  -2.417  1.00  0.00    -0.324 N 
HETATM   22  C1  UNL     1      18.606  81.921  -1.972  1.00  0.00     0.234 C 
HETATM   23  C3  UNL     1      16.139  79.150  -2.481  1.00  0.00     0.123 C 
ATOM     24  H2  UNL     1      15.188  80.938  -1.799  1.00  0.00     0.169 HD
HETATM   25  O1  UNL     1      15.685  80.739  -6.812  1.00  0.00    -0.220 OA
ENDBRANCH  16  17
ENDBRANCH  15  16
ENDBRANCH  13  14
ENDBRANCH   1  13
BRANCH   3  26
HETATM   26  O4  UNL     1      11.843  76.581  -7.308  1.00  0.00    -0.357 OA
ATOM     27  H4  UNL     1      11.999  76.312  -8.206  1.00  0.00     0.217 HD
ENDBRANCH   3  26
BRANCH   9  28
HETATM   28  C17 UNL     1      13.688  73.238  -3.132  1.00  0.00     0.267 C 
HETATM   29  O8  UNL     1      13.525  72.581  -4.148  1.00  0.00    -0.265 OA
BRANCH  28  30
HETATM   30  O9  UNL     1      14.660  72.816  -2.241  1.00  0.00    -0.326 OA
HETATM   31  C18 UNL     1      14.522  73.138  -0.854  1.00  0.00     0.213 C 
ENDBRANCH  28  30
ENDBRANCH   9  28
BRANCH   4  32
HETATM   32  O5  UNL     1       9.519  75.494  -8.077  1.00  0.00    -0.356 OA
ATOM     33  H5  UNL     1       8.808  74.972  -8.430  1.00  0.00     0.218 HD
ENDBRANCH   4  32
BRANCH   6  34
HETATM   34  O7  UNL     1       9.157  73.178  -3.969  1.00  0.00    -0.357 OA
ATOM     35  H7  UNL     1       9.455  73.103  -3.071  1.00  0.00     0.217 HD
ENDBRANCH   6  34
BRANCH   5  36
HETATM   36  O6  UNL     1       8.112  73.763  -6.384  1.00  0.00    -0.351 OA
HETATM   37  C12 UNL     1       6.829  74.354  -6.263  1.00  0.00     0.210 C 
ENDBRANCH   5  36
TORSDOF 10
ENDMDL
