MODEL 1
REMARK VINA RESULT: -8.220647183      0.000      0.000
REMARK  8 active torsions:
REMARK  status: ('A' for Active; 'I' for Inactive)
REMARK    1  A    between atoms: C3_4  and  O2_5 
REMARK    2  A    between atoms: C4_7  and  S1_8 
REMARK    3  A    between atoms: S1_8  and  N1_11 
REMARK    4  A    between atoms: C7_14  and  N2_15 
REMARK    5  A    between atoms: N2_15  and  C8_17 
REMARK    6  A    between atoms: C9_18  and  O5_19 
REMARK    7  A    between atoms: C14_26  and  S2_27 
REMARK    8  A    between atoms: S2_27  and  N4_28 
ROOT
HETATM    1  C8  UNL     1      10.399  75.527  -6.322  1.00  0.00     0.084 A 
HETATM    2  C9  UNL     1      10.529  76.782  -6.885  1.00  0.00     0.095 A 
HETATM    3  C10 UNL     1      11.469  77.597  -6.288  1.00  0.00     0.066 A 
HETATM    4  C11 UNL     1      12.246  77.240  -5.211  1.00  0.00     0.060 A 
HETATM    5  N3  UNL     1      13.183  78.196  -4.696  1.00  0.00    -0.101 NA
HETATM    6  C12 UNL     1      12.108  75.959  -4.642  1.00  0.00     0.010 A 
HETATM    7  C13 UNL     1      12.789  75.460  -3.593  1.00  0.00     0.047 A 
HETATM    8  C14 UNL     1      12.497  74.182  -3.198  1.00  0.00     0.121 A 
HETATM    9  S3  UNL     1      11.284  73.713  -4.301  1.00  0.00    -0.073 SA
HETATM   10  C15 UNL     1      11.182  75.147  -5.225  1.00  0.00     0.048 A 
ENDROOT
BRANCH   1  11
HETATM   11  N2  UNL     1       9.489  74.587  -6.821  1.00  0.00    -0.349 N 
ATOM     12  H2  UNL     1       9.862  73.830  -7.393  1.00  0.00     0.166 HD
BRANCH  11  13
HETATM   13  C7  UNL     1       8.082  74.605  -6.592  1.00  0.00     0.090 A 
HETATM   14  C2  UNL     1       7.440  74.238  -5.411  1.00  0.00     0.080 A 
HETATM   15  C1  UNL     1       8.174  73.758  -4.194  1.00  0.00     0.079 C 
HETATM   16  O1  UNL     1       6.164  74.396  -5.592  1.00  0.00    -0.289 OA
HETATM   17  C3  UNL     1       5.889  74.832  -6.778  1.00  0.00     0.209 A 
HETATM   18  C4  UNL     1       7.090  74.985  -7.464  1.00  0.00     0.161 A 
BRANCH  17  19
HETATM   19  O2  UNL     1       4.646  75.126  -7.356  1.00  0.00    -0.339 OA
ATOM     20  H2  UNL     1       4.446  75.495  -8.208  1.00  0.00     0.220 HD
ENDBRANCH  17  19
BRANCH  18  21
HETATM   21  S1  UNL     1       7.303  75.553  -9.104  1.00  0.00     0.250 S 
HETATM   22  O3  UNL     1       8.648  75.211  -9.671  1.00  0.00    -0.205 OA
HETATM   23  O4  UNL     1       6.263  75.004 -10.025  1.00  0.00    -0.205 OA
BRANCH  21  24
HETATM   24  N1  UNL     1       7.180  77.285  -9.160  1.00  0.00    -0.215 NA
HETATM   25  C5  UNL     1       7.953  77.827 -10.252  1.00  0.00     0.129 C 
HETATM   26  C6  UNL     1       5.787  77.629  -9.378  1.00  0.00     0.129 C 
ENDBRANCH  21  24
ENDBRANCH  18  21
ENDBRANCH  11  13
ENDBRANCH   1  11
BRANCH   2  27
HETATM   27  O5  UNL     1       9.777  77.191  -7.964  1.00  0.00    -0.358 OA
ATOM     28  H5  UNL     1      10.008  76.974  -8.859  1.00  0.00     0.217 HD
ENDBRANCH   2  27
BRANCH   8  29
HETATM   29  S2  UNL     1      13.201  73.248  -1.877  1.00  0.00     0.263 S 
HETATM   30  O6  UNL     1      12.326  72.057  -1.619  1.00  0.00    -0.200 OA
HETATM   31  O7  UNL     1      14.541  72.770  -2.289  1.00  0.00    -0.200 OA
BRANCH  29  32
HETATM   32  N4  UNL     1      13.328  74.231  -0.501  1.00  0.00    -0.324 N 
ATOM     33  H42 UNL     1      13.150  75.236  -0.489  1.00  0.00     0.169 HD
ATOM     34  H41 UNL     1      13.606  73.660   0.297  1.00  0.00     0.169 HD
ENDBRANCH  29  32
ENDBRANCH   8  29
TORSDOF 8
ENDMDL
MODEL 2
REMARK VINA RESULT: -7.955056476      2.540      7.359
REMARK  8 active torsions:
REMARK  status: ('A' for Active; 'I' for Inactive)
REMARK    1  A    between atoms: C3_4  and  O2_5 
REMARK    2  A    between atoms: C4_7  and  S1_8 
REMARK    3  A    between atoms: S1_8  and  N1_11 
REMARK    4  A    between atoms: C7_14  and  N2_15 
REMARK    5  A    between atoms: N2_15  and  C8_17 
REMARK    6  A    between atoms: C9_18  and  O5_19 
REMARK    7  A    between atoms: C14_26  and  S2_27 
REMARK    8  A    between atoms: S2_27  and  N4_28 
ROOT
HETATM    1  C8  UNL     1      11.708  76.872  -4.830  1.00  0.00     0.084 A 
HETATM    2  C9  UNL     1      12.823  77.660  -4.618  1.00  0.00     0.095 A 
HETATM    3  C10 UNL     1      13.148  78.507  -5.657  1.00  0.00     0.066 A 
HETATM    4  C11 UNL     1      12.450  78.602  -6.838  1.00  0.00     0.060 A 
HETATM    5  N3  UNL     1      12.908  79.531  -7.830  1.00  0.00    -0.101 NA
HETATM    6  C12 UNL     1      11.314  77.797  -7.047  1.00  0.00     0.010 A 
HETATM    7  C13 UNL     1      10.527  77.771  -8.140  1.00  0.00     0.047 A 
HETATM    8  C14 UNL     1       9.466  76.906  -8.137  1.00  0.00     0.121 A 
HETATM    9  S3  UNL     1       9.594  76.156  -6.612  1.00  0.00    -0.073 SA
HETATM   10  C15 UNL     1      10.986  76.956  -6.026  1.00  0.00     0.048 A 
ENDROOT
BRANCH   1  11
HETATM   11  N2  UNL     1      11.253  75.965  -3.865  1.00  0.00    -0.349 N 
ATOM     12  H2  UNL     1      10.829  76.351  -3.021  1.00  0.00     0.166 HD
BRANCH  11  13
HETATM   13  C7  UNL     1      11.335  74.545  -3.968  1.00  0.00     0.090 A 
HETATM   14  C2  UNL     1      10.299  73.690  -4.336  1.00  0.00     0.080 A 
HETATM   15  C1  UNL     1       8.920  74.172  -4.675  1.00  0.00     0.079 C 
HETATM   16  O1  UNL     1      10.766  72.478  -4.319  1.00  0.00    -0.289 OA
HETATM   17  C3  UNL     1      12.012  72.439  -3.976  1.00  0.00     0.209 A 
HETATM   18  C4  UNL     1      12.430  73.746  -3.740  1.00  0.00     0.161 A 
BRANCH  17  19
HETATM   19  O2  UNL     1      12.867  71.336  -3.841  1.00  0.00    -0.339 OA
ATOM     20  H2  UNL     1      13.817  71.304  -3.830  1.00  0.00     0.220 HD
ENDBRANCH  17  19
BRANCH  18  21
HETATM   21  S1  UNL     1      14.025  74.271  -3.255  1.00  0.00     0.250 S 
HETATM   22  O3  UNL     1      14.767  74.974  -4.352  1.00  0.00    -0.205 OA
HETATM   23  O4  UNL     1      13.978  75.183  -2.073  1.00  0.00    -0.205 OA
BRANCH  21  24
HETATM   24  N1  UNL     1      14.999  72.901  -2.813  1.00  0.00    -0.215 NA
HETATM   25  C5  UNL     1      16.207  72.846  -3.602  1.00  0.00     0.129 C 
HETATM   26  C6  UNL     1      15.375  73.050  -1.419  1.00  0.00     0.129 C 
ENDBRANCH  21  24
ENDBRANCH  18  21
ENDBRANCH  11  13
ENDBRANCH   1  11
BRANCH   2  27
HETATM   27  O5  UNL     1      13.559  77.604  -3.454  1.00  0.00    -0.358 OA
ATOM     28  H5  UNL     1      14.494  77.439  -3.449  1.00  0.00     0.217 HD
ENDBRANCH   2  27
BRANCH   8  29
HETATM   29  S2  UNL     1       8.261  76.635  -9.397  1.00  0.00     0.263 S 
HETATM   30  O6  UNL     1       8.465  77.656 -10.477  1.00  0.00    -0.200 OA
HETATM   31  O7  UNL     1       8.468  75.287  -9.976  1.00  0.00    -0.200 OA
BRANCH  29  32
HETATM   32  N4  UNL     1       6.709  76.750  -8.723  1.00  0.00    -0.324 N 
ATOM     33  H42 UNL     1       6.284  76.042  -8.122  1.00  0.00     0.169 HD
ATOM     34  H41 UNL     1       6.279  77.628  -9.014  1.00  0.00     0.169 HD
ENDBRANCH  29  32
ENDBRANCH   8  29
TORSDOF 8
ENDMDL
MODEL 3
REMARK VINA RESULT: -7.705825705      3.409      8.399
REMARK  8 active torsions:
REMARK  status: ('A' for Active; 'I' for Inactive)
REMARK    1  A    between atoms: C3_4  and  O2_5 
REMARK    2  A    between atoms: C4_7  and  S1_8 
REMARK    3  A    between atoms: S1_8  and  N1_11 
REMARK    4  A    between atoms: C7_14  and  N2_15 
REMARK    5  A    between atoms: N2_15  and  C8_17 
REMARK    6  A    between atoms: C9_18  and  O5_19 
REMARK    7  A    between atoms: C14_26  and  S2_27 
REMARK    8  A    between atoms: S2_27  and  N4_28 
ROOT
HETATM    1  C8  UNL     1      12.589  76.098  -5.210  1.00  0.00     0.084 A 
HETATM    2  C9  UNL     1      12.662  75.323  -4.068  1.00  0.00     0.095 A 
HETATM    3  C10 UNL     1      11.575  74.504  -3.846  1.00  0.00     0.066 A 
HETATM    4  C11 UNL     1      10.474  74.423  -4.667  1.00  0.00     0.060 A 
HETATM    5  N3  UNL     1       9.417  73.522  -4.306  1.00  0.00    -0.101 NA
HETATM    6  C12 UNL     1      10.407  75.215  -5.829  1.00  0.00     0.010 A 
HETATM    7  C13 UNL     1       9.405  75.253  -6.729  1.00  0.00     0.047 A 
HETATM    8  C14 UNL     1       9.542  76.100  -7.795  1.00  0.00     0.121 A 
HETATM    9  S3  UNL     1      11.062  76.820  -7.512  1.00  0.00    -0.073 SA
HETATM   10  C15 UNL     1      11.476  76.029  -6.055  1.00  0.00     0.048 A 
ENDROOT
BRANCH   1  11
HETATM   11  N2  UNL     1      13.618  76.977  -5.570  1.00  0.00    -0.349 N 
ATOM     12  H2  UNL     1      14.403  76.592  -6.095  1.00  0.00     0.166 HD
BRANCH  11  13
HETATM   13  C7  UNL     1      13.656  78.369  -5.260  1.00  0.00     0.090 A 
HETATM   14  C2  UNL     1      13.127  79.395  -6.040  1.00  0.00     0.080 A 
HETATM   15  C1  UNL     1      12.434  79.157  -7.348  1.00  0.00     0.079 C 
HETATM   16  O1  UNL     1      13.354  80.514  -5.421  1.00  0.00    -0.289 OA
HETATM   17  C3  UNL     1      13.982  80.337  -4.305  1.00  0.00     0.209 A 
HETATM   18  C4  UNL     1      14.201  78.971  -4.152  1.00  0.00     0.161 A 
BRANCH  17  19
HETATM   19  O2  UNL     1      14.407  81.282  -3.359  1.00  0.00    -0.339 OA
ATOM     20  H2  UNL     1      15.226  81.334  -2.881  1.00  0.00     0.220 HD
ENDBRANCH  17  19
BRANCH  18  21
HETATM   21  S1  UNL     1      15.002  78.175  -2.817  1.00  0.00     0.250 S 
HETATM   22  O3  UNL     1      14.045  77.650  -1.790  1.00  0.00    -0.205 OA
HETATM   23  O4  UNL     1      15.855  77.038  -3.275  1.00  0.00    -0.205 OA
BRANCH  21  24
HETATM   24  N1  UNL     1      16.037  79.296  -1.985  1.00  0.00    -0.215 NA
HETATM   25  C5  UNL     1      16.248  78.890  -0.615  1.00  0.00     0.129 C 
HETATM   26  C6  UNL     1      17.323  79.302  -2.658  1.00  0.00     0.129 C 
ENDBRANCH  21  24
ENDBRANCH  18  21
ENDBRANCH  11  13
ENDBRANCH   1  11
BRANCH   2  27
HETATM   27  O5  UNL     1      13.741  75.365  -3.212  1.00  0.00    -0.358 OA
ATOM     28  H5  UNL     1      13.850  76.047  -2.561  1.00  0.00     0.217 HD
ENDBRANCH   2  27
BRANCH   8  29
HETATM   29  S2  UNL     1       8.425  76.380  -9.132  1.00  0.00     0.263 S 
HETATM   30  O6  UNL     1       8.970  77.491  -9.980  1.00  0.00    -0.200 OA
HETATM   31  O7  UNL     1       8.345  75.152  -9.955  1.00  0.00    -0.200 OA
BRANCH  29  32
HETATM   32  N4  UNL     1       6.895  76.770  -8.511  1.00  0.00    -0.324 N 
ATOM     33  H42 UNL     1       6.015  76.629  -9.009  1.00  0.00     0.169 HD
ATOM     34  H41 UNL     1       7.000  77.162  -7.575  1.00  0.00     0.169 HD
ENDBRANCH  29  32
ENDBRANCH   8  29
TORSDOF 8
ENDMDL
MODEL 4
REMARK VINA RESULT: -7.506616474      4.201      6.714
REMARK  8 active torsions:
REMARK  status: ('A' for Active; 'I' for Inactive)
REMARK    1  A    between atoms: C3_4  and  O2_5 
REMARK    2  A    between atoms: C4_7  and  S1_8 
REMARK    3  A    between atoms: S1_8  and  N1_11 
REMARK    4  A    between atoms: C7_14  and  N2_15 
REMARK    5  A    between atoms: N2_15  and  C8_17 
REMARK    6  A    between atoms: C9_18  and  O5_19 
REMARK    7  A    between atoms: C14_26  and  S2_27 
REMARK    8  A    between atoms: S2_27  and  N4_28 
ROOT
HETATM    1  C8  UNL     1      14.366  77.317  -4.379  1.00  0.00     0.084 A 
HETATM    2  C9  UNL     1      14.834  78.125  -5.398  1.00  0.00     0.095 A 
HETATM    3  C10 UNL     1      15.149  79.416  -5.024  1.00  0.00     0.066 A 
HETATM    4  C11 UNL     1      15.025  79.914  -3.748  1.00  0.00     0.060 A 
HETATM    5  N3  UNL     1      15.392  81.280  -3.509  1.00  0.00    -0.101 NA
HETATM    6  C12 UNL     1      14.547  79.085  -2.715  1.00  0.00     0.010 A 
HETATM    7  C13 UNL     1      14.369  79.420  -1.423  1.00  0.00     0.047 A 
HETATM    8  C14 UNL     1      13.890  78.454  -0.578  1.00  0.00     0.121 A 
HETATM    9  S3  UNL     1      13.702  77.109  -1.609  1.00  0.00    -0.073 SA
HETATM   10  C15 UNL     1      14.233  77.809  -3.075  1.00  0.00     0.048 A 
ENDROOT
BRANCH   1  11
HETATM   11  N2  UNL     1      14.009  75.982  -4.604  1.00  0.00    -0.349 N 
ATOM     12  H2  UNL     1      14.764  75.314  -4.759  1.00  0.00     0.166 HD
BRANCH  11  13
HETATM   13  C7  UNL     1      12.674  75.483  -4.634  1.00  0.00     0.090 A 
HETATM   14  C2  UNL     1      11.579  76.109  -5.226  1.00  0.00     0.080 A 
HETATM   15  C1  UNL     1      11.671  77.433  -5.924  1.00  0.00     0.079 C 
HETATM   16  O1  UNL     1      10.545  75.343  -5.047  1.00  0.00    -0.289 OA
HETATM   17  C3  UNL     1      10.842  74.266  -4.395  1.00  0.00     0.209 A 
HETATM   18  C4  UNL     1      12.202  74.306  -4.104  1.00  0.00     0.161 A 
BRANCH  17  19
HETATM   19  O2  UNL     1      10.015  73.202  -4.005  1.00  0.00    -0.339 OA
ATOM     20  H2  UNL     1       9.280  73.195  -3.405  1.00  0.00     0.220 HD
ENDBRANCH  17  19
BRANCH  18  21
HETATM   21  S1  UNL     1      13.131  73.100  -3.244  1.00  0.00     0.250 S 
HETATM   22  O3  UNL     1      12.479  72.661  -1.967  1.00  0.00    -0.205 OA
HETATM   23  O4  UNL     1      13.378  71.885  -4.077  1.00  0.00    -0.205 OA
BRANCH  21  24
HETATM   24  N1  UNL     1      14.682  73.745  -2.798  1.00  0.00    -0.215 NA
HETATM   25  C5  UNL     1      14.924  73.585  -1.383  1.00  0.00     0.129 C 
HETATM   26  C6  UNL     1      15.700  73.001  -3.517  1.00  0.00     0.129 C 
ENDBRANCH  21  24
ENDBRANCH  18  21
ENDBRANCH  11  13
ENDBRANCH   1  11
BRANCH   2  27
HETATM   27  O5  UNL     1      14.978  77.677  -6.692  1.00  0.00    -0.358 OA
ATOM     28  H5  UNL     1      14.660  78.167  -7.441  1.00  0.00     0.217 HD
ENDBRANCH   2  27
BRANCH   8  29
HETATM   29  S2  UNL     1      13.551  78.570   1.149  1.00  0.00     0.263 S 
HETATM   30  O6  UNL     1      14.308  77.485   1.855  1.00  0.00    -0.200 OA
HETATM   31  O7  UNL     1      14.030  79.881   1.645  1.00  0.00    -0.200 OA
BRANCH  29  32
HETATM   32  N4  UNL     1      11.880  78.424   1.403  1.00  0.00    -0.324 N 
ATOM     33  H42 UNL     1      11.303  79.118   1.880  1.00  0.00     0.169 HD
ATOM     34  H41 UNL     1      11.554  77.542   1.007  1.00  0.00     0.169 HD
ENDBRANCH  29  32
ENDBRANCH   8  29
TORSDOF 8
ENDMDL
MODEL 5
REMARK VINA RESULT: -7.440808820      3.614      7.493
REMARK  8 active torsions:
REMARK  status: ('A' for Active; 'I' for Inactive)
REMARK    1  A    between atoms: C3_4  and  O2_5 
REMARK    2  A    between atoms: C4_7  and  S1_8 
REMARK    3  A    between atoms: S1_8  and  N1_11 
REMARK    4  A    between atoms: C7_14  and  N2_15 
REMARK    5  A    between atoms: N2_15  and  C8_17 
REMARK    6  A    between atoms: C9_18  and  O5_19 
REMARK    7  A    between atoms: C14_26  and  S2_27 
REMARK    8  A    between atoms: S2_27  and  N4_28 
ROOT
HETATM    1  C8  UNL     1      12.532  76.010  -4.353  1.00  0.00     0.084 A 
HETATM    2  C9  UNL     1      13.697  75.419  -3.905  1.00  0.00     0.095 A 
HETATM    3  C10 UNL     1      13.598  74.074  -3.613  1.00  0.00     0.066 A 
HETATM    4  C11 UNL     1      12.450  73.327  -3.740  1.00  0.00     0.060 A 
HETATM    5  N3  UNL     1      12.499  71.935  -3.398  1.00  0.00    -0.101 NA
HETATM    6  C12 UNL     1      11.266  73.936  -4.197  1.00  0.00     0.010 A 
HETATM    7  C13 UNL     1      10.067  73.347  -4.375  1.00  0.00     0.047 A 
HETATM    8  C14 UNL     1       9.039  74.127  -4.832  1.00  0.00     0.121 A 
HETATM    9  S3  UNL     1       9.772  75.657  -5.001  1.00  0.00    -0.073 SA
HETATM   10  C15 UNL     1      11.354  75.264  -4.488  1.00  0.00     0.048 A 
ENDROOT
BRANCH   1  11
HETATM   11  N2  UNL     1      12.477  77.367  -4.693  1.00  0.00    -0.349 N 
ATOM     12  H2  UNL     1      11.929  77.980  -4.090  1.00  0.00     0.166 HD
BRANCH  11  13
HETATM   13  C7  UNL     1      13.130  77.960  -5.814  1.00  0.00     0.090 A 
HETATM   14  C2  UNL     1      12.797  77.761  -7.152  1.00  0.00     0.080 A 
HETATM   15  C1  UNL     1      11.679  76.866  -7.596  1.00  0.00     0.079 C 
HETATM   16  O1  UNL     1      13.614  78.474  -7.869  1.00  0.00    -0.289 OA
HETATM   17  C3  UNL     1      14.459  79.129  -7.141  1.00  0.00     0.209 A 
HETATM   18  C4  UNL     1      14.190  78.834  -5.807  1.00  0.00     0.161 A 
BRANCH  17  19
HETATM   19  O2  UNL     1      15.489  79.997  -7.530  1.00  0.00    -0.339 OA
ATOM     20  H2  UNL     1      15.811  80.783  -7.105  1.00  0.00     0.220 HD
ENDBRANCH  17  19
BRANCH  18  21
HETATM   21  S1  UNL     1      15.026  79.452  -4.402  1.00  0.00     0.250 S 
HETATM   22  O3  UNL     1      14.599  78.787  -3.128  1.00  0.00    -0.205 OA
HETATM   23  O4  UNL     1      16.507  79.308  -4.523  1.00  0.00    -0.205 OA
BRANCH  21  24
HETATM   24  N1  UNL     1      14.687  81.145  -4.200  1.00  0.00    -0.215 NA
HETATM   25  C5  UNL     1      14.527  81.480  -2.805  1.00  0.00     0.129 C 
HETATM   26  C6  UNL     1      15.818  81.893  -4.718  1.00  0.00     0.129 C 
ENDBRANCH  21  24
ENDBRANCH  18  21
ENDBRANCH  11  13
ENDBRANCH   1  11
BRANCH   2  27
HETATM   27  O5  UNL     1      14.875  76.120  -3.760  1.00  0.00    -0.358 OA
ATOM     28  H5  UNL     1      15.599  76.032  -4.367  1.00  0.00     0.217 HD
ENDBRANCH   2  27
BRANCH   8  29
HETATM   29  S2  UNL     1       7.369  73.667  -5.164  1.00  0.00     0.263 S 
HETATM   30  O6  UNL     1       6.507  74.888  -5.042  1.00  0.00    -0.200 OA
HETATM   31  O7  UNL     1       7.279  73.161  -6.554  1.00  0.00    -0.200 OA
BRANCH  29  32
HETATM   32  N4  UNL     1       6.892  72.461  -4.070  1.00  0.00    -0.324 N 
ATOM     33  H42 UNL     1       6.063  71.875  -4.179  1.00  0.00     0.169 HD
ATOM     34  H41 UNL     1       7.559  72.421  -3.300  1.00  0.00     0.169 HD
ENDBRANCH  29  32
ENDBRANCH   8  29
TORSDOF 8
ENDMDL
