MODEL 1
REMARK VINA RESULT: -4.830949103      0.000      0.000
REMARK  5 active torsions:
REMARK  status: ('A' for Active; 'I' for Inactive)
REMARK    1  A    between atoms: N1_1  and  C1_4 
REMARK    2  A    between atoms: N5_17  and  C6_18 
REMARK    3  A    between atoms: C6_18  and  O3_19 
REMARK    4  A    between atoms: O3_19  and  C7_20 
REMARK    5  A    between atoms: C7_20  and  O4_21 
ROOT
HETATM    1  C1  UNL     1      -8.051  16.195  13.222  1.00  0.00     0.134 A 
HETATM    2  N2  UNL     1      -8.268  16.167  14.553  1.00  0.00    -0.293 N 
ATOM      3  H2  UNL     1      -8.921  16.820  14.985  1.00  0.00     0.172 HD
HETATM    4  C2  UNL     1      -7.616  15.272  15.294  1.00  0.00     0.327 A 
HETATM    5  O1  UNL     1      -7.819  15.245  16.548  1.00  0.00    -0.247 OA
HETATM    6  N3  UNL     1      -6.749  14.396  14.760  1.00  0.00    -0.292 N 
ATOM      7  H3  UNL     1      -6.273  13.730  15.370  1.00  0.00     0.172 HD
HETATM    8  C3  UNL     1      -6.492  14.379  13.428  1.00  0.00     0.148 A 
HETATM    9  C4  UNL     1      -7.163  15.303  12.653  1.00  0.00     0.125 A 
HETATM   10  N4  UNL     1      -6.751  15.098  11.381  1.00  0.00    -0.302 N 
ATOM     11  H4  UNL     1      -7.057  15.618  10.558  1.00  0.00     0.171 HD
HETATM   12  C5  UNL     1      -5.868  14.089  11.396  1.00  0.00     0.330 A 
HETATM   13  O2  UNL     1      -5.264  13.606  10.400  1.00  0.00    -0.246 OA
HETATM   14  N5  UNL     1      -5.698  13.638  12.642  1.00  0.00    -0.261 N 
ENDROOT
BRANCH  14  15
HETATM   15  C6  UNL     1      -4.856  12.579  13.129  1.00  0.00     0.307 C 
BRANCH  15  16
HETATM   16  O3  UNL     1      -5.173  11.336  12.594  1.00  0.00    -0.348 OA
BRANCH  16  17
HETATM   17  C7  UNL     1      -3.937  10.779  12.185  1.00  0.00     0.336 C 
BRANCH  17  18
HETATM   18  O4  UNL     1      -3.081  11.774  11.707  1.00  0.00    -0.377 OA
ATOM     19  H4  UNL     1      -2.969  12.461  12.355  1.00  0.00     0.212 HD
ENDBRANCH  17  18
ENDBRANCH  16  17
ENDBRANCH  15  16
ENDBRANCH  14  15
BRANCH   1  20
HETATM   20  N1  UNL     1      -8.687  17.064  12.524  1.00  0.00    -0.383 N 
ATOM     21  H12 UNL     1      -9.136  17.876  12.947  1.00  0.00     0.157 HD
ATOM     22  H11 UNL     1      -8.738  16.926  11.514  1.00  0.00     0.157 HD
ENDBRANCH   1  20
TORSDOF 5
ENDMDL
MODEL 2
REMARK VINA RESULT: -4.783279966      6.349      8.743
REMARK  5 active torsions:
REMARK  status: ('A' for Active; 'I' for Inactive)
REMARK    1  A    between atoms: N1_1  and  C1_4 
REMARK    2  A    between atoms: N5_17  and  C6_18 
REMARK    3  A    between atoms: C6_18  and  O3_19 
REMARK    4  A    between atoms: O3_19  and  C7_20 
REMARK    5  A    between atoms: C7_20  and  O4_21 
ROOT
HETATM    1  C1  UNL     1     -10.635  23.572  11.143  1.00  0.00     0.134 A 
HETATM    2  N2  UNL     1      -9.559  23.734  10.347  1.00  0.00    -0.293 N 
ATOM      3  H2  UNL     1      -9.573  24.417   9.591  1.00  0.00     0.172 HD
HETATM    4  C2  UNL     1      -8.477  22.988  10.565  1.00  0.00     0.327 A 
HETATM    5  O1  UNL     1      -7.462  23.140   9.815  1.00  0.00    -0.247 OA
HETATM    6  N3  UNL     1      -8.421  22.079  11.552  1.00  0.00    -0.292 N 
ATOM      7  H3  UNL     1      -7.570  21.531  11.678  1.00  0.00     0.172 HD
HETATM    8  C3  UNL     1      -9.473  21.873  12.383  1.00  0.00     0.148 A 
HETATM    9  C4  UNL     1     -10.599  22.642  12.164  1.00  0.00     0.125 A 
HETATM   10  N4  UNL     1     -11.501  22.266  13.100  1.00  0.00    -0.302 N 
ATOM     11  H4  UNL     1     -12.442  22.642  13.214  1.00  0.00     0.171 HD
HETATM   12  C5  UNL     1     -10.934  21.309  13.850  1.00  0.00     0.330 A 
HETATM   13  O2  UNL     1     -11.463  20.709  14.824  1.00  0.00    -0.246 OA
HETATM   14  N5  UNL     1      -9.693  21.056  13.423  1.00  0.00    -0.261 N 
ENDROOT
BRANCH  14  15
HETATM   15  C6  UNL     1      -8.724  20.119  13.920  1.00  0.00     0.307 C 
BRANCH  15  16
HETATM   16  O3  UNL     1      -8.268  19.234  12.950  1.00  0.00    -0.348 OA
BRANCH  16  17
HETATM   17  C7  UNL     1      -8.796  17.972  13.317  1.00  0.00     0.336 C 
BRANCH  17  18
HETATM   18  O4  UNL     1      -8.754  17.086  12.238  1.00  0.00    -0.377 OA
ATOM     19  H4  UNL     1      -9.626  16.939  11.890  1.00  0.00     0.212 HD
ENDBRANCH  17  18
ENDBRANCH  16  17
ENDBRANCH  15  16
ENDBRANCH  14  15
BRANCH   1  20
HETATM   20  N1  UNL     1     -11.669  24.299  10.919  1.00  0.00    -0.383 N 
ATOM     21  H12 UNL     1     -12.066  24.404   9.985  1.00  0.00     0.157 HD
ATOM     22  H11 UNL     1     -12.098  24.782  11.708  1.00  0.00     0.157 HD
ENDBRANCH   1  20
TORSDOF 5
ENDMDL
MODEL 3
REMARK VINA RESULT: -4.735494921      7.318      9.247
REMARK  5 active torsions:
REMARK  status: ('A' for Active; 'I' for Inactive)
REMARK    1  A    between atoms: N1_1  and  C1_4 
REMARK    2  A    between atoms: N5_17  and  C6_18 
REMARK    3  A    between atoms: C6_18  and  O3_19 
REMARK    4  A    between atoms: O3_19  and  C7_20 
REMARK    5  A    between atoms: C7_20  and  O4_21 
ROOT
HETATM    1  C1  UNL     1     -10.409  19.434  14.341  1.00  0.00     0.134 A 
HETATM    2  N2  UNL     1     -11.529  19.813  14.990  1.00  0.00    -0.293 N 
ATOM      3  H2  UNL     1     -11.945  19.209  15.700  1.00  0.00     0.172 HD
HETATM    4  C2  UNL     1     -12.084  20.986  14.690  1.00  0.00     0.327 A 
HETATM    5  O1  UNL     1     -13.140  21.343  15.302  1.00  0.00    -0.247 OA
HETATM    6  N3  UNL     1     -11.565  21.807  13.763  1.00  0.00    -0.292 N 
ATOM      7  H3  UNL     1     -12.027  22.695  13.568  1.00  0.00     0.172 HD
HETATM    8  C3  UNL     1     -10.440  21.478  13.079  1.00  0.00     0.148 A 
HETATM    9  C4  UNL     1      -9.859  20.264  13.384  1.00  0.00     0.125 A 
HETATM   10  N4  UNL     1      -8.770  20.156  12.587  1.00  0.00    -0.302 N 
ATOM     11  H4  UNL     1      -8.118  19.372  12.563  1.00  0.00     0.171 HD
HETATM   12  C5  UNL     1      -8.704  21.266  11.837  1.00  0.00     0.330 A 
HETATM   13  O2  UNL     1      -7.826  21.535  10.973  1.00  0.00    -0.246 OA
HETATM   14  N5  UNL     1      -9.719  22.085  12.125  1.00  0.00    -0.261 N 
ENDROOT
BRANCH  14  15
HETATM   15  C6  UNL     1     -10.046  23.372  11.574  1.00  0.00     0.307 C 
BRANCH  15  16
HETATM   16  O3  UNL     1     -10.641  23.298  10.320  1.00  0.00    -0.348 OA
BRANCH  16  17
HETATM   17  C7  UNL     1     -12.021  23.523  10.547  1.00  0.00     0.336 C 
BRANCH  17  18
HETATM   18  O4  UNL     1     -12.797  22.736   9.693  1.00  0.00    -0.377 OA
ATOM     19  H4  UNL     1     -13.606  23.181   9.469  1.00  0.00     0.212 HD
ENDBRANCH  17  18
ENDBRANCH  16  17
ENDBRANCH  15  16
ENDBRANCH  14  15
BRANCH   1  20
HETATM   20  N1  UNL     1      -9.889  18.300  14.643  1.00  0.00    -0.383 N 
ATOM     21  H12 UNL     1     -10.459  17.486  14.871  1.00  0.00     0.157 HD
ATOM     22  H11 UNL     1      -8.872  18.225  14.650  1.00  0.00     0.157 HD
ENDBRANCH   1  20
TORSDOF 5
ENDMDL
MODEL 4
REMARK VINA RESULT: -4.729590578      3.662      6.737
REMARK  5 active torsions:
REMARK  status: ('A' for Active; 'I' for Inactive)
REMARK    1  A    between atoms: N1_1  and  C1_4 
REMARK    2  A    between atoms: N5_17  and  C6_18 
REMARK    3  A    between atoms: C6_18  and  O3_19 
REMARK    4  A    between atoms: O3_19  and  C7_20 
REMARK    5  A    between atoms: C7_20  and  O4_21 
ROOT
HETATM    1  C1  UNL     1      -1.755   9.404  12.923  1.00  0.00     0.134 A 
HETATM    2  N2  UNL     1      -2.140   8.373  12.144  1.00  0.00    -0.293 N 
ATOM      3  H2  UNL     1      -1.581   7.521  12.099  1.00  0.00     0.172 HD
HETATM    4  C2  UNL     1      -3.261   8.484  11.433  1.00  0.00     0.327 A 
HETATM    5  O1  UNL     1      -3.625   7.513  10.698  1.00  0.00    -0.247 OA
HETATM    6  N3  UNL     1      -4.023   9.590  11.467  1.00  0.00    -0.292 N 
ATOM      7  H3  UNL     1      -4.873   9.627  10.905  1.00  0.00     0.172 HD
HETATM    8  C3  UNL     1      -3.685  10.657  12.234  1.00  0.00     0.148 A 
HETATM    9  C4  UNL     1      -2.524  10.550  12.972  1.00  0.00     0.125 A 
HETATM   10  N4  UNL     1      -2.396  11.717  13.644  1.00  0.00    -0.302 N 
ATOM     11  H4  UNL     1      -1.639  11.964  14.283  1.00  0.00     0.171 HD
HETATM   12  C5  UNL     1      -3.442  12.491  13.319  1.00  0.00     0.330 A 
HETATM   13  O2  UNL     1      -3.674  13.655  13.745  1.00  0.00    -0.246 OA
HETATM   14  N5  UNL     1      -4.240  11.857  12.456  1.00  0.00    -0.261 N 
ENDROOT
BRANCH  14  15
HETATM   15  C6  UNL     1      -5.462  12.297  11.841  1.00  0.00     0.307 C 
BRANCH  15  16
HETATM   16  O3  UNL     1      -5.261  13.182  10.788  1.00  0.00    -0.348 OA
BRANCH  16  17
HETATM   17  C7  UNL     1      -5.881  14.389  11.190  1.00  0.00     0.336 C 
BRANCH  17  18
HETATM   18  O4  UNL     1      -4.928  15.386  11.408  1.00  0.00    -0.377 OA
ATOM     19  H4  UNL     1      -4.671  15.791  10.588  1.00  0.00     0.212 HD
ENDBRANCH  17  18
ENDBRANCH  16  17
ENDBRANCH  15  16
ENDBRANCH  14  15
BRANCH   1  20
HETATM   20  N1  UNL     1      -0.672   9.279  13.600  1.00  0.00    -0.383 N 
ATOM     21  H12 UNL     1       0.163   8.840  13.212  1.00  0.00     0.157 HD
ATOM     22  H11 UNL     1      -0.658   9.635  14.556  1.00  0.00     0.157 HD
ENDBRANCH   1  20
TORSDOF 5
ENDMDL
MODEL 5
REMARK VINA RESULT: -4.714115230      1.495      3.287
REMARK  5 active torsions:
REMARK  status: ('A' for Active; 'I' for Inactive)
REMARK    1  A    between atoms: N1_1  and  C1_4 
REMARK    2  A    between atoms: N5_17  and  C6_18 
REMARK    3  A    between atoms: C6_18  and  O3_19 
REMARK    4  A    between atoms: O3_19  and  C7_20 
REMARK    5  A    between atoms: C7_20  and  O4_21 
ROOT
HETATM    1  C1  UNL     1      -7.085  15.374  13.347  1.00  0.00     0.134 A 
HETATM    2  N2  UNL     1      -6.650  15.604  12.092  1.00  0.00    -0.293 N 
ATOM      3  H2  UNL     1      -6.958  16.431  11.581  1.00  0.00     0.172 HD
HETATM    4  C2  UNL     1      -5.812  14.735  11.530  1.00  0.00     0.327 A 
HETATM    5  O1  UNL     1      -5.401  14.951  10.346  1.00  0.00    -0.247 OA
HETATM    6  N3  UNL     1      -5.384  13.635  12.171  1.00  0.00    -0.292 N 
ATOM      7  H3  UNL     1      -4.742  12.999  11.699  1.00  0.00     0.172 HD
HETATM    8  C3  UNL     1      -5.788  13.354  13.436  1.00  0.00     0.148 A 
HETATM    9  C4  UNL     1      -6.657  14.250  14.025  1.00  0.00     0.125 A 
HETATM   10  N4  UNL     1      -6.916  13.766  15.262  1.00  0.00    -0.302 N 
ATOM     11  H4  UNL     1      -7.526  14.192  15.960  1.00  0.00     0.171 HD
HETATM   12  C5  UNL     1      -6.227  12.624  15.405  1.00  0.00     0.330 A 
HETATM   13  O2  UNL     1      -6.210  11.881  16.424  1.00  0.00    -0.246 OA
HETATM   14  N5  UNL     1      -5.532  12.358  14.296  1.00  0.00    -0.261 N 
ENDROOT
BRANCH  14  15
HETATM   15  C6  UNL     1      -4.662  11.253  14.000  1.00  0.00     0.307 C 
BRANCH  15  16
HETATM   16  O3  UNL     1      -4.844  10.736  12.722  1.00  0.00    -0.348 OA
BRANCH  16  17
HETATM   17  C7  UNL     1      -3.540  10.495  12.227  1.00  0.00     0.336 C 
BRANCH  17  18
HETATM   18  O4  UNL     1      -2.938  11.688  11.819  1.00  0.00    -0.377 OA
ATOM     19  H4  UNL     1      -2.856  12.290  12.550  1.00  0.00     0.212 HD
ENDBRANCH  17  18
ENDBRANCH  16  17
ENDBRANCH  15  16
ENDBRANCH  14  15
BRANCH   1  20
HETATM   20  N1  UNL     1      -7.893  16.222  13.873  1.00  0.00    -0.383 N 
ATOM     21  H12 UNL     1      -7.880  17.211  13.621  1.00  0.00     0.157 HD
ATOM     22  H11 UNL     1      -8.564  15.884  14.563  1.00  0.00     0.157 HD
ENDBRANCH   1  20
TORSDOF 5
ENDMDL
