MODEL 1
REMARK VINA RESULT: -5.670823229      0.000      0.000
REMARK  8 active torsions:
REMARK  status: ('A' for Active; 'I' for Inactive)
REMARK    1  A    between atoms: C2_2  and  N1_3 
REMARK    2  A    between atoms: C2_2  and  N2_7 
REMARK    3  A    between atoms: C2_2  and  C5_23 
REMARK    4  A    between atoms: N2_7  and  C3_9 
REMARK    5  A    between atoms: N4_13  and  O2_14 
REMARK    6  A    between atoms: C4_16  and  N5_17 
REMARK    7  A    between atoms: N5_17  and  N6_18 
REMARK    8  A    between atoms: N5_17  and  O3_21 
ROOT
HETATM    1  C3  UNL     1      -5.654  14.391  13.548  1.00  0.00     0.173 A 
HETATM    2  N3  UNL     1      -6.634  14.201  14.445  1.00  0.00    -0.220 N 
ATOM      3  H3  UNL     1      -6.605  13.562  15.239  1.00  0.00     0.198 HD
HETATM    4  O1  UNL     1      -7.615  14.971  14.127  1.00  0.00    -0.125 OA
HETATM    5  N4  UNL     1      -7.351  15.668  13.065  1.00  0.00    -0.083 N 
HETATM    6  C4  UNL     1      -6.114  15.335  12.659  1.00  0.00     0.229 A 
ENDROOT
BRANCH   1   7
HETATM    7  N2  UNL     1      -4.525  13.826  13.507  1.00  0.00    -0.340 N 
ATOM      8  H2  UNL     1      -3.718  14.438  13.390  1.00  0.00     0.163 HD
BRANCH   7   9
HETATM    9  C2  UNL     1      -4.251  12.433  13.607  1.00  0.00     0.197 C 
HETATM   10  C1  UNL     1      -4.189  12.070  15.080  1.00  0.00     0.071 C 
BRANCH   9  11
HETATM   11  N1  UNL     1      -2.923  12.183  13.073  1.00  0.00    -0.053 N 
ATOM     12  H13 UNL     1      -2.361  13.028  12.971  1.00  0.00     0.277 HD
ATOM     13  H12 UNL     1      -2.306  11.702  13.727  1.00  0.00     0.277 HD
ATOM     14  H11 UNL     1      -3.060  11.678  12.197  1.00  0.00     0.277 HD
ENDBRANCH   9  11
BRANCH   9  15
HETATM   15  C5  UNL     1      -5.203  11.560  12.850  1.00  0.00     0.042 A 
HETATM   16  C6  UNL     1      -4.756  10.480  11.954  1.00  0.00     0.009 A 
HETATM   17  C7  UNL     1      -5.170  11.795  11.342  1.00  0.00     0.009 A 
ENDBRANCH   9  15
ENDBRANCH   7   9
ENDBRANCH   1   7
BRANCH   6  18
HETATM   18  N5  UNL     1      -5.470  15.894  11.519  1.00  0.00    -0.051 NA
BRANCH  18  19
HETATM   19  N6  UNL     1      -4.184  16.361  11.810  1.00  0.00    -0.335 NA
ATOM     20  H62 UNL     1      -4.028  17.197  11.247  1.00  0.00     0.173 HD
ATOM     21  H61 UNL     1      -3.467  15.655  11.639  1.00  0.00     0.173 HD
ENDBRANCH  18  19
BRANCH  18  22
HETATM   22  O3  UNL     1      -5.356  14.995  10.524  1.00  0.00    -0.288 OA
ATOM     23  H3  UNL     1      -5.750  15.312   9.720  1.00  0.00     0.239 HD
ENDBRANCH  18  22
ENDBRANCH   6  18
BRANCH   5  24
HETATM   24  O2  UNL     1      -8.217  16.568  12.505  1.00  0.00    -0.260 OA
ATOM     25  H2  UNL     1      -8.005  17.113  11.756  1.00  0.00     0.247 HD
ENDBRANCH   5  24
TORSDOF 8
ENDMDL
MODEL 2
REMARK VINA RESULT: -5.365320324      1.322      1.515
REMARK  8 active torsions:
REMARK  status: ('A' for Active; 'I' for Inactive)
REMARK    1  A    between atoms: C2_2  and  N1_3 
REMARK    2  A    between atoms: C2_2  and  N2_7 
REMARK    3  A    between atoms: C2_2  and  C5_23 
REMARK    4  A    between atoms: N2_7  and  C3_9 
REMARK    5  A    between atoms: N4_13  and  O2_14 
REMARK    6  A    between atoms: C4_16  and  N5_17 
REMARK    7  A    between atoms: N5_17  and  N6_18 
REMARK    8  A    between atoms: N5_17  and  O3_21 
ROOT
HETATM    1  C3  UNL     1      -6.937  14.788  13.665  1.00  0.00     0.173 A 
HETATM    2  N3  UNL     1      -7.666  15.058  14.758  1.00  0.00    -0.220 N 
ATOM      3  H3  UNL     1      -8.023  14.375  15.425  1.00  0.00     0.198 HD
HETATM    4  O1  UNL     1      -7.836  16.333  14.815  1.00  0.00    -0.125 OA
HETATM    5  N4  UNL     1      -7.260  16.936  13.821  1.00  0.00    -0.083 N 
HETATM    6  C4  UNL     1      -6.673  15.996  13.060  1.00  0.00     0.229 A 
ENDROOT
BRANCH   1   7
HETATM    7  N2  UNL     1      -6.554  13.657  13.252  1.00  0.00    -0.340 N 
ATOM      8  H2  UNL     1      -7.210  13.144  12.664  1.00  0.00     0.163 HD
BRANCH   7   9
HETATM    9  C2  UNL     1      -5.310  13.018  13.515  1.00  0.00     0.197 C 
HETATM   10  C1  UNL     1      -5.536  11.972  14.593  1.00  0.00     0.071 C 
BRANCH   9  11
HETATM   11  N1  UNL     1      -4.398  13.995  14.085  1.00  0.00    -0.053 N 
ATOM     12  H13 UNL     1      -3.836  13.626  14.852  1.00  0.00     0.277 HD
ATOM     13  H12 UNL     1      -3.623  14.237  13.468  1.00  0.00     0.277 HD
ATOM     14  H11 UNL     1      -4.971  14.796  14.351  1.00  0.00     0.277 HD
ENDBRANCH   9  11
BRANCH   9  15
HETATM   15  C5  UNL     1      -4.641  12.444  12.304  1.00  0.00     0.042 A 
HETATM   16  C6  UNL     1      -5.379  12.071  11.085  1.00  0.00     0.009 A 
HETATM   17  C7  UNL     1      -4.995  10.980  12.054  1.00  0.00     0.009 A 
ENDBRANCH   9  15
ENDBRANCH   7   9
ENDBRANCH   1   7
BRANCH   6  18
HETATM   18  N5  UNL     1      -5.939  16.273  11.873  1.00  0.00    -0.051 NA
BRANCH  18  19
HETATM   19  N6  UNL     1      -4.558  16.145  12.060  1.00  0.00    -0.335 NA
ATOM     20  H62 UNL     1      -4.156  17.081  12.017  1.00  0.00     0.173 HD
ATOM     21  H61 UNL     1      -4.130  15.522  11.375  1.00  0.00     0.173 HD
ENDBRANCH  18  19
BRANCH  18  22
HETATM   22  O3  UNL     1      -6.287  15.445  10.871  1.00  0.00    -0.288 OA
ATOM     23  H3  UNL     1      -5.679  14.719  10.791  1.00  0.00     0.239 HD
ENDBRANCH  18  22
ENDBRANCH   6  18
BRANCH   5  24
HETATM   24  O2  UNL     1      -7.280  18.291  13.633  1.00  0.00    -0.260 OA
ATOM     25  H2  UNL     1      -7.190  18.711  12.786  1.00  0.00     0.247 HD
ENDBRANCH   5  24
TORSDOF 8
ENDMDL
MODEL 3
REMARK VINA RESULT: -5.263284449      1.688      2.985
REMARK  8 active torsions:
REMARK  status: ('A' for Active; 'I' for Inactive)
REMARK    1  A    between atoms: C2_2  and  N1_3 
REMARK    2  A    between atoms: C2_2  and  N2_7 
REMARK    3  A    between atoms: C2_2  and  C5_23 
REMARK    4  A    between atoms: N2_7  and  C3_9 
REMARK    5  A    between atoms: N4_13  and  O2_14 
REMARK    6  A    between atoms: C4_16  and  N5_17 
REMARK    7  A    between atoms: N5_17  and  N6_18 
REMARK    8  A    between atoms: N5_17  and  O3_21 
ROOT
HETATM    1  C3  UNL     1      -5.426  12.409  12.089  1.00  0.00     0.173 A 
HETATM    2  N3  UNL     1      -5.161  12.422  10.774  1.00  0.00    -0.220 N 
ATOM      3  H3  UNL     1      -4.790  11.644  10.228  1.00  0.00     0.198 HD
HETATM    4  O1  UNL     1      -5.458  13.590  10.322  1.00  0.00    -0.125 OA
HETATM    5  N4  UNL     1      -5.910  14.364  11.259  1.00  0.00    -0.083 N 
HETATM    6  C4  UNL     1      -5.909  13.659  12.403  1.00  0.00     0.229 A 
ENDROOT
BRANCH   1   7
HETATM    7  N2  UNL     1      -5.272  11.452  12.898  1.00  0.00    -0.340 N 
ATOM      8  H2  UNL     1      -6.121  11.078  13.322  1.00  0.00     0.163 HD
BRANCH   7   9
HETATM    9  C2  UNL     1      -4.049  10.835  13.285  1.00  0.00     0.197 C 
HETATM   10  C1  UNL     1      -4.018  10.762  14.801  1.00  0.00     0.071 C 
BRANCH   9  11
HETATM   11  N1  UNL     1      -2.951  11.706  12.900  1.00  0.00    -0.053 N 
ATOM     12  H13 UNL     1      -2.060  11.217  12.804  1.00  0.00     0.277 HD
ATOM     13  H12 UNL     1      -3.014  12.038  11.938  1.00  0.00     0.277 HD
ATOM     14  H11 UNL     1      -2.929  12.457  13.589  1.00  0.00     0.277 HD
ENDBRANCH   9  11
BRANCH   9  15
HETATM   15  C5  UNL     1      -3.800   9.503  12.649  1.00  0.00     0.042 A 
HETATM   16  C6  UNL     1      -4.711   8.910  11.654  1.00  0.00     0.009 A 
HETATM   17  C7  UNL     1      -4.798   8.431  13.082  1.00  0.00     0.009 A 
ENDBRANCH   9  15
ENDBRANCH   7   9
ENDBRANCH   1   7
BRANCH   6  18
HETATM   18  N5  UNL     1      -6.340  14.173  13.659  1.00  0.00    -0.051 NA
BRANCH  18  19
HETATM   19  N6  UNL     1      -7.522  14.914  13.553  1.00  0.00    -0.335 NA
ATOM     20  H62 UNL     1      -7.845  14.838  12.589  1.00  0.00     0.173 HD
ATOM     21  H61 UNL     1      -7.395  15.888  13.829  1.00  0.00     0.173 HD
ENDBRANCH  18  19
BRANCH  18  22
HETATM   22  O3  UNL     1      -6.562  13.187  14.547  1.00  0.00    -0.288 OA
ATOM     23  H3  UNL     1      -7.477  12.931  14.564  1.00  0.00     0.239 HD
ENDBRANCH  18  22
ENDBRANCH   6  18
BRANCH   5  24
HETATM   24  O2  UNL     1      -6.303  15.660  11.059  1.00  0.00    -0.260 OA
ATOM     25  H2  UNL     1      -6.273  16.333  11.729  1.00  0.00     0.247 HD
ENDBRANCH   5  24
TORSDOF 8
ENDMDL
MODEL 4
REMARK VINA RESULT: -5.208374793      1.114      1.526
REMARK  8 active torsions:
REMARK  status: ('A' for Active; 'I' for Inactive)
REMARK    1  A    between atoms: C2_2  and  N1_3 
REMARK    2  A    between atoms: C2_2  and  N2_7 
REMARK    3  A    between atoms: C2_2  and  C5_23 
REMARK    4  A    between atoms: N2_7  and  C3_9 
REMARK    5  A    between atoms: N4_13  and  O2_14 
REMARK    6  A    between atoms: C4_16  and  N5_17 
REMARK    7  A    between atoms: N5_17  and  N6_18 
REMARK    8  A    between atoms: N5_17  and  O3_21 
ROOT
HETATM    1  C3  UNL     1      -5.786  14.109  13.385  1.00  0.00     0.173 A 
HETATM    2  N3  UNL     1      -6.704  13.999  14.358  1.00  0.00    -0.220 N 
ATOM      3  H3  UNL     1      -6.699  13.313  15.113  1.00  0.00     0.198 HD
HETATM    4  O1  UNL     1      -7.591  14.912  14.170  1.00  0.00    -0.125 OA
HETATM    5  N4  UNL     1      -7.322  15.633  13.125  1.00  0.00    -0.083 N 
HETATM    6  C4  UNL     1      -6.182  15.161  12.591  1.00  0.00     0.229 A 
ENDROOT
BRANCH   1   7
HETATM    7  N2  UNL     1      -4.755  13.401  13.213  1.00  0.00    -0.340 N 
ATOM      8  H2  UNL     1      -3.860  13.850  13.409  1.00  0.00     0.163 HD
BRANCH   7   9
HETATM    9  C2  UNL     1      -4.699  12.048  12.776  1.00  0.00     0.197 C 
HETATM   10  C1  UNL     1      -3.267  11.741  12.376  1.00  0.00     0.071 C 
BRANCH   9  11
HETATM   11  N1  UNL     1      -5.493  11.919  11.566  1.00  0.00    -0.053 N 
ATOM     12  H13 UNL     1      -5.422  11.000  11.129  1.00  0.00     0.277 HD
ATOM     13  H12 UNL     1      -6.498  11.896  11.740  1.00  0.00     0.277 HD
ATOM     14  H11 UNL     1      -5.204  12.683  10.955  1.00  0.00     0.277 HD
ENDBRANCH   9  11
BRANCH   9  15
HETATM   15  C5  UNL     1      -5.235  11.056  13.763  1.00  0.00     0.042 A 
HETATM   16  C6  UNL     1      -4.374  10.332  14.713  1.00  0.00     0.009 A 
HETATM   17  C7  UNL     1      -4.820   9.618  13.461  1.00  0.00     0.009 A 
ENDBRANCH   9  15
ENDBRANCH   7   9
ENDBRANCH   1   7
BRANCH   6  18
HETATM   18  N5  UNL     1      -5.564  15.698  11.426  1.00  0.00    -0.051 NA
BRANCH  18  19
HETATM   19  N6  UNL     1      -4.311  16.258  11.699  1.00  0.00    -0.335 NA
ATOM     20  H62 UNL     1      -4.459  17.240  11.930  1.00  0.00     0.173 HD
ATOM     21  H61 UNL     1      -3.661  16.149  10.921  1.00  0.00     0.173 HD
ENDBRANCH  18  19
BRANCH  18  22
HETATM   22  O3  UNL     1      -5.387  14.756  10.482  1.00  0.00    -0.288 OA
ATOM     23  H3  UNL     1      -5.174  15.142   9.640  1.00  0.00     0.239 HD
ENDBRANCH  18  22
ENDBRANCH   6  18
BRANCH   5  24
HETATM   24  O2  UNL     1      -8.096  16.674  12.693  1.00  0.00    -0.260 OA
ATOM     25  H2  UNL     1      -9.003  16.802  12.945  1.00  0.00     0.247 HD
ENDBRANCH   5  24
TORSDOF 8
ENDMDL
MODEL 5
REMARK VINA RESULT: -5.185293050      1.563      1.795
REMARK  8 active torsions:
REMARK  status: ('A' for Active; 'I' for Inactive)
REMARK    1  A    between atoms: C2_2  and  N1_3 
REMARK    2  A    between atoms: C2_2  and  N2_7 
REMARK    3  A    between atoms: C2_2  and  C5_23 
REMARK    4  A    between atoms: N2_7  and  C3_9 
REMARK    5  A    between atoms: N4_13  and  O2_14 
REMARK    6  A    between atoms: C4_16  and  N5_17 
REMARK    7  A    between atoms: N5_17  and  N6_18 
REMARK    8  A    between atoms: N5_17  and  O3_21 
ROOT
HETATM    1  C3  UNL     1      -4.962  13.263  13.737  1.00  0.00     0.173 A 
HETATM    2  N3  UNL     1      -5.800  13.396  14.776  1.00  0.00    -0.220 N 
ATOM      3  H3  UNL     1      -5.646  13.042  15.720  1.00  0.00     0.198 HD
HETATM    4  O1  UNL     1      -6.832  14.051  14.372  1.00  0.00    -0.125 OA
HETATM    5  N4  UNL     1      -6.735  14.367  13.117  1.00  0.00    -0.083 N 
HETATM    6  C4  UNL     1      -5.563  13.888  12.667  1.00  0.00     0.229 A 
ENDROOT
BRANCH   1   7
HETATM    7  N2  UNL     1      -3.840  12.684  13.719  1.00  0.00    -0.340 N 
ATOM      8  H2  UNL     1      -3.054  13.211  14.099  1.00  0.00     0.163 HD
BRANCH   7   9
HETATM    9  C2  UNL     1      -3.548  11.381  13.228  1.00  0.00     0.197 C 
HETATM   10  C1  UNL     1      -2.472  10.776  14.111  1.00  0.00     0.071 C 
BRANCH   9  11
HETATM   11  N1  UNL     1      -2.961  11.506  11.904  1.00  0.00    -0.053 N 
ATOM     12  H13 UNL     1      -3.320  12.300  11.374  1.00  0.00     0.277 HD
ATOM     13  H12 UNL     1      -1.984  11.798  11.919  1.00  0.00     0.277 HD
ATOM     14  H11 UNL     1      -3.110  10.609  11.442  1.00  0.00     0.277 HD
ENDBRANCH   9  11
BRANCH   9  15
HETATM   15  C5  UNL     1      -4.742  10.486  13.099  1.00  0.00     0.042 A 
HETATM   16  C6  UNL     1      -4.656   9.020  13.207  1.00  0.00     0.009 A 
HETATM   17  C7  UNL     1      -4.725   9.635  11.831  1.00  0.00     0.009 A 
ENDBRANCH   9  15
ENDBRANCH   7   9
ENDBRANCH   1   7
BRANCH   6  18
HETATM   18  N5  UNL     1      -5.099  14.037  11.330  1.00  0.00    -0.051 NA
BRANCH  18  19
HETATM   19  N6  UNL     1      -5.547  13.008  10.494  1.00  0.00    -0.335 NA
ATOM     20  H62 UNL     1      -6.395  12.624  10.910  1.00  0.00     0.173 HD
ATOM     21  H61 UNL     1      -4.839  12.288  10.353  1.00  0.00     0.173 HD
ENDBRANCH  18  19
BRANCH  18  22
HETATM   22  O3  UNL     1      -5.510  15.200  10.791  1.00  0.00    -0.288 OA
ATOM     23  H3  UNL     1      -5.837  15.796  11.455  1.00  0.00     0.239 HD
ENDBRANCH  18  22
ENDBRANCH   6  18
BRANCH   5  24
HETATM   24  O2  UNL     1      -7.689  15.065  12.427  1.00  0.00    -0.260 OA
ATOM     25  H2  UNL     1      -7.525  15.527  11.614  1.00  0.00     0.247 HD
ENDBRANCH   5  24
TORSDOF 8
ENDMDL
