MODEL 1
REMARK VINA RESULT: -5.658540769      0.000      0.000
REMARK  3 active torsions:
REMARK  status: ('A' for Active; 'I' for Inactive)
REMARK    1  A    between atoms: C2_5  and  N3_6 
REMARK    2  A    between atoms: C3_13  and  C4_14 
REMARK    3  A    between atoms: N5_15  and  C5_17 
ROOT
HETATM    1  N1  UNL     1      -6.181  13.008  14.661  1.00  0.00    -0.085 NA
HETATM    2  C1  UNL     1      -6.367  13.871  13.523  1.00  0.00     0.128 C 
HETATM    3  N2  UNL     1      -7.157  14.872  13.418  1.00  0.00    -0.331 N 
ATOM      4  H2  UNL     1      -7.781  15.202  14.154  1.00  0.00     0.164 HD
HETATM    5  C2  UNL     1      -7.035  15.477  12.083  1.00  0.00     0.485 C 
HETATM    6  N4  UNL     1      -6.526  14.343  11.289  1.00  0.00    -0.014 N 
ATOM      7  H41 UNL     1      -6.112  14.582  10.387  1.00  0.00     0.283 HD
ATOM      8  H42 UNL     1      -7.235  13.725  10.891  1.00  0.00     0.283 HD
HETATM    9  C3  UNL     1      -5.645  13.746  12.239  1.00  0.00     0.292 C 
ENDROOT
BRANCH   9  10
HETATM   10  C4  UNL     1      -5.283  12.354  11.924  1.00  0.00     0.103 C 
HETATM   11  N5  UNL     1      -4.249  11.752  12.381  1.00  0.00    -0.353 N 
ATOM     12  H5  UNL     1      -3.626  12.261  13.009  1.00  0.00     0.166 HD
BRANCH  11  13
HETATM   13  C5  UNL     1      -3.934  10.410  12.054  1.00  0.00     0.114 A 
HETATM   14  C6  UNL     1      -4.842   9.448  11.741  1.00  0.00     0.123 A 
HETATM   15  C7  UNL     1      -4.390   8.178  11.442  1.00  0.00     0.252 A 
HETATM   16  O1  UNL     1      -5.194   7.251  11.145  1.00  0.00    -0.268 OA
HETATM   17  N6  UNL     1      -3.079   7.853  11.447  1.00  0.00    -0.275 N 
HETATM   18  C8  UNL     1      -2.208   8.833  11.763  1.00  0.00     0.328 A 
ATOM     19  H6  UNL     1      -2.762   6.910  11.223  1.00  0.00     0.173 HD
HETATM   20  O2  UNL     1      -0.984   8.528  11.768  1.00  0.00    -0.247 OA
HETATM   21  N7  UNL     1      -2.617  10.080  12.059  1.00  0.00    -0.294 N 
ATOM     22  H7  UNL     1      -1.923  10.791  12.291  1.00  0.00     0.172 HD
ENDBRANCH  11  13
ENDBRANCH   9  10
BRANCH   5  23
HETATM   23  N3  UNL     1      -8.350  15.870  11.673  1.00  0.00    -0.033 N 
ATOM     24  H33 UNL     1      -8.344  16.567  10.927  1.00  0.00     0.278 HD
ATOM     25  H32 UNL     1      -8.846  15.138  11.164  1.00  0.00     0.278 HD
ATOM     26  H31 UNL     1      -8.847  16.183  12.507  1.00  0.00     0.278 HD
ENDBRANCH   5  23
TORSDOF 3
ENDMDL
MODEL 2
REMARK VINA RESULT: -5.607639707      8.545     11.744
REMARK  3 active torsions:
REMARK  status: ('A' for Active; 'I' for Inactive)
REMARK    1  A    between atoms: C2_5  and  N3_6 
REMARK    2  A    between atoms: C3_13  and  C4_14 
REMARK    3  A    between atoms: N5_15  and  C5_17 
ROOT
HETATM    1  N1  UNL     1      -6.952  20.116  14.878  1.00  0.00    -0.085 NA
HETATM    2  C1  UNL     1      -7.746  18.957  14.561  1.00  0.00     0.128 C 
HETATM    3  N2  UNL     1      -7.429  17.725  14.708  1.00  0.00    -0.331 N 
ATOM      4  H2  UNL     1      -6.541  17.391  15.082  1.00  0.00     0.164 HD
HETATM    5  C2  UNL     1      -8.531  16.861  14.258  1.00  0.00     0.485 C 
HETATM    6  N4  UNL     1      -9.238  17.748  13.314  1.00  0.00    -0.014 N 
ATOM      7  H41 UNL     1     -10.188  17.469  13.070  1.00  0.00     0.283 HD
ATOM      8  H42 UNL     1      -8.898  17.734  12.352  1.00  0.00     0.283 HD
HETATM    9  C3  UNL     1      -9.113  18.994  13.999  1.00  0.00     0.292 C 
ENDROOT
BRANCH   9  10
HETATM   10  C4  UNL     1      -9.343  20.169  13.144  1.00  0.00     0.103 C 
HETATM   11  N5  UNL     1      -8.506  20.616  12.284  1.00  0.00    -0.353 N 
ATOM     12  H5  UNL     1      -7.614  20.133  12.174  1.00  0.00     0.166 HD
BRANCH  11  13
HETATM   13  C5  UNL     1      -8.764  21.753  11.478  1.00  0.00     0.114 A 
HETATM   14  C6  UNL     1      -7.814  22.526  10.889  1.00  0.00     0.123 A 
HETATM   15  C7  UNL     1      -8.213  23.607  10.128  1.00  0.00     0.252 A 
HETATM   16  O1  UNL     1      -7.368  24.354   9.562  1.00  0.00    -0.268 OA
HETATM   17  N6  UNL     1      -9.513  23.926   9.945  1.00  0.00    -0.275 N 
HETATM   18  C8  UNL     1     -10.426  23.137  10.544  1.00  0.00     0.328 A 
ATOM     19  H6  UNL     1      -9.790  24.728   9.379  1.00  0.00     0.173 HD
HETATM   20  O2  UNL     1     -11.639  23.436  10.372  1.00  0.00    -0.247 OA
HETATM   21  N7  UNL     1     -10.070  22.077  11.291  1.00  0.00    -0.294 N 
ATOM     22  H7  UNL     1     -10.795  21.505  11.727  1.00  0.00     0.172 HD
ENDBRANCH  11  13
ENDBRANCH   9  10
BRANCH   5  23
HETATM   23  N3  UNL     1      -7.945  15.734  13.596  1.00  0.00    -0.033 N 
ATOM     24  H33 UNL     1      -7.371  15.996  12.794  1.00  0.00     0.278 HD
ATOM     25  H32 UNL     1      -7.209  15.287  14.143  1.00  0.00     0.278 HD
ATOM     26  H31 UNL     1      -8.704  15.097  13.352  1.00  0.00     0.278 HD
ENDBRANCH   5  23
TORSDOF 3
ENDMDL
MODEL 3
REMARK VINA RESULT: -5.540302138      3.057      6.682
REMARK  3 active torsions:
REMARK  status: ('A' for Active; 'I' for Inactive)
REMARK    1  A    between atoms: C2_5  and  N3_6 
REMARK    2  A    between atoms: C3_13  and  C4_14 
REMARK    3  A    between atoms: N5_15  and  C5_17 
ROOT
HETATM    1  N1  UNL     1      -2.530   8.927  11.029  1.00  0.00    -0.085 NA
HETATM    2  C1  UNL     1      -3.402   7.997  11.700  1.00  0.00     0.128 C 
HETATM    3  N2  UNL     1      -3.654   6.785  11.376  1.00  0.00    -0.331 N 
ATOM      4  H2  UNL     1      -3.257   6.302  10.570  1.00  0.00     0.164 HD
HETATM    5  C2  UNL     1      -4.601   6.192  12.332  1.00  0.00     0.485 C 
HETATM    6  N4  UNL     1      -5.277   7.390  12.864  1.00  0.00    -0.014 N 
ATOM      7  H41 UNL     1      -5.793   7.260  13.734  1.00  0.00     0.283 HD
ATOM      8  H42 UNL     1      -6.088   7.715  12.336  1.00  0.00     0.283 HD
HETATM    9  C3  UNL     1      -4.174   8.294  12.925  1.00  0.00     0.292 C 
ENDROOT
BRANCH   9  10
HETATM   10  C4  UNL     1      -4.568   9.709  13.020  1.00  0.00     0.103 C 
HETATM   11  N5  UNL     1      -4.800  10.466  12.013  1.00  0.00    -0.353 N 
ATOM     12  H5  UNL     1      -4.710  10.073  11.076  1.00  0.00     0.166 HD
BRANCH  11  13
HETATM   13  C5  UNL     1      -5.177  11.826  12.145  1.00  0.00     0.114 A 
HETATM   14  C6  UNL     1      -5.235  12.723  11.126  1.00  0.00     0.123 A 
HETATM   15  C7  UNL     1      -5.621  14.020  11.402  1.00  0.00     0.252 A 
HETATM   16  O1  UNL     1      -5.690  14.889  10.489  1.00  0.00    -0.268 OA
HETATM   17  N6  UNL     1      -5.944  14.432  12.647  1.00  0.00    -0.275 N 
HETATM   18  C8  UNL     1      -5.874  13.515  13.632  1.00  0.00     0.328 A 
ATOM     19  H6  UNL     1      -6.227  15.394  12.833  1.00  0.00     0.173 HD
HETATM   20  O2  UNL     1      -6.175  13.902  14.794  1.00  0.00    -0.247 OA
HETATM   21  N7  UNL     1      -5.502  12.244  13.395  1.00  0.00    -0.294 N 
ATOM     22  H7  UNL     1      -5.463  11.582  14.171  1.00  0.00     0.172 HD
ENDBRANCH  11  13
ENDBRANCH   9  10
BRANCH   5  23
HETATM   23  N3  UNL     1      -5.497   5.361  11.583  1.00  0.00    -0.033 N 
ATOM     24  H33 UNL     1      -5.982   5.865  10.840  1.00  0.00     0.278 HD
ATOM     25  H32 UNL     1      -5.014   4.686  10.990  1.00  0.00     0.278 HD
ATOM     26  H31 UNL     1      -6.134   4.924  12.250  1.00  0.00     0.278 HD
ENDBRANCH   5  23
TORSDOF 3
ENDMDL
MODEL 4
REMARK VINA RESULT: -5.535177127      0.660      1.899
REMARK  3 active torsions:
REMARK  status: ('A' for Active; 'I' for Inactive)
REMARK    1  A    between atoms: C2_5  and  N3_6 
REMARK    2  A    between atoms: C3_13  and  C4_14 
REMARK    3  A    between atoms: N5_15  and  C5_17 
ROOT
HETATM    1  N1  UNL     1      -6.252  13.031  14.679  1.00  0.00    -0.085 NA
HETATM    2  C1  UNL     1      -6.439  13.894  13.541  1.00  0.00     0.128 C 
HETATM    3  N2  UNL     1      -7.293  14.838  13.405  1.00  0.00    -0.331 N 
ATOM      4  H2  UNL     1      -7.977  15.113  14.109  1.00  0.00     0.164 HD
HETATM    5  C2  UNL     1      -7.145  15.469  12.084  1.00  0.00     0.485 C 
HETATM    6  N4  UNL     1      -6.515  14.385  11.306  1.00  0.00    -0.014 N 
ATOM      7  H41 UNL     1      -6.072  14.666  10.431  1.00  0.00     0.283 HD
ATOM      8  H42 UNL     1      -7.156  13.724  10.866  1.00  0.00     0.283 HD
HETATM    9  C3  UNL     1      -5.644  13.839  12.296  1.00  0.00     0.292 C 
ENDROOT
BRANCH   9  10
HETATM   10  C4  UNL     1      -5.167  12.481  11.987  1.00  0.00     0.103 C 
HETATM   11  N5  UNL     1      -4.177  11.911  12.565  1.00  0.00    -0.353 N 
ATOM     12  H5  UNL     1      -3.676  12.421  13.292  1.00  0.00     0.166 HD
BRANCH  11  13
HETATM   13  C5  UNL     1      -3.747  10.600  12.238  1.00  0.00     0.114 A 
HETATM   14  C6  UNL     1      -2.466  10.154  12.322  1.00  0.00     0.123 A 
HETATM   15  C7  UNL     1      -2.193   8.847  11.971  1.00  0.00     0.252 A 
HETATM   16  O1  UNL     1      -1.018   8.387  12.031  1.00  0.00    -0.268 OA
HETATM   17  N6  UNL     1      -3.149   7.993  11.546  1.00  0.00    -0.275 N 
HETATM   18  C8  UNL     1      -4.407   8.471  11.476  1.00  0.00     0.328 A 
ATOM     19  H6  UNL     1      -2.929   7.030  11.291  1.00  0.00     0.173 HD
HETATM   20  O2  UNL     1      -5.299   7.672  11.080  1.00  0.00    -0.247 OA
HETATM   21  N7  UNL     1      -4.707   9.739  11.812  1.00  0.00    -0.294 N 
ATOM     22  H7  UNL     1      -5.673  10.059  11.744  1.00  0.00     0.172 HD
ENDBRANCH  11  13
ENDBRANCH   9  10
BRANCH   5  23
HETATM   23  N3  UNL     1      -8.462  15.773  11.608  1.00  0.00    -0.033 N 
ATOM     24  H33 UNL     1      -8.674  15.332  10.713  1.00  0.00     0.278 HD
ATOM     25  H32 UNL     1      -9.197  15.324  12.154  1.00  0.00     0.278 HD
ATOM     26  H31 UNL     1      -8.547  16.790  11.583  1.00  0.00     0.278 HD
ENDBRANCH   5  23
TORSDOF 3
ENDMDL
MODEL 5
REMARK VINA RESULT: -5.458093930      3.724      5.660
REMARK  3 active torsions:
REMARK  status: ('A' for Active; 'I' for Inactive)
REMARK    1  A    between atoms: C2_5  and  N3_6 
REMARK    2  A    between atoms: C3_13  and  C4_14 
REMARK    3  A    between atoms: N5_15  and  C5_17 
ROOT
HETATM    1  N1  UNL     1      -9.033  16.712  16.198  1.00  0.00    -0.085 NA
HETATM    2  C1  UNL     1      -9.398  17.741  15.258  1.00  0.00     0.128 C 
HETATM    3  N2  UNL     1     -10.488  18.412  15.215  1.00  0.00    -0.331 N 
ATOM      4  H2  UNL     1     -11.268  18.302  15.862  1.00  0.00     0.164 HD
HETATM    5  C2  UNL     1     -10.452  19.364  14.094  1.00  0.00     0.485 C 
HETATM    6  N4  UNL     1      -9.473  18.726  13.193  1.00  0.00    -0.014 N 
ATOM      7  H41 UNL     1      -9.080  19.326  12.467  1.00  0.00     0.283 HD
ATOM      8  H42 UNL     1      -9.853  18.042  12.537  1.00  0.00     0.283 HD
HETATM    9  C3  UNL     1      -8.544  18.219  14.150  1.00  0.00     0.292 C 
ENDROOT
BRANCH   9  10
HETATM   10  C4  UNL     1      -7.658  17.169  13.623  1.00  0.00     0.103 C 
HETATM   11  N5  UNL     1      -7.951  15.922  13.589  1.00  0.00    -0.353 N 
ATOM     12  H5  UNL     1      -8.858  15.624  13.949  1.00  0.00     0.166 HD
BRANCH  11  13
HETATM   13  C5  UNL     1      -7.071  14.939  13.073  1.00  0.00     0.114 A 
HETATM   14  C6  UNL     1      -6.669  14.853  11.777  1.00  0.00     0.123 A 
HETATM   15  C7  UNL     1      -5.804  13.840  11.415  1.00  0.00     0.252 A 
HETATM   16  O1  UNL     1      -5.403  13.718  10.224  1.00  0.00    -0.268 OA
HETATM   17  N6  UNL     1      -5.340  12.929  12.299  1.00  0.00    -0.275 N 
HETATM   18  C8  UNL     1      -5.760  13.047  13.574  1.00  0.00     0.328 A 
ATOM     19  H6  UNL     1      -4.701  12.187  12.014  1.00  0.00     0.173 HD
HETATM   20  O2  UNL     1      -5.326  12.196  14.398  1.00  0.00    -0.247 OA
HETATM   21  N7  UNL     1      -6.602  14.022  13.959  1.00  0.00    -0.294 N 
ATOM     22  H7  UNL     1      -6.894  14.075  14.935  1.00  0.00     0.172 HD
ENDBRANCH  11  13
ENDBRANCH   9  10
BRANCH   5  23
HETATM   23  N3  UNL     1     -11.765  19.396  13.521  1.00  0.00    -0.033 N 
ATOM     24  H33 UNL     1     -11.765  19.667  12.537  1.00  0.00     0.278 HD
ATOM     25  H32 UNL     1     -12.171  18.468  13.401  1.00  0.00     0.278 HD
ATOM     26  H31 UNL     1     -12.335  20.009  14.104  1.00  0.00     0.278 HD
ENDBRANCH   5  23
TORSDOF 3
ENDMDL
