MODEL 1
REMARK VINA RESULT: -5.145290448      0.000      0.000
REMARK  4 active torsions:
REMARK  status: ('A' for Active; 'I' for Inactive)
REMARK    1  A    between atoms: N1_1  and  C1_4 
REMARK    2  A    between atoms: C2_7  and  S1_8 
REMARK    3  A    between atoms: S1_8  and  N3_11 
REMARK    4  A    between atoms: C4_16  and  N5_17 
ROOT
HETATM    1  S1  UNL     1      -5.022  15.633  12.596  1.00  0.00     0.282 S 
HETATM    2  O1  UNL     1      -4.380  15.698  13.938  1.00  0.00    -0.203 OA
HETATM    3  O2  UNL     1      -4.159  16.382  11.631  1.00  0.00    -0.203 OA
ENDROOT
BRANCH   1   4
HETATM    4  C2  UNL     1      -5.180  13.993  12.016  1.00  0.00     0.248 A 
HETATM    5  N2  UNL     1      -4.761  12.867  12.656  1.00  0.00    -0.162 N 
HETATM    6  C1  UNL     1      -5.066  11.822  11.886  1.00  0.00     0.692 A 
ATOM      7  H2  UNL     1      -4.297  12.829  13.563  1.00  0.00     0.186 HD
HETATM    8  N7  UNL     1      -5.670  12.276  10.774  1.00  0.00    -0.130 N 
HETATM    9  N6  UNL     1      -5.736  13.593  10.858  1.00  0.00    -0.260 N 
ATOM     10  H7  UNL     1      -6.015  11.705  10.002  1.00  0.00     0.205 HD
ATOM     11  H6  UNL     1      -6.145  14.209  10.155  1.00  0.00     0.190 HD
BRANCH   6  12
HETATM   12  N1  UNL     1      -4.801  10.595  12.204  1.00  0.00    -0.233 N 
ATOM     13  H12 UNL     1      -5.087  10.089  13.042  1.00  0.00     0.174 HD
ATOM     14  H11 UNL     1      -4.251   9.965  11.620  1.00  0.00     0.174 HD
ENDBRANCH   6  12
ENDBRANCH   1   4
BRANCH   1  15
HETATM   15  N3  UNL     1      -6.573  16.394  12.591  1.00  0.00    -0.125 NA
HETATM   16  C3  UNL     1      -7.106  16.645  13.897  1.00  0.00     0.347 C 
HETATM   17  N4  UNL     1      -7.983  15.503  13.731  1.00  0.00    -0.020 N 
HETATM   18  C4  UNL     1      -7.685  15.541  12.309  1.00  0.00     0.475 C 
ATOM     19  H42 UNL     1      -7.839  14.650  14.272  1.00  0.00     0.282 HD
ATOM     20  H41 UNL     1      -8.946  15.531  14.063  1.00  0.00     0.282 HD
BRANCH  18  21
HETATM   21  N5  UNL     1      -8.742  16.284  11.632  1.00  0.00    -0.036 N 
ATOM     22  H53 UNL     1      -8.702  17.280  11.847  1.00  0.00     0.278 HD
ATOM     23  H52 UNL     1      -8.583  16.337  10.626  1.00  0.00     0.278 HD
ATOM     24  H51 UNL     1      -9.656  15.886  11.850  1.00  0.00     0.278 HD
ENDBRANCH  18  21
ENDBRANCH   1  15
TORSDOF 4
ENDMDL
MODEL 2
REMARK VINA RESULT: -5.136984189      5.909      7.704
REMARK  4 active torsions:
REMARK  status: ('A' for Active; 'I' for Inactive)
REMARK    1  A    between atoms: N1_1  and  C1_4 
REMARK    2  A    between atoms: C2_7  and  S1_8 
REMARK    3  A    between atoms: S1_8  and  N3_11 
REMARK    4  A    between atoms: C4_16  and  N5_17 
ROOT
HETATM    1  S1  UNL     1      -8.349  21.735  12.506  1.00  0.00     0.282 S 
HETATM    2  O1  UNL     1      -8.258  22.769  13.574  1.00  0.00    -0.203 OA
HETATM    3  O2  UNL     1      -6.966  21.456  12.010  1.00  0.00    -0.203 OA
ENDROOT
BRANCH   1   4
HETATM    4  C2  UNL     1      -9.025  20.235  13.091  1.00  0.00     0.248 A 
HETATM    5  N2  UNL     1      -8.325  19.155  13.537  1.00  0.00    -0.162 N 
HETATM    6  C1  UNL     1      -9.204  18.218  13.894  1.00  0.00     0.692 A 
ATOM      7  H2  UNL     1      -7.309  19.077  13.588  1.00  0.00     0.186 HD
HETATM    8  N7  UNL     1     -10.443  18.694  13.680  1.00  0.00    -0.130 N 
HETATM    9  N6  UNL     1     -10.328  19.917  13.193  1.00  0.00    -0.260 N 
ATOM     10  H7  UNL     1     -11.316  18.199  13.861  1.00  0.00     0.205 HD
ATOM     11  H6  UNL     1     -11.106  20.525  12.935  1.00  0.00     0.190 HD
BRANCH   6  12
HETATM   12  N1  UNL     1      -8.867  17.059  14.363  1.00  0.00    -0.233 N 
ATOM     13  H12 UNL     1      -7.961  16.773  14.735  1.00  0.00     0.174 HD
ATOM     14  H11 UNL     1      -9.503  16.264  14.416  1.00  0.00     0.174 HD
ENDBRANCH   6  12
ENDBRANCH   1   4
BRANCH   1  15
HETATM   15  N3  UNL     1      -9.273  22.290  11.155  1.00  0.00    -0.125 NA
HETATM   16  C3  UNL     1      -8.600  23.263  10.346  1.00  0.00     0.347 C 
HETATM   17  N4  UNL     1      -9.410  24.296  10.960  1.00  0.00    -0.020 N 
HETATM   18  C4  UNL     1     -10.291  23.249  11.448  1.00  0.00     0.475 C 
ATOM     19  H42 UNL     1      -8.996  24.972  11.602  1.00  0.00     0.282 HD
ATOM     20  H41 UNL     1      -9.776  25.070  10.407  1.00  0.00     0.282 HD
BRANCH  18  21
HETATM   21  N5  UNL     1     -11.408  23.111  10.520  1.00  0.00    -0.036 N 
ATOM     22  H53 UNL     1     -11.171  22.511   9.729  1.00  0.00     0.278 HD
ATOM     23  H52 UNL     1     -12.163  22.551  10.916  1.00  0.00     0.278 HD
ATOM     24  H51 UNL     1     -11.737  24.027  10.215  1.00  0.00     0.278 HD
ENDBRANCH  18  21
ENDBRANCH   1  15
TORSDOF 4
ENDMDL
MODEL 3
REMARK VINA RESULT: -5.058594942      1.451      2.008
REMARK  4 active torsions:
REMARK  status: ('A' for Active; 'I' for Inactive)
REMARK    1  A    between atoms: N1_1  and  C1_4 
REMARK    2  A    between atoms: C2_7  and  S1_8 
REMARK    3  A    between atoms: S1_8  and  N3_11 
REMARK    4  A    between atoms: C4_16  and  N5_17 
ROOT
HETATM    1  S1  UNL     1      -5.136  15.535  11.882  1.00  0.00     0.282 S 
HETATM    2  O1  UNL     1      -3.997  16.482  11.726  1.00  0.00    -0.203 OA
HETATM    3  O2  UNL     1      -5.407  14.909  10.551  1.00  0.00    -0.203 OA
ENDROOT
BRANCH   1   4
HETATM    4  C2  UNL     1      -4.783  14.255  13.017  1.00  0.00     0.248 A 
HETATM    5  N2  UNL     1      -5.329  13.007  13.021  1.00  0.00    -0.162 N 
HETATM    6  C1  UNL     1      -4.800  12.334  14.042  1.00  0.00     0.692 A 
ATOM      7  H2  UNL     1      -6.019  12.651  12.360  1.00  0.00     0.186 HD
HETATM    8  N7  UNL     1      -3.931  13.139  14.678  1.00  0.00    -0.130 N 
HETATM    9  N6  UNL     1      -3.925  14.302  14.052  1.00  0.00    -0.260 N 
ATOM     10  H7  UNL     1      -3.375  12.895  15.498  1.00  0.00     0.205 HD
ATOM     11  H6  UNL     1      -3.359  15.110  14.313  1.00  0.00     0.190 HD
BRANCH   6  12
HETATM   12  N1  UNL     1      -5.106  11.109  14.331  1.00  0.00    -0.233 N 
ATOM     13  H12 UNL     1      -5.845  10.535  13.924  1.00  0.00     0.174 HD
ATOM     14  H11 UNL     1      -4.617  10.553  15.032  1.00  0.00     0.174 HD
ENDBRANCH   6  12
ENDBRANCH   1   4
BRANCH   1  15
HETATM   15  N3  UNL     1      -6.582  16.346  12.367  1.00  0.00    -0.125 NA
HETATM   16  C3  UNL     1      -6.891  16.208  13.760  1.00  0.00     0.347 C 
HETATM   17  N4  UNL     1      -7.899  15.227  13.413  1.00  0.00    -0.020 N 
HETATM   18  C4  UNL     1      -7.807  15.688  12.038  1.00  0.00     0.475 C 
ATOM     19  H42 UNL     1      -7.770  14.241  13.643  1.00  0.00     0.282 HD
ATOM     20  H41 UNL     1      -8.796  15.205  13.897  1.00  0.00     0.282 HD
BRANCH  18  21
HETATM   21  N5  UNL     1      -8.866  16.663  11.803  1.00  0.00    -0.036 N 
ATOM     22  H53 UNL     1      -9.405  16.848  12.650  1.00  0.00     0.278 HD
ATOM     23  H52 UNL     1      -8.492  17.600  11.653  1.00  0.00     0.278 HD
ATOM     24  H51 UNL     1      -9.463  16.365  11.032  1.00  0.00     0.278 HD
ENDBRANCH  18  21
ENDBRANCH   1  15
TORSDOF 4
ENDMDL
MODEL 4
REMARK VINA RESULT: -5.028107836      2.996      3.927
REMARK  4 active torsions:
REMARK  status: ('A' for Active; 'I' for Inactive)
REMARK    1  A    between atoms: N1_1  and  C1_4 
REMARK    2  A    between atoms: C2_7  and  S1_8 
REMARK    3  A    between atoms: S1_8  and  N3_11 
REMARK    4  A    between atoms: C4_16  and  N5_17 
ROOT
HETATM    1  S1  UNL     1      -5.207  15.542  12.214  1.00  0.00     0.282 S 
HETATM    2  O1  UNL     1      -5.302  15.291  10.749  1.00  0.00    -0.203 OA
HETATM    3  O2  UNL     1      -5.205  14.219  12.913  1.00  0.00    -0.203 OA
ENDROOT
BRANCH   1   4
HETATM    4  C2  UNL     1      -3.740  16.382  12.649  1.00  0.00     0.248 A 
HETATM    5  N2  UNL     1      -3.063  16.269  13.826  1.00  0.00    -0.162 N 
HETATM    6  C1  UNL     1      -2.001  17.071  13.765  1.00  0.00     0.692 A 
ATOM      7  H2  UNL     1      -3.324  15.676  14.614  1.00  0.00     0.186 HD
HETATM    8  N7  UNL     1      -1.999  17.685  12.569  1.00  0.00    -0.130 N 
HETATM    9  N6  UNL     1      -3.056  17.263  11.897  1.00  0.00    -0.260 N 
ATOM     10  H7  UNL     1      -1.306  18.356  12.239  1.00  0.00     0.205 HD
ATOM     11  H6  UNL     1      -3.313  17.560  10.955  1.00  0.00     0.190 HD
BRANCH   6  12
HETATM   12  N1  UNL     1      -1.142  17.200  14.727  1.00  0.00    -0.233 N 
ATOM     13  H12 UNL     1      -1.301  17.572  15.662  1.00  0.00     0.174 HD
ATOM     14  H11 UNL     1      -0.162  16.929  14.650  1.00  0.00     0.174 HD
ENDBRANCH   6  12
ENDBRANCH   1   4
BRANCH   1  15
HETATM   15  N3  UNL     1      -6.569  16.427  12.802  1.00  0.00    -0.125 NA
HETATM   16  C3  UNL     1      -6.864  16.198  14.186  1.00  0.00     0.347 C 
HETATM   17  N4  UNL     1      -7.958  15.336  13.784  1.00  0.00    -0.020 N 
HETATM   18  C4  UNL     1      -7.852  15.903  12.451  1.00  0.00     0.475 C 
ATOM     19  H42 UNL     1      -7.909  14.328  13.929  1.00  0.00     0.282 HD
ATOM     20  H41 UNL     1      -8.844  15.348  14.288  1.00  0.00     0.282 HD
BRANCH  18  21
HETATM   21  N5  UNL     1      -8.829  16.979  12.324  1.00  0.00    -0.036 N 
ATOM     22  H53 UNL     1      -9.661  16.676  11.818  1.00  0.00     0.278 HD
ATOM     23  H52 UNL     1      -9.266  17.201  13.219  1.00  0.00     0.278 HD
ATOM     24  H51 UNL     1      -8.403  17.801  11.897  1.00  0.00     0.278 HD
ENDBRANCH  18  21
ENDBRANCH   1  15
TORSDOF 4
ENDMDL
MODEL 5
REMARK VINA RESULT: -4.956904093      1.420      4.714
REMARK  4 active torsions:
REMARK  status: ('A' for Active; 'I' for Inactive)
REMARK    1  A    between atoms: N1_1  and  C1_4 
REMARK    2  A    between atoms: C2_7  and  S1_8 
REMARK    3  A    between atoms: S1_8  and  N3_11 
REMARK    4  A    between atoms: C4_16  and  N5_17 
ROOT
HETATM    1  S1  UNL     1      -5.633  14.851  11.792  1.00  0.00     0.282 S 
HETATM    2  O1  UNL     1      -5.444  14.892  10.315  1.00  0.00    -0.203 OA
HETATM    3  O2  UNL     1      -4.395  15.394  12.434  1.00  0.00    -0.203 OA
ENDROOT
BRANCH   1   4
HETATM    4  C2  UNL     1      -6.983  15.829  12.314  1.00  0.00     0.248 A 
HETATM    5  N2  UNL     1      -7.056  16.555  13.464  1.00  0.00    -0.162 N 
HETATM    6  C1  UNL     1      -8.245  17.156  13.493  1.00  0.00     0.692 A 
ATOM      7  H2  UNL     1      -6.330  16.625  14.177  1.00  0.00     0.186 HD
HETATM    8  N7  UNL     1      -8.918  16.819  12.378  1.00  0.00    -0.130 N 
HETATM    9  N6  UNL     1      -8.148  16.014  11.668  1.00  0.00    -0.260 N 
ATOM     10  H7  UNL     1      -9.856  17.130  12.126  1.00  0.00     0.205 HD
ATOM     11  H6  UNL     1      -8.398  15.599  10.770  1.00  0.00     0.190 HD
BRANCH   6  12
HETATM   12  N1  UNL     1      -8.637  17.927  14.457  1.00  0.00    -0.233 N 
ATOM     13  H12 UNL     1      -8.080  18.588  14.997  1.00  0.00     0.174 HD
ATOM     14  H11 UNL     1      -9.597  17.960  14.800  1.00  0.00     0.174 HD
ENDBRANCH   6  12
ENDBRANCH   1   4
BRANCH   1  15
HETATM   15  N3  UNL     1      -5.840  13.236  12.366  1.00  0.00    -0.125 NA
HETATM   16  C3  UNL     1      -5.812  13.114  13.795  1.00  0.00     0.347 C 
HETATM   17  N4  UNL     1      -4.460  12.603  13.700  1.00  0.00    -0.020 N 
HETATM   18  C4  UNL     1      -4.690  12.391  12.281  1.00  0.00     0.475 C 
ATOM     19  H42 UNL     1      -3.667  13.158  14.023  1.00  0.00     0.282 HD
ATOM     20  H41 UNL     1      -4.147  11.839  14.298  1.00  0.00     0.282 HD
BRANCH  18  21
HETATM   21  N5  UNL     1      -5.087  11.003  12.076  1.00  0.00    -0.036 N 
ATOM     22  H53 UNL     1      -5.049  10.740  11.091  1.00  0.00     0.278 HD
ATOM     23  H52 UNL     1      -4.387  10.352  12.435  1.00  0.00     0.278 HD
ATOM     24  H51 UNL     1      -6.007  10.829  12.480  1.00  0.00     0.278 HD
ENDBRANCH  18  21
ENDBRANCH   1  15
TORSDOF 4
ENDMDL
