MODEL 1
REMARK VINA RESULT: -8.421545751      0.000      0.000
REMARK  7 active torsions:
REMARK  status: ('A' for Active; 'I' for Inactive)
REMARK    1  A    between atoms: C2_2  and  C3_3 
REMARK    2  A    between atoms: C4_4  and  O1_5 
REMARK    3  A    between atoms: C5_7  and  O2_8 
REMARK    4  A    between atoms: N1_10  and  C6_11 
REMARK    5  A    between atoms: C12_19  and  O3_20 
REMARK    6  A    between atoms: N2_24  and  C15_25 
REMARK    7  A    between atoms: C15_25  and  C16_26 
ROOT
HETATM    1  C3  UNL     1       1.932 -12.735 -16.487  1.00  0.00     0.039 A 
HETATM    2  C4  UNL     1       2.444 -13.797 -17.201  1.00  0.00     0.128 A 
HETATM    3  C5  UNL     1       2.601 -13.390 -18.499  1.00  0.00     0.184 A 
HETATM    4  N1  UNL     1       2.204 -12.110 -18.613  1.00  0.00    -0.270 N 
HETATM    5  C12 UNL     1       1.797 -11.710 -17.393  1.00  0.00     0.159 A 
ENDROOT
BRANCH   1   6
HETATM    6  C2  UNL     1       1.614 -12.780 -15.018  1.00  0.00    -0.005 C 
HETATM    7  C1  UNL     1       1.506 -11.331 -14.503  1.00  0.00     0.021 C 
HETATM    8  C13 UNL     1       0.279 -13.401 -14.755  1.00  0.00     0.044 C 
HETATM    9  C14 UNL     1       0.271 -14.734 -14.108  1.00  0.00     0.275 C 
HETATM   10  N2  UNL     1       1.372 -15.042 -13.256  1.00  0.00     0.108 N 
HETATM   11  C19 UNL     1       2.200 -13.890 -12.929  1.00  0.00     0.295 C 
HETATM   12 BR1  UNL     1       3.666 -14.484 -11.820  1.00  0.00    -0.058 Br
HETATM   13  C20 UNL     1       2.751 -13.376 -14.238  1.00  0.00     0.062 C 
BRANCH  10  14
HETATM   14  C15 UNL     1       0.972 -15.631 -12.002  1.00  0.00     0.332 C 
BRANCH  14  15
HETATM   15  C16 UNL     1       0.999 -17.118 -12.053  1.00  0.00     0.054 A 
HETATM   16  C17 UNL     1       1.817 -17.816 -12.924  1.00  0.00     0.115 A 
HETATM   17  N3  UNL     1       1.574 -19.117 -12.697  1.00  0.00    -0.360 N 
HETATM   18  C18 UNL     1       0.649 -19.257 -11.734  1.00  0.00     0.180 A 
ATOM     19  H3  UNL     1       2.027 -19.888 -13.186  1.00  0.00     0.166 HD
HETATM   20  N4  UNL     1       0.305 -18.016 -11.346  1.00  0.00    -0.353 N 
ATOM     21  H4  UNL     1      -0.381 -17.795 -10.624  1.00  0.00     0.166 HD
ENDBRANCH  14  15
ENDBRANCH  10  14
ENDBRANCH   1   6
BRANCH   2  22
HETATM   22  O1  UNL     1       2.762 -15.068 -16.745  1.00  0.00    -0.356 OA
ATOM     23  H1  UNL     1       2.442 -15.514 -15.969  1.00  0.00     0.218 HD
ENDBRANCH   2  22
BRANCH   5  24
HETATM   24  O3  UNL     1       1.299 -10.450 -17.033  1.00  0.00    -0.345 OA
ATOM     25  H3  UNL     1       1.722  -9.641 -17.297  1.00  0.00     0.219 HD
ENDBRANCH   5  24
BRANCH   3  26
HETATM   26  O2  UNL     1       3.105 -14.217 -19.524  1.00  0.00    -0.344 OA
ATOM     27  H2  UNL     1       3.373 -13.897 -20.377  1.00  0.00     0.219 HD
ENDBRANCH   3  26
BRANCH   4  28
HETATM   28  C6  UNL     1       2.224 -11.360 -19.808  1.00  0.00     0.047 A 
HETATM   29  C7  UNL     1       1.788 -11.967 -20.987  1.00  0.00     0.054 A 
HETATM   30  C8  UNL     1       1.804 -11.240 -22.158  1.00  0.00     0.037 A 
HETATM   31 CL1  UNL     1       1.269 -11.955 -23.650  1.00  0.00    -0.084 Cl
HETATM   32  C9  UNL     1       2.246  -9.935 -22.161  1.00  0.00     0.048 A 
HETATM   33  C10 UNL     1       2.678  -9.346 -20.977  1.00  0.00     0.037 A 
HETATM   34 CL2  UNL     1       3.246  -7.691 -20.944  1.00  0.00    -0.084 Cl
HETATM   35  C11 UNL     1       2.666 -10.059 -19.811  1.00  0.00     0.054 A 
ENDBRANCH   4  28
TORSDOF 7
ENDMDL
MODEL 2
REMARK VINA RESULT: -8.262065024      3.112      4.625
REMARK  7 active torsions:
REMARK  status: ('A' for Active; 'I' for Inactive)
REMARK    1  A    between atoms: C2_2  and  C3_3 
REMARK    2  A    between atoms: C4_4  and  O1_5 
REMARK    3  A    between atoms: C5_7  and  O2_8 
REMARK    4  A    between atoms: N1_10  and  C6_11 
REMARK    5  A    between atoms: C12_19  and  O3_20 
REMARK    6  A    between atoms: N2_24  and  C15_25 
REMARK    7  A    between atoms: C15_25  and  C16_26 
ROOT
HETATM    1  C3  UNL     1       0.619 -12.574 -13.857  1.00  0.00     0.039 A 
HETATM    2  C4  UNL     1       1.020 -11.728 -12.846  1.00  0.00     0.128 A 
HETATM    3  C5  UNL     1       1.365 -10.532 -13.415  1.00  0.00     0.184 A 
HETATM    4  N1  UNL     1       1.190 -10.607 -14.746  1.00  0.00    -0.270 N 
HETATM    5  C12 UNL     1       0.737 -11.846 -15.017  1.00  0.00     0.159 A 
ENDROOT
BRANCH   1   6
HETATM    6  C2  UNL     1       0.162 -13.990 -13.643  1.00  0.00    -0.005 C 
HETATM    7  C1  UNL     1      -1.038 -13.969 -12.676  1.00  0.00     0.021 C 
HETATM    8  C13 UNL     1      -0.349 -14.608 -14.905  1.00  0.00     0.044 C 
HETATM    9  C14 UNL     1       0.474 -15.681 -15.512  1.00  0.00     0.275 C 
HETATM   10  N2  UNL     1       1.281 -16.453 -14.624  1.00  0.00     0.108 N 
HETATM   11  C19 UNL     1       0.961 -16.253 -13.218  1.00  0.00     0.295 C 
HETATM   12 BR1  UNL     1       2.171 -17.322 -12.157  1.00  0.00    -0.058 Br
HETATM   13  C20 UNL     1       1.212 -14.792 -12.927  1.00  0.00     0.062 C 
BRANCH  10  14
HETATM   14  C15 UNL     1       1.196 -17.871 -14.869  1.00  0.00     0.332 C 
BRANCH  14  15
HETATM   15  C16 UNL     1      -0.214 -18.327 -15.005  1.00  0.00     0.054 A 
HETATM   16  C17 UNL     1      -0.865 -19.034 -14.009  1.00  0.00     0.115 A 
HETATM   17  N3  UNL     1      -2.100 -19.279 -14.475  1.00  0.00    -0.360 N 
HETATM   18  C18 UNL     1      -2.244 -18.762 -15.705  1.00  0.00     0.180 A 
ATOM     19  H3  UNL     1      -2.825 -19.785 -13.966  1.00  0.00     0.166 HD
HETATM   20  N4  UNL     1      -1.074 -18.178 -16.019  1.00  0.00    -0.353 N 
ATOM     21  H4  UNL     1      -0.873 -17.696 -16.895  1.00  0.00     0.166 HD
ENDBRANCH  14  15
ENDBRANCH  10  14
ENDBRANCH   1   6
BRANCH   2  22
HETATM   22  O1  UNL     1       1.085 -11.984 -11.484  1.00  0.00    -0.356 OA
ATOM     23  H1  UNL     1       1.052 -11.364 -10.765  1.00  0.00     0.218 HD
ENDBRANCH   2  22
BRANCH   5  24
HETATM   24  O3  UNL     1       0.415 -12.377 -16.274  1.00  0.00    -0.345 OA
ATOM     25  H3  UNL     1       1.059 -12.478 -16.964  1.00  0.00     0.219 HD
ENDBRANCH   5  24
BRANCH   3  26
HETATM   26  O2  UNL     1       1.827  -9.419 -12.680  1.00  0.00    -0.344 OA
ATOM     27  H2  UNL     1       1.667  -8.517 -12.933  1.00  0.00     0.219 HD
ENDBRANCH   3  26
BRANCH   4  28
HETATM   28  C6  UNL     1       1.446  -9.559 -15.656  1.00  0.00     0.047 A 
HETATM   29  C7  UNL     1       1.111  -8.255 -15.288  1.00  0.00     0.054 A 
HETATM   30  C8  UNL     1       1.359  -7.227 -16.172  1.00  0.00     0.037 A 
HETATM   31 CL1  UNL     1       0.958  -5.587 -15.755  1.00  0.00    -0.084 Cl
HETATM   32  C9  UNL     1       1.927  -7.486 -17.400  1.00  0.00     0.048 A 
HETATM   33  C10 UNL     1       2.254  -8.792 -17.751  1.00  0.00     0.037 A 
HETATM   34 CL2  UNL     1       2.977  -9.159 -19.302  1.00  0.00    -0.084 Cl
HETATM   35  C11 UNL     1       2.012  -9.819 -16.881  1.00  0.00     0.054 A 
ENDBRANCH   4  28
TORSDOF 7
ENDMDL
MODEL 3
REMARK VINA RESULT: -8.258936801      3.104      4.401
REMARK  7 active torsions:
REMARK  status: ('A' for Active; 'I' for Inactive)
REMARK    1  A    between atoms: C2_2  and  C3_3 
REMARK    2  A    between atoms: C4_4  and  O1_5 
REMARK    3  A    between atoms: C5_7  and  O2_8 
REMARK    4  A    between atoms: N1_10  and  C6_11 
REMARK    5  A    between atoms: C12_19  and  O3_20 
REMARK    6  A    between atoms: N2_24  and  C15_25 
REMARK    7  A    between atoms: C15_25  and  C16_26 
ROOT
HETATM    1  C3  UNL     1       0.619 -12.570 -13.853  1.00  0.00     0.039 A 
HETATM    2  C4  UNL     1       1.022 -11.725 -12.841  1.00  0.00     0.128 A 
HETATM    3  C5  UNL     1       1.366 -10.528 -13.408  1.00  0.00     0.184 A 
HETATM    4  N1  UNL     1       1.190 -10.601 -14.739  1.00  0.00    -0.270 N 
HETATM    5  C12 UNL     1       0.737 -11.840 -15.012  1.00  0.00     0.159 A 
ENDROOT
BRANCH   1   6
HETATM    6  C2  UNL     1       0.163 -13.986 -13.641  1.00  0.00    -0.005 C 
HETATM    7  C1  UNL     1      -1.039 -13.966 -12.676  1.00  0.00     0.021 C 
HETATM    8  C13 UNL     1      -0.345 -14.604 -14.904  1.00  0.00     0.044 C 
HETATM    9  C14 UNL     1       0.480 -15.676 -15.510  1.00  0.00     0.275 C 
HETATM   10  N2  UNL     1       1.286 -16.448 -14.621  1.00  0.00     0.108 N 
HETATM   11  C19 UNL     1       0.962 -16.249 -13.216  1.00  0.00     0.295 C 
HETATM   12 BR1  UNL     1       2.170 -17.318 -12.152  1.00  0.00    -0.058 Br
HETATM   13  C20 UNL     1       1.212 -14.788 -12.923  1.00  0.00     0.062 C 
BRANCH  10  14
HETATM   14  C15 UNL     1       1.201 -17.866 -14.867  1.00  0.00     0.332 C 
BRANCH  14  15
HETATM   15  C16 UNL     1      -0.208 -18.324 -15.002  1.00  0.00     0.054 A 
HETATM   16  C17 UNL     1      -0.856 -19.036 -14.008  1.00  0.00     0.115 A 
HETATM   17  N3  UNL     1      -2.091 -19.280 -14.473  1.00  0.00    -0.360 N 
HETATM   18  C18 UNL     1      -2.238 -18.758 -15.700  1.00  0.00     0.180 A 
ATOM     19  H3  UNL     1      -2.814 -19.790 -13.966  1.00  0.00     0.166 HD
HETATM   20  N4  UNL     1      -1.070 -18.171 -16.013  1.00  0.00    -0.353 N 
ATOM     21  H4  UNL     1      -0.871 -17.683 -16.887  1.00  0.00     0.166 HD
ENDBRANCH  14  15
ENDBRANCH  10  14
ENDBRANCH   1   6
BRANCH   2  22
HETATM   22  O1  UNL     1       1.088 -11.984 -11.479  1.00  0.00    -0.356 OA
ATOM     23  H1  UNL     1       0.373 -12.059 -10.858  1.00  0.00     0.218 HD
ENDBRANCH   2  22
BRANCH   5  24
HETATM   24  O3  UNL     1       0.414 -12.369 -16.270  1.00  0.00    -0.345 OA
ATOM     25  H3  UNL     1      -0.404 -12.820 -16.438  1.00  0.00     0.219 HD
ENDBRANCH   5  24
BRANCH   3  26
HETATM   26  O2  UNL     1       1.829  -9.416 -12.673  1.00  0.00    -0.344 OA
ATOM     27  H2  UNL     1       2.461  -8.791 -13.005  1.00  0.00     0.219 HD
ENDBRANCH   3  26
BRANCH   4  28
HETATM   28  C6  UNL     1       1.445  -9.552 -15.649  1.00  0.00     0.047 A 
HETATM   29  C7  UNL     1       2.022  -9.861 -16.882  1.00  0.00     0.054 A 
HETATM   30  C8  UNL     1       2.273  -8.842 -17.775  1.00  0.00     0.037 A 
HETATM   31 CL1  UNL     1       2.991  -9.180 -19.323  1.00  0.00    -0.084 Cl
HETATM   32  C9  UNL     1       1.960  -7.540 -17.452  1.00  0.00     0.048 A 
HETATM   33  C10 UNL     1       1.385  -7.250 -16.219  1.00  0.00     0.037 A 
HETATM   34 CL2  UNL     1       0.974  -5.609 -15.775  1.00  0.00    -0.084 Cl
HETATM   35  C11 UNL     1       1.132  -8.255 -15.326  1.00  0.00     0.054 A 
ENDBRANCH   4  28
TORSDOF 7
ENDMDL
MODEL 4
REMARK VINA RESULT: -8.199467856      3.306      4.848
REMARK  7 active torsions:
REMARK  status: ('A' for Active; 'I' for Inactive)
REMARK    1  A    between atoms: C2_2  and  C3_3 
REMARK    2  A    between atoms: C4_4  and  O1_5 
REMARK    3  A    between atoms: C5_7  and  O2_8 
REMARK    4  A    between atoms: N1_10  and  C6_11 
REMARK    5  A    between atoms: C12_19  and  O3_20 
REMARK    6  A    between atoms: N2_24  and  C15_25 
REMARK    7  A    between atoms: C15_25  and  C16_26 
ROOT
HETATM    1  C3  UNL     1       0.614 -12.486 -13.842  1.00  0.00     0.039 A 
HETATM    2  C4  UNL     1       1.039 -11.633 -12.845  1.00  0.00     0.128 A 
HETATM    3  C5  UNL     1       1.394 -10.449 -13.433  1.00  0.00     0.184 A 
HETATM    4  N1  UNL     1       1.204 -10.538 -14.761  1.00  0.00    -0.270 N 
HETATM    5  C12 UNL     1       0.730 -11.774 -15.012  1.00  0.00     0.159 A 
ENDROOT
BRANCH   1   6
HETATM    6  C2  UNL     1       0.140 -13.892 -13.605  1.00  0.00    -0.005 C 
HETATM    7  C1  UNL     1      -1.024 -13.846 -12.595  1.00  0.00     0.021 C 
HETATM    8  C13 UNL     1      -0.427 -14.506 -14.844  1.00  0.00     0.044 C 
HETATM    9  C14 UNL     1       0.354 -15.596 -15.475  1.00  0.00     0.275 C 
HETATM   10  N2  UNL     1       1.179 -16.379 -14.614  1.00  0.00     0.108 N 
HETATM   11  C19 UNL     1       0.913 -16.168 -13.199  1.00  0.00     0.295 C 
HETATM   12 BR1  UNL     1       2.141 -17.255 -12.177  1.00  0.00    -0.058 Br
HETATM   13  C20 UNL     1       1.201 -14.711 -12.923  1.00  0.00     0.062 C 
BRANCH  10  14
HETATM   14  C15 UNL     1       1.059 -17.796 -14.849  1.00  0.00     0.332 C 
BRANCH  14  15
HETATM   15  C16 UNL     1       0.593 -18.093 -16.231  1.00  0.00     0.054 A 
HETATM   16  C17 UNL     1      -0.688 -18.541 -16.502  1.00  0.00     0.115 A 
HETATM   17  N3  UNL     1      -0.749 -18.706 -17.832  1.00  0.00    -0.360 N 
HETATM   18  C18 UNL     1       0.426 -18.385 -18.396  1.00  0.00     0.180 A 
ATOM     19  H3  UNL     1      -1.571 -19.029 -18.343  1.00  0.00     0.166 HD
HETATM   20  N4  UNL     1       1.243 -18.008 -17.396  1.00  0.00    -0.353 N 
ATOM     21  H4  UNL     1       2.210 -17.704 -17.510  1.00  0.00     0.166 HD
ENDBRANCH  14  15
ENDBRANCH  10  14
ENDBRANCH   1   6
BRANCH   2  22
HETATM   22  O1  UNL     1       1.115 -11.873 -11.481  1.00  0.00    -0.356 OA
ATOM     23  H1  UNL     1       0.443 -12.218 -10.904  1.00  0.00     0.218 HD
ENDBRANCH   2  22
BRANCH   5  24
HETATM   24  O3  UNL     1       0.387 -12.316 -16.258  1.00  0.00    -0.345 OA
ATOM     25  H3  UNL     1      -0.447 -12.141 -16.678  1.00  0.00     0.219 HD
ENDBRANCH   5  24
BRANCH   3  26
HETATM   26  O2  UNL     1       1.880  -9.334 -12.718  1.00  0.00    -0.344 OA
ATOM     27  H2  UNL     1       2.656  -8.846 -12.965  1.00  0.00     0.219 HD
ENDBRANCH   3  26
BRANCH   4  28
HETATM   28  C6  UNL     1       1.464  -9.506 -15.687  1.00  0.00     0.047 A 
HETATM   29  C7  UNL     1       1.144  -8.194 -15.335  1.00  0.00     0.054 A 
HETATM   30  C8  UNL     1       1.396  -7.180 -16.235  1.00  0.00     0.037 A 
HETATM   31 CL1  UNL     1       1.014  -5.531 -15.837  1.00  0.00    -0.084 Cl
HETATM   32  C9  UNL     1       1.954  -7.462 -17.462  1.00  0.00     0.048 A 
HETATM   33  C10 UNL     1       2.267  -8.776 -17.797  1.00  0.00     0.037 A 
HETATM   34 CL2  UNL     1       2.977  -9.170 -19.347  1.00  0.00    -0.084 Cl
HETATM   35  C11 UNL     1       2.020  -9.787 -16.911  1.00  0.00     0.054 A 
ENDBRANCH   4  28
TORSDOF 7
ENDMDL
MODEL 5
REMARK VINA RESULT: -8.051003134      5.336      7.458
REMARK  7 active torsions:
REMARK  status: ('A' for Active; 'I' for Inactive)
REMARK    1  A    between atoms: C2_2  and  C3_3 
REMARK    2  A    between atoms: C4_4  and  O1_5 
REMARK    3  A    between atoms: C5_7  and  O2_8 
REMARK    4  A    between atoms: N1_10  and  C6_11 
REMARK    5  A    between atoms: C12_19  and  O3_20 
REMARK    6  A    between atoms: N2_24  and  C15_25 
REMARK    7  A    between atoms: C15_25  and  C16_26 
ROOT
HETATM    1  C3  UNL     1       1.970 -11.684 -18.330  1.00  0.00     0.039 A 
HETATM    2  C4  UNL     1       2.305 -10.503 -18.956  1.00  0.00     0.128 A 
HETATM    3  C5  UNL     1       2.186  -9.495 -18.037  1.00  0.00     0.184 A 
HETATM    4  N1  UNL     1       1.789 -10.012 -16.861  1.00  0.00    -0.270 N 
HETATM    5  C12 UNL     1       1.657 -11.341 -17.036  1.00  0.00     0.159 A 
ENDROOT
BRANCH   1   6
HETATM    6  C2  UNL     1       1.971 -13.027 -19.004  1.00  0.00    -0.005 C 
HETATM    7  C1  UNL     1       3.417 -13.561 -19.013  1.00  0.00     0.021 C 
HETATM    8  C13 UNL     1       1.175 -14.036 -18.240  1.00  0.00     0.044 C 
HETATM    9  C14 UNL     1      -0.100 -14.488 -18.845  1.00  0.00     0.275 C 
HETATM   10  N2  UNL     1      -0.184 -14.455 -20.268  1.00  0.00     0.108 N 
HETATM   11  C19 UNL     1       1.098 -14.246 -20.926  1.00  0.00     0.295 C 
HETATM   12 BR1  UNL     1       0.803 -14.174 -22.834  1.00  0.00    -0.058 Br
HETATM   13  C20 UNL     1       1.605 -12.902 -20.456  1.00  0.00     0.062 C 
BRANCH  10  14
HETATM   14  C15 UNL     1      -0.745 -15.658 -20.831  1.00  0.00     0.332 C 
BRANCH  14  15
HETATM   15  C16 UNL     1      -2.201 -15.517 -21.104  1.00  0.00     0.054 A 
HETATM   16  C17 UNL     1      -2.963 -16.551 -21.618  1.00  0.00     0.115 A 
HETATM   17  N3  UNL     1      -4.210 -16.069 -21.736  1.00  0.00    -0.360 N 
HETATM   18  C18 UNL     1      -4.257 -14.793 -21.323  1.00  0.00     0.180 A 
ATOM     19  H3  UNL     1      -5.008 -16.597 -22.090  1.00  0.00     0.166 HD
HETATM   20  N4  UNL     1      -3.011 -14.467 -20.936  1.00  0.00    -0.353 N 
ATOM     21  H4  UNL     1      -2.728 -13.557 -20.569  1.00  0.00     0.166 HD
ENDBRANCH  14  15
ENDBRANCH  10  14
ENDBRANCH   1   6
BRANCH   2  22
HETATM   22  O1  UNL     1       2.697 -10.307 -20.272  1.00  0.00    -0.356 OA
ATOM     23  H1  UNL     1       2.500  -9.574 -20.844  1.00  0.00     0.218 HD
ENDBRANCH   2  22
BRANCH   5  24
HETATM   24  O3  UNL     1       1.263 -12.289 -16.081  1.00  0.00    -0.345 OA
ATOM     25  H3  UNL     1       0.453 -12.212 -15.591  1.00  0.00     0.219 HD
ENDBRANCH   5  24
BRANCH   3  26
HETATM   26  O2  UNL     1       2.450  -8.139 -18.322  1.00  0.00    -0.344 OA
ATOM     27  H2  UNL     1       1.913  -7.606 -18.896  1.00  0.00     0.219 HD
ENDBRANCH   3  26
BRANCH   4  28
HETATM   28  C6  UNL     1       1.564  -9.267 -15.684  1.00  0.00     0.047 A 
HETATM   29  C7  UNL     1       1.480  -7.877 -15.777  1.00  0.00     0.054 A 
HETATM   30  C8  UNL     1       1.258  -7.143 -14.632  1.00  0.00     0.037 A 
HETATM   31 CL1  UNL     1       1.147  -5.409 -14.702  1.00  0.00    -0.084 Cl
HETATM   32  C9  UNL     1       1.124  -7.774 -13.415  1.00  0.00     0.048 A 
HETATM   33  C10 UNL     1       1.211  -9.161 -13.340  1.00  0.00     0.037 A 
HETATM   34 CL2  UNL     1       1.045  -9.997 -11.812  1.00  0.00    -0.084 Cl
HETATM   35  C11 UNL     1       1.430  -9.898 -14.471  1.00  0.00     0.054 A 
ENDBRANCH   4  28
TORSDOF 7
ENDMDL
