MODEL 1
REMARK VINA RESULT: -8.304399447      0.000      0.000
REMARK  6 active torsions:
REMARK  status: ('A' for Active; 'I' for Inactive)
REMARK    1  A    between atoms: C2_2  and  C5_5 
REMARK    2  A    between atoms: C7_9  and  N1_10 
REMARK    3  A    between atoms: C9_16  and  S3_17 
REMARK    4  A    between atoms: S3_17  and  N3_20 
REMARK       I    between atoms: N3_20  and  C10_22 
REMARK       I    between atoms: C10_22  and  N4_24 
REMARK    5  A    between atoms: N4_24  and  C11_26 
REMARK    6  A    between atoms: C11_26  and  C12_27 
ROOT
HETATM    1  S3  UNL     1      -0.888 -16.294 -16.891  1.00  0.00     0.270 S 
HETATM    2  O1  UNL     1      -0.341 -16.296 -18.306  1.00  0.00    -0.200 OA
HETATM    3  O2  UNL     1      -2.319 -16.646 -16.875  1.00  0.00    -0.200 OA
ENDROOT
BRANCH   1   4
HETATM    4  C9  UNL     1       0.119 -17.369 -15.858  1.00  0.00     0.122 A 
HETATM    5  C5  UNL     1       0.479 -18.578 -16.299  1.00  0.00     0.017 A 
HETATM    6  S1  UNL     1       1.413 -19.279 -15.019  1.00  0.00    -0.083 SA
HETATM    7  C6  UNL     1       1.299 -17.957 -13.946  1.00  0.00     0.077 A 
HETATM    8  S2  UNL     1       1.720 -17.294 -12.393  1.00  0.00    -0.045 SA
HETATM    9  C8  UNL     1       0.557 -16.997 -14.563  1.00  0.00     0.083 A 
HETATM   10  C7  UNL     1       0.921 -15.823 -12.621  1.00  0.00     0.143 A 
HETATM   11  N2  UNL     1       0.377 -15.877 -13.826  1.00  0.00    -0.334 N 
ATOM     12  H2  UNL     1      -0.163 -15.093 -14.190  1.00  0.00     0.168 HD
BRANCH   5  13
HETATM   13  C2  UNL     1       0.250 -19.338 -17.587  1.00  0.00    -0.016 C 
HETATM   14  C1  UNL     1      -1.170 -19.599 -17.916  1.00  0.00     0.020 C 
HETATM   15  C3  UNL     1       0.812 -20.788 -17.328  1.00  0.00     0.020 C 
HETATM   16  C4  UNL     1       1.116 -18.850 -18.710  1.00  0.00     0.020 C 
ENDBRANCH   5  13
BRANCH  10  17
HETATM   17  N1  UNL     1       0.842 -14.805 -11.775  1.00  0.00    -0.380 N 
ATOM     18  H12 UNL     1       0.821 -13.817 -12.028  1.00  0.00     0.158 HD
ATOM     19  H11 UNL     1       0.789 -14.842 -10.758  1.00  0.00     0.158 HD
ENDBRANCH  10  17
ENDBRANCH   1   4
BRANCH   1  20
HETATM   20  N3  UNL     1      -0.767 -14.657 -16.361  1.00  0.00    -0.232 N 
HETATM   21  C10 UNL     1       0.458 -13.929 -16.372  1.00  0.00     0.330 C 
HETATM   22  O3  UNL     1       1.471 -14.552 -16.800  1.00  0.00    -0.246 OA
HETATM   23  N4  UNL     1       0.599 -12.607 -15.952  1.00  0.00    -0.336 N 
ATOM     24  H4  UNL     1      -0.216 -12.099 -15.607  1.00  0.00     0.164 HD
ATOM     25  H3  UNL     1      -1.609 -14.190 -16.023  1.00  0.00     0.183 HD
BRANCH  23  26
HETATM   26  C11 UNL     1       1.879 -11.948 -15.998  1.00  0.00     0.194 C 
BRANCH  26  27
HETATM   27  C12 UNL     1       1.839 -10.653 -16.697  1.00  0.00     0.114 C 
HETATM   28  F1  UNL     1       1.495 -10.588 -17.995  1.00  0.00    -0.209 F 
HETATM   29  C13 UNL     1       2.140  -9.545 -16.050  1.00  0.00    -0.044 C 
HETATM   30  C14 UNL     1       2.110  -8.199 -16.732  1.00  0.00     0.038 C 
HETATM   31  C18 UNL     1       2.532  -9.510 -14.605  1.00  0.00     0.038 C 
HETATM   32  C15 UNL     1       1.079  -7.331 -16.029  1.00  0.00     0.024 C 
HETATM   33  C16 UNL     1       1.251  -7.372 -14.532  1.00  0.00     0.083 C 
HETATM   34 CL1  UNL     1       1.176  -5.751 -13.838  1.00  0.00    -0.125 Cl
HETATM   35  C17 UNL     1       2.546  -8.044 -14.158  1.00  0.00     0.024 C 
ENDBRANCH  26  27
ENDBRANCH  23  26
ENDBRANCH   1  20
TORSDOF 6
ENDMDL
MODEL 2
REMARK VINA RESULT: -8.270278827     14.417     16.939
REMARK  6 active torsions:
REMARK  status: ('A' for Active; 'I' for Inactive)
REMARK    1  A    between atoms: C2_2  and  C5_5 
REMARK    2  A    between atoms: C7_9  and  N1_10 
REMARK    3  A    between atoms: C9_16  and  S3_17 
REMARK    4  A    between atoms: S3_17  and  N3_20 
REMARK       I    between atoms: N3_20  and  C10_22 
REMARK       I    between atoms: C10_22  and  N4_24 
REMARK    5  A    between atoms: N4_24  and  C11_26 
REMARK    6  A    between atoms: C11_26  and  C12_27 
ROOT
HETATM    1  S3  UNL     1       1.562  -0.704 -22.256  1.00  0.00     0.270 S 
HETATM    2  O1  UNL     1       0.583  -1.855 -22.117  1.00  0.00    -0.200 OA
HETATM    3  O2  UNL     1       2.903  -1.190 -22.625  1.00  0.00    -0.200 OA
ENDROOT
BRANCH   1   4
HETATM    4  C9  UNL     1       0.902   0.506 -23.413  1.00  0.00     0.122 A 
HETATM    5  C5  UNL     1       1.720   1.373 -24.017  1.00  0.00     0.017 A 
HETATM    6  S1  UNL     1       0.701   2.350 -25.020  1.00  0.00    -0.083 SA
HETATM    7  C6  UNL     1      -0.768   1.585 -24.612  1.00  0.00     0.077 A 
HETATM    8  S2  UNL     1      -2.492   1.515 -24.838  1.00  0.00    -0.045 SA
HETATM    9  C8  UNL     1      -0.478   0.598 -23.721  1.00  0.00     0.083 A 
HETATM   10  C7  UNL     1      -2.745   0.225 -23.779  1.00  0.00     0.143 A 
HETATM   11  N2  UNL     1      -1.555  -0.103 -23.301  1.00  0.00    -0.334 N 
ATOM     12  H2  UNL     1      -1.453  -0.867 -22.633  1.00  0.00     0.168 HD
BRANCH   5  13
HETATM   13  C2  UNL     1       3.216   1.601 -23.988  1.00  0.00    -0.016 C 
HETATM   14  C1  UNL     1       3.760   2.019 -22.675  1.00  0.00     0.020 C 
HETATM   15  C3  UNL     1       3.467   2.876 -24.881  1.00  0.00     0.020 C 
HETATM   16  C4  UNL     1       3.980   0.537 -24.718  1.00  0.00     0.020 C 
ENDBRANCH   5  13
BRANCH  10  17
HETATM   17  N1  UNL     1      -3.895  -0.359 -23.472  1.00  0.00    -0.380 N 
ATOM     18  H12 UNL     1      -4.321  -1.142 -23.969  1.00  0.00     0.158 HD
ATOM     19  H11 UNL     1      -4.528  -0.127 -22.707  1.00  0.00     0.158 HD
ENDBRANCH  10  17
ENDBRANCH   1   4
BRANCH   1  20
HETATM   20  N3  UNL     1       1.690  -0.024 -20.676  1.00  0.00    -0.232 N 
HETATM   21  C10 UNL     1       0.570   0.134 -19.809  1.00  0.00     0.330 C 
HETATM   22  O3  UNL     1      -0.544  -0.256 -20.262  1.00  0.00    -0.246 OA
HETATM   23  N4  UNL     1       0.629   0.679 -18.526  1.00  0.00    -0.336 N 
ATOM     24  H4  UNL     1       1.526   0.995 -18.156  1.00  0.00     0.164 HD
ATOM     25  H3  UNL     1       2.607   0.278 -20.347  1.00  0.00     0.183 HD
BRANCH  23  26
HETATM   26  C11 UNL     1      -0.557   0.802 -17.718  1.00  0.00     0.194 C 
BRANCH  26  27
HETATM   27  C12 UNL     1      -0.705  -0.286 -16.739  1.00  0.00     0.114 C 
HETATM   28  F1  UNL     1       0.375  -0.931 -16.264  1.00  0.00    -0.209 F 
HETATM   29  C13 UNL     1      -1.905  -0.635 -16.317  1.00  0.00    -0.044 C 
HETATM   30  C14 UNL     1      -2.098  -1.746 -15.314  1.00  0.00     0.038 C 
HETATM   31  C18 UNL     1      -3.168   0.021 -16.781  1.00  0.00     0.038 C 
HETATM   32  C15 UNL     1      -2.756  -1.159 -14.075  1.00  0.00     0.024 C 
HETATM   33  C16 UNL     1      -3.944  -0.303 -14.433  1.00  0.00     0.083 C 
HETATM   34 CL1  UNL     1      -5.328  -0.672 -13.403  1.00  0.00    -0.125 Cl
HETATM   35  C17 UNL     1      -4.309  -0.473 -15.884  1.00  0.00     0.024 C 
ENDBRANCH  26  27
ENDBRANCH  23  26
ENDBRANCH   1  20
TORSDOF 6
ENDMDL
MODEL 3
REMARK VINA RESULT: -8.258867318      1.115      1.258
REMARK  6 active torsions:
REMARK  status: ('A' for Active; 'I' for Inactive)
REMARK    1  A    between atoms: C2_2  and  C5_5 
REMARK    2  A    between atoms: C7_9  and  N1_10 
REMARK    3  A    between atoms: C9_16  and  S3_17 
REMARK    4  A    between atoms: S3_17  and  N3_20 
REMARK       I    between atoms: N3_20  and  C10_22 
REMARK       I    between atoms: C10_22  and  N4_24 
REMARK    5  A    between atoms: N4_24  and  C11_26 
REMARK    6  A    between atoms: C11_26  and  C12_27 
ROOT
HETATM    1  S3  UNL     1      -0.894 -16.267 -16.766  1.00  0.00     0.270 S 
HETATM    2  O1  UNL     1       0.044 -16.591 -17.914  1.00  0.00    -0.200 OA
HETATM    3  O2  UNL     1      -2.299 -16.496 -17.149  1.00  0.00    -0.200 OA
ENDROOT
BRANCH   1   4
HETATM    4  C9  UNL     1      -0.396 -17.195 -15.307  1.00  0.00     0.122 A 
HETATM    5  C5  UNL     1      -0.789 -18.463 -15.151  1.00  0.00     0.017 A 
HETATM    6  S1  UNL     1      -0.116 -18.974 -13.639  1.00  0.00    -0.083 SA
HETATM    7  C6  UNL     1       0.662 -17.502 -13.262  1.00  0.00     0.077 A 
HETATM    8  S2  UNL     1       1.646 -16.616 -12.134  1.00  0.00    -0.045 SA
HETATM    9  C8  UNL     1       0.407 -16.637 -14.281  1.00  0.00     0.083 A 
HETATM   10  C7  UNL     1       1.676 -15.186 -13.031  1.00  0.00     0.143 A 
HETATM   11  N2  UNL     1       0.963 -15.415 -14.122  1.00  0.00    -0.334 N 
ATOM     12  H2  UNL     1       0.836 -14.687 -14.825  1.00  0.00     0.168 HD
BRANCH   5  13
HETATM   13  C2  UNL     1      -1.611 -19.418 -15.987  1.00  0.00    -0.016 C 
HETATM   14  C1  UNL     1      -3.070 -19.161 -15.981  1.00  0.00     0.020 C 
HETATM   15  C3  UNL     1      -1.508 -20.814 -15.260  1.00  0.00     0.020 C 
HETATM   16  C4  UNL     1      -0.990 -19.702 -17.323  1.00  0.00     0.020 C 
ENDBRANCH   5  13
BRANCH  10  17
HETATM   17  N1  UNL     1       2.286 -14.049 -12.724  1.00  0.00    -0.380 N 
ATOM     18  H12 UNL     1       1.873 -13.117 -12.766  1.00  0.00     0.158 HD
ATOM     19  H11 UNL     1       3.245 -13.923 -12.402  1.00  0.00     0.158 HD
ENDBRANCH  10  17
ENDBRANCH   1   4
BRANCH   1  20
HETATM   20  N3  UNL     1      -0.715 -14.574 -16.497  1.00  0.00    -0.232 N 
HETATM   21  C10 UNL     1       0.533 -13.897 -16.627  1.00  0.00     0.330 C 
HETATM   22  O3  UNL     1       1.522 -14.613 -16.956  1.00  0.00    -0.246 OA
HETATM   23  N4  UNL     1       0.721 -12.532 -16.418  1.00  0.00    -0.336 N 
ATOM     24  H4  UNL     1      -0.073 -11.949 -16.153  1.00  0.00     0.164 HD
ATOM     25  H3  UNL     1      -1.538 -14.031 -16.234  1.00  0.00     0.183 HD
BRANCH  23  26
HETATM   26  C11 UNL     1       2.022 -11.931 -16.571  1.00  0.00     0.194 C 
BRANCH  26  27
HETATM   27  C12 UNL     1       1.969 -10.568 -17.123  1.00  0.00     0.114 C 
HETATM   28  F1  UNL     1       1.646 -10.365 -18.411  1.00  0.00    -0.209 F 
HETATM   29  C13 UNL     1       2.238  -9.534 -16.351  1.00  0.00    -0.044 C 
HETATM   30  C14 UNL     1       2.195  -8.121 -16.881  1.00  0.00     0.038 C 
HETATM   31  C18 UNL     1       2.605  -9.652 -14.905  1.00  0.00     0.038 C 
HETATM   32  C15 UNL     1       1.135  -7.354 -16.105  1.00  0.00     0.024 C 
HETATM   33  C16 UNL     1       1.283  -7.558 -14.619  1.00  0.00     0.083 C 
HETATM   34 CL1  UNL     1       1.167  -6.026 -13.752  1.00  0.00    -0.125 Cl
HETATM   35  C17 UNL     1       2.584  -8.245 -14.298  1.00  0.00     0.024 C 
ENDBRANCH  26  27
ENDBRANCH  23  26
ENDBRANCH   1  20
TORSDOF 6
ENDMDL
MODEL 4
REMARK VINA RESULT: -8.253159014      5.040      7.415
REMARK  6 active torsions:
REMARK  status: ('A' for Active; 'I' for Inactive)
REMARK    1  A    between atoms: C2_2  and  C5_5 
REMARK    2  A    between atoms: C7_9  and  N1_10 
REMARK    3  A    between atoms: C9_16  and  S3_17 
REMARK    4  A    between atoms: S3_17  and  N3_20 
REMARK       I    between atoms: N3_20  and  C10_22 
REMARK       I    between atoms: C10_22  and  N4_24 
REMARK    5  A    between atoms: N4_24  and  C11_26 
REMARK    6  A    between atoms: C11_26  and  C12_27 
ROOT
HETATM    1  S3  UNL     1       1.280 -14.378 -16.046  1.00  0.00     0.270 S 
HETATM    2  O1  UNL     1       2.483 -14.736 -16.899  1.00  0.00    -0.200 OA
HETATM    3  O2  UNL     1       1.117 -15.329 -14.932  1.00  0.00    -0.200 OA
ENDROOT
BRANCH   1   4
HETATM    4  C9  UNL     1       1.419 -12.668 -15.504  1.00  0.00     0.122 A 
HETATM    5  C5  UNL     1       1.221 -12.351 -14.222  1.00  0.00     0.017 A 
HETATM    6  S1  UNL     1       1.434 -10.635 -14.129  1.00  0.00    -0.083 SA
HETATM    7  C6  UNL     1       1.777 -10.390 -15.782  1.00  0.00     0.077 A 
HETATM    8  S2  UNL     1       2.165  -9.254 -17.042  1.00  0.00    -0.045 SA
HETATM    9  C8  UNL     1       1.728 -11.606 -16.391  1.00  0.00     0.083 A 
HETATM   10  C7  UNL     1       2.243 -10.401 -18.279  1.00  0.00     0.143 A 
HETATM   11  N2  UNL     1       1.981 -11.571 -17.719  1.00  0.00    -0.334 N 
ATOM     12  H2  UNL     1       1.971 -12.426 -18.276  1.00  0.00     0.168 HD
BRANCH   5  13
HETATM   13  C2  UNL     1       0.900 -13.153 -12.979  1.00  0.00    -0.016 C 
HETATM   14  C1  UNL     1      -0.401 -13.860 -13.009  1.00  0.00     0.020 C 
HETATM   15  C3  UNL     1       0.685 -12.091 -11.834  1.00  0.00     0.020 C 
HETATM   16  C4  UNL     1       2.075 -13.940 -12.476  1.00  0.00     0.020 C 
ENDBRANCH   5  13
BRANCH  10  17
HETATM   17  N1  UNL     1       2.511 -10.194 -19.561  1.00  0.00    -0.380 N 
ATOM     18  H12 UNL     1       1.880  -9.775 -20.245  1.00  0.00     0.158 HD
ATOM     19  H11 UNL     1       3.371 -10.415 -20.062  1.00  0.00     0.158 HD
ENDBRANCH  10  17
ENDBRANCH   1   4
BRANCH   1  20
HETATM   20  N3  UNL     1      -0.085 -14.577 -17.081  1.00  0.00    -0.232 N 
HETATM   21  C10 UNL     1      -0.017 -14.405 -18.494  1.00  0.00     0.330 C 
HETATM   22  O3  UNL     1       1.116 -14.095 -18.962  1.00  0.00    -0.246 OA
HETATM   23  N4  UNL     1      -1.095 -14.555 -19.365  1.00  0.00    -0.336 N 
ATOM     24  H4  UNL     1      -2.011 -14.805 -18.993  1.00  0.00     0.164 HD
ATOM     25  H3  UNL     1      -0.982 -14.828 -16.664  1.00  0.00     0.183 HD
BRANCH  23  26
HETATM   26  C11 UNL     1      -0.934 -14.360 -20.784  1.00  0.00     0.194 C 
BRANCH  26  27
HETATM   27  C12 UNL     1      -2.006 -13.550 -21.382  1.00  0.00     0.114 C 
HETATM   28  F1  UNL     1      -3.232 -13.523 -20.830  1.00  0.00    -0.209 F 
HETATM   29  C13 UNL     1      -1.770 -12.841 -22.468  1.00  0.00    -0.044 C 
HETATM   30  C14 UNL     1      -2.844 -11.998 -23.112  1.00  0.00     0.038 C 
HETATM   31  C18 UNL     1      -0.442 -12.801 -23.158  1.00  0.00     0.038 C 
HETATM   32  C15 UNL     1      -2.391 -10.547 -23.085  1.00  0.00     0.024 C 
HETATM   33  C16 UNL     1      -0.974 -10.402 -23.579  1.00  0.00     0.083 C 
HETATM   34 CL1  UNL     1      -0.834  -9.067 -24.724  1.00  0.00    -0.125 Cl
HETATM   35  C17 UNL     1      -0.490 -11.683 -24.205  1.00  0.00     0.024 C 
ENDBRANCH  26  27
ENDBRANCH  23  26
ENDBRANCH   1  20
TORSDOF 6
ENDMDL
MODEL 5
REMARK VINA RESULT: -8.162633974      1.763      2.303
REMARK  6 active torsions:
REMARK  status: ('A' for Active; 'I' for Inactive)
REMARK    1  A    between atoms: C2_2  and  C5_5 
REMARK    2  A    between atoms: C7_9  and  N1_10 
REMARK    3  A    between atoms: C9_16  and  S3_17 
REMARK    4  A    between atoms: S3_17  and  N3_20 
REMARK       I    between atoms: N3_20  and  C10_22 
REMARK       I    between atoms: C10_22  and  N4_24 
REMARK    5  A    between atoms: N4_24  and  C11_26 
REMARK    6  A    between atoms: C11_26  and  C12_27 
ROOT
HETATM    1  S3  UNL     1      -0.176 -16.037 -16.026  1.00  0.00     0.270 S 
HETATM    2  O1  UNL     1       0.837 -16.751 -16.902  1.00  0.00    -0.200 OA
HETATM    3  O2  UNL     1      -1.533 -16.567 -16.245  1.00  0.00    -0.200 OA
ENDROOT
BRANCH   1   4
HETATM    4  C9  UNL     1       0.352 -16.126 -14.308  1.00  0.00     0.122 A 
HETATM    5  C5  UNL     1       0.490 -17.313 -13.708  1.00  0.00     0.017 A 
HETATM    6  S1  UNL     1       0.992 -16.958 -12.089  1.00  0.00    -0.083 SA
HETATM    7  C6  UNL     1       1.005 -15.260 -12.254  1.00  0.00     0.077 A 
HETATM    8  S2  UNL     1       1.290 -13.719 -11.497  1.00  0.00    -0.045 SA
HETATM    9  C8  UNL     1       0.630 -14.974 -13.531  1.00  0.00     0.083 A 
HETATM   10  C7  UNL     1       0.912 -12.795 -12.858  1.00  0.00     0.143 A 
HETATM   11  N2  UNL     1       0.592 -13.652 -13.814  1.00  0.00    -0.334 N 
ATOM     12  H2  UNL     1       0.324 -13.324 -14.742  1.00  0.00     0.168 HD
BRANCH   5  13
HETATM   13  C2  UNL     1       0.320 -18.745 -14.163  1.00  0.00    -0.016 C 
HETATM   14  C1  UNL     1      -1.064 -19.126 -14.529  1.00  0.00     0.020 C 
HETATM   15  C3  UNL     1       0.591 -19.630 -12.887  1.00  0.00     0.020 C 
HETATM   16  C4  UNL     1       1.403 -19.189 -15.102  1.00  0.00     0.020 C 
ENDBRANCH   5  13
BRANCH  10  17
HETATM   17  N1  UNL     1       0.926 -11.473 -12.970  1.00  0.00    -0.380 N 
ATOM     18  H12 UNL     1       1.467 -10.936 -13.648  1.00  0.00     0.158 HD
ATOM     19  H11 UNL     1       0.411 -10.794 -12.411  1.00  0.00     0.158 HD
ENDBRANCH  10  17
ENDBRANCH   1   4
BRANCH   1  20
HETATM   20  N3  UNL     1      -0.178 -14.402 -16.575  1.00  0.00    -0.232 N 
HETATM   21  C10 UNL     1       1.017 -13.674 -16.843  1.00  0.00     0.330 C 
HETATM   22  O3  UNL     1       2.102 -14.297 -16.656  1.00  0.00    -0.246 OA
HETATM   23  N4  UNL     1       1.060 -12.353 -17.287  1.00  0.00    -0.336 N 
ATOM     24  H4  UNL     1       0.188 -11.846 -17.440  1.00  0.00     0.164 HD
ATOM     25  H3  UNL     1      -1.074 -13.936 -16.714  1.00  0.00     0.183 HD
BRANCH  23  26
HETATM   26  C11 UNL     1       2.317 -11.694 -17.532  1.00  0.00     0.194 C 
BRANCH  26  27
HETATM   27  C12 UNL     1       2.171 -10.259 -17.823  1.00  0.00     0.114 C 
HETATM   28  F1  UNL     1       1.852  -9.841 -19.060  1.00  0.00    -0.209 F 
HETATM   29  C13 UNL     1       2.351  -9.371 -16.865  1.00  0.00    -0.044 C 
HETATM   30  C14 UNL     1       2.211  -7.890 -17.125  1.00  0.00     0.038 C 
HETATM   31  C18 UNL     1       2.705  -9.731 -15.456  1.00  0.00     0.038 C 
HETATM   32  C15 UNL     1       1.086  -7.358 -16.251  1.00  0.00     0.024 C 
HETATM   33  C16 UNL     1       1.227  -7.826 -14.825  1.00  0.00     0.083 C 
HETATM   34 CL1  UNL     1       0.984  -6.495 -13.692  1.00  0.00    -0.125 Cl
HETATM   35  C17 UNL     1       2.570  -8.467 -14.600  1.00  0.00     0.024 C 
ENDBRANCH  26  27
ENDBRANCH  23  26
ENDBRANCH   1  20
TORSDOF 6
ENDMDL
