MODEL 1
REMARK VINA RESULT: -6.462709375      0.000      0.000
REMARK  10 active torsions:
REMARK  status: ('A' for Active; 'I' for Inactive)
REMARK    1  A    between atoms: N1_2  and  N2_4 
REMARK    2  A    between atoms: C2_6  and  N3_7 
REMARK    3  A    between atoms: C2_6  and  C3_12 
REMARK    4  A    between atoms: N3_7  and  N4_9 
REMARK    5  A    between atoms: C4_15  and  N6_16 
REMARK    6  A    between atoms: N8_21  and  C5_22 
REMARK    7  A    between atoms: C5_22  and  C6_23 
REMARK    8  A    between atoms: C6_23  and  C7_24 
REMARK    9  A    between atoms: C7_24  and  N9_25 
REMARK   10  A    between atoms: N9_25  and  N10_26 
ROOT
HETATM    1  C3  UNL     1     -10.006   4.913 -31.856  1.00  0.00     0.185 A 
HETATM    2  N5  UNL     1      -9.477   4.265 -32.935  1.00  0.00    -0.170 N 
ATOM      3  H5  UNL     1      -9.815   4.358 -33.893  1.00  0.00     0.186 HD
HETATM    4  C4  UNL     1      -8.454   3.490 -32.556  1.00  0.00     0.692 A 
HETATM    5  N7  UNL     1      -8.357   3.666 -31.238  1.00  0.00    -0.129 N 
ATOM      6  H7  UNL     1      -7.667   3.209 -30.642  1.00  0.00     0.206 HD
HETATM    7  N8  UNL     1      -9.294   4.530 -30.800  1.00  0.00    -0.259 N 
ENDROOT
BRANCH   1   8
HETATM    8  C2  UNL     1     -11.158   5.819 -31.893  1.00  0.00     0.181 C 
HETATM    9  N2  UNL     1     -12.336   5.386 -31.749  1.00  0.00    -0.282 N 
ATOM     10  H2  UNL     1     -12.437   4.382 -31.606  1.00  0.00     0.188 HD
BRANCH   9  11
HETATM   11  N1  UNL     1     -13.495   6.120 -31.764  1.00  0.00    -0.320 N 
HETATM   12  C1  UNL     1     -14.678   5.664 -31.615  1.00  0.00     0.139 C 
ATOM     13  H1  UNL     1     -13.403   7.126 -31.907  1.00  0.00     0.185 HD
ENDBRANCH   9  11
BRANCH   8  14
HETATM   14  N3  UNL     1     -10.915   7.187 -32.094  1.00  0.00    -0.288 N 
ATOM     15  H3  UNL     1     -10.530   7.751 -31.336  1.00  0.00     0.188 HD
BRANCH  14  16
HETATM   16  N4  UNL     1     -11.195   7.774 -33.317  1.00  0.00    -0.343 N 
ATOM     17  H42 UNL     1     -11.537   7.188 -34.078  1.00  0.00     0.176 HD
ATOM     18  H41 UNL     1     -11.061   8.776 -33.449  1.00  0.00     0.176 HD
ENDBRANCH  14  16
ENDBRANCH   8  14
ENDBRANCH   1   8
BRANCH   7  19
HETATM   19  C5  UNL     1      -9.343   4.909 -29.409  1.00  0.00     0.153 C 
BRANCH  19  20
HETATM   20  C6  UNL     1     -10.404   4.180 -28.662  1.00  0.00     0.039 C 
BRANCH  20  21
HETATM   21  C7  UNL     1     -11.682   4.856 -28.377  1.00  0.00     0.136 C 
BRANCH  21  22
HETATM   22  N9  UNL     1     -11.989   5.123 -27.010  1.00  0.00    -0.148 NA
BRANCH  22  23
HETATM   23  N10 UNL     1     -12.156   6.499 -26.820  1.00  0.00    -0.348 N 
ATOM     24 2H10 UNL     1     -12.966   6.922 -26.366  1.00  0.00     0.172 HD
ATOM     25 1H10 UNL     1     -11.355   7.002 -27.200  1.00  0.00     0.172 HD
ENDBRANCH  22  23
ENDBRANCH  21  22
ENDBRANCH  20  21
ENDBRANCH  19  20
ENDBRANCH   7  19
BRANCH   4  26
HETATM   26  N6  UNL     1      -7.732   2.743 -33.317  1.00  0.00    -0.233 N 
ATOM     27  H62 UNL     1      -7.998   2.284 -34.189  1.00  0.00     0.174 HD
ATOM     28  H61 UNL     1      -6.757   2.483 -33.168  1.00  0.00     0.174 HD
ENDBRANCH   4  26
TORSDOF 10
ENDMDL
MODEL 2
REMARK VINA RESULT: -5.947350249      2.038      4.432
REMARK  10 active torsions:
REMARK  status: ('A' for Active; 'I' for Inactive)
REMARK    1  A    between atoms: N1_2  and  N2_4 
REMARK    2  A    between atoms: C2_6  and  N3_7 
REMARK    3  A    between atoms: C2_6  and  C3_12 
REMARK    4  A    between atoms: N3_7  and  N4_9 
REMARK    5  A    between atoms: C4_15  and  N6_16 
REMARK    6  A    between atoms: N8_21  and  C5_22 
REMARK    7  A    between atoms: C5_22  and  C6_23 
REMARK    8  A    between atoms: C6_23  and  C7_24 
REMARK    9  A    between atoms: C7_24  and  N9_25 
REMARK   10  A    between atoms: N9_25  and  N10_26 
ROOT
HETATM    1  C3  UNL     1     -11.516   4.366 -30.693  1.00  0.00     0.185 A 
HETATM    2  N5  UNL     1     -11.448   4.091 -29.358  1.00  0.00    -0.170 N 
ATOM      3  H5  UNL     1     -12.247   3.846 -28.772  1.00  0.00     0.186 HD
HETATM    4  C4  UNL     1     -10.185   4.188 -28.927  1.00  0.00     0.692 A 
HETATM    5  N7  UNL     1      -9.477   4.524 -30.007  1.00  0.00    -0.129 N 
ATOM      6  H7  UNL     1      -8.468   4.678 -30.012  1.00  0.00     0.206 HD
HETATM    7  N8  UNL     1     -10.274   4.634 -31.087  1.00  0.00    -0.259 N 
ENDROOT
BRANCH   1   8
HETATM    8  C2  UNL     1     -12.746   4.385 -31.492  1.00  0.00     0.181 C 
HETATM    9  N2  UNL     1     -13.363   3.318 -31.769  1.00  0.00    -0.282 N 
ATOM     10  H2  UNL     1     -12.962   2.454 -31.407  1.00  0.00     0.188 HD
BRANCH   9  11
HETATM   11  N1  UNL     1     -14.516   3.195 -32.502  1.00  0.00    -0.320 N 
HETATM   12  C1  UNL     1     -14.982   2.116 -32.998  1.00  0.00     0.139 C 
ATOM     13  H1  UNL     1     -15.052   4.047 -32.667  1.00  0.00     0.185 HD
ENDBRANCH   9  11
BRANCH   8  14
HETATM   14  N3  UNL     1     -13.220   5.627 -31.943  1.00  0.00    -0.288 N 
ATOM     15  H3  UNL     1     -12.705   6.137 -32.662  1.00  0.00     0.188 HD
BRANCH  14  16
HETATM   16  N4  UNL     1     -14.383   6.163 -31.417  1.00  0.00    -0.343 N 
ATOM     17  H42 UNL     1     -14.914   6.831 -31.976  1.00  0.00     0.176 HD
ATOM     18  H41 UNL     1     -14.700   5.891 -30.487  1.00  0.00     0.176 HD
ENDBRANCH  14  16
ENDBRANCH   8  14
ENDBRANCH   1   8
BRANCH   7  19
HETATM   19  C5  UNL     1      -9.713   4.941 -32.379  1.00  0.00     0.153 C 
BRANCH  19  20
HETATM   20  C6  UNL     1      -8.598   4.023 -32.743  1.00  0.00     0.039 C 
BRANCH  20  21
HETATM   21  C7  UNL     1      -8.874   2.589 -32.936  1.00  0.00     0.136 C 
BRANCH  21  22
HETATM   22  N9  UNL     1      -9.692   2.225 -34.046  1.00  0.00    -0.148 NA
BRANCH  22  23
HETATM   23  N10 UNL     1     -10.917   1.724 -33.591  1.00  0.00    -0.348 N 
ATOM     24 2H10 UNL     1     -11.202   1.708 -32.612  1.00  0.00     0.172 HD
ATOM     25 1H10 UNL     1     -11.468   1.385 -34.380  1.00  0.00     0.172 HD
ENDBRANCH  22  23
ENDBRANCH  21  22
ENDBRANCH  20  21
ENDBRANCH  19  20
ENDBRANCH   7  19
BRANCH   4  26
HETATM   26  N6  UNL     1      -9.765   3.995 -27.725  1.00  0.00    -0.233 N 
ATOM     27  H62 UNL     1      -9.586   3.109 -27.253  1.00  0.00     0.174 HD
ATOM     28  H61 UNL     1      -9.539   4.712 -27.036  1.00  0.00     0.174 HD
ENDBRANCH   4  26
TORSDOF 10
ENDMDL
MODEL 3
REMARK VINA RESULT: -5.912682638      2.078      4.705
REMARK  10 active torsions:
REMARK  status: ('A' for Active; 'I' for Inactive)
REMARK    1  A    between atoms: N1_2  and  N2_4 
REMARK    2  A    between atoms: C2_6  and  N3_7 
REMARK    3  A    between atoms: C2_6  and  C3_12 
REMARK    4  A    between atoms: N3_7  and  N4_9 
REMARK    5  A    between atoms: C4_15  and  N6_16 
REMARK    6  A    between atoms: N8_21  and  C5_22 
REMARK    7  A    between atoms: C5_22  and  C6_23 
REMARK    8  A    between atoms: C6_23  and  C7_24 
REMARK    9  A    between atoms: C7_24  and  N9_25 
REMARK   10  A    between atoms: N9_25  and  N10_26 
ROOT
HETATM    1  C3  UNL     1     -11.384   4.969 -31.576  1.00  0.00     0.185 A 
HETATM    2  N5  UNL     1     -11.964   6.087 -32.103  1.00  0.00    -0.170 N 
ATOM      3  H5  UNL     1     -12.968   6.265 -32.129  1.00  0.00     0.186 HD
HETATM    4  C4  UNL     1     -11.027   6.915 -32.580  1.00  0.00     0.692 A 
HETATM    5  N7  UNL     1      -9.868   6.299 -32.342  1.00  0.00    -0.129 N 
ATOM      6  H7  UNL     1      -8.952   6.673 -32.590  1.00  0.00     0.206 HD
HETATM    7  N8  UNL     1     -10.072   5.115 -31.731  1.00  0.00    -0.259 N 
ENDROOT
BRANCH   1   8
HETATM    8  C2  UNL     1     -12.109   3.835 -30.994  1.00  0.00     0.181 C 
HETATM    9  N2  UNL     1     -12.903   3.139 -31.688  1.00  0.00    -0.282 N 
ATOM     10  H2  UNL     1     -13.007   3.409 -32.665  1.00  0.00     0.188 HD
BRANCH   9  11
HETATM   11  N1  UNL     1     -13.639   2.059 -31.270  1.00  0.00    -0.320 N 
HETATM   12  C1  UNL     1     -14.582   1.495 -31.918  1.00  0.00     0.139 C 
ATOM     13  H1  UNL     1     -13.411   1.671 -30.355  1.00  0.00     0.185 HD
ENDBRANCH   9  11
BRANCH   8  14
HETATM   14  N3  UNL     1     -11.895   3.542 -29.637  1.00  0.00    -0.288 N 
ATOM     15  H3  UNL     1     -12.030   2.590 -29.296  1.00  0.00     0.188 HD
BRANCH  14  16
HETATM   16  N4  UNL     1     -11.501   4.539 -28.761  1.00  0.00    -0.343 N 
ATOM     17  H42 UNL     1     -11.656   5.513 -29.021  1.00  0.00     0.176 HD
ATOM     18  H41 UNL     1     -11.064   4.299 -27.871  1.00  0.00     0.176 HD
ENDBRANCH  14  16
ENDBRANCH   8  14
ENDBRANCH   1   8
BRANCH   7  19
HETATM   19  C5  UNL     1      -8.952   4.299 -31.332  1.00  0.00     0.153 C 
BRANCH  19  20
HETATM   20  C6  UNL     1      -8.083   3.930 -32.483  1.00  0.00     0.039 C 
BRANCH  20  21
HETATM   21  C7  UNL     1      -8.695   3.383 -33.707  1.00  0.00     0.136 C 
BRANCH  21  22
HETATM   22  N9  UNL     1      -9.124   2.023 -33.671  1.00  0.00    -0.148 NA
BRANCH  22  23
HETATM   23  N10 UNL     1     -10.522   1.965 -33.677  1.00  0.00    -0.348 N 
ATOM     24 2H10 UNL     1     -11.084   1.761 -34.503  1.00  0.00     0.172 HD
ATOM     25 1H10 UNL     1     -10.882   2.156 -32.742  1.00  0.00     0.172 HD
ENDBRANCH  22  23
ENDBRANCH  21  22
ENDBRANCH  20  21
ENDBRANCH  19  20
ENDBRANCH   7  19
BRANCH   4  26
HETATM   26  N6  UNL     1     -11.223   8.056 -33.144  1.00  0.00    -0.233 N 
ATOM     27  H62 UNL     1     -11.000   8.336 -34.099  1.00  0.00     0.174 HD
ATOM     28  H61 UNL     1     -11.641   8.883 -32.717  1.00  0.00     0.174 HD
ENDBRANCH   4  26
TORSDOF 10
ENDMDL
MODEL 4
REMARK VINA RESULT: -5.734638403      1.087      1.348
REMARK  10 active torsions:
REMARK  status: ('A' for Active; 'I' for Inactive)
REMARK    1  A    between atoms: N1_2  and  N2_4 
REMARK    2  A    between atoms: C2_6  and  N3_7 
REMARK    3  A    between atoms: C2_6  and  C3_12 
REMARK    4  A    between atoms: N3_7  and  N4_9 
REMARK    5  A    between atoms: C4_15  and  N6_16 
REMARK    6  A    between atoms: N8_21  and  C5_22 
REMARK    7  A    between atoms: C5_22  and  C6_23 
REMARK    8  A    between atoms: C6_23  and  C7_24 
REMARK    9  A    between atoms: C7_24  and  N9_25 
REMARK   10  A    between atoms: N9_25  and  N10_26 
ROOT
HETATM    1  C3  UNL     1      -9.817   4.937 -32.075  1.00  0.00     0.185 A 
HETATM    2  N5  UNL     1      -9.360   4.274 -33.177  1.00  0.00    -0.170 N 
ATOM      3  H5  UNL     1      -9.763   4.349 -34.111  1.00  0.00     0.186 HD
HETATM    4  C4  UNL     1      -8.308   3.511 -32.857  1.00  0.00     0.692 A 
HETATM    5  N7  UNL     1      -8.121   3.710 -31.551  1.00  0.00    -0.129 N 
ATOM      6  H7  UNL     1      -7.389   3.266 -30.997  1.00  0.00     0.206 HD
HETATM    7  N8  UNL     1      -9.031   4.576 -31.064  1.00  0.00    -0.259 N 
ENDROOT
BRANCH   1   8
HETATM    8  C2  UNL     1     -10.974   5.837 -32.048  1.00  0.00     0.181 C 
HETATM    9  N2  UNL     1     -12.140   5.397 -31.839  1.00  0.00    -0.282 N 
ATOM     10  H2  UNL     1     -12.227   4.393 -31.691  1.00  0.00     0.188 HD
BRANCH   9  11
HETATM   11  N1  UNL     1     -13.303   6.124 -31.789  1.00  0.00    -0.320 N 
HETATM   12  C1  UNL     1     -14.485   5.651 -31.722  1.00  0.00     0.139 C 
ATOM     13  H1  UNL     1     -13.213   7.140 -31.807  1.00  0.00     0.185 HD
ENDBRANCH   9  11
BRANCH   8  14
HETATM   14  N3  UNL     1     -10.751   7.206 -32.262  1.00  0.00    -0.288 N 
ATOM     15  H3  UNL     1     -10.276   7.761 -31.549  1.00  0.00     0.188 HD
BRANCH  14  16
HETATM   16  N4  UNL     1     -11.171   7.808 -33.436  1.00  0.00    -0.343 N 
ATOM     17  H42 UNL     1     -10.563   8.494 -33.884  1.00  0.00     0.176 HD
ATOM     18  H41 UNL     1     -12.075   7.565 -33.843  1.00  0.00     0.176 HD
ENDBRANCH  14  16
ENDBRANCH   8  14
ENDBRANCH   1   8
BRANCH   7  19
HETATM   19  C5  UNL     1      -8.987   4.978 -29.680  1.00  0.00     0.153 C 
BRANCH  19  20
HETATM   20  C6  UNL     1      -9.811   4.096 -28.808  1.00  0.00     0.039 C 
BRANCH  20  21
HETATM   21  C7  UNL     1     -11.174   4.514 -28.438  1.00  0.00     0.136 C 
BRANCH  21  22
HETATM   22  N9  UNL     1     -12.238   4.110 -29.297  1.00  0.00    -0.148 NA
BRANCH  22  23
HETATM   23  N10 UNL     1     -11.901   2.915 -29.943  1.00  0.00    -0.348 N 
ATOM     24 2H10 UNL     1     -12.065   1.987 -29.554  1.00  0.00     0.172 HD
ATOM     25 1H10 UNL     1     -11.473   3.117 -30.846  1.00  0.00     0.172 HD
ENDBRANCH  22  23
ENDBRANCH  21  22
ENDBRANCH  20  21
ENDBRANCH  19  20
ENDBRANCH   7  19
BRANCH   4  26
HETATM   26  N6  UNL     1      -7.635   2.754 -33.653  1.00  0.00    -0.233 N 
ATOM     27  H62 UNL     1      -7.710   2.680 -34.668  1.00  0.00     0.174 HD
ATOM     28  H61 UNL     1      -6.903   2.094 -33.393  1.00  0.00     0.174 HD
ENDBRANCH   4  26
TORSDOF 10
ENDMDL
MODEL 5
REMARK VINA RESULT: -5.486257494      1.337      2.049
REMARK  10 active torsions:
REMARK  status: ('A' for Active; 'I' for Inactive)
REMARK    1  A    between atoms: N1_2  and  N2_4 
REMARK    2  A    between atoms: C2_6  and  N3_7 
REMARK    3  A    between atoms: C2_6  and  C3_12 
REMARK    4  A    between atoms: N3_7  and  N4_9 
REMARK    5  A    between atoms: C4_15  and  N6_16 
REMARK    6  A    between atoms: N8_21  and  C5_22 
REMARK    7  A    between atoms: C5_22  and  C6_23 
REMARK    8  A    between atoms: C6_23  and  C7_24 
REMARK    9  A    between atoms: C7_24  and  N9_25 
REMARK   10  A    between atoms: N9_25  and  N10_26 
ROOT
HETATM    1  C3  UNL     1     -10.443   3.877 -31.887  1.00  0.00     0.185 A 
HETATM    2  N5  UNL     1      -9.961   3.318 -33.035  1.00  0.00    -0.170 N 
ATOM      3  H5  UNL     1     -10.540   2.955 -33.793  1.00  0.00     0.186 HD
HETATM    4  C4  UNL     1      -8.623   3.312 -33.024  1.00  0.00     0.692 A 
HETATM    5  N7  UNL     1      -8.285   3.872 -31.861  1.00  0.00    -0.129 N 
ATOM      6  H7  UNL     1      -7.326   4.016 -31.545  1.00  0.00     0.206 HD
HETATM    7  N8  UNL     1      -9.382   4.221 -31.161  1.00  0.00    -0.259 N 
ENDROOT
BRANCH   1   8
HETATM    8  C2  UNL     1     -11.861   4.019 -31.545  1.00  0.00     0.181 C 
HETATM    9  N2  UNL     1     -12.402   5.157 -31.451  1.00  0.00    -0.282 N 
ATOM     10  H2  UNL     1     -11.800   5.961 -31.626  1.00  0.00     0.188 HD
BRANCH   9  11
HETATM   11  N1  UNL     1     -13.710   5.430 -31.139  1.00  0.00    -0.320 N 
HETATM   12  C1  UNL     1     -14.627   5.761 -31.962  1.00  0.00     0.139 C 
ATOM     13  H1  UNL     1     -13.974   5.361 -30.157  1.00  0.00     0.185 HD
ENDBRANCH   9  11
BRANCH   8  14
HETATM   14  N3  UNL     1     -12.606   2.850 -31.323  1.00  0.00    -0.288 N 
ATOM     15  H3  UNL     1     -12.594   2.406 -30.405  1.00  0.00     0.188 HD
BRANCH  14  16
HETATM   16  N4  UNL     1     -13.358   2.296 -32.346  1.00  0.00    -0.343 N 
ATOM     17  H42 UNL     1     -13.406   2.783 -33.241  1.00  0.00     0.176 HD
ATOM     18  H41 UNL     1     -13.853   1.416 -32.202  1.00  0.00     0.176 HD
ENDBRANCH  14  16
ENDBRANCH   8  14
ENDBRANCH   1   8
BRANCH   7  19
HETATM   19  C5  UNL     1      -9.254   4.892 -29.892  1.00  0.00     0.153 C 
BRANCH  19  20
HETATM   20  C6  UNL     1      -9.629   4.015 -28.748  1.00  0.00     0.039 C 
BRANCH  20  21
HETATM   21  C7  UNL     1     -11.016   4.026 -28.252  1.00  0.00     0.136 C 
BRANCH  21  22
HETATM   22  N9  UNL     1     -11.745   5.245 -28.378  1.00  0.00    -0.148 NA
BRANCH  22  23
HETATM   23  N10 UNL     1     -12.074   5.737 -27.110  1.00  0.00    -0.348 N 
ATOM     24 2H10 UNL     1     -11.682   5.383 -26.238  1.00  0.00     0.172 HD
ATOM     25 1H10 UNL     1     -12.755   6.492 -27.196  1.00  0.00     0.172 HD
ENDBRANCH  22  23
ENDBRANCH  21  22
ENDBRANCH  20  21
ENDBRANCH  19  20
ENDBRANCH   7  19
BRANCH   4  26
HETATM   26  N6  UNL     1      -7.847   2.859 -33.947  1.00  0.00    -0.233 N 
ATOM     27  H62 UNL     1      -7.762   1.900 -34.287  1.00  0.00     0.174 HD
ATOM     28  H61 UNL     1      -7.179   3.396 -34.499  1.00  0.00     0.174 HD
ENDBRANCH   4  26
TORSDOF 10
ENDMDL
