MODEL 1
REMARK VINA RESULT: -6.925867708      0.000      0.000
REMARK  8 active torsions:
REMARK  status: ('A' for Active; 'I' for Inactive)
REMARK    1  A    between atoms: N1_2  and  C2_3 
REMARK    2  A    between atoms: N1_2  and  O2_8 
REMARK    3  A    between atoms: C2_3  and  O1_4 
REMARK    4  A    between atoms: O1_4  and  N2_5 
REMARK    5  A    between atoms: O2_8  and  N3_9 
REMARK    6  A    between atoms: N3_9  and  N4_11 
REMARK    7  A    between atoms: N4_11  and  C3_13 
REMARK    8  A    between atoms: C4_16  and  N6_17 
ROOT
HETATM    1  C3  UNL     1     -10.927   3.278 -32.254  1.00  0.00     0.164 A 
HETATM    2  N5  UNL     1     -10.950   4.476 -31.664  1.00  0.00    -0.173 N 
ATOM      3  H5  UNL     1     -11.817   4.813 -31.244  1.00  0.00     0.186 HD
HETATM    4  C4  UNL     1      -9.847   5.244 -31.614  1.00  0.00     0.678 A 
HETATM    5  N7  UNL     1      -8.699   4.802 -32.166  1.00  0.00    -0.177 N 
ATOM      6  H7  UNL     1      -7.867   5.390 -32.123  1.00  0.00     0.185 HD
HETATM    7  C5  UNL     1      -8.624   3.606 -32.769  1.00  0.00     0.160 A 
HETATM    8  N8  UNL     1      -7.439   3.099 -33.364  1.00  0.00    -0.080 NA
HETATM    9  C6  UNL     1      -9.758   2.822 -32.819  1.00  0.00     0.133 A 
HETATM   10  N9  UNL     1      -9.745   1.531 -33.451  1.00  0.00    -0.095 NA
ENDROOT
BRANCH   1  11
HETATM   11  N4  UNL     1     -11.977   2.509 -32.320  1.00  0.00    -0.262 N 
ATOM     12  H4  UNL     1     -12.001   1.761 -33.014  1.00  0.00     0.190 HD
BRANCH  11  13
HETATM   13  N3  UNL     1     -13.069   2.680 -31.468  1.00  0.00    -0.186 N 
ATOM     14  H3  UNL     1     -12.930   3.006 -30.512  1.00  0.00     0.218 HD
BRANCH  13  15
HETATM   15  O2  UNL     1     -14.317   2.409 -31.923  1.00  0.00    -0.165 OA
BRANCH  15  16
HETATM   16  N1  UNL     1     -14.421   1.097 -32.108  1.00  0.00    -0.148 NA
HETATM   17  C1  UNL     1     -15.395   0.457 -31.263  1.00  0.00     0.149 C 
BRANCH  16  18
HETATM   18  C2  UNL     1     -14.710   0.719 -33.474  1.00  0.00     0.323 C 
BRANCH  18  19
HETATM   19  O1  UNL     1     -14.180   1.590 -34.398  1.00  0.00    -0.271 OA
BRANCH  19  20
HETATM   20  N2  UNL     1     -15.060   2.592 -34.621  1.00  0.00    -0.310 N 
ATOM     21  H22 UNL     1     -15.753   2.915 -33.946  1.00  0.00     0.184 HD
ATOM     22  H21 UNL     1     -14.916   2.962 -35.561  1.00  0.00     0.184 HD
ENDBRANCH  19  20
ENDBRANCH  18  19
ENDBRANCH  16  18
ENDBRANCH  15  16
ENDBRANCH  13  15
ENDBRANCH  11  13
ENDBRANCH   1  11
BRANCH   4  23
HETATM   23  N6  UNL     1      -9.839   6.417 -31.045  1.00  0.00    -0.234 N 
ATOM     24  H62 UNL     1      -9.085   6.625 -30.390  1.00  0.00     0.174 HD
ATOM     25  H61 UNL     1     -10.554   7.120 -31.232  1.00  0.00     0.174 HD
ENDBRANCH   4  23
TORSDOF 8
ENDMDL
MODEL 2
REMARK VINA RESULT: -6.843099037      1.203      1.858
REMARK  8 active torsions:
REMARK  status: ('A' for Active; 'I' for Inactive)
REMARK    1  A    between atoms: N1_2  and  C2_3 
REMARK    2  A    between atoms: N1_2  and  O2_8 
REMARK    3  A    between atoms: C2_3  and  O1_4 
REMARK    4  A    between atoms: O1_4  and  N2_5 
REMARK    5  A    between atoms: O2_8  and  N3_9 
REMARK    6  A    between atoms: N3_9  and  N4_11 
REMARK    7  A    between atoms: N4_11  and  C3_13 
REMARK    8  A    between atoms: C4_16  and  N6_17 
ROOT
HETATM    1  C3  UNL     1     -11.262   3.521 -31.725  1.00  0.00     0.164 A 
HETATM    2  N5  UNL     1     -11.223   4.757 -31.221  1.00  0.00    -0.173 N 
ATOM      3  H5  UNL     1     -11.963   5.068 -30.592  1.00  0.00     0.186 HD
HETATM    4  C4  UNL     1     -10.220   5.599 -31.530  1.00  0.00     0.678 A 
HETATM    5  N7  UNL     1      -9.238   5.191 -32.360  1.00  0.00    -0.177 N 
ATOM      6  H7  UNL     1      -8.481   5.835 -32.589  1.00  0.00     0.185 HD
HETATM    7  C5  UNL     1      -9.233   3.960 -32.891  1.00  0.00     0.160 A 
HETATM    8  N8  UNL     1      -8.221   3.487 -33.769  1.00  0.00    -0.080 NA
HETATM    9  C6  UNL     1     -10.263   3.101 -32.572  1.00  0.00     0.133 A 
HETATM   10  N9  UNL     1     -10.317   1.768 -33.107  1.00  0.00    -0.095 NA
ENDROOT
BRANCH   1  11
HETATM   11  N4  UNL     1     -12.220   2.681 -31.445  1.00  0.00    -0.262 N 
ATOM     12  H4  UNL     1     -12.068   1.981 -30.720  1.00  0.00     0.190 HD
BRANCH  11  13
HETATM   13  N3  UNL     1     -13.446   2.715 -32.112  1.00  0.00    -0.186 N 
ATOM     14  H3  UNL     1     -14.053   3.530 -32.031  1.00  0.00     0.218 HD
BRANCH  13  15
HETATM   15  O2  UNL     1     -13.822   1.654 -32.867  1.00  0.00    -0.165 OA
BRANCH  15  16
HETATM   16  N1  UNL     1     -15.151   1.597 -32.877  1.00  0.00    -0.148 NA
HETATM   17  C1  UNL     1     -15.737   1.719 -34.185  1.00  0.00     0.149 C 
BRANCH  16  18
HETATM   18  C2  UNL     1     -15.690   0.401 -32.265  1.00  0.00     0.323 C 
BRANCH  18  19
HETATM   19  O1  UNL     1     -14.736  -0.354 -31.624  1.00  0.00    -0.271 OA
BRANCH  19  20
HETATM   20  N2  UNL     1     -14.708  -0.019 -30.314  1.00  0.00    -0.310 N 
ATOM     21  H22 UNL     1     -15.537   0.138 -29.739  1.00  0.00     0.184 HD
ATOM     22  H21 UNL     1     -13.739   0.048 -30.005  1.00  0.00     0.184 HD
ENDBRANCH  19  20
ENDBRANCH  18  19
ENDBRANCH  16  18
ENDBRANCH  15  16
ENDBRANCH  13  15
ENDBRANCH  11  13
ENDBRANCH   1  11
BRANCH   4  23
HETATM   23  N6  UNL     1     -10.153   6.810 -31.054  1.00  0.00    -0.234 N 
ATOM     24  H62 UNL     1      -9.943   6.924 -30.062  1.00  0.00     0.174 HD
ATOM     25  H61 UNL     1     -10.304   7.635 -31.636  1.00  0.00     0.174 HD
ENDBRANCH   4  23
TORSDOF 8
ENDMDL
MODEL 3
REMARK VINA RESULT: -6.841166502      1.483      2.060
REMARK  8 active torsions:
REMARK  status: ('A' for Active; 'I' for Inactive)
REMARK    1  A    between atoms: N1_2  and  C2_3 
REMARK    2  A    between atoms: N1_2  and  O2_8 
REMARK    3  A    between atoms: C2_3  and  O1_4 
REMARK    4  A    between atoms: O1_4  and  N2_5 
REMARK    5  A    between atoms: O2_8  and  N3_9 
REMARK    6  A    between atoms: N3_9  and  N4_11 
REMARK    7  A    between atoms: N4_11  and  C3_13 
REMARK    8  A    between atoms: C4_16  and  N6_17 
ROOT
HETATM    1  C3  UNL     1     -10.899   2.576 -32.738  1.00  0.00     0.164 A 
HETATM    2  N5  UNL     1     -11.550   3.233 -31.776  1.00  0.00    -0.173 N 
ATOM      3  H5  UNL     1     -12.535   3.029 -31.606  1.00  0.00     0.186 HD
HETATM    4  C4  UNL     1     -10.927   4.159 -31.025  1.00  0.00     0.678 A 
HETATM    5  N7  UNL     1      -9.624   4.430 -31.245  1.00  0.00    -0.177 N 
ATOM      6  H7  UNL     1      -9.158   5.134 -30.672  1.00  0.00     0.185 HD
HETATM    7  C5  UNL     1      -8.926   3.797 -32.200  1.00  0.00     0.160 A 
HETATM    8  N8  UNL     1      -7.554   4.049 -32.468  1.00  0.00    -0.080 NA
HETATM    9  C6  UNL     1      -9.570   2.849 -32.967  1.00  0.00     0.133 A 
HETATM   10  N9  UNL     1      -8.879   2.135 -34.006  1.00  0.00    -0.095 NA
ENDROOT
BRANCH   1  11
HETATM   11  N4  UNL     1     -11.473   1.673 -33.483  1.00  0.00    -0.262 N 
ATOM     12  H4  UNL     1     -10.893   0.991 -33.971  1.00  0.00     0.190 HD
BRANCH  11  13
HETATM   13  N3  UNL     1     -12.860   1.614 -33.630  1.00  0.00    -0.186 N 
ATOM     14  H3  UNL     1     -13.275   1.503 -34.555  1.00  0.00     0.218 HD
BRANCH  13  15
HETATM   15  O2  UNL     1     -13.651   1.706 -32.533  1.00  0.00    -0.165 OA
BRANCH  15  16
HETATM   16  N1  UNL     1     -14.919   1.742 -32.932  1.00  0.00    -0.148 NA
HETATM   17  C1  UNL     1     -15.111   2.319 -34.235  1.00  0.00     0.149 C 
BRANCH  16  18
HETATM   18  C2  UNL     1     -15.572   0.451 -32.922  1.00  0.00     0.323 C 
BRANCH  18  19
HETATM   19  O1  UNL     1     -14.734  -0.575 -32.554  1.00  0.00    -0.271 OA
BRANCH  19  20
HETATM   20  N2  UNL     1     -14.659  -0.627 -31.205  1.00  0.00    -0.310 N 
ATOM     21  H22 UNL     1     -15.124  -1.326 -30.625  1.00  0.00     0.184 HD
ATOM     22  H21 UNL     1     -14.070   0.137 -30.872  1.00  0.00     0.184 HD
ENDBRANCH  19  20
ENDBRANCH  18  19
ENDBRANCH  16  18
ENDBRANCH  15  16
ENDBRANCH  13  15
ENDBRANCH  11  13
ENDBRANCH   1  11
BRANCH   4  23
HETATM   23  N6  UNL     1     -11.536   4.817 -30.079  1.00  0.00    -0.234 N 
ATOM     24  H62 UNL     1     -11.333   4.560 -29.112  1.00  0.00     0.174 HD
ATOM     25  H61 UNL     1     -12.199   5.567 -30.274  1.00  0.00     0.174 HD
ENDBRANCH   4  23
TORSDOF 8
ENDMDL
MODEL 4
REMARK VINA RESULT: -6.741952849      1.418      1.830
REMARK  8 active torsions:
REMARK  status: ('A' for Active; 'I' for Inactive)
REMARK    1  A    between atoms: N1_2  and  C2_3 
REMARK    2  A    between atoms: N1_2  and  O2_8 
REMARK    3  A    between atoms: C2_3  and  O1_4 
REMARK    4  A    between atoms: O1_4  and  N2_5 
REMARK    5  A    between atoms: O2_8  and  N3_9 
REMARK    6  A    between atoms: N3_9  and  N4_11 
REMARK    7  A    between atoms: N4_11  and  C3_13 
REMARK    8  A    between atoms: C4_16  and  N6_17 
ROOT
HETATM    1  C3  UNL     1     -10.758   2.508 -32.828  1.00  0.00     0.164 A 
HETATM    2  N5  UNL     1     -11.496   3.107 -31.891  1.00  0.00    -0.173 N 
ATOM      3  H5  UNL     1     -12.473   2.839 -31.771  1.00  0.00     0.186 HD
HETATM    4  C4  UNL     1     -10.969   4.060 -31.100  1.00  0.00     0.678 A 
HETATM    5  N7  UNL     1      -9.677   4.416 -31.254  1.00  0.00    -0.177 N 
ATOM      6  H7  UNL     1      -9.285   5.140 -30.651  1.00  0.00     0.185 HD
HETATM    7  C5  UNL     1      -8.895   3.843 -32.181  1.00  0.00     0.160 A 
HETATM    8  N8  UNL     1      -7.531   4.185 -32.380  1.00  0.00    -0.080 NA
HETATM    9  C6  UNL     1      -9.440   2.867 -32.989  1.00  0.00     0.133 A 
HETATM   10  N9  UNL     1      -8.657   2.214 -34.002  1.00  0.00    -0.095 NA
ENDROOT
BRANCH   1  11
HETATM   11  N4  UNL     1     -11.238   1.581 -33.610  1.00  0.00    -0.262 N 
ATOM     12  H4  UNL     1     -10.600   0.898 -34.018  1.00  0.00     0.190 HD
BRANCH  11  13
HETATM   13  N3  UNL     1     -12.600   1.499 -33.904  1.00  0.00    -0.186 N 
ATOM     14  H3  UNL     1     -13.065   2.255 -34.405  1.00  0.00     0.218 HD
BRANCH  13  15
HETATM   15  O2  UNL     1     -13.300   0.404 -33.517  1.00  0.00    -0.165 OA
BRANCH  15  16
HETATM   16  N1  UNL     1     -14.597   0.684 -33.602  1.00  0.00    -0.148 NA
HETATM   17  C1  UNL     1     -15.407   0.035 -32.606  1.00  0.00     0.149 C 
BRANCH  16  18
HETATM   18  C2  UNL     1     -14.895   2.099 -33.557  1.00  0.00     0.323 C 
BRANCH  18  19
HETATM   19  O1  UNL     1     -14.605   2.673 -32.340  1.00  0.00    -0.271 OA
BRANCH  19  20
HETATM   20  N2  UNL     1     -14.690   4.017 -32.451  1.00  0.00    -0.310 N 
ATOM     21  H22 UNL     1     -14.021   4.675 -32.048  1.00  0.00     0.184 HD
ATOM     22  H21 UNL     1     -15.519   4.258 -32.994  1.00  0.00     0.184 HD
ENDBRANCH  19  20
ENDBRANCH  18  19
ENDBRANCH  16  18
ENDBRANCH  15  16
ENDBRANCH  13  15
ENDBRANCH  11  13
ENDBRANCH   1  11
BRANCH   4  23
HETATM   23  N6  UNL     1     -11.663   4.664 -30.177  1.00  0.00    -0.234 N 
ATOM     24  H62 UNL     1     -12.199   5.489 -30.445  1.00  0.00     0.174 HD
ATOM     25  H61 UNL     1     -11.684   4.340 -29.210  1.00  0.00     0.174 HD
ENDBRANCH   4  23
TORSDOF 8
ENDMDL
MODEL 5
REMARK VINA RESULT: -6.371251924      2.956      4.837
REMARK  8 active torsions:
REMARK  status: ('A' for Active; 'I' for Inactive)
REMARK    1  A    between atoms: N1_2  and  C2_3 
REMARK    2  A    between atoms: N1_2  and  O2_8 
REMARK    3  A    between atoms: C2_3  and  O1_4 
REMARK    4  A    between atoms: O1_4  and  N2_5 
REMARK    5  A    between atoms: O2_8  and  N3_9 
REMARK    6  A    between atoms: N3_9  and  N4_11 
REMARK    7  A    between atoms: N4_11  and  C3_13 
REMARK    8  A    between atoms: C4_16  and  N6_17 
ROOT
HETATM    1  C3  UNL     1     -10.380   5.156 -30.753  1.00  0.00     0.164 A 
HETATM    2  N5  UNL     1     -10.170   6.195 -31.565  1.00  0.00    -0.173 N 
ATOM      3  H5  UNL     1      -9.237   6.602 -31.629  1.00  0.00     0.186 HD
HETATM    4  C4  UNL     1     -11.171   6.712 -32.301  1.00  0.00     0.678 A 
HETATM    5  N7  UNL     1     -12.405   6.174 -32.221  1.00  0.00    -0.177 N 
ATOM      6  H7  UNL     1     -13.158   6.572 -32.782  1.00  0.00     0.185 HD
HETATM    7  C5  UNL     1     -12.666   5.130 -31.421  1.00  0.00     0.160 A 
HETATM    8  N8  UNL     1     -13.949   4.532 -31.303  1.00  0.00    -0.080 NA
HETATM    9  C6  UNL     1     -11.638   4.604 -30.668  1.00  0.00     0.133 A 
HETATM   10  N9  UNL     1     -11.851   3.486 -29.790  1.00  0.00    -0.095 NA
ENDROOT
BRANCH   1  11
HETATM   11  N4  UNL     1      -9.433   4.632 -30.027  1.00  0.00    -0.262 N 
ATOM     12  H4  UNL     1      -9.367   4.885 -29.040  1.00  0.00     0.190 HD
BRANCH  11  13
HETATM   13  N3  UNL     1      -8.507   3.734 -30.561  1.00  0.00    -0.186 N 
ATOM     14  H3  UNL     1      -8.245   2.896 -30.043  1.00  0.00     0.218 HD
BRANCH  13  15
HETATM   15  O2  UNL     1      -7.958   3.987 -31.774  1.00  0.00    -0.165 OA
BRANCH  15  16
HETATM   16  N1  UNL     1      -8.749   3.469 -32.709  1.00  0.00    -0.148 NA
HETATM   17  C1  UNL     1      -8.227   3.570 -34.046  1.00  0.00     0.149 C 
BRANCH  16  18
HETATM   18  C2  UNL     1      -9.098   2.083 -32.477  1.00  0.00     0.323 C 
BRANCH  18  19
HETATM   19  O1  UNL     1     -10.081   1.626 -33.325  1.00  0.00    -0.271 OA
BRANCH  19  20
HETATM   20  N2  UNL     1     -11.275   2.124 -32.931  1.00  0.00    -0.310 N 
ATOM     21  H22 UNL     1     -12.177   1.827 -33.304  1.00  0.00     0.184 HD
ATOM     22  H21 UNL     1     -11.123   2.832 -32.213  1.00  0.00     0.184 HD
ENDBRANCH  19  20
ENDBRANCH  18  19
ENDBRANCH  16  18
ENDBRANCH  15  16
ENDBRANCH  13  15
ENDBRANCH  11  13
ENDBRANCH   1  11
BRANCH   4  23
HETATM   23  N6  UNL     1     -10.997   7.725 -33.102  1.00  0.00    -0.234 N 
ATOM     24  H62 UNL     1     -11.373   7.657 -34.048  1.00  0.00     0.174 HD
ATOM     25  H61 UNL     1     -10.502   8.570 -32.815  1.00  0.00     0.174 HD
ENDBRANCH   4  23
TORSDOF 8
ENDMDL
