MODEL 1
REMARK VINA RESULT: -6.060049323      0.000      0.000
REMARK  8 active torsions:
REMARK  status: ('A' for Active; 'I' for Inactive)
REMARK    1  A    between atoms: N1_1  and  C1_4 
REMARK    2  A    between atoms: C3_10  and  C4_11 
REMARK    3  A    between atoms: C4_11  and  N4_12 
REMARK    4  A    between atoms: N4_12  and  C5_14 
REMARK    5  A    between atoms: C5_14  and  C6_15 
REMARK    6  A    between atoms: C6_15  and  O1_16 
REMARK    7  A    between atoms: O1_16  and  N5_17 
REMARK    8  A    between atoms: C7_22  and  N7_23 
ROOT
HETATM    1  C1  UNL     1     -14.141   5.521 -31.600  1.00  0.00     0.706 A 
HETATM    2  N2  UNL     1     -13.339   4.631 -30.988  1.00  0.00    -0.019 N 
ATOM      3  H2  UNL     1     -13.666   3.834 -30.441  1.00  0.00     0.203 HD
HETATM    4  C2  UNL     1     -12.026   4.944 -31.201  1.00  0.00     0.735 A 
HETATM    5  N3  UNL     1     -10.874   4.359 -30.796  1.00  0.00    -0.175 N 
ATOM      6  H3  UNL     1     -10.884   3.518 -30.218  1.00  0.00     0.185 HD
HETATM    7  C3  UNL     1      -9.723   4.922 -31.178  1.00  0.00     0.130 A 
HETATM    8  N6  UNL     1      -9.714   6.010 -31.925  1.00  0.00    -0.176 N 
ATOM      9  H6  UNL     1      -8.822   6.419 -32.202  1.00  0.00     0.185 HD
HETATM   10  C7  UNL     1     -10.858   6.593 -32.328  1.00  0.00     0.714 A 
HETATM   11  N8  UNL     1     -12.054   6.051 -31.961  1.00  0.00     0.105 N 
HETATM   12  N9  UNL     1     -13.322   6.398 -32.201  1.00  0.00    -0.096 N 
ATOM     13  H9  UNL     1     -13.620   7.202 -32.753  1.00  0.00     0.207 HD
ENDROOT
BRANCH   7  14
HETATM   14  C4  UNL     1      -8.431   4.279 -30.734  1.00  0.00     0.191 C 
BRANCH  14  15
HETATM   15  N4  UNL     1      -7.775   3.873 -31.943  1.00  0.00    -0.412 N 
ATOM     16  H4  UNL     1      -6.967   4.386 -32.295  1.00  0.00     0.153 HD
BRANCH  15  17
HETATM   17  C5  UNL     1      -8.274   2.747 -32.633  1.00  0.00     0.143 C 
BRANCH  17  18
HETATM   18  C6  UNL     1      -8.745   3.016 -34.030  1.00  0.00     0.219 C 
BRANCH  18  19
HETATM   19  O1  UNL     1      -9.806   2.240 -34.386  1.00  0.00    -0.286 OA
BRANCH  19  20
HETATM   20  N5  UNL     1     -10.564   1.980 -33.301  1.00  0.00    -0.311 N 
ATOM     21  H52 UNL     1     -10.300   2.217 -32.344  1.00  0.00     0.184 HD
ATOM     22  H51 UNL     1     -11.427   1.516 -33.586  1.00  0.00     0.184 HD
ENDBRANCH  19  20
ENDBRANCH  18  19
ENDBRANCH  17  18
ENDBRANCH  15  17
ENDBRANCH  14  15
ENDBRANCH   7  14
BRANCH  10  23
HETATM   23  N7  UNL     1     -10.906   7.644 -33.052  1.00  0.00    -0.232 N 
ATOM     24  H72 UNL     1     -11.526   7.612 -33.862  1.00  0.00     0.174 HD
ATOM     25  H71 UNL     1     -10.367   8.489 -32.866  1.00  0.00     0.174 HD
ENDBRANCH  10  23
BRANCH   1  26
HETATM   26  N1  UNL     1     -15.446   5.524 -31.596  1.00  0.00    -0.233 N 
ATOM     27  H12 UNL     1     -16.072   5.025 -32.228  1.00  0.00     0.174 HD
ATOM     28  H11 UNL     1     -16.051   6.039 -30.957  1.00  0.00     0.174 HD
ENDBRANCH   1  26
TORSDOF 8
ENDMDL
MODEL 2
REMARK VINA RESULT: -6.013474839      1.930      2.472
REMARK  8 active torsions:
REMARK  status: ('A' for Active; 'I' for Inactive)
REMARK    1  A    between atoms: N1_1  and  C1_4 
REMARK    2  A    between atoms: C3_10  and  C4_11 
REMARK    3  A    between atoms: C4_11  and  N4_12 
REMARK    4  A    between atoms: N4_12  and  C5_14 
REMARK    5  A    between atoms: C5_14  and  C6_15 
REMARK    6  A    between atoms: C6_15  and  O1_16 
REMARK    7  A    between atoms: O1_16  and  N5_17 
REMARK    8  A    between atoms: C7_22  and  N7_23 
ROOT
HETATM    1  C1  UNL     1     -14.890   2.297 -32.586  1.00  0.00     0.706 A 
HETATM    2  N2  UNL     1     -13.664   1.934 -32.171  1.00  0.00    -0.019 N 
ATOM      3  H2  UNL     1     -13.314   0.975 -32.158  1.00  0.00     0.203 HD
HETATM    4  C2  UNL     1     -12.951   3.029 -31.769  1.00  0.00     0.735 A 
HETATM    5  N3  UNL     1     -11.696   3.167 -31.280  1.00  0.00    -0.175 N 
ATOM      6  H3  UNL     1     -11.087   2.359 -31.151  1.00  0.00     0.185 HD
HETATM    7  C3  UNL     1     -11.282   4.401 -30.971  1.00  0.00     0.130 A 
HETATM    8  N6  UNL     1     -12.074   5.444 -31.138  1.00  0.00    -0.176 N 
ATOM      9  H6  UNL     1     -11.733   6.375 -30.894  1.00  0.00     0.185 HD
HETATM   10  C7  UNL     1     -13.322   5.308 -31.624  1.00  0.00     0.714 A 
HETATM   11  N8  UNL     1     -13.782   4.068 -31.952  1.00  0.00     0.105 N 
HETATM   12  N9  UNL     1     -14.945   3.629 -32.442  1.00  0.00    -0.096 N 
ATOM     13  H9  UNL     1     -15.749   4.215 -32.670  1.00  0.00     0.207 HD
ENDROOT
BRANCH   7  14
HETATM   14  C4  UNL     1      -9.885   4.570 -30.425  1.00  0.00     0.191 C 
BRANCH  14  15
HETATM   15  N4  UNL     1      -9.043   3.804 -31.297  1.00  0.00    -0.412 N 
ATOM     16  H4  UNL     1      -8.613   2.936 -30.977  1.00  0.00     0.153 HD
BRANCH  15  17
HETATM   17  C5  UNL     1      -8.822   4.281 -32.608  1.00  0.00     0.143 C 
BRANCH  17  18
HETATM   18  C6  UNL     1      -8.904   3.240 -33.683  1.00  0.00     0.219 C 
BRANCH  18  19
HETATM   19  O1  UNL     1      -9.550   2.113 -33.276  1.00  0.00    -0.286 OA
BRANCH  19  20
HETATM   20  N5  UNL     1     -10.580   1.852 -34.108  1.00  0.00    -0.311 N 
ATOM     21  H52 UNL     1     -10.480   1.434 -35.033  1.00  0.00     0.184 HD
ATOM     22  H51 UNL     1     -11.457   2.135 -33.671  1.00  0.00     0.184 HD
ENDBRANCH  19  20
ENDBRANCH  18  19
ENDBRANCH  17  18
ENDBRANCH  15  17
ENDBRANCH  14  15
ENDBRANCH   7  14
BRANCH  10  23
HETATM   23  N7  UNL     1     -14.126   6.282 -31.807  1.00  0.00    -0.232 N 
ATOM     24  H72 UNL     1     -13.856   6.970 -32.511  1.00  0.00     0.174 HD
ATOM     25  H71 UNL     1     -14.999   6.404 -31.296  1.00  0.00     0.174 HD
ENDBRANCH  10  23
BRANCH   1  26
HETATM   26  N1  UNL     1     -15.829   1.504 -33.028  1.00  0.00    -0.233 N 
ATOM     27  H12 UNL     1     -16.011   0.540 -32.750  1.00  0.00     0.174 HD
ATOM     28  H11 UNL     1     -16.530   1.726 -33.735  1.00  0.00     0.174 HD
ENDBRANCH   1  26
TORSDOF 8
ENDMDL
MODEL 3
REMARK VINA RESULT: -5.962821469      2.264      3.028
REMARK  8 active torsions:
REMARK  status: ('A' for Active; 'I' for Inactive)
REMARK    1  A    between atoms: N1_1  and  C1_4 
REMARK    2  A    between atoms: C3_10  and  C4_11 
REMARK    3  A    between atoms: C4_11  and  N4_12 
REMARK    4  A    between atoms: N4_12  and  C5_14 
REMARK    5  A    between atoms: C5_14  and  C6_15 
REMARK    6  A    between atoms: C6_15  and  O1_16 
REMARK    7  A    between atoms: O1_16  and  N5_17 
REMARK    8  A    between atoms: C7_22  and  N7_23 
ROOT
HETATM    1  C1  UNL     1     -14.865   2.101 -33.047  1.00  0.00     0.706 A 
HETATM    2  N2  UNL     1     -13.679   1.786 -32.498  1.00  0.00    -0.019 N 
ATOM      3  H2  UNL     1     -13.262   0.854 -32.508  1.00  0.00     0.203 HD
HETATM    4  C2  UNL     1     -13.109   2.889 -31.925  1.00  0.00     0.735 A 
HETATM    5  N3  UNL     1     -11.941   3.068 -31.263  1.00  0.00    -0.175 N 
ATOM      6  H3  UNL     1     -11.295   2.293 -31.113  1.00  0.00     0.185 HD
HETATM    7  C3  UNL     1     -11.665   4.297 -30.813  1.00  0.00     0.130 A 
HETATM    8  N6  UNL     1     -12.505   5.296 -31.009  1.00  0.00    -0.176 N 
ATOM      9  H6  UNL     1     -12.269   6.224 -30.655  1.00  0.00     0.185 HD
HETATM   10  C7  UNL     1     -13.666   5.119 -31.667  1.00  0.00     0.714 A 
HETATM   11  N8  UNL     1     -13.985   3.882 -32.143  1.00  0.00     0.105 N 
HETATM   12  N9  UNL     1     -15.039   3.410 -32.815  1.00  0.00    -0.096 N 
ATOM     13  H9  UNL     1     -15.848   3.959 -33.106  1.00  0.00     0.207 HD
ENDROOT
BRANCH   7  14
HETATM   14  C4  UNL     1     -10.367   4.512 -30.073  1.00  0.00     0.191 C 
BRANCH  14  15
HETATM   15  N4  UNL     1      -9.663   5.508 -30.827  1.00  0.00    -0.412 N 
ATOM     16  H4  UNL     1      -9.575   6.462 -30.477  1.00  0.00     0.153 HD
BRANCH  15  17
HETATM   17  C5  UNL     1      -9.094   5.138 -32.065  1.00  0.00     0.143 C 
BRANCH  17  18
HETATM   18  C6  UNL     1      -8.018   4.097 -31.983  1.00  0.00     0.219 C 
BRANCH  18  19
HETATM   19  O1  UNL     1      -7.678   3.597 -33.203  1.00  0.00    -0.286 OA
BRANCH  19  20
HETATM   20  N5  UNL     1      -8.766   3.556 -33.999  1.00  0.00    -0.311 N 
ATOM     21  H52 UNL     1      -9.720   3.421 -33.663  1.00  0.00     0.184 HD
ATOM     22  H51 UNL     1      -8.487   3.680 -34.972  1.00  0.00     0.184 HD
ENDBRANCH  19  20
ENDBRANCH  18  19
ENDBRANCH  17  18
ENDBRANCH  15  17
ENDBRANCH  14  15
ENDBRANCH   7  14
BRANCH  10  23
HETATM   23  N7  UNL     1     -14.511   6.051 -31.885  1.00  0.00    -0.232 N 
ATOM     24  H72 UNL     1     -15.297   6.115 -31.238  1.00  0.00     0.174 HD
ATOM     25  H71 UNL     1     -14.440   6.713 -32.657  1.00  0.00     0.174 HD
ENDBRANCH  10  23
BRANCH   1  26
HETATM   26  N1  UNL     1     -15.676   1.287 -33.668  1.00  0.00    -0.233 N 
ATOM     27  H12 UNL     1     -15.501   0.320 -33.937  1.00  0.00     0.174 HD
ATOM     28  H11 UNL     1     -16.620   1.498 -33.989  1.00  0.00     0.174 HD
ENDBRANCH   1  26
TORSDOF 8
ENDMDL
MODEL 4
REMARK VINA RESULT: -5.917998346      3.767      5.668
REMARK  8 active torsions:
REMARK  status: ('A' for Active; 'I' for Inactive)
REMARK    1  A    between atoms: N1_1  and  C1_4 
REMARK    2  A    between atoms: C3_10  and  C4_11 
REMARK    3  A    between atoms: C4_11  and  N4_12 
REMARK    4  A    between atoms: N4_12  and  C5_14 
REMARK    5  A    between atoms: C5_14  and  C6_15 
REMARK    6  A    between atoms: C6_15  and  O1_16 
REMARK    7  A    between atoms: O1_16  and  N5_17 
REMARK    8  A    between atoms: C7_22  and  N7_23 
ROOT
HETATM    1  C1  UNL     1     -10.965   4.423 -30.111  1.00  0.00     0.706 A 
HETATM    2  N2  UNL     1     -11.293   3.243 -30.665  1.00  0.00    -0.019 N 
ATOM      3  H2  UNL     1     -10.742   2.388 -30.582  1.00  0.00     0.203 HD
HETATM    4  C2  UNL     1     -12.469   3.348 -31.355  1.00  0.00     0.735 A 
HETATM    5  N3  UNL     1     -13.188   2.449 -32.067  1.00  0.00    -0.175 N 
ATOM      6  H3  UNL     1     -12.877   1.483 -32.165  1.00  0.00     0.185 HD
HETATM    7  C3  UNL     1     -14.321   2.873 -32.638  1.00  0.00     0.130 A 
HETATM    8  N6  UNL     1     -14.719   4.125 -32.510  1.00  0.00    -0.176 N 
ATOM      9  H6  UNL     1     -15.588   4.422 -32.956  1.00  0.00     0.185 HD
HETATM   10  C7  UNL     1     -14.004   5.019 -31.802  1.00  0.00     0.714 A 
HETATM   11  N8  UNL     1     -12.844   4.628 -31.203  1.00  0.00     0.105 N 
HETATM   12  N9  UNL     1     -11.943   5.274 -30.457  1.00  0.00    -0.096 N 
ATOM     13  H9  UNL     1     -11.990   6.258 -30.193  1.00  0.00     0.207 HD
ENDROOT
BRANCH   7  14
HETATM   14  C4  UNL     1     -15.134   1.882 -33.435  1.00  0.00     0.191 C 
BRANCH  14  15
HETATM   15  N4  UNL     1     -14.525   0.607 -33.187  1.00  0.00    -0.412 N 
ATOM     16  H4  UNL     1     -13.598   0.391 -33.553  1.00  0.00     0.153 HD
BRANCH  15  17
HETATM   17  C5  UNL     1     -15.240  -0.342 -32.424  1.00  0.00     0.143 C 
BRANCH  17  18
HETATM   18  C6  UNL     1     -16.489   0.174 -31.778  1.00  0.00     0.219 C 
BRANCH  18  19
HETATM   19  O1  UNL     1     -17.621  -0.286 -32.380  1.00  0.00    -0.286 OA
BRANCH  19  20
HETATM   20  N5  UNL     1     -18.440   0.748 -32.661  1.00  0.00    -0.311 N 
ATOM     21  H52 UNL     1     -19.075   1.178 -31.988  1.00  0.00     0.184 HD
ATOM     22  H51 UNL     1     -18.325   1.025 -33.636  1.00  0.00     0.184 HD
ENDBRANCH  19  20
ENDBRANCH  18  19
ENDBRANCH  17  18
ENDBRANCH  15  17
ENDBRANCH  14  15
ENDBRANCH   7  14
BRANCH  10  23
HETATM   23  N7  UNL     1     -14.345   6.240 -31.645  1.00  0.00    -0.232 N 
ATOM     24  H72 UNL     1     -14.174   6.866 -32.431  1.00  0.00     0.174 HD
ATOM     25  H71 UNL     1     -14.766   6.607 -30.792  1.00  0.00     0.174 HD
ENDBRANCH  10  23
BRANCH   1  26
HETATM   26  N1  UNL     1      -9.905   4.678 -29.392  1.00  0.00    -0.233 N 
ATOM     27  H12 UNL     1      -9.595   4.197 -28.548  1.00  0.00     0.174 HD
ATOM     28  H11 UNL     1      -9.218   5.412 -29.561  1.00  0.00     0.174 HD
ENDBRANCH   1  26
TORSDOF 8
ENDMDL
MODEL 5
REMARK VINA RESULT: -5.831958709      3.623      5.608
REMARK  8 active torsions:
REMARK  status: ('A' for Active; 'I' for Inactive)
REMARK    1  A    between atoms: N1_1  and  C1_4 
REMARK    2  A    between atoms: C3_10  and  C4_11 
REMARK    3  A    between atoms: C4_11  and  N4_12 
REMARK    4  A    between atoms: N4_12  and  C5_14 
REMARK    5  A    between atoms: C5_14  and  C6_15 
REMARK    6  A    between atoms: C6_15  and  O1_16 
REMARK    7  A    between atoms: O1_16  and  N5_17 
REMARK    8  A    between atoms: C7_22  and  N7_23 
ROOT
HETATM    1  C1  UNL     1     -11.040   4.295 -30.125  1.00  0.00     0.706 A 
HETATM    2  N2  UNL     1     -11.400   3.107 -30.643  1.00  0.00    -0.019 N 
ATOM      3  H2  UNL     1     -10.876   2.239 -30.525  1.00  0.00     0.203 HD
HETATM    4  C2  UNL     1     -12.565   3.224 -31.348  1.00  0.00     0.735 A 
HETATM    5  N3  UNL     1     -13.306   2.324 -32.036  1.00  0.00    -0.175 N 
ATOM      6  H3  UNL     1     -13.024   1.346 -32.099  1.00  0.00     0.185 HD
HETATM    7  C3  UNL     1     -14.420   2.763 -32.633  1.00  0.00     0.130 A 
HETATM    8  N6  UNL     1     -14.780   4.031 -32.551  1.00  0.00    -0.176 N 
ATOM      9  H6  UNL     1     -15.635   4.338 -33.015  1.00  0.00     0.185 HD
HETATM   10  C7  UNL     1     -14.044   4.926 -31.867  1.00  0.00     0.714 A 
HETATM   11  N8  UNL     1     -12.902   4.520 -31.243  1.00  0.00     0.105 N 
HETATM   12  N9  UNL     1     -11.988   5.163 -30.510  1.00  0.00    -0.096 N 
ATOM     13  H9  UNL     1     -12.007   6.156 -30.280  1.00  0.00     0.207 HD
ENDROOT
BRANCH   7  14
HETATM   14  C4  UNL     1     -15.256   1.770 -33.404  1.00  0.00     0.191 C 
BRANCH  14  15
HETATM   15  N4  UNL     1     -16.248   1.310 -32.476  1.00  0.00    -0.412 N 
ATOM     16  H4  UNL     1     -17.019   1.916 -32.194  1.00  0.00     0.153 HD
BRANCH  15  17
HETATM   17  C5  UNL     1     -16.132   0.000 -31.963  1.00  0.00     0.143 C 
BRANCH  17  18
HETATM   18  C6  UNL     1     -15.883  -0.083 -30.487  1.00  0.00     0.219 C 
BRANCH  18  19
HETATM   19  O1  UNL     1     -14.557  -0.112 -30.180  1.00  0.00    -0.286 OA
BRANCH  19  20
HETATM   20  N5  UNL     1     -14.332  -1.026 -29.213  1.00  0.00    -0.311 N 
ATOM     21  H52 UNL     1     -13.495  -1.054 -28.631  1.00  0.00     0.184 HD
ATOM     22  H51 UNL     1     -15.119  -1.672 -29.160  1.00  0.00     0.184 HD
ENDBRANCH  19  20
ENDBRANCH  18  19
ENDBRANCH  17  18
ENDBRANCH  15  17
ENDBRANCH  14  15
ENDBRANCH   7  14
BRANCH  10  23
HETATM   23  N7  UNL     1     -14.348   6.161 -31.754  1.00  0.00    -0.232 N 
ATOM     24  H72 UNL     1     -13.576   6.808 -31.594  1.00  0.00     0.174 HD
ATOM     25  H71 UNL     1     -15.301   6.520 -31.812  1.00  0.00     0.174 HD
ENDBRANCH  10  23
BRANCH   1  26
HETATM   26  N1  UNL     1      -9.980   4.541 -29.405  1.00  0.00    -0.233 N 
ATOM     27  H12 UNL     1      -9.886   4.472 -28.392  1.00  0.00     0.174 HD
ATOM     28  H11 UNL     1      -9.071   4.852 -29.748  1.00  0.00     0.174 HD
ENDBRANCH   1  26
TORSDOF 8
ENDMDL
