MODEL 1
REMARK VINA RESULT: -5.453927042      0.000      0.000
REMARK  4 active torsions:
REMARK  status: ('A' for Active; 'I' for Inactive)
REMARK    1  A    between atoms: C1_4  and  N2_5 
REMARK       I    between atoms: N2_5  and  C2_7 
REMARK       I    between atoms: C2_7  and  N3_8 
REMARK       I    between atoms: C2_7  and  N4_12 
REMARK       I    between atoms: N4_12  and  C3_14 
REMARK       I    between atoms: C3_14  and  N7_20 
REMARK    2  A    between atoms: N5_15  and  N6_17 
REMARK    3  A    between atoms: C5_22  and  N8_23 
REMARK    4  A    between atoms: N8_23  and  N9_25 
ROOT
HETATM    1  N2  UNL     1     -10.224   4.753 -30.647  1.00  0.00    -0.343 N 
ATOM      2  H2  UNL     1      -9.802   5.681 -30.639  1.00  0.00     0.164 HD
HETATM    3  C2  UNL     1     -11.272   4.443 -31.579  1.00  0.00     0.401 C 
HETATM    4  N3  UNL     1     -10.799   3.338 -32.401  1.00  0.00    -0.040 N 
ATOM      5  H31 UNL     1     -11.543   3.118 -33.062  1.00  0.00     0.279 HD
ATOM      6  H32 UNL     1     -10.498   2.532 -31.853  1.00  0.00     0.279 HD
ATOM      7  H33 UNL     1      -9.904   3.529 -32.852  1.00  0.00     0.279 HD
HETATM    8  N4  UNL     1     -12.506   4.072 -30.925  1.00  0.00    -0.177 N 
ATOM      9  H4  UNL     1     -12.577   4.047 -29.908  1.00  0.00     0.181 HD
HETATM   10  C3  UNL     1     -13.613   3.744 -31.744  1.00  0.00     0.717 C 
HETATM   11  N5  UNL     1     -14.327   4.712 -32.235  1.00  0.00    -0.137 N 
ATOM     12  H5  UNL     1     -15.127   4.492 -32.827  1.00  0.00     0.205 HD
HETATM   13  N7  UNL     1     -13.992   2.411 -32.064  1.00  0.00    -0.081 N 
HETATM   14  C4  UNL     1     -13.833   1.573 -33.242  1.00  0.00     0.233 C 
HETATM   15  C5  UNL     1     -14.754   0.613 -32.556  1.00  0.00     0.288 C 
HETATM   16  O1  UNL     1     -14.641   1.413 -31.403  1.00  0.00    -0.235 OA
ENDROOT
BRANCH  11  17
HETATM   17  N6  UNL     1     -14.020   6.050 -31.968  1.00  0.00    -0.331 N 
ATOM     18  H62 UNL     1     -14.333   6.450 -31.084  1.00  0.00     0.177 HD
ATOM     19  H61 UNL     1     -13.498   6.618 -32.635  1.00  0.00     0.177 HD
ENDBRANCH  11  17
BRANCH   1  20
HETATM   20  C1  UNL     1      -9.783   3.766 -29.746  1.00  0.00     0.171 C 
HETATM   21  N1  UNL     1      -9.945   3.879 -28.456  1.00  0.00    -0.395 N 
ATOM     22  H12 UNL     1     -10.409   4.717 -28.105  1.00  0.00     0.156 HD
ATOM     23  H11 UNL     1      -9.626   3.163 -27.803  1.00  0.00     0.156 HD
ENDBRANCH   1  20
BRANCH  15  24
HETATM   24  N8  UNL     1     -16.124   0.681 -33.042  1.00  0.00    -0.290 N 
ATOM     25  H8  UNL     1     -16.279   0.731 -34.049  1.00  0.00     0.184 HD
BRANCH  24  26
HETATM   26  N9  UNL     1     -17.222   0.682 -32.209  1.00  0.00    -0.251 N 
HETATM   27  N10 UNL     1     -18.390   0.853 -32.676  1.00  0.00    -0.331 N 
ATOM     28 2H10 UNL     1     -18.500   0.989 -33.681  1.00  0.00     0.178 HD
ATOM     29 1H10 UNL     1     -19.202   0.853 -32.060  1.00  0.00     0.178 HD
ATOM     30  H9  UNL     1     -17.095   0.546 -31.206  1.00  0.00     0.207 HD
ENDBRANCH  24  26
ENDBRANCH  15  24
TORSDOF 4
ENDMDL
MODEL 2
REMARK VINA RESULT: -4.975272234      1.733      6.172
REMARK  4 active torsions:
REMARK  status: ('A' for Active; 'I' for Inactive)
REMARK    1  A    between atoms: C1_4  and  N2_5 
REMARK       I    between atoms: N2_5  and  C2_7 
REMARK       I    between atoms: C2_7  and  N3_8 
REMARK       I    between atoms: C2_7  and  N4_12 
REMARK       I    between atoms: N4_12  and  C3_14 
REMARK       I    between atoms: C3_14  and  N7_20 
REMARK    2  A    between atoms: N5_15  and  N6_17 
REMARK    3  A    between atoms: C5_22  and  N8_23 
REMARK    4  A    between atoms: N8_23  and  N9_25 
ROOT
HETATM    1  N2  UNL     1     -15.329   1.046 -33.359  1.00  0.00    -0.343 N 
ATOM      2  H2  UNL     1     -15.476   0.532 -34.228  1.00  0.00     0.164 HD
HETATM    3  C2  UNL     1     -14.266   2.006 -33.258  1.00  0.00     0.401 C 
HETATM    4  N3  UNL     1     -14.880   3.291 -32.955  1.00  0.00    -0.040 N 
ATOM      5  H31 UNL     1     -14.125   3.973 -32.883  1.00  0.00     0.279 HD
ATOM      6  H32 UNL     1     -15.477   3.265 -32.128  1.00  0.00     0.279 HD
ATOM      7  H33 UNL     1     -15.600   3.559 -33.626  1.00  0.00     0.279 HD
HETATM    8  N4  UNL     1     -13.308   1.668 -32.232  1.00  0.00    -0.177 N 
ATOM      9  H4  UNL     1     -13.416   0.828 -31.665  1.00  0.00     0.181 HD
HETATM   10  C3  UNL     1     -12.212   2.544 -32.039  1.00  0.00     0.717 C 
HETATM   11  N5  UNL     1     -11.189   2.439 -32.834  1.00  0.00    -0.137 N 
ATOM     12  H5  UNL     1     -10.393   3.063 -32.708  1.00  0.00     0.205 HD
HETATM   13  N7  UNL     1     -12.164   3.539 -31.024  1.00  0.00    -0.081 N 
HETATM   14  C4  UNL     1     -12.348   4.981 -31.015  1.00  0.00     0.233 C 
HETATM   15  C5  UNL     1     -11.852   4.933 -29.603  1.00  0.00     0.288 C 
HETATM   16  O1  UNL     1     -11.932   3.529 -29.682  1.00  0.00    -0.235 OA
ENDROOT
BRANCH  11  17
HETATM   17  N6  UNL     1     -11.158   1.487 -33.857  1.00  0.00    -0.331 N 
ATOM     18  H62 UNL     1     -11.957   1.431 -34.489  1.00  0.00     0.177 HD
ATOM     19  H61 UNL     1     -10.361   0.862 -33.977  1.00  0.00     0.177 HD
ENDBRANCH  11  17
BRANCH   1  20
HETATM   20  C1  UNL     1     -16.166   0.819 -32.252  1.00  0.00     0.171 C 
HETATM   21  N1  UNL     1     -17.466   0.781 -32.357  1.00  0.00    -0.395 N 
ATOM     22  H12 UNL     1     -17.874   0.924 -33.282  1.00  0.00     0.156 HD
ATOM     23  H11 UNL     1     -18.073   0.617 -31.554  1.00  0.00     0.156 HD
ENDBRANCH   1  20
BRANCH  15  24
HETATM   24  N8  UNL     1     -10.455   5.317 -29.470  1.00  0.00    -0.290 N 
ATOM     25  H8  UNL     1     -10.226   6.311 -29.444  1.00  0.00     0.184 HD
BRANCH  24  26
HETATM   26  N9  UNL     1      -9.426   4.404 -29.377  1.00  0.00    -0.251 N 
HETATM   27  N10 UNL     1      -8.812   4.013 -30.417  1.00  0.00    -0.331 N 
ATOM     28 2H10 UNL     1      -9.095   4.387 -31.323  1.00  0.00     0.178 HD
ATOM     29 1H10 UNL     1      -8.051   3.337 -30.348  1.00  0.00     0.178 HD
ATOM     30  H9  UNL     1      -9.157   4.038 -28.464  1.00  0.00     0.207 HD
ENDBRANCH  24  26
ENDBRANCH  15  24
TORSDOF 4
ENDMDL
MODEL 3
REMARK VINA RESULT: -4.426779874      4.394      5.837
REMARK  4 active torsions:
REMARK  status: ('A' for Active; 'I' for Inactive)
REMARK    1  A    between atoms: C1_4  and  N2_5 
REMARK       I    between atoms: N2_5  and  C2_7 
REMARK       I    between atoms: C2_7  and  N3_8 
REMARK       I    between atoms: C2_7  and  N4_12 
REMARK       I    between atoms: N4_12  and  C3_14 
REMARK       I    between atoms: C3_14  and  N7_20 
REMARK    2  A    between atoms: N5_15  and  N6_17 
REMARK    3  A    between atoms: C5_22  and  N8_23 
REMARK    4  A    between atoms: N8_23  and  N9_25 
ROOT
HETATM    1  N2  UNL     1      -8.738   3.660 -33.959  1.00  0.00    -0.343 N 
ATOM      2  H2  UNL     1      -8.685   3.863 -34.956  1.00  0.00     0.164 HD
HETATM    3  C2  UNL     1      -9.843   4.144 -33.179  1.00  0.00     0.401 C 
HETATM    4  N3  UNL     1     -10.510   2.978 -32.616  1.00  0.00    -0.040 N 
ATOM      5  H31 UNL     1     -11.295   3.322 -32.063  1.00  0.00     0.279 HD
ATOM      6  H32 UNL     1      -9.881   2.373 -32.088  1.00  0.00     0.279 HD
ATOM      7  H33 UNL     1     -10.786   2.295 -33.322  1.00  0.00     0.279 HD
HETATM    8  N4  UNL     1      -9.428   5.030 -32.117  1.00  0.00    -0.177 N 
ATOM      9  H4  UNL     1      -8.445   5.258 -31.974  1.00  0.00     0.181 HD
HETATM   10  C3  UNL     1     -10.434   5.571 -31.280  1.00  0.00     0.717 C 
HETATM   11  N5  UNL     1     -11.095   6.608 -31.698  1.00  0.00    -0.137 N 
ATOM     12  H5  UNL     1     -11.823   7.009 -31.107  1.00  0.00     0.205 HD
HETATM   13  N7  UNL     1     -10.767   5.043 -30.002  1.00  0.00    -0.081 N 
HETATM   14  C4  UNL     1     -11.855   4.217 -29.504  1.00  0.00     0.233 C 
HETATM   15  C5  UNL     1     -11.323   4.520 -28.137  1.00  0.00     0.288 C 
HETATM   16  O1  UNL     1     -10.205   5.104 -28.762  1.00  0.00    -0.235 OA
ENDROOT
BRANCH  11  17
HETATM   17  N6  UNL     1     -10.829   7.187 -32.943  1.00  0.00    -0.331 N 
ATOM     18  H62 UNL     1     -11.275   8.076 -33.168  1.00  0.00     0.177 HD
ATOM     19  H61 UNL     1     -10.206   6.738 -33.615  1.00  0.00     0.177 HD
ENDBRANCH  11  17
BRANCH   1  20
HETATM   20  C1  UNL     1      -7.728   2.904 -33.335  1.00  0.00     0.171 C 
HETATM   21  N1  UNL     1      -7.991   2.016 -32.415  1.00  0.00    -0.395 N 
ATOM     22  H12 UNL     1      -8.966   1.878 -32.151  1.00  0.00     0.156 HD
ATOM     23  H11 UNL     1      -7.259   1.469 -31.963  1.00  0.00     0.156 HD
ENDBRANCH   1  20
BRANCH  15  24
HETATM   24  N8  UNL     1     -12.071   5.560 -27.446  1.00  0.00    -0.290 N 
ATOM     25  H8  UNL     1     -13.090   5.530 -27.484  1.00  0.00     0.184 HD
BRANCH  24  26
HETATM   26  N9  UNL     1     -11.469   6.581 -26.743  1.00  0.00    -0.251 N 
HETATM   27  N10 UNL     1     -10.767   7.453 -27.341  1.00  0.00    -0.331 N 
ATOM     28 2H10 UNL     1     -10.657   7.383 -28.353  1.00  0.00     0.178 HD
ATOM     29 1H10 UNL     1     -10.323   8.210 -26.821  1.00  0.00     0.178 HD
ATOM     30  H9  UNL     1     -11.589   6.637 -25.731  1.00  0.00     0.207 HD
ENDBRANCH  24  26
ENDBRANCH  15  24
TORSDOF 4
ENDMDL
MODEL 4
REMARK VINA RESULT: -4.296246340      1.721      2.618
REMARK  4 active torsions:
REMARK  status: ('A' for Active; 'I' for Inactive)
REMARK    1  A    between atoms: C1_4  and  N2_5 
REMARK       I    between atoms: N2_5  and  C2_7 
REMARK       I    between atoms: C2_7  and  N3_8 
REMARK       I    between atoms: C2_7  and  N4_12 
REMARK       I    between atoms: N4_12  and  C3_14 
REMARK       I    between atoms: C3_14  and  N7_20 
REMARK    2  A    between atoms: N5_15  and  N6_17 
REMARK    3  A    between atoms: C5_22  and  N8_23 
REMARK    4  A    between atoms: N8_23  and  N9_25 
ROOT
HETATM    1  N2  UNL     1      -8.686   5.434 -31.516  1.00  0.00    -0.343 N 
ATOM      2  H2  UNL     1      -8.072   6.054 -30.988  1.00  0.00     0.164 HD
HETATM    3  C2  UNL     1     -10.087   5.368 -31.207  1.00  0.00     0.401 C 
HETATM    4  N3  UNL     1     -10.807   5.762 -32.411  1.00  0.00    -0.040 N 
ATOM      5  H31 UNL     1     -11.802   5.715 -32.191  1.00  0.00     0.279 HD
ATOM      6  H32 UNL     1     -10.551   5.210 -33.229  1.00  0.00     0.279 HD
ATOM      7  H33 UNL     1     -10.518   6.672 -32.770  1.00  0.00     0.279 HD
HETATM    8  N4  UNL     1     -10.505   4.047 -30.798  1.00  0.00    -0.177 N 
ATOM      9  H4  UNL     1      -9.840   3.275 -30.749  1.00  0.00     0.181 HD
HETATM   10  C3  UNL     1     -11.869   3.861 -30.468  1.00  0.00     0.717 C 
HETATM   11  N5  UNL     1     -12.270   4.203 -29.281  1.00  0.00    -0.137 N 
ATOM     12  H5  UNL     1     -13.249   4.076 -29.028  1.00  0.00     0.205 HD
HETATM   13  N7  UNL     1     -12.832   3.318 -31.363  1.00  0.00    -0.081 N 
HETATM   14  C4  UNL     1     -13.888   3.895 -32.179  1.00  0.00     0.233 C 
HETATM   15  C5  UNL     1     -14.323   2.485 -32.431  1.00  0.00     0.288 C 
HETATM   16  O1  UNL     1     -13.137   2.065 -31.801  1.00  0.00    -0.235 OA
ENDROOT
BRANCH  11  17
HETATM   17  N6  UNL     1     -11.386   4.744 -28.342  1.00  0.00    -0.331 N 
ATOM     18  H62 UNL     1     -10.434   4.381 -28.310  1.00  0.00     0.177 HD
ATOM     19  H61 UNL     1     -11.678   5.483 -27.702  1.00  0.00     0.177 HD
ENDBRANCH  11  17
BRANCH   1  20
HETATM   20  C1  UNL     1      -8.166   4.637 -32.552  1.00  0.00     0.171 C 
HETATM   21  N1  UNL     1      -7.882   3.374 -32.384  1.00  0.00    -0.395 N 
ATOM     22  H12 UNL     1      -8.047   2.967 -31.463  1.00  0.00     0.156 HD
ATOM     23  H11 UNL     1      -7.505   2.797 -33.135  1.00  0.00     0.156 HD
ENDBRANCH   1  20
BRANCH  15  24
HETATM   24  N8  UNL     1     -15.457   2.077 -31.616  1.00  0.00    -0.290 N 
ATOM     25  H8  UNL     1     -15.771   2.703 -30.874  1.00  0.00     0.184 HD
BRANCH  24  26
HETATM   26  N9  UNL     1     -16.128   0.887 -31.797  1.00  0.00    -0.251 N 
HETATM   27  N10 UNL     1     -17.320   0.875 -32.235  1.00  0.00    -0.331 N 
ATOM     28 2H10 UNL     1     -17.771   1.764 -32.449  1.00  0.00     0.178 HD
ATOM     29 1H10 UNL     1     -17.816  -0.006 -32.369  1.00  0.00     0.178 HD
ATOM     30  H9  UNL     1     -15.662   0.006 -31.577  1.00  0.00     0.207 HD
ENDBRANCH  24  26
ENDBRANCH  15  24
TORSDOF 4
ENDMDL
MODEL 5
REMARK VINA RESULT: -4.265531236      1.421      1.647
REMARK  4 active torsions:
REMARK  status: ('A' for Active; 'I' for Inactive)
REMARK    1  A    between atoms: C1_4  and  N2_5 
REMARK       I    between atoms: N2_5  and  C2_7 
REMARK       I    between atoms: C2_7  and  N3_8 
REMARK       I    between atoms: C2_7  and  N4_12 
REMARK       I    between atoms: N4_12  and  C3_14 
REMARK       I    between atoms: C3_14  and  N7_20 
REMARK    2  A    between atoms: N5_15  and  N6_17 
REMARK    3  A    between atoms: C5_22  and  N8_23 
REMARK    4  A    between atoms: N8_23  and  N9_25 
ROOT
HETATM    1  N2  UNL     1      -9.208   3.368 -31.836  1.00  0.00    -0.343 N 
ATOM      2  H2  UNL     1      -8.572   4.159 -31.935  1.00  0.00     0.164 HD
HETATM    3  C2  UNL     1     -10.557   3.460 -32.320  1.00  0.00     0.401 C 
HETATM    4  N3  UNL     1     -10.723   2.415 -33.320  1.00  0.00    -0.040 N 
ATOM      5  H31 UNL     1     -11.681   2.481 -33.664  1.00  0.00     0.279 HD
ATOM      6  H32 UNL     1     -10.485   1.486 -32.972  1.00  0.00     0.279 HD
ATOM      7  H33 UNL     1     -10.027   2.458 -34.064  1.00  0.00     0.279 HD
HETATM    8  N4  UNL     1     -11.537   3.294 -31.272  1.00  0.00    -0.177 N 
ATOM      9  H4  UNL     1     -11.253   3.130 -30.306  1.00  0.00     0.181 HD
HETATM   10  C3  UNL     1     -12.904   3.366 -31.630  1.00  0.00     0.717 C 
HETATM   11  N5  UNL     1     -13.449   4.538 -31.761  1.00  0.00    -0.137 N 
ATOM     12  H5  UNL     1     -14.433   4.606 -32.020  1.00  0.00     0.205 HD
HETATM   13  N7  UNL     1     -13.723   2.225 -31.858  1.00  0.00    -0.081 N 
HETATM   14  C4  UNL     1     -14.222   1.563 -33.053  1.00  0.00     0.233 C 
HETATM   15  C5  UNL     1     -15.072   0.753 -32.126  1.00  0.00     0.288 C 
HETATM   16  O1  UNL     1     -14.349   1.318 -31.058  1.00  0.00    -0.235 OA
ENDROOT
BRANCH  11  17
HETATM   17  N6  UNL     1     -12.713   5.709 -31.555  1.00  0.00    -0.331 N 
ATOM     18  H62 UNL     1     -12.410   5.928 -30.606  1.00  0.00     0.177 HD
ATOM     19  H61 UNL     1     -12.481   6.333 -32.328  1.00  0.00     0.177 HD
ENDBRANCH  11  17
BRANCH   1  20
HETATM   20  C1  UNL     1      -8.771   2.179 -31.224  1.00  0.00     0.171 C 
HETATM   21  N1  UNL     1      -8.009   1.318 -31.841  1.00  0.00    -0.395 N 
ATOM     22  H12 UNL     1      -7.730   1.529 -32.800  1.00  0.00     0.156 HD
ATOM     23  H11 UNL     1      -7.693   0.456 -31.398  1.00  0.00     0.156 HD
ENDBRANCH   1  20
BRANCH  15  24
HETATM   24  N8  UNL     1     -16.450   1.215 -32.056  1.00  0.00    -0.290 N 
ATOM     25  H8  UNL     1     -16.621   2.197 -31.838  1.00  0.00     0.184 HD
BRANCH  24  26
HETATM   26  N9  UNL     1     -17.535   0.392 -32.269  1.00  0.00    -0.251 N 
HETATM   27  N10 UNL     1     -18.632   0.864 -32.697  1.00  0.00    -0.331 N 
ATOM     28 2H10 UNL     1     -18.696   1.865 -32.880  1.00  0.00     0.178 HD
ATOM     29 1H10 UNL     1     -19.434   0.254 -32.855  1.00  0.00     0.178 HD
ATOM     30  H9  UNL     1     -17.454  -0.608 -32.080  1.00  0.00     0.207 HD
ENDBRANCH  24  26
ENDBRANCH  15  24
TORSDOF 4
ENDMDL
