MODEL 1
REMARK VINA RESULT: 0.328897593      0.000      0.000
REMARK  6 active torsions:
REMARK  status: ('A' for Active; 'I' for Inactive)
REMARK    1  A    between atoms: O1_2  and  C2_3 
REMARK    2  A    between atoms: C5_6  and  C6_7 
REMARK    3  A    between atoms: C7_8  and  N1_9 
REMARK    4  A    between atoms: N2_11  and  O2_12 
REMARK    5  A    between atoms: C10_15  and  C11_16 
REMARK    6  A    between atoms: C17_25  and  N4_26 
ROOT
HETATM    1  N1  UNL     1      27.195 -51.733 -37.382  1.00  0.00    -0.268 N 
HETATM    2  C8  UNL     1      27.947 -51.812 -38.486  1.00  0.00     0.225 A 
HETATM    3  N2  UNL     1      27.470 -52.797 -39.302  1.00  0.00    -0.214 N 
HETATM    4  C9  UNL     1      26.414 -53.359 -38.739  1.00  0.00     0.136 A 
HETATM    5  C10 UNL     1      25.583 -54.384 -39.116  1.00  0.00     0.092 A 
HETATM    6  N3  UNL     1      24.585 -54.711 -38.236  1.00  0.00    -0.189 N 
ATOM      7  H3  UNL     1      23.947 -55.470 -38.478  1.00  0.00     0.184 HD
HETATM    8  C17 UNL     1      24.412 -54.073 -37.067  1.00  0.00     0.678 A 
HETATM    9  N5  UNL     1      25.255 -53.057 -36.727  1.00  0.00    -0.174 N 
ATOM     10  H5  UNL     1      25.121 -52.573 -35.839  1.00  0.00     0.186 HD
HETATM   11  C18 UNL     1      26.250 -52.682 -37.529  1.00  0.00     0.162 A 
ENDROOT
BRANCH   1  12
HETATM   12  C7  UNL     1      27.409 -50.814 -36.321  1.00  0.00     0.169 A 
HETATM   13  C6  UNL     1      28.045 -51.112 -35.147  1.00  0.00     0.041 A 
HETATM   14  C24 UNL     1      28.059 -49.962 -34.365  1.00  0.00     0.016 A 
HETATM   15  C19 UNL     1      27.420 -49.007 -35.120  1.00  0.00     0.089 A 
HETATM   16  C23 UNL     1      28.544 -49.650 -33.115  1.00  0.00     0.057 A 
HETATM   17  O3  UNL     1      27.056 -49.534 -36.250  1.00  0.00    -0.291 OA
HETATM   18  C20 UNL     1      27.279 -47.746 -34.597  1.00  0.00     0.041 A 
HETATM   19  C21 UNL     1      27.770 -47.461 -33.357  1.00  0.00     0.045 A 
HETATM   20  C22 UNL     1      28.419 -48.374 -32.552  1.00  0.00     0.117 A 
HETATM   21  F1  UNL     1      28.887 -48.075 -31.338  1.00  0.00    -0.206 F 
BRANCH  13  22
HETATM   22  C5  UNL     1      28.629 -52.369 -34.714  1.00  0.00    -0.005 A 
HETATM   23  C4  UNL     1      29.928 -52.428 -34.193  1.00  0.00     0.018 A 
HETATM   24  C3  UNL     1      30.520 -53.582 -33.773  1.00  0.00     0.057 A 
HETATM   25  C2  UNL     1      29.806 -54.768 -33.861  1.00  0.00     0.141 A 
HETATM   26  N6  UNL     1      28.561 -54.712 -34.360  1.00  0.00    -0.346 N 
HETATM   27  C25 UNL     1      27.965 -53.574 -34.780  1.00  0.00     0.102 A 
ATOM     28  H6  UNL     1      28.032 -55.581 -34.425  1.00  0.00     0.167 HD
BRANCH  25  29
HETATM   29  O1  UNL     1      30.288 -55.955 -33.475  1.00  0.00    -0.341 OA
HETATM   30  C1  UNL     1      29.820 -57.222 -33.317  1.00  0.00     0.211 C 
ENDBRANCH  25  29
ENDBRANCH  13  22
ENDBRANCH   1  12
BRANCH   3  31
HETATM   31  O2  UNL     1      28.052 -53.140 -40.500  1.00  0.00    -0.281 OA
ATOM     32  H2  UNL     1      27.762 -52.805 -41.339  1.00  0.00     0.245 HD
ENDBRANCH   3  31
BRANCH   5  33
HETATM   33  C11 UNL     1      25.692 -55.143 -40.343  1.00  0.00    -0.006 A 
HETATM   34  C12 UNL     1      26.133 -56.421 -40.405  1.00  0.00     0.015 A 
HETATM   35  C13 UNL     1      26.190 -57.107 -41.616  1.00  0.00     0.020 A 
HETATM   36  C14 UNL     1      25.802 -56.504 -42.780  1.00  0.00     0.011 A 
HETATM   37 BR1  UNL     1      25.891 -57.480 -44.418  1.00  0.00    -0.051 Br
HETATM   38  C15 UNL     1      25.351 -55.208 -42.752  1.00  0.00     0.020 A 
HETATM   39  C16 UNL     1      25.298 -54.544 -41.551  1.00  0.00     0.015 A 
ENDBRANCH   5  33
BRANCH   8  40
HETATM   40  N4  UNL     1      23.479 -54.373 -36.235  1.00  0.00    -0.234 N 
ATOM     41  H42 UNL     1      23.734 -54.937 -35.425  1.00  0.00     0.174 HD
ATOM     42  H41 UNL     1      22.511 -54.074 -36.355  1.00  0.00     0.174 HD
ENDBRANCH   8  40
TORSDOF 6
ENDMDL
MODEL 2
REMARK VINA RESULT: 2.487663193      2.556      3.374
REMARK  6 active torsions:
REMARK  status: ('A' for Active; 'I' for Inactive)
REMARK    1  A    between atoms: O1_2  and  C2_3 
REMARK    2  A    between atoms: C5_6  and  C6_7 
REMARK    3  A    between atoms: C7_8  and  N1_9 
REMARK    4  A    between atoms: N2_11  and  O2_12 
REMARK    5  A    between atoms: C10_15  and  C11_16 
REMARK    6  A    between atoms: C17_25  and  N4_26 
ROOT
HETATM    1  N1  UNL     1      27.843 -51.271 -36.492  1.00  0.00    -0.268 N 
HETATM    2  C8  UNL     1      28.422 -52.453 -36.733  1.00  0.00     0.225 A 
HETATM    3  N2  UNL     1      27.843 -53.039 -37.822  1.00  0.00    -0.214 N 
HETATM    4  C9  UNL     1      26.894 -52.248 -38.292  1.00  0.00     0.136 A 
HETATM    5  C10 UNL     1      26.012 -52.357 -39.337  1.00  0.00     0.092 A 
HETATM    6  N3  UNL     1      25.133 -51.318 -39.503  1.00  0.00    -0.189 N 
ATOM      7  H3  UNL     1      24.460 -51.363 -40.268  1.00  0.00     0.184 HD
HETATM    8  C17 UNL     1      25.124 -50.243 -38.698  1.00  0.00     0.678 A 
HETATM    9  N5  UNL     1      26.017 -50.167 -37.672  1.00  0.00    -0.174 N 
ATOM     10  H5  UNL     1      26.009 -49.348 -37.063  1.00  0.00     0.186 HD
HETATM   11  C18 UNL     1      26.901 -51.137 -37.445  1.00  0.00     0.162 A 
ENDROOT
BRANCH   1  12
HETATM   12  C7  UNL     1      28.202 -50.395 -35.434  1.00  0.00     0.169 A 
HETATM   13  C6  UNL     1      27.616 -50.383 -34.198  1.00  0.00     0.041 A 
HETATM   14  C24 UNL     1      28.234 -49.393 -33.441  1.00  0.00     0.016 A 
HETATM   15  C19 UNL     1      29.183 -48.846 -34.272  1.00  0.00     0.089 A 
HETATM   16  C23 UNL     1      28.081 -48.922 -32.157  1.00  0.00     0.057 A 
HETATM   17  O3  UNL     1      29.138 -49.451 -35.421  1.00  0.00    -0.291 OA
HETATM   18  C20 UNL     1      29.964 -47.826 -33.792  1.00  0.00     0.041 A 
HETATM   19  C21 UNL     1      29.794 -47.377 -32.515  1.00  0.00     0.045 A 
HETATM   20  C22 UNL     1      28.861 -47.884 -31.634  1.00  0.00     0.117 A 
HETATM   21  F1  UNL     1      28.707 -47.426 -30.389  1.00  0.00    -0.206 F 
BRANCH  13  22
HETATM   22  C5  UNL     1      26.542 -51.215 -33.685  1.00  0.00    -0.005 A 
HETATM   23  C4  UNL     1      25.245 -50.713 -33.522  1.00  0.00     0.018 A 
HETATM   24  C3  UNL     1      24.203 -51.453 -33.046  1.00  0.00     0.057 A 
HETATM   25  C2  UNL     1      24.430 -52.777 -32.701  1.00  0.00     0.141 A 
HETATM   26  N6  UNL     1      25.674 -53.259 -32.857  1.00  0.00    -0.346 N 
HETATM   27  C25 UNL     1      26.713 -52.534 -33.326  1.00  0.00     0.102 A 
ATOM     28  H6  UNL     1      25.845 -54.233 -32.606  1.00  0.00     0.167 HD
BRANCH  25  29
HETATM   29  O1  UNL     1      23.482 -53.594 -32.228  1.00  0.00    -0.341 OA
HETATM   30  C1  UNL     1      22.679 -53.668 -31.132  1.00  0.00     0.211 C 
ENDBRANCH  25  29
ENDBRANCH  13  22
ENDBRANCH   1  12
BRANCH   3  31
HETATM   31  O2  UNL     1      28.201 -54.277 -38.300  1.00  0.00    -0.281 OA
ATOM     32  H2  UNL     1      27.586 -54.989 -38.426  1.00  0.00     0.245 HD
ENDBRANCH   3  31
BRANCH   5  33
HETATM   33  C11 UNL     1      25.929 -53.477 -40.250  1.00  0.00    -0.006 A 
HETATM   34  C12 UNL     1      26.328 -53.431 -41.542  1.00  0.00     0.015 A 
HETATM   35  C13 UNL     1      26.245 -54.553 -42.363  1.00  0.00     0.020 A 
HETATM   36  C14 UNL     1      25.756 -55.737 -41.883  1.00  0.00     0.011 A 
HETATM   37 BR1  UNL     1      25.665 -57.253 -43.040  1.00  0.00    -0.051 Br
HETATM   38  C15 UNL     1      25.342 -55.817 -40.577  1.00  0.00     0.020 A 
HETATM   39  C16 UNL     1      25.429 -54.703 -39.778  1.00  0.00     0.015 A 
ENDBRANCH   5  33
BRANCH   8  40
HETATM   40  N4  UNL     1      24.304 -49.264 -38.846  1.00  0.00    -0.234 N 
ATOM     41  H42 UNL     1      24.358 -48.732 -39.715  1.00  0.00     0.174 HD
ATOM     42  H41 UNL     1      23.615 -49.005 -38.140  1.00  0.00     0.174 HD
ENDBRANCH   8  40
TORSDOF 6
ENDMDL
MODEL 3
REMARK VINA RESULT: 2.814593030      1.403      2.315
REMARK  6 active torsions:
REMARK  status: ('A' for Active; 'I' for Inactive)
REMARK    1  A    between atoms: O1_2  and  C2_3 
REMARK    2  A    between atoms: C5_6  and  C6_7 
REMARK    3  A    between atoms: C7_8  and  N1_9 
REMARK    4  A    between atoms: N2_11  and  O2_12 
REMARK    5  A    between atoms: C10_15  and  C11_16 
REMARK    6  A    between atoms: C17_25  and  N4_26 
ROOT
HETATM    1  N1  UNL     1      27.005 -51.877 -36.759  1.00  0.00    -0.268 N 
HETATM    2  C8  UNL     1      26.725 -53.176 -36.597  1.00  0.00     0.225 A 
HETATM    3  N2  UNL     1      26.620 -53.782 -37.815  1.00  0.00    -0.214 N 
HETATM    4  C9  UNL     1      26.829 -52.890 -38.768  1.00  0.00     0.136 A 
HETATM    5  C10 UNL     1      26.826 -52.961 -40.138  1.00  0.00     0.092 A 
HETATM    6  N3  UNL     1      27.066 -51.790 -40.809  1.00  0.00    -0.189 N 
ATOM      7  H3  UNL     1      27.069 -51.801 -41.829  1.00  0.00     0.184 HD
HETATM    8  C17 UNL     1      27.297 -50.629 -40.175  1.00  0.00     0.678 A 
HETATM    9  N5  UNL     1      27.296 -50.596 -38.813  1.00  0.00    -0.174 N 
ATOM     10  H5  UNL     1      27.474 -49.713 -38.335  1.00  0.00     0.186 HD
HETATM   11  C18 UNL     1      27.069 -51.692 -38.091  1.00  0.00     0.162 A 
ENDROOT
BRANCH   1  12
HETATM   12  C7  UNL     1      27.184 -50.949 -35.699  1.00  0.00     0.169 A 
HETATM   13  C6  UNL     1      27.860 -51.211 -34.538  1.00  0.00     0.041 A 
HETATM   14  C24 UNL     1      27.820 -50.064 -33.753  1.00  0.00     0.016 A 
HETATM   15  C19 UNL     1      27.110 -49.147 -34.491  1.00  0.00     0.089 A 
HETATM   16  C23 UNL     1      28.311 -49.727 -32.512  1.00  0.00     0.057 A 
HETATM   17  O3  UNL     1      26.755 -49.693 -35.616  1.00  0.00    -0.291 OA
HETATM   18  C20 UNL     1      26.904 -47.899 -33.962  1.00  0.00     0.041 A 
HETATM   19  C21 UNL     1      27.401 -47.588 -32.730  1.00  0.00     0.045 A 
HETATM   20  C22 UNL     1      28.120 -48.462 -31.942  1.00  0.00     0.117 A 
HETATM   21  F1  UNL     1      28.594 -48.138 -30.736  1.00  0.00    -0.206 F 
BRANCH  13  22
HETATM   22  C5  UNL     1      28.527 -52.432 -34.122  1.00  0.00    -0.005 A 
HETATM   23  C4  UNL     1      29.855 -52.696 -34.483  1.00  0.00     0.018 A 
HETATM   24  C3  UNL     1      30.526 -53.824 -34.117  1.00  0.00     0.057 A 
HETATM   25  C2  UNL     1      29.867 -54.770 -33.344  1.00  0.00     0.141 A 
HETATM   26  N6  UNL     1      28.594 -54.517 -32.998  1.00  0.00    -0.346 N 
HETATM   27  C25 UNL     1      27.920 -53.403 -33.357  1.00  0.00     0.102 A 
ATOM     28  H6  UNL     1      28.106 -55.209 -32.430  1.00  0.00     0.167 HD
BRANCH  25  29
HETATM   29  O1  UNL     1      30.429 -55.910 -32.926  1.00  0.00    -0.341 OA
HETATM   30  C1  UNL     1      30.301 -57.241 -33.178  1.00  0.00     0.211 C 
ENDBRANCH  25  29
ENDBRANCH  13  22
ENDBRANCH   1  12
BRANCH   3  31
HETATM   31  O2  UNL     1      26.308 -55.111 -37.978  1.00  0.00    -0.281 OA
ATOM     32  H2  UNL     1      25.590 -55.420 -38.518  1.00  0.00     0.245 HD
ENDBRANCH   3  31
BRANCH   5  33
HETATM   33  C11 UNL     1      26.573 -54.156 -40.915  1.00  0.00    -0.006 A 
HETATM   34  C12 UNL     1      25.373 -54.466 -41.458  1.00  0.00     0.015 A 
HETATM   35  C13 UNL     1      25.201 -55.620 -42.218  1.00  0.00     0.020 A 
HETATM   36  C14 UNL     1      26.245 -56.477 -42.435  1.00  0.00     0.011 A 
HETATM   37 BR1  UNL     1      25.968 -58.046 -43.485  1.00  0.00    -0.051 Br
HETATM   38  C15 UNL     1      27.475 -56.193 -41.896  1.00  0.00     0.020 A 
HETATM   39  C16 UNL     1      27.631 -55.051 -41.150  1.00  0.00     0.015 A 
ENDBRANCH   5  33
BRANCH   8  40
HETATM   40  N4  UNL     1      27.523 -49.526 -40.795  1.00  0.00    -0.234 N 
ATOM     41  H42 UNL     1      27.974 -49.583 -41.709  1.00  0.00     0.174 HD
ATOM     42  H41 UNL     1      27.274 -48.613 -40.414  1.00  0.00     0.174 HD
ENDBRANCH   8  40
TORSDOF 6
ENDMDL
MODEL 4
REMARK VINA RESULT: 3.241384473      2.684      4.961
REMARK  6 active torsions:
REMARK  status: ('A' for Active; 'I' for Inactive)
REMARK    1  A    between atoms: O1_2  and  C2_3 
REMARK    2  A    between atoms: C5_6  and  C6_7 
REMARK    3  A    between atoms: C7_8  and  N1_9 
REMARK    4  A    between atoms: N2_11  and  O2_12 
REMARK    5  A    between atoms: C10_15  and  C11_16 
REMARK    6  A    between atoms: C17_25  and  N4_26 
ROOT
HETATM    1  N1  UNL     1      27.652 -53.294 -36.486  1.00  0.00    -0.268 N 
HETATM    2  C8  UNL     1      28.219 -52.321 -37.209  1.00  0.00     0.225 A 
HETATM    3  N2  UNL     1      27.537 -52.157 -38.381  1.00  0.00    -0.214 N 
HETATM    4  C9  UNL     1      26.531 -53.014 -38.426  1.00  0.00     0.136 A 
HETATM    5  C10 UNL     1      25.564 -53.278 -39.362  1.00  0.00     0.092 A 
HETATM    6  N3  UNL     1      24.684 -54.284 -39.060  1.00  0.00    -0.189 N 
ATOM      7  H3  UNL     1      23.951 -54.513 -39.731  1.00  0.00     0.184 HD
HETATM    8  C17 UNL     1      24.748 -54.981 -37.913  1.00  0.00     0.678 A 
HETATM    9  N5  UNL     1      25.721 -54.689 -37.005  1.00  0.00    -0.174 N 
ATOM     10  H5  UNL     1      25.766 -55.219 -36.135  1.00  0.00     0.186 HD
HETATM   11  C18 UNL     1      26.614 -53.727 -37.227  1.00  0.00     0.162 A 
ENDROOT
BRANCH   1  12
HETATM   12  C7  UNL     1      28.105 -53.723 -35.211  1.00  0.00     0.169 A 
HETATM   13  C6  UNL     1      28.057 -52.968 -34.071  1.00  0.00     0.041 A 
HETATM   14  C24 UNL     1      28.588 -53.727 -33.033  1.00  0.00     0.016 A 
HETATM   15  C19 UNL     1      28.936 -54.927 -33.607  1.00  0.00     0.089 A 
HETATM   16  C23 UNL     1      28.799 -53.512 -31.690  1.00  0.00     0.057 A 
HETATM   17  O3  UNL     1      28.642 -54.891 -34.873  1.00  0.00    -0.291 OA
HETATM   18  C20 UNL     1      29.497 -55.894 -32.813  1.00  0.00     0.041 A 
HETATM   19  C21 UNL     1      29.697 -55.657 -31.485  1.00  0.00     0.045 A 
HETATM   20  C22 UNL     1      29.369 -54.477 -30.851  1.00  0.00     0.117 A 
HETATM   21  F1  UNL     1      29.577 -54.264 -29.549  1.00  0.00    -0.206 F 
BRANCH  13  22
HETATM   22  C5  UNL     1      27.558 -51.617 -33.887  1.00  0.00    -0.005 A 
HETATM   23  C4  UNL     1      26.190 -51.360 -33.730  1.00  0.00     0.018 A 
HETATM   24  C3  UNL     1      25.672 -50.111 -33.553  1.00  0.00     0.057 A 
HETATM   25  C2  UNL     1      26.540 -49.028 -33.525  1.00  0.00     0.141 A 
HETATM   26  N6  UNL     1      27.851 -49.274 -33.675  1.00  0.00    -0.346 N 
HETATM   27  C25 UNL     1      28.374 -50.508 -33.852  1.00  0.00     0.102 A 
ATOM     28  H6  UNL     1      28.492 -48.482 -33.653  1.00  0.00     0.167 HD
BRANCH  25  29
HETATM   29  O1  UNL     1      26.142 -47.762 -33.355  1.00  0.00    -0.341 OA
HETATM   30  C1  UNL     1      26.200 -46.593 -34.046  1.00  0.00     0.211 C 
ENDBRANCH  25  29
ENDBRANCH  13  22
ENDBRANCH   1  12
BRANCH   3  31
HETATM   31  O2  UNL     1      27.898 -51.252 -39.350  1.00  0.00    -0.281 OA
ATOM     32  H2  UNL     1      28.327 -50.426 -39.164  1.00  0.00     0.245 HD
ENDBRANCH   3  31
BRANCH   5  33
HETATM   33  C11 UNL     1      25.418 -52.598 -40.631  1.00  0.00    -0.006 A 
HETATM   34  C12 UNL     1      25.748 -53.144 -41.825  1.00  0.00     0.015 A 
HETATM   35  C13 UNL     1      25.559 -52.445 -43.014  1.00  0.00     0.020 A 
HETATM   36  C14 UNL     1      25.034 -51.183 -43.009  1.00  0.00     0.011 A 
HETATM   37 BR1  UNL     1      24.787 -50.261 -44.662  1.00  0.00    -0.051 Br
HETATM   38  C15 UNL     1      24.690 -50.600 -41.815  1.00  0.00     0.020 A 
HETATM   39  C16 UNL     1      24.880 -51.300 -40.649  1.00  0.00     0.015 A 
ENDBRANCH   5  33
BRANCH   8  40
HETATM   40  N4  UNL     1      23.928 -55.927 -37.621  1.00  0.00    -0.234 N 
ATOM     41  H42 UNL     1      23.131 -55.692 -37.029  1.00  0.00     0.174 HD
ATOM     42  H41 UNL     1      24.042 -56.884 -37.954  1.00  0.00     0.174 HD
ENDBRANCH   8  40
TORSDOF 6
ENDMDL
MODEL 5
REMARK VINA RESULT: 3.487259690      2.556      3.555
REMARK  6 active torsions:
REMARK  status: ('A' for Active; 'I' for Inactive)
REMARK    1  A    between atoms: O1_2  and  C2_3 
REMARK    2  A    between atoms: C5_6  and  C6_7 
REMARK    3  A    between atoms: C7_8  and  N1_9 
REMARK    4  A    between atoms: N2_11  and  O2_12 
REMARK    5  A    between atoms: C10_15  and  C11_16 
REMARK    6  A    between atoms: C17_25  and  N4_26 
ROOT
HETATM    1  N1  UNL     1      27.792 -51.687 -36.608  1.00  0.00    -0.268 N 
HETATM    2  C8  UNL     1      27.624 -52.996 -36.390  1.00  0.00     0.225 A 
HETATM    3  N2  UNL     1      27.303 -53.623 -37.560  1.00  0.00    -0.214 N 
HETATM    4  C9  UNL     1      27.261 -52.734 -38.536  1.00  0.00     0.136 A 
HETATM    5  C10 UNL     1      26.978 -52.823 -39.876  1.00  0.00     0.092 A 
HETATM    6  N3  UNL     1      27.009 -51.649 -40.583  1.00  0.00    -0.189 N 
ATOM      7  H3  UNL     1      26.802 -51.673 -41.582  1.00  0.00     0.184 HD
HETATM    8  C17 UNL     1      27.302 -50.469 -40.013  1.00  0.00     0.678 A 
HETATM    9  N5  UNL     1      27.581 -50.419 -38.680  1.00  0.00    -0.174 N 
ATOM     10  H5  UNL     1      27.805 -49.521 -38.251  1.00  0.00     0.186 HD
HETATM   11  C18 UNL     1      27.569 -51.516 -37.926  1.00  0.00     0.162 A 
ENDROOT
BRANCH   1  12
HETATM   12  C7  UNL     1      28.135 -50.737 -35.610  1.00  0.00     0.169 A 
HETATM   13  C6  UNL     1      27.540 -50.648 -34.381  1.00  0.00     0.041 A 
HETATM   14  C24 UNL     1      28.143 -49.602 -33.690  1.00  0.00     0.016 A 
HETATM   15  C19 UNL     1      29.091 -49.102 -34.550  1.00  0.00     0.089 A 
HETATM   16  C23 UNL     1      27.976 -49.047 -32.441  1.00  0.00     0.057 A 
HETATM   17  O3  UNL     1      29.061 -49.784 -35.656  1.00  0.00    -0.291 OA
HETATM   18  C20 UNL     1      29.859 -48.044 -34.136  1.00  0.00     0.041 A 
HETATM   19  C21 UNL     1      29.675 -47.511 -32.893  1.00  0.00     0.045 A 
HETATM   20  C22 UNL     1      28.741 -47.967 -31.986  1.00  0.00     0.117 A 
HETATM   21  F1  UNL     1      28.575 -47.428 -30.775  1.00  0.00    -0.206 F 
BRANCH  13  22
HETATM   22  C5  UNL     1      26.472 -51.455 -33.819  1.00  0.00    -0.005 A 
HETATM   23  C4  UNL     1      25.149 -50.993 -33.786  1.00  0.00     0.018 A 
HETATM   24  C3  UNL     1      24.112 -51.712 -33.272  1.00  0.00     0.057 A 
HETATM   25  C2  UNL     1      24.369 -52.972 -32.749  1.00  0.00     0.141 A 
HETATM   26  N6  UNL     1      25.636 -53.415 -32.781  1.00  0.00    -0.346 N 
HETATM   27  C25 UNL     1      26.671 -52.710 -33.288  1.00  0.00     0.102 A 
ATOM     28  H6  UNL     1      25.829 -54.340 -32.399  1.00  0.00     0.167 HD
BRANCH  25  29
HETATM   29  O1  UNL     1      23.427 -53.764 -32.223  1.00  0.00    -0.341 OA
HETATM   30  C1  UNL     1      22.648 -53.788 -31.108  1.00  0.00     0.211 C 
ENDBRANCH  25  29
ENDBRANCH  13  22
ENDBRANCH   1  12
BRANCH   3  31
HETATM   31  O2  UNL     1      27.038 -54.969 -37.652  1.00  0.00    -0.281 OA
ATOM     32  H2  UNL     1      26.320 -55.396 -37.200  1.00  0.00     0.245 HD
ENDBRANCH   3  31
BRANCH   5  33
HETATM   33  C11 UNL     1      26.636 -54.039 -40.581  1.00  0.00    -0.006 A 
HETATM   34  C12 UNL     1      25.389 -54.561 -40.631  1.00  0.00     0.015 A 
HETATM   35  C13 UNL     1      25.120 -55.723 -41.349  1.00  0.00     0.020 A 
HETATM   36  C14 UNL     1      26.115 -56.373 -42.027  1.00  0.00     0.011 A 
HETATM   37 BR1  UNL     1      25.704 -57.960 -43.003  1.00  0.00    -0.051 Br
HETATM   38  C15 UNL     1      27.392 -55.871 -41.996  1.00  0.00     0.020 A 
HETATM   39  C16 UNL     1      27.643 -54.724 -41.284  1.00  0.00     0.015 A 
ENDBRANCH   5  33
BRANCH   8  40
HETATM   40  N4  UNL     1      27.334 -49.364 -40.669  1.00  0.00    -0.234 N 
ATOM     41  H42 UNL     1      27.638 -48.528 -40.169  1.00  0.00     0.174 HD
ATOM     42  H41 UNL     1      27.070 -49.293 -41.652  1.00  0.00     0.174 HD
ENDBRANCH   8  40
TORSDOF 6
ENDMDL
