MODEL 1
REMARK VINA RESULT: 0.814842627      0.000      0.000
REMARK  6 active torsions:
REMARK  status: ('A' for Active; 'I' for Inactive)
REMARK    1  A    between atoms: C3_3  and  C4_4 
REMARK    2  A    between atoms: C8_9  and  C9_10 
REMARK    3  A    between atoms: C12_13  and  C13_14 
REMARK    4  A    between atoms: N1_15  and  N2_17 
REMARK    5  A    between atoms: N2_17  and  C14_19 
REMARK    6  A    between atoms: N5_31  and  C22_32 
ROOT
HETATM    1  C1  UNL     1      19.682 -46.718 -26.238  1.00  0.00     0.112 C 
HETATM    2  C2  UNL     1      19.736 -48.152 -26.515  1.00  0.00    -0.105 C 
HETATM    3  C3  UNL     1      19.800 -49.332 -26.745  1.00  0.00    -0.067 C 
ENDROOT
BRANCH   3   4
HETATM    4  C4  UNL     1      19.900 -50.753 -27.035  1.00  0.00     0.021 A 
HETATM    5  C5  UNL     1      19.219 -51.657 -26.246  1.00  0.00     0.062 A 
HETATM    6  C6  UNL     1      19.345 -52.995 -26.562  1.00  0.00     0.118 A 
HETATM    7  F1  UNL     1      18.682 -53.928 -25.801  1.00  0.00    -0.206 F 
HETATM    8  C7  UNL     1      20.097 -53.473 -27.598  1.00  0.00     0.054 A 
HETATM    9  C8  UNL     1      20.777 -52.567 -28.382  1.00  0.00    -0.020 A 
HETATM   10  C29 UNL     1      20.668 -51.207 -28.087  1.00  0.00     0.033 A 
BRANCH   9  11
HETATM   11  C9  UNL     1      21.599 -52.988 -29.501  1.00  0.00    -0.010 A 
HETATM   12  C10 UNL     1      21.745 -54.318 -29.799  1.00  0.00     0.016 A 
HETATM   13  C11 UNL     1      22.528 -54.723 -30.865  1.00  0.00     0.032 A 
HETATM   14  C12 UNL     1      23.181 -53.798 -31.655  1.00  0.00     0.049 A 
HETATM   15  N6  UNL     1      23.027 -52.498 -31.346  1.00  0.00    -0.364 N 
HETATM   16  C28 UNL     1      22.263 -52.079 -30.304  1.00  0.00     0.100 A 
ATOM     17  H6  UNL     1      23.502 -51.800 -31.917  1.00  0.00     0.165 HD
BRANCH  14  18
HETATM   18  C13 UNL     1      24.004 -54.239 -32.775  1.00  0.00     0.137 C 
HETATM   19  N1  UNL     1      24.097 -53.545 -33.858  1.00  0.00    -0.295 N 
ATOM     20  H1  UNL     1      23.575 -52.670 -33.915  1.00  0.00     0.186 HD
BRANCH  19  21
HETATM   21  N2  UNL     1      24.862 -53.921 -34.945  1.00  0.00    -0.132 N 
ATOM     22  H2  UNL     1      25.043 -54.919 -35.051  1.00  0.00     0.205 HD
BRANCH  21  23
HETATM   23  C14 UNL     1      25.367 -53.158 -35.828  1.00  0.00     0.707 A 
HETATM   24  N3  UNL     1      24.727 -52.919 -36.987  1.00  0.00    -0.189 N 
HETATM   25  C15 UNL     1      25.252 -52.105 -37.948  1.00  0.00     0.065 A 
ATOM     26  H3  UNL     1      23.823 -53.361 -37.153  1.00  0.00     0.184 HD
HETATM   27  C16 UNL     1      24.588 -51.867 -39.132  1.00  0.00     0.033 A 
HETATM   28  C20 UNL     1      26.479 -51.526 -37.683  1.00  0.00     0.062 A 
HETATM   29  C17 UNL     1      25.142 -51.040 -40.084  1.00  0.00     0.029 A 
HETATM   30  C18 UNL     1      26.383 -50.437 -39.848  1.00  0.00     0.047 A 
HETATM   31  N4  UNL     1      26.943 -49.586 -40.839  1.00  0.00    -0.102 NA
HETATM   32  C19 UNL     1      27.008 -50.708 -38.648  1.00  0.00     0.046 A 
HETATM   33  C21 UNL     1      27.099 -51.800 -36.480  1.00  0.00     0.279 A 
HETATM   34  O1  UNL     1      28.213 -51.275 -36.240  1.00  0.00    -0.266 OA
HETATM   35  N5  UNL     1      26.574 -52.605 -35.538  1.00  0.00    -0.109 N 
BRANCH  35  36
HETATM   36  C22 UNL     1      27.234 -52.871 -34.307  1.00  0.00     0.060 A 
HETATM   37  C23 UNL     1      27.029 -52.039 -33.228  1.00  0.00     0.032 A 
HETATM   38  C24 UNL     1      27.650 -52.257 -32.009  1.00  0.00     0.026 A 
HETATM   39  C25 UNL     1      28.497 -53.323 -31.835  1.00  0.00     0.034 A 
HETATM   40 CL1  UNL     1      29.300 -53.622 -30.287  1.00  0.00    -0.084 Cl
HETATM   41  C26 UNL     1      28.709 -54.161 -32.906  1.00  0.00     0.026 A 
HETATM   42  C27 UNL     1      28.088 -53.937 -34.116  1.00  0.00     0.032 A 
ENDBRANCH  35  36
ENDBRANCH  21  23
ENDBRANCH  19  21
ENDBRANCH  14  18
ENDBRANCH   9  11
ENDBRANCH   3   4
TORSDOF 6
ENDMDL
MODEL 2
REMARK VINA RESULT: 1.238394922      1.644      1.954
REMARK  6 active torsions:
REMARK  status: ('A' for Active; 'I' for Inactive)
REMARK    1  A    between atoms: C3_3  and  C4_4 
REMARK    2  A    between atoms: C8_9  and  C9_10 
REMARK    3  A    between atoms: C12_13  and  C13_14 
REMARK    4  A    between atoms: N1_15  and  N2_17 
REMARK    5  A    between atoms: N2_17  and  C14_19 
REMARK    6  A    between atoms: N5_31  and  C22_32 
ROOT
HETATM    1  C1  UNL     1      19.481 -46.748 -25.961  1.00  0.00     0.112 C 
HETATM    2  C2  UNL     1      19.547 -48.170 -26.288  1.00  0.00    -0.105 C 
HETATM    3  C3  UNL     1      19.619 -49.340 -26.566  1.00  0.00    -0.067 C 
ENDROOT
BRANCH   3   4
HETATM    4  C4  UNL     1      19.722 -50.746 -26.920  1.00  0.00     0.021 A 
HETATM    5  C5  UNL     1      19.007 -51.681 -26.202  1.00  0.00     0.062 A 
HETATM    6  C6  UNL     1      19.137 -53.004 -26.577  1.00  0.00     0.118 A 
HETATM    7  F1  UNL     1      18.441 -53.967 -25.888  1.00  0.00    -0.206 F 
HETATM    8  C7  UNL     1      19.925 -53.437 -27.607  1.00  0.00     0.054 A 
HETATM    9  C8  UNL     1      20.639 -52.499 -28.321  1.00  0.00    -0.020 A 
HETATM   10  C29 UNL     1      20.526 -51.154 -27.964  1.00  0.00     0.033 A 
BRANCH   9  11
HETATM   11  C9  UNL     1      21.500 -52.871 -29.427  1.00  0.00    -0.010 A 
HETATM   12  C10 UNL     1      21.716 -54.190 -29.730  1.00  0.00     0.016 A 
HETATM   13  C11 UNL     1      22.537 -54.549 -30.784  1.00  0.00     0.032 A 
HETATM   14  C12 UNL     1      23.157 -53.588 -31.558  1.00  0.00     0.049 A 
HETATM   15  N6  UNL     1      22.932 -52.300 -31.245  1.00  0.00    -0.364 N 
HETATM   16  C28 UNL     1      22.131 -51.925 -30.213  1.00  0.00     0.100 A 
ATOM     17  H6  UNL     1      23.382 -51.575 -31.803  1.00  0.00     0.165 HD
BRANCH  14  18
HETATM   18  C13 UNL     1      24.019 -53.980 -32.666  1.00  0.00     0.137 C 
HETATM   19  N1  UNL     1      24.797 -53.132 -33.248  1.00  0.00    -0.295 N 
ATOM     20  H1  UNL     1      24.795 -52.168 -32.913  1.00  0.00     0.186 HD
BRANCH  19  21
HETATM   21  N2  UNL     1      25.631 -53.456 -34.301  1.00  0.00    -0.132 N 
ATOM     22  H2  UNL     1      26.406 -54.085 -34.090  1.00  0.00     0.205 HD
BRANCH  21  23
HETATM   23  C14 UNL     1      25.540 -53.055 -35.503  1.00  0.00     0.707 A 
HETATM   24  N3  UNL     1      24.967 -53.822 -36.449  1.00  0.00    -0.189 N 
HETATM   25  C15 UNL     1      24.859 -53.411 -37.746  1.00  0.00     0.065 A 
ATOM     26  H3  UNL     1      24.602 -54.739 -36.189  1.00  0.00     0.184 HD
HETATM   27  C16 UNL     1      24.270 -54.204 -38.706  1.00  0.00     0.033 A 
HETATM   28  C20 UNL     1      25.366 -52.162 -38.056  1.00  0.00     0.062 A 
HETATM   29  C17 UNL     1      24.175 -53.763 -40.008  1.00  0.00     0.029 A 
HETATM   30  C18 UNL     1      24.678 -52.504 -40.357  1.00  0.00     0.047 A 
HETATM   31  N4  UNL     1      24.573 -52.061 -41.703  1.00  0.00    -0.102 NA
HETATM   32  C19 UNL     1      25.259 -51.749 -39.359  1.00  0.00     0.046 A 
HETATM   33  C21 UNL     1      25.946 -51.411 -37.053  1.00  0.00     0.279 A 
HETATM   34  O1  UNL     1      26.405 -50.278 -37.335  1.00  0.00    -0.266 OA
HETATM   35  N5  UNL     1      26.048 -51.825 -35.777  1.00  0.00    -0.109 N 
BRANCH  35  36
HETATM   36  C22 UNL     1      26.650 -51.030 -34.762  1.00  0.00     0.060 A 
HETATM   37  C23 UNL     1      25.975 -49.941 -34.256  1.00  0.00     0.032 A 
HETATM   38  C24 UNL     1      26.521 -49.138 -33.268  1.00  0.00     0.026 A 
HETATM   39  C25 UNL     1      27.766 -49.407 -32.756  1.00  0.00     0.034 A 
HETATM   40 CL1  UNL     1      28.482 -48.395 -31.493  1.00  0.00    -0.084 Cl
HETATM   41  C26 UNL     1      28.449 -50.492 -33.254  1.00  0.00     0.026 A 
HETATM   42  C27 UNL     1      27.899 -51.287 -34.237  1.00  0.00     0.032 A 
ENDBRANCH  35  36
ENDBRANCH  21  23
ENDBRANCH  19  21
ENDBRANCH  14  18
ENDBRANCH   9  11
ENDBRANCH   3   4
TORSDOF 6
ENDMDL
MODEL 3
REMARK VINA RESULT: 1.793814753      2.511      4.824
REMARK  6 active torsions:
REMARK  status: ('A' for Active; 'I' for Inactive)
REMARK    1  A    between atoms: C3_3  and  C4_4 
REMARK    2  A    between atoms: C8_9  and  C9_10 
REMARK    3  A    between atoms: C12_13  and  C13_14 
REMARK    4  A    between atoms: N1_15  and  N2_17 
REMARK    5  A    between atoms: N2_17  and  C14_19 
REMARK    6  A    between atoms: N5_31  and  C22_32 
ROOT
HETATM    1  C1  UNL     1      18.293 -46.896 -25.801  1.00  0.00     0.112 C 
HETATM    2  C2  UNL     1      18.564 -48.291 -26.141  1.00  0.00    -0.105 C 
HETATM    3  C3  UNL     1      18.806 -49.435 -26.429  1.00  0.00    -0.067 C 
ENDROOT
BRANCH   3   4
HETATM    4  C4  UNL     1      19.114 -50.808 -26.794  1.00  0.00     0.021 A 
HETATM    5  C5  UNL     1      18.532 -51.844 -26.094  1.00  0.00     0.062 A 
HETATM    6  C6  UNL     1      18.856 -53.130 -26.478  1.00  0.00     0.118 A 
HETATM    7  F1  UNL     1      18.298 -54.191 -25.806  1.00  0.00    -0.206 F 
HETATM    8  C7  UNL     1      19.710 -53.435 -27.500  1.00  0.00     0.054 A 
HETATM    9  C8  UNL     1      20.290 -52.396 -28.197  1.00  0.00    -0.020 A 
HETATM   10  C29 UNL     1      19.981 -51.086 -27.831  1.00  0.00     0.033 A 
BRANCH   9  11
HETATM   11  C9  UNL     1      21.209 -52.630 -29.295  1.00  0.00    -0.010 A 
HETATM   12  C10 UNL     1      21.682 -53.890 -29.554  1.00  0.00     0.016 A 
HETATM   13  C11 UNL     1      22.558 -54.116 -30.600  1.00  0.00     0.032 A 
HETATM   14  C12 UNL     1      22.977 -53.080 -31.409  1.00  0.00     0.049 A 
HETATM   15  N6  UNL     1      22.502 -51.851 -31.139  1.00  0.00    -0.364 N 
HETATM   16  C28 UNL     1      21.641 -51.606 -30.117  1.00  0.00     0.100 A 
ATOM     17  H6  UNL     1      22.800 -51.071 -31.725  1.00  0.00     0.165 HD
BRANCH  14  18
HETATM   18  C13 UNL     1      23.901 -53.332 -32.508  1.00  0.00     0.137 C 
HETATM   19  N1  UNL     1      24.100 -52.460 -33.437  1.00  0.00    -0.295 N 
ATOM     20  H1  UNL     1      23.590 -51.577 -33.386  1.00  0.00     0.186 HD
BRANCH  19  21
HETATM   21  N2  UNL     1      24.964 -52.653 -34.497  1.00  0.00    -0.132 N 
ATOM     22  H2  UNL     1      24.591 -52.468 -35.428  1.00  0.00     0.205 HD
BRANCH  21  23
HETATM   23  C14 UNL     1      26.175 -53.036 -34.439  1.00  0.00     0.707 A 
HETATM   24  N3  UNL     1      26.804 -53.175 -33.257  1.00  0.00    -0.189 N 
HETATM   25  C15 UNL     1      28.102 -53.584 -33.173  1.00  0.00     0.065 A 
ATOM     26  H3  UNL     1      26.293 -52.968 -32.398  1.00  0.00     0.184 HD
HETATM   27  C16 UNL     1      28.736 -53.724 -31.958  1.00  0.00     0.033 A 
HETATM   28  C20 UNL     1      28.757 -53.855 -34.360  1.00  0.00     0.062 A 
HETATM   29  C17 UNL     1      30.049 -54.139 -31.902  1.00  0.00     0.029 A 
HETATM   30  C18 UNL     1      30.742 -54.421 -33.086  1.00  0.00     0.047 A 
HETATM   31  N4  UNL     1      32.095 -54.848 -33.015  1.00  0.00    -0.102 NA
HETATM   32  C19 UNL     1      30.063 -54.265 -34.277  1.00  0.00     0.046 A 
HETATM   33  C21 UNL     1      28.072 -53.697 -35.549  1.00  0.00     0.279 A 
HETATM   34  O1  UNL     1      28.666 -53.942 -36.626  1.00  0.00    -0.266 OA
HETATM   35  N5  UNL     1      26.791 -53.293 -35.622  1.00  0.00    -0.109 N 
BRANCH  35  36
HETATM   36  C22 UNL     1      26.109 -53.139 -36.861  1.00  0.00     0.060 A 
HETATM   37  C23 UNL     1      25.477 -54.222 -37.433  1.00  0.00     0.032 A 
HETATM   38  C24 UNL     1      24.801 -54.120 -38.637  1.00  0.00     0.026 A 
HETATM   39  C25 UNL     1      24.736 -52.923 -39.306  1.00  0.00     0.034 A 
HETATM   40 CL1  UNL     1      23.877 -52.770 -40.845  1.00  0.00    -0.084 Cl
HETATM   41  C26 UNL     1      25.364 -51.835 -38.744  1.00  0.00     0.026 A 
HETATM   42  C27 UNL     1      26.035 -51.944 -37.545  1.00  0.00     0.032 A 
ENDBRANCH  35  36
ENDBRANCH  21  23
ENDBRANCH  19  21
ENDBRANCH  14  18
ENDBRANCH   9  11
ENDBRANCH   3   4
TORSDOF 6
ENDMDL
MODEL 4
REMARK VINA RESULT: 2.035541255      2.542      3.195
REMARK  6 active torsions:
REMARK  status: ('A' for Active; 'I' for Inactive)
REMARK    1  A    between atoms: C3_3  and  C4_4 
REMARK    2  A    between atoms: C8_9  and  C9_10 
REMARK    3  A    between atoms: C12_13  and  C13_14 
REMARK    4  A    between atoms: N1_15  and  N2_17 
REMARK    5  A    between atoms: N2_17  and  C14_19 
REMARK    6  A    between atoms: N5_31  and  C22_32 
ROOT
HETATM    1  C1  UNL     1      18.349 -49.145 -25.805  1.00  0.00     0.112 C 
HETATM    2  C2  UNL     1      19.181 -50.237 -26.306  1.00  0.00    -0.105 C 
HETATM    3  C3  UNL     1      19.860 -51.133 -26.738  1.00  0.00    -0.067 C 
ENDROOT
BRANCH   3   4
HETATM    4  C4  UNL     1      20.667 -52.214 -27.280  1.00  0.00     0.021 A 
HETATM    5  C5  UNL     1      20.889 -53.343 -26.519  1.00  0.00     0.062 A 
HETATM    6  C6  UNL     1      21.660 -54.342 -27.078  1.00  0.00     0.118 A 
HETATM    7  F1  UNL     1      21.905 -55.484 -26.354  1.00  0.00    -0.206 F 
HETATM    8  C7  UNL     1      22.212 -54.280 -28.327  1.00  0.00     0.054 A 
HETATM    9  C8  UNL     1      21.989 -53.150 -29.083  1.00  0.00    -0.020 A 
HETATM   10  C29 UNL     1      21.212 -52.123 -28.544  1.00  0.00     0.033 A 
BRANCH   9  11
HETATM   11  C9  UNL     1      22.538 -53.000 -30.417  1.00  0.00    -0.010 A 
HETATM   12  C10 UNL     1      22.963 -54.095 -31.124  1.00  0.00     0.016 A 
HETATM   13  C11 UNL     1      23.487 -53.956 -32.397  1.00  0.00     0.032 A 
HETATM   14  C12 UNL     1      23.594 -52.713 -32.986  1.00  0.00     0.049 A 
HETATM   15  N6  UNL     1      23.172 -51.651 -32.277  1.00  0.00    -0.364 N 
HETATM   16  C28 UNL     1      22.654 -51.764 -31.026  1.00  0.00     0.100 A 
ATOM     17  H6  UNL     1      23.243 -50.724 -32.695  1.00  0.00     0.165 HD
BRANCH  14  18
HETATM   18  C13 UNL     1      24.148 -52.581 -34.328  1.00  0.00     0.137 C 
HETATM   19  N1  UNL     1      23.910 -51.544 -35.058  1.00  0.00    -0.295 N 
ATOM     20  H1  UNL     1      23.318 -50.809 -34.671  1.00  0.00     0.186 HD
BRANCH  19  21
HETATM   21  N2  UNL     1      24.413 -51.374 -36.334  1.00  0.00    -0.132 N 
ATOM     22  H2  UNL     1      24.266 -50.459 -36.761  1.00  0.00     0.205 HD
BRANCH  21  23
HETATM   23  C14 UNL     1      25.037 -52.232 -37.033  1.00  0.00     0.707 A 
HETATM   24  N3  UNL     1      24.373 -53.151 -37.759  1.00  0.00    -0.189 N 
HETATM   25  C15 UNL     1      25.024 -54.082 -38.516  1.00  0.00     0.065 A 
ATOM     26  H3  UNL     1      23.353 -53.151 -37.744  1.00  0.00     0.184 HD
HETATM   27  C16 UNL     1      24.335 -55.017 -39.256  1.00  0.00     0.033 A 
HETATM   28  C20 UNL     1      26.406 -54.046 -38.509  1.00  0.00     0.062 A 
HETATM   29  C17 UNL     1      25.018 -55.946 -40.011  1.00  0.00     0.029 A 
HETATM   30  C18 UNL     1      26.418 -55.938 -40.027  1.00  0.00     0.047 A 
HETATM   31  N4  UNL     1      27.111 -56.901 -40.810  1.00  0.00    -0.102 NA
HETATM   32  C19 UNL     1      27.061 -54.981 -39.268  1.00  0.00     0.046 A 
HETATM   33  C21 UNL     1      27.044 -53.087 -37.748  1.00  0.00     0.279 A 
HETATM   34  O1  UNL     1      28.298 -53.054 -37.742  1.00  0.00    -0.266 OA
HETATM   35  N5  UNL     1      26.394 -52.172 -37.005  1.00  0.00    -0.109 N 
BRANCH  35  36
HETATM   36  C22 UNL     1      27.075 -51.194 -36.229  1.00  0.00     0.060 A 
HETATM   37  C23 UNL     1      26.599 -49.901 -36.188  1.00  0.00     0.032 A 
HETATM   38  C24 UNL     1      27.229 -48.914 -35.448  1.00  0.00     0.026 A 
HETATM   39  C25 UNL     1      28.360 -49.197 -34.722  1.00  0.00     0.034 A 
HETATM   40 CL1  UNL     1      29.180 -47.953 -33.769  1.00  0.00    -0.084 Cl
HETATM   41  C26 UNL     1      28.844 -50.485 -34.756  1.00  0.00     0.026 A 
HETATM   42  C27 UNL     1      28.212 -51.462 -35.496  1.00  0.00     0.032 A 
ENDBRANCH  35  36
ENDBRANCH  21  23
ENDBRANCH  19  21
ENDBRANCH  14  18
ENDBRANCH   9  11
ENDBRANCH   3   4
TORSDOF 6
ENDMDL
MODEL 5
REMARK VINA RESULT: 2.118636911      0.711      1.204
REMARK  6 active torsions:
REMARK  status: ('A' for Active; 'I' for Inactive)
REMARK    1  A    between atoms: C3_3  and  C4_4 
REMARK    2  A    between atoms: C8_9  and  C9_10 
REMARK    3  A    between atoms: C12_13  and  C13_14 
REMARK    4  A    between atoms: N1_15  and  N2_17 
REMARK    5  A    between atoms: N2_17  and  C14_19 
REMARK    6  A    between atoms: N5_31  and  C22_32 
ROOT
HETATM    1  C1  UNL     1      19.955 -46.838 -26.283  1.00  0.00     0.112 C 
HETATM    2  C2  UNL     1      20.005 -48.275 -26.537  1.00  0.00    -0.105 C 
HETATM    3  C3  UNL     1      20.039 -49.457 -26.766  1.00  0.00    -0.067 C 
ENDROOT
BRANCH   3   4
HETATM    4  C4  UNL     1      20.063 -50.881 -27.060  1.00  0.00     0.021 A 
HETATM    5  C5  UNL     1      19.354 -51.751 -26.259  1.00  0.00     0.062 A 
HETATM    6  C6  UNL     1      19.407 -53.094 -26.578  1.00  0.00     0.118 A 
HETATM    7  F1  UNL     1      18.714 -53.995 -25.806  1.00  0.00    -0.206 F 
HETATM    8  C7  UNL     1      20.115 -53.606 -27.630  1.00  0.00     0.054 A 
HETATM    9  C8  UNL     1      20.823 -52.732 -28.427  1.00  0.00    -0.020 A 
HETATM   10  C29 UNL     1      20.787 -51.370 -28.128  1.00  0.00     0.033 A 
BRANCH   9  11
HETATM   11  C9  UNL     1      21.601 -53.191 -29.562  1.00  0.00    -0.010 A 
HETATM   12  C10 UNL     1      22.206 -52.293 -30.402  1.00  0.00     0.016 A 
HETATM   13  C11 UNL     1      22.949 -52.726 -31.485  1.00  0.00     0.032 A 
HETATM   14  C12 UNL     1      23.100 -54.073 -31.746  1.00  0.00     0.049 A 
HETATM   15  N6  UNL     1      22.499 -54.939 -30.911  1.00  0.00    -0.364 N 
HETATM   16  C28 UNL     1      21.764 -54.535 -29.842  1.00  0.00     0.100 A 
ATOM     17  H6  UNL     1      22.598 -55.938 -31.088  1.00  0.00     0.165 HD
BRANCH  14  18
HETATM   18  C13 UNL     1      23.886 -54.516 -32.892  1.00  0.00     0.137 C 
HETATM   19  N1  UNL     1      24.473 -53.675 -33.673  1.00  0.00    -0.295 N 
ATOM     20  H1  UNL     1      24.375 -52.679 -33.470  1.00  0.00     0.186 HD
BRANCH  19  21
HETATM   21  N2  UNL     1      25.227 -54.045 -34.770  1.00  0.00    -0.132 N 
ATOM     22  H2  UNL     1      25.559 -55.009 -34.789  1.00  0.00     0.205 HD
BRANCH  21  23
HETATM   23  C14 UNL     1      25.553 -53.315 -35.758  1.00  0.00     0.707 A 
HETATM   24  N3  UNL     1      24.710 -53.127 -36.791  1.00  0.00    -0.189 N 
HETATM   25  C15 UNL     1      25.040 -52.349 -37.861  1.00  0.00     0.065 A 
ATOM     26  H3  UNL     1      23.796 -53.581 -36.772  1.00  0.00     0.184 HD
HETATM   27  C16 UNL     1      24.170 -52.163 -38.913  1.00  0.00     0.033 A 
HETATM   28  C20 UNL     1      26.288 -51.753 -37.846  1.00  0.00     0.062 A 
HETATM   29  C17 UNL     1      24.531 -51.371 -39.981  1.00  0.00     0.029 A 
HETATM   30  C18 UNL     1      25.786 -50.752 -39.998  1.00  0.00     0.047 A 
HETATM   31  N4  UNL     1      26.146 -49.938 -41.107  1.00  0.00    -0.102 NA
HETATM   32  C19 UNL     1      26.622 -50.971 -38.922  1.00  0.00     0.046 A 
HETATM   33  C21 UNL     1      27.119 -51.975 -36.767  1.00  0.00     0.279 A 
HETATM   34  O1  UNL     1      28.251 -51.433 -36.753  1.00  0.00    -0.266 OA
HETATM   35  N5  UNL     1      26.785 -52.744 -35.715  1.00  0.00    -0.109 N 
BRANCH  35  36
HETATM   36  C22 UNL     1      27.661 -52.957 -34.615  1.00  0.00     0.060 A 
HETATM   37  C23 UNL     1      28.446 -54.089 -34.574  1.00  0.00     0.032 A 
HETATM   38  C24 UNL     1      29.313 -54.339 -33.524  1.00  0.00     0.026 A 
HETATM   39  C25 UNL     1      29.420 -53.455 -32.478  1.00  0.00     0.034 A 
HETATM   40 CL1  UNL     1      30.522 -53.754 -31.126  1.00  0.00    -0.084 Cl
HETATM   41  C26 UNL     1      28.642 -52.321 -32.508  1.00  0.00     0.026 A 
HETATM   42  C27 UNL     1      27.780 -52.079 -33.558  1.00  0.00     0.032 A 
ENDBRANCH  35  36
ENDBRANCH  21  23
ENDBRANCH  19  21
ENDBRANCH  14  18
ENDBRANCH   9  11
ENDBRANCH   3   4
TORSDOF 6
ENDMDL
