MODEL 1
REMARK VINA RESULT: -8.527970917      0.000      0.000
REMARK  5 active torsions:
REMARK  status: ('A' for Active; 'I' for Inactive)
REMARK    1  A    between atoms: C6_7  and  S1_8 
REMARK    2  A    between atoms: C9_13  and  C10_14 
REMARK    3  A    between atoms: C11_17  and  N2_18 
REMARK    4  A    between atoms: N2_18  and  C12_20 
REMARK    5  A    between atoms: C19_35  and  C20_36 
ROOT
HETATM    1  C1  UNL     1      24.183 -51.343 -33.910  1.00  0.00     0.018 C 
HETATM    2  C2  UNL     1      25.237 -51.933 -33.835  1.00  0.00    -0.077 C 
HETATM    3  C3  UNL     1      26.484 -52.626 -33.719  1.00  0.00     0.032 A 
HETATM    4  C4  UNL     1      26.926 -52.991 -32.438  1.00  0.00     0.065 A 
HETATM    5  C5  UNL     1      28.129 -53.646 -32.305  1.00  0.00     0.139 A 
HETATM    6  F1  UNL     1      28.612 -54.026 -31.083  1.00  0.00    -0.204 F 
HETATM    7  C6  UNL     1      28.884 -53.937 -33.407  1.00  0.00     0.098 A 
HETATM    8  C8  UNL     1      28.418 -53.564 -34.644  1.00  0.00     0.041 A 
HETATM    9  C9  UNL     1      27.226 -52.910 -34.831  1.00  0.00     0.012 A 
ENDROOT
BRANCH   9  10
HETATM   10  C10 UNL     1      26.748 -52.516 -36.144  1.00  0.00     0.056 A 
HETATM   11  N1  UNL     1      26.246 -53.531 -36.898  1.00  0.00    -0.341 N 
HETATM   12  C11 UNL     1      25.775 -53.344 -38.128  1.00  0.00     0.107 A 
ATOM     13  H1  UNL     1      26.231 -54.473 -36.506  1.00  0.00     0.167 HD
HETATM   14  C17 UNL     1      25.806 -52.043 -38.647  1.00  0.00     0.049 A 
HETATM   15  C18 UNL     1      26.304 -51.006 -37.912  1.00  0.00     0.018 A 
HETATM   16  C19 UNL     1      26.786 -51.243 -36.632  1.00  0.00     0.002 A 
BRANCH  12  17
HETATM   17  N2  UNL     1      25.292 -54.247 -38.834  1.00  0.00    -0.327 N 
ATOM     18  H2  UNL     1      24.319 -54.440 -38.593  1.00  0.00     0.169 HD
BRANCH  17  19
HETATM   19  C12 UNL     1      25.740 -55.052 -39.858  1.00  0.00     0.138 A 
HETATM   20  N3  UNL     1      25.127 -56.110 -40.403  1.00  0.00    -0.337 N 
HETATM   21  C13 UNL     1      25.633 -56.828 -41.411  1.00  0.00     0.183 A 
ATOM     22  H3  UNL     1      24.219 -56.384 -40.027  1.00  0.00     0.168 HD
HETATM   23  N4  UNL     1      26.823 -56.533 -41.962  1.00  0.00    -0.337 N 
HETATM   24  C14 UNL     1      27.514 -55.478 -41.472  1.00  0.00     0.138 A 
ATOM     25  H4  UNL     1      27.197 -57.091 -42.730  1.00  0.00     0.168 HD
HETATM   26  N5  UNL     1      28.702 -54.951 -41.815  1.00  0.00    -0.337 N 
HETATM   27  C16 UNL     1      26.990 -54.754 -40.447  1.00  0.00     0.122 A 
HETATM   28  C15 UNL     1      28.902 -53.901 -40.996  1.00  0.00     0.182 A 
ATOM     29  H5  UNL     1      29.328 -55.280 -42.549  1.00  0.00     0.168 HD
HETATM   30  N6  UNL     1      27.856 -53.769 -40.148  1.00  0.00    -0.346 N 
ATOM     31  H6  UNL     1      27.745 -53.060 -39.423  1.00  0.00     0.167 HD
ENDBRANCH  17  19
ENDBRANCH  12  17
BRANCH  16  32
HETATM   32  C20 UNL     1      27.277 -50.129 -35.869  1.00  0.00    -0.024 A 
HETATM   33  C21 UNL     1      28.627 -50.100 -35.490  1.00  0.00     0.014 A 
HETATM   34  C22 UNL     1      29.141 -49.061 -34.786  1.00  0.00     0.024 A 
HETATM   35  C23 UNL     1      28.311 -48.010 -34.440  1.00  0.00     0.034 A 
HETATM   36 CL1  UNL     1      28.989 -46.684 -33.538  1.00  0.00    -0.084 Cl
HETATM   37  C24 UNL     1      26.983 -48.022 -34.804  1.00  0.00     0.024 A 
HETATM   38  C25 UNL     1      26.454 -49.072 -35.517  1.00  0.00     0.014 A 
ENDBRANCH  16  32
ENDBRANCH   9  10
BRANCH   7  39
HETATM   39  S1  UNL     1      30.431 -54.775 -33.227  1.00  0.00     0.174 S 
HETATM   40  C7  UNL     1      31.722 -53.604 -32.878  1.00  0.00     0.167 C 
HETATM   41  O1  UNL     1      30.266 -55.745 -32.099  1.00  0.00    -0.223 OA
HETATM   42  O2  UNL     1      30.718 -55.481 -34.540  1.00  0.00    -0.223 OA
ENDBRANCH   7  39
TORSDOF 5
ENDMDL
MODEL 2
REMARK VINA RESULT: -7.859105731      0.902      1.077
REMARK  5 active torsions:
REMARK  status: ('A' for Active; 'I' for Inactive)
REMARK    1  A    between atoms: C6_7  and  S1_8 
REMARK    2  A    between atoms: C9_13  and  C10_14 
REMARK    3  A    between atoms: C11_17  and  N2_18 
REMARK    4  A    between atoms: N2_18  and  C12_20 
REMARK    5  A    between atoms: C19_35  and  C20_36 
ROOT
HETATM    1  C1  UNL     1      23.538 -52.357 -34.827  1.00  0.00     0.018 C 
HETATM    2  C2  UNL     1      24.697 -52.637 -34.621  1.00  0.00    -0.077 C 
HETATM    3  C3  UNL     1      26.062 -52.971 -34.353  1.00  0.00     0.032 A 
HETATM    4  C4  UNL     1      26.386 -53.477 -33.084  1.00  0.00     0.065 A 
HETATM    5  C5  UNL     1      27.696 -53.790 -32.801  1.00  0.00     0.139 A 
HETATM    6  F1  UNL     1      28.073 -54.285 -31.583  1.00  0.00    -0.204 F 
HETATM    7  C6  UNL     1      28.670 -53.611 -33.744  1.00  0.00     0.098 A 
HETATM    8  C8  UNL     1      28.313 -53.114 -34.974  1.00  0.00     0.041 A 
HETATM    9  C9  UNL     1      27.023 -52.787 -35.307  1.00  0.00     0.012 A 
ENDROOT
BRANCH   9  10
HETATM   10  C10 UNL     1      26.662 -52.258 -36.609  1.00  0.00     0.056 A 
HETATM   11  N1  UNL     1      26.183 -53.179 -37.488  1.00  0.00    -0.341 N 
HETATM   12  C11 UNL     1      25.814 -52.863 -38.727  1.00  0.00     0.107 A 
ATOM     13  H1  UNL     1      26.103 -54.150 -37.186  1.00  0.00     0.167 HD
HETATM   14  C17 UNL     1      25.932 -51.523 -39.120  1.00  0.00     0.049 A 
HETATM   15  C18 UNL     1      26.410 -50.578 -38.258  1.00  0.00     0.018 A 
HETATM   16  C19 UNL     1      26.784 -50.949 -36.974  1.00  0.00     0.002 A 
BRANCH  12  17
HETATM   17  N2  UNL     1      25.353 -53.677 -39.546  1.00  0.00    -0.327 N 
ATOM     18  H2  UNL     1      24.353 -53.544 -39.696  1.00  0.00     0.169 HD
BRANCH  17  19
HETATM   19  C12 UNL     1      25.855 -54.715 -40.302  1.00  0.00     0.138 A 
HETATM   20  N3  UNL     1      25.247 -55.859 -40.635  1.00  0.00    -0.337 N 
HETATM   21  C13 UNL     1      25.809 -56.810 -41.389  1.00  0.00     0.183 A 
ATOM     22  H3  UNL     1      24.299 -56.016 -40.294  1.00  0.00     0.168 HD
HETATM   23  N4  UNL     1      27.054 -56.681 -41.878  1.00  0.00    -0.337 N 
HETATM   24  C14 UNL     1      27.744 -55.554 -41.589  1.00  0.00     0.138 A 
ATOM     25  H4  UNL     1      27.470 -57.416 -42.451  1.00  0.00     0.168 HD
HETATM   26  N5  UNL     1      28.979 -55.150 -41.933  1.00  0.00    -0.337 N 
HETATM   27  C16 UNL     1      27.164 -54.594 -40.822  1.00  0.00     0.122 A 
HETATM   28  C15 UNL     1      29.152 -53.938 -41.372  1.00  0.00     0.182 A 
ATOM     29  H5  UNL     1      29.652 -55.660 -42.504  1.00  0.00     0.168 HD
HETATM   30  N6  UNL     1      28.042 -53.584 -40.684  1.00  0.00    -0.346 N 
ATOM     31  H6  UNL     1      27.898 -52.719 -40.163  1.00  0.00     0.167 HD
ENDBRANCH  17  19
ENDBRANCH  12  17
BRANCH  16  32
HETATM   32  C20 UNL     1      27.255 -49.930 -36.078  1.00  0.00    -0.024 A 
HETATM   33  C21 UNL     1      28.601 -49.932 -35.685  1.00  0.00     0.014 A 
HETATM   34  C22 UNL     1      29.097 -48.979 -34.857  1.00  0.00     0.024 A 
HETATM   35  C23 UNL     1      28.252 -47.987 -34.394  1.00  0.00     0.034 A 
HETATM   36 CL1  UNL     1      28.906 -46.771 -33.333  1.00  0.00    -0.084 Cl
HETATM   37  C24 UNL     1      26.927 -47.970 -34.770  1.00  0.00     0.024 A 
HETATM   38  C25 UNL     1      26.416 -48.932 -35.609  1.00  0.00     0.014 A 
ENDBRANCH  16  32
ENDBRANCH   9  10
BRANCH   7  39
HETATM   39  S1  UNL     1      30.351 -54.013 -33.371  1.00  0.00     0.174 S 
HETATM   40  C7  UNL     1      30.592 -55.772 -33.461  1.00  0.00     0.167 C 
HETATM   41  O1  UNL     1      31.197 -53.302 -34.380  1.00  0.00    -0.223 OA
HETATM   42  O2  UNL     1      30.629 -53.527 -31.960  1.00  0.00    -0.223 OA
ENDBRANCH   7  39
TORSDOF 5
ENDMDL
MODEL 3
REMARK VINA RESULT: -7.474311253      2.018      3.435
REMARK  5 active torsions:
REMARK  status: ('A' for Active; 'I' for Inactive)
REMARK    1  A    between atoms: C6_7  and  S1_8 
REMARK    2  A    between atoms: C9_13  and  C10_14 
REMARK    3  A    between atoms: C11_17  and  N2_18 
REMARK    4  A    between atoms: N2_18  and  C12_20 
REMARK    5  A    between atoms: C19_35  and  C20_36 
ROOT
HETATM    1  C1  UNL     1      27.286 -49.089 -35.239  1.00  0.00     0.018 C 
HETATM    2  C2  UNL     1      27.680 -50.186 -34.910  1.00  0.00    -0.077 C 
HETATM    3  C3  UNL     1      28.165 -51.470 -34.506  1.00  0.00     0.032 A 
HETATM    4  C4  UNL     1      29.079 -51.532 -33.443  1.00  0.00     0.065 A 
HETATM    5  C5  UNL     1      29.568 -52.757 -33.049  1.00  0.00     0.139 A 
HETATM    6  F1  UNL     1      30.461 -52.881 -32.021  1.00  0.00    -0.204 F 
HETATM    7  C6  UNL     1      29.168 -53.899 -33.685  1.00  0.00     0.098 A 
HETATM    8  C8  UNL     1      28.272 -53.797 -34.722  1.00  0.00     0.041 A 
HETATM    9  C9  UNL     1      27.754 -52.602 -35.153  1.00  0.00     0.012 A 
ENDROOT
BRANCH   9  10
HETATM   10  C10 UNL     1      26.812 -52.509 -36.253  1.00  0.00     0.056 A 
HETATM   11  N1  UNL     1      27.373 -52.548 -37.492  1.00  0.00    -0.341 N 
HETATM   12  C11 UNL     1      26.654 -52.466 -38.607  1.00  0.00     0.107 A 
ATOM     13  H1  UNL     1      28.386 -52.643 -37.568  1.00  0.00     0.167 HD
HETATM   14  C17 UNL     1      25.264 -52.335 -38.478  1.00  0.00     0.049 A 
HETATM   15  C18 UNL     1      24.675 -52.294 -37.248  1.00  0.00     0.018 A 
HETATM   16  C19 UNL     1      25.461 -52.383 -36.108  1.00  0.00     0.002 A 
BRANCH  12  17
HETATM   17  N2  UNL     1      27.135 -52.518 -39.753  1.00  0.00    -0.327 N 
ATOM     18  H2  UNL     1      27.164 -51.600 -40.197  1.00  0.00     0.169 HD
BRANCH  17  19
HETATM   19  C12 UNL     1      27.639 -53.505 -40.572  1.00  0.00     0.138 A 
HETATM   20  N3  UNL     1      28.800 -53.507 -41.239  1.00  0.00    -0.337 N 
HETATM   21  C13 UNL     1      29.218 -54.521 -42.005  1.00  0.00     0.183 A 
ATOM     22  H3  UNL     1      29.401 -52.688 -41.158  1.00  0.00     0.168 HD
HETATM   23  N4  UNL     1      28.484 -55.636 -42.164  1.00  0.00    -0.337 N 
HETATM   24  C14 UNL     1      27.294 -55.719 -41.525  1.00  0.00     0.138 A 
ATOM     25  H4  UNL     1      28.815 -56.401 -42.752  1.00  0.00     0.168 HD
HETATM   26  N5  UNL     1      26.364 -56.689 -41.491  1.00  0.00    -0.337 N 
HETATM   27  C16 UNL     1      26.879 -54.683 -40.749  1.00  0.00     0.122 A 
HETATM   28  C15 UNL     1      25.378 -56.242 -40.691  1.00  0.00     0.182 A 
ATOM     29  H5  UNL     1      26.398 -57.585 -41.976  1.00  0.00     0.168 HD
HETATM   30  N6  UNL     1      25.682 -55.007 -40.228  1.00  0.00    -0.346 N 
ATOM     31  H6  UNL     1      25.115 -54.433 -39.604  1.00  0.00     0.167 HD
ENDBRANCH  17  19
ENDBRANCH  12  17
BRANCH  16  32
HETATM   32  C20 UNL     1      24.812 -52.368 -34.826  1.00  0.00    -0.024 A 
HETATM   33  C21 UNL     1      24.544 -53.584 -34.180  1.00  0.00     0.014 A 
HETATM   34  C22 UNL     1      23.952 -53.620 -32.960  1.00  0.00     0.024 A 
HETATM   35  C23 UNL     1      23.609 -52.430 -32.346  1.00  0.00     0.034 A 
HETATM   36 CL1  UNL     1      22.851 -52.495 -30.780  1.00  0.00    -0.084 Cl
HETATM   37  C24 UNL     1      23.865 -51.227 -32.966  1.00  0.00     0.024 A 
HETATM   38  C25 UNL     1      24.465 -51.181 -34.203  1.00  0.00     0.014 A 
ENDBRANCH  16  32
ENDBRANCH   9  10
BRANCH   7  39
HETATM   39  S1  UNL     1      29.804 -55.469 -33.176  1.00  0.00     0.174 S 
HETATM   40  C7  UNL     1      29.364 -55.784 -31.482  1.00  0.00     0.167 C 
HETATM   41  O1  UNL     1      29.203 -56.492 -34.087  1.00  0.00    -0.223 OA
HETATM   42  O2  UNL     1      31.315 -55.410 -33.313  1.00  0.00    -0.223 OA
ENDBRANCH   7  39
TORSDOF 5
ENDMDL
MODEL 4
REMARK VINA RESULT: -5.908188023      4.334      6.829
REMARK  5 active torsions:
REMARK  status: ('A' for Active; 'I' for Inactive)
REMARK    1  A    between atoms: C6_7  and  S1_8 
REMARK    2  A    between atoms: C9_13  and  C10_14 
REMARK    3  A    between atoms: C11_17  and  N2_18 
REMARK    4  A    between atoms: N2_18  and  C12_20 
REMARK    5  A    between atoms: C19_35  and  C20_36 
ROOT
HETATM    1  C1  UNL     1      24.163 -52.299 -33.444  1.00  0.00     0.018 C 
HETATM    2  C2  UNL     1      24.400 -52.824 -34.509  1.00  0.00    -0.077 C 
HETATM    3  C3  UNL     1      24.661 -53.463 -35.763  1.00  0.00     0.032 A 
HETATM    4  C4  UNL     1      23.735 -54.407 -36.234  1.00  0.00     0.065 A 
HETATM    5  C5  UNL     1      23.975 -55.043 -37.431  1.00  0.00     0.139 A 
HETATM    6  F1  UNL     1      23.111 -55.972 -37.940  1.00  0.00    -0.204 F 
HETATM    7  C6  UNL     1      25.101 -54.757 -38.152  1.00  0.00     0.098 A 
HETATM    8  C8  UNL     1      25.983 -53.827 -37.658  1.00  0.00     0.041 A 
HETATM    9  C9  UNL     1      25.791 -53.165 -36.472  1.00  0.00     0.012 A 
ENDROOT
BRANCH   9  10
HETATM   10  C10 UNL     1      26.734 -52.189 -35.959  1.00  0.00     0.056 A 
HETATM   11  N1  UNL     1      27.202 -52.448 -34.708  1.00  0.00    -0.341 N 
HETATM   12  C11 UNL     1      28.067 -51.650 -34.087  1.00  0.00     0.107 A 
ATOM     13  H1  UNL     1      26.877 -53.286 -34.227  1.00  0.00     0.167 HD
HETATM   14  C17 UNL     1      28.499 -50.503 -34.767  1.00  0.00     0.049 A 
HETATM   15  C18 UNL     1      28.046 -50.219 -36.023  1.00  0.00     0.018 A 
HETATM   16  C19 UNL     1      27.144 -51.078 -36.636  1.00  0.00     0.002 A 
BRANCH  12  17
HETATM   17  N2  UNL     1      28.528 -51.869 -32.954  1.00  0.00    -0.327 N 
ATOM     18  H2  UNL     1      28.797 -51.008 -32.477  1.00  0.00     0.169 HD
BRANCH  17  19
HETATM   19  C12 UNL     1      28.766 -52.984 -32.179  1.00  0.00     0.138 A 
HETATM   20  N3  UNL     1      28.544 -53.138 -30.868  1.00  0.00    -0.337 N 
HETATM   21  C13 UNL     1      28.794 -54.268 -30.197  1.00  0.00     0.183 A 
ATOM     22  H3  UNL     1      28.162 -52.348 -30.350  1.00  0.00     0.168 HD
HETATM   23  N4  UNL     1      29.299 -55.355 -30.806  1.00  0.00    -0.337 N 
HETATM   24  C14 UNL     1      29.554 -55.288 -32.132  1.00  0.00     0.138 A 
ATOM     25  H4  UNL     1      29.484 -56.209 -30.281  1.00  0.00     0.168 HD
HETATM   26  N5  UNL     1      30.046 -56.194 -32.995  1.00  0.00    -0.337 N 
HETATM   27  C16 UNL     1      29.297 -54.134 -32.805  1.00  0.00     0.122 A 
HETATM   28  C15 UNL     1      30.087 -55.591 -34.198  1.00  0.00     0.182 A 
ATOM     29  H5  UNL     1      30.331 -57.150 -32.780  1.00  0.00     0.168 HD
HETATM   30  N6  UNL     1      29.629 -54.322 -34.095  1.00  0.00    -0.346 N 
ATOM     31  H6  UNL     1      29.551 -53.639 -34.849  1.00  0.00     0.167 HD
ENDBRANCH  17  19
ENDBRANCH  12  17
BRANCH  16  32
HETATM   32  C20 UNL     1      26.707 -50.772 -37.970  1.00  0.00    -0.024 A 
HETATM   33  C21 UNL     1      27.459 -51.233 -39.061  1.00  0.00     0.014 A 
HETATM   34  C22 UNL     1      27.076 -50.987 -40.338  1.00  0.00     0.024 A 
HETATM   35  C23 UNL     1      25.917 -50.266 -40.563  1.00  0.00     0.034 A 
HETATM   36 CL1  UNL     1      25.440 -49.961 -42.210  1.00  0.00    -0.084 Cl
HETATM   37  C24 UNL     1      25.166 -49.806 -39.504  1.00  0.00     0.024 A 
HETATM   38  C25 UNL     1      25.548 -50.051 -38.206  1.00  0.00     0.014 A 
ENDBRANCH  16  32
ENDBRANCH   9  10
BRANCH   7  39
HETATM   39  S1  UNL     1      25.404 -55.581 -39.687  1.00  0.00     0.174 S 
HETATM   40  C7  UNL     1      25.437 -54.401 -41.017  1.00  0.00     0.167 C 
HETATM   41  O1  UNL     1      26.723 -56.274 -39.550  1.00  0.00    -0.223 OA
HETATM   42  O2  UNL     1      24.269 -56.567 -39.903  1.00  0.00    -0.223 OA
ENDBRANCH   7  39
TORSDOF 5
ENDMDL
MODEL 5
REMARK VINA RESULT: -5.896876310      1.429      2.323
REMARK  5 active torsions:
REMARK  status: ('A' for Active; 'I' for Inactive)
REMARK    1  A    between atoms: C6_7  and  S1_8 
REMARK    2  A    between atoms: C9_13  and  C10_14 
REMARK    3  A    between atoms: C11_17  and  N2_18 
REMARK    4  A    between atoms: N2_18  and  C12_20 
REMARK    5  A    between atoms: C19_35  and  C20_36 
ROOT
HETATM    1  C1  UNL     1      24.386 -52.434 -35.938  1.00  0.00     0.018 C 
HETATM    2  C2  UNL     1      25.465 -52.697 -35.457  1.00  0.00    -0.077 C 
HETATM    3  C3  UNL     1      26.729 -53.009 -34.863  1.00  0.00     0.032 A 
HETATM    4  C4  UNL     1      26.749 -53.434 -33.525  1.00  0.00     0.065 A 
HETATM    5  C5  UNL     1      27.956 -53.725 -32.932  1.00  0.00     0.139 A 
HETATM    6  F1  UNL     1      28.039 -54.142 -31.632  1.00  0.00    -0.204 F 
HETATM    7  C6  UNL     1      29.121 -53.602 -33.637  1.00  0.00     0.098 A 
HETATM    8  C8  UNL     1      29.060 -53.184 -34.944  1.00  0.00     0.041 A 
HETATM    9  C9  UNL     1      27.884 -52.882 -35.583  1.00  0.00     0.012 A 
ENDROOT
BRANCH   9  10
HETATM   10  C10 UNL     1      27.835 -52.436 -36.963  1.00  0.00     0.056 A 
HETATM   11  N1  UNL     1      28.052 -53.411 -37.887  1.00  0.00    -0.341 N 
HETATM   12  C11 UNL     1      28.050 -53.170 -39.195  1.00  0.00     0.107 A 
ATOM     13  H1  UNL     1      28.223 -54.363 -37.564  1.00  0.00     0.167 HD
HETATM   14  C17 UNL     1      27.814 -51.854 -39.616  1.00  0.00     0.049 A 
HETATM   15  C18 UNL     1      27.594 -50.857 -38.710  1.00  0.00     0.018 A 
HETATM   16  C19 UNL     1      27.603 -51.150 -37.353  1.00  0.00     0.002 A 
BRANCH  12  17
HETATM   17  N2  UNL     1      28.225 -54.042 -40.064  1.00  0.00    -0.327 N 
ATOM     18  H2  UNL     1      29.172 -54.019 -40.444  1.00  0.00     0.169 HD
BRANCH  17  19
HETATM   19  C12 UNL     1      27.461 -55.033 -40.643  1.00  0.00     0.138 A 
HETATM   20  N3  UNL     1      27.774 -55.809 -41.687  1.00  0.00    -0.337 N 
HETATM   21  C13 UNL     1      26.972 -56.762 -42.175  1.00  0.00     0.183 A 
ATOM     22  H3  UNL     1      28.678 -55.667 -42.137  1.00  0.00     0.168 HD
HETATM   23  N4  UNL     1      25.765 -57.012 -41.640  1.00  0.00    -0.337 N 
HETATM   24  C14 UNL     1      25.366 -56.273 -40.580  1.00  0.00     0.138 A 
ATOM     25  H4  UNL     1      25.164 -57.742 -42.024  1.00  0.00     0.168 HD
HETATM   26  N5  UNL     1      24.240 -56.297 -39.847  1.00  0.00    -0.337 N 
HETATM   27  C16 UNL     1      26.190 -55.308 -40.091  1.00  0.00     0.122 A 
HETATM   28  C15 UNL     1      24.377 -55.341 -38.908  1.00  0.00     0.182 A 
ATOM     29  H5  UNL     1      23.439 -56.915 -39.977  1.00  0.00     0.168 HD
HETATM   30  N6  UNL     1      25.573 -54.724 -39.047  1.00  0.00    -0.346 N 
ATOM     31  H6  UNL     1      25.938 -53.964 -38.473  1.00  0.00     0.167 HD
ENDBRANCH  17  19
ENDBRANCH  12  17
BRANCH  16  32
HETATM   32  C20 UNL     1      27.338 -50.088 -36.423  1.00  0.00    -0.024 A 
HETATM   33  C21 UNL     1      26.136 -49.373 -36.524  1.00  0.00     0.014 A 
HETATM   34  C22 UNL     1      25.831 -48.376 -35.656  1.00  0.00     0.024 A 
HETATM   35  C23 UNL     1      26.730 -48.063 -34.653  1.00  0.00     0.034 A 
HETATM   36 CL1  UNL     1      26.322 -46.780 -33.548  1.00  0.00    -0.084 Cl
HETATM   37  C24 UNL     1      27.915 -48.755 -34.539  1.00  0.00     0.024 A 
HETATM   38  C25 UNL     1      28.231 -49.767 -35.414  1.00  0.00     0.014 A 
ENDBRANCH  16  32
ENDBRANCH   9  10
BRANCH   7  39
HETATM   39  S1  UNL     1      30.669 -53.974 -32.866  1.00  0.00     0.174 S 
HETATM   40  C7  UNL     1      30.942 -55.731 -32.864  1.00  0.00     0.167 C 
HETATM   41  O1  UNL     1      31.724 -53.267 -33.656  1.00  0.00    -0.223 OA
HETATM   42  O2  UNL     1      30.596 -53.463 -31.438  1.00  0.00    -0.223 OA
ENDBRANCH   7  39
TORSDOF 5
ENDMDL
