MODEL 1
REMARK VINA RESULT: -8.254594125      0.000      0.000
REMARK  2 active torsions:
REMARK  status: ('A' for Active; 'I' for Inactive)
REMARK    1  A    between atoms: C4_8  and  C5_9 
REMARK    2  A    between atoms: C12_23  and  C13_24 
ROOT
HETATM    1  C5  UNL     1       5.380  32.818  -9.782  1.00  0.00     0.139 A 
HETATM    2  C6  UNL     1       4.116  33.146 -10.442  1.00  0.00     0.090 A 
HETATM    3  N3  UNL     1       3.768  34.411 -10.616  1.00  0.00    -0.388 N 
ATOM      4  H31 UNL     1       2.886  34.640 -11.076  1.00  0.00     0.157 HD
ATOM      5  H32 UNL     1       4.388  35.151 -10.287  1.00  0.00     0.157 HD
HETATM    6  N4  UNL     1       3.258  32.122 -10.898  1.00  0.00    -0.344 N 
ATOM      7  H4  UNL     1       2.380  32.365 -11.356  1.00  0.00     0.167 HD
HETATM    8  C7  UNL     1       3.577  30.883 -10.739  1.00  0.00     0.061 A 
HETATM    9  C8  UNL     1       2.744  29.864 -11.181  1.00  0.00     0.033 A 
HETATM   10  C9  UNL     1       3.069  28.537 -11.020  1.00  0.00     0.019 A 
HETATM   11  C10 UNL     1       4.252  28.194 -10.403  1.00  0.00     0.088 A 
HETATM   12  N5  UNL     1       5.039  29.187  -9.985  1.00  0.00    -0.364 N 
ATOM     13  H5  UNL     1       5.916  28.938  -9.528  1.00  0.00     0.165 HD
HETATM   14  C11 UNL     1       4.751  30.514 -10.127  1.00  0.00     0.067 A 
HETATM   15  C12 UNL     1       5.619  31.396  -9.667  1.00  0.00    -0.002 A 
ENDROOT
BRANCH   1  16
HETATM   16  C4  UNL     1       5.574  33.562  -8.511  1.00  0.00     0.026 A 
HETATM   17  N2  UNL     1       5.136  33.080  -7.342  1.00  0.00    -0.343 N 
HETATM   18  C3  UNL     1       5.295  33.728  -6.165  1.00  0.00     0.134 A 
ATOM     19  H2  UNL     1       4.660  32.178  -7.337  1.00  0.00     0.167 HD
HETATM   20  N1  UNL     1       4.951  33.457  -4.884  1.00  0.00    -0.331 N 
HETATM   21  C21 UNL     1       5.935  34.950  -6.141  1.00  0.00     0.078 A 
HETATM   22  C2  UNL     1       5.340  34.435  -4.073  1.00  0.00     0.079 A 
ATOM     23  H1  UNL     1       4.459  32.616  -4.582  1.00  0.00     0.168 HD
HETATM   24  C1  UNL     1       5.190  34.587  -2.603  1.00  0.00     0.089 C 
HETATM   25  N7  UNL     1       5.950  35.364  -4.844  1.00  0.00    -0.343 N 
ATOM     26  H7  UNL     1       6.357  36.237  -4.508  1.00  0.00     0.167 HD
HETATM   27  C20 UNL     1       6.400  35.480  -7.326  1.00  0.00     0.035 A 
HETATM   28  C19 UNL     1       6.214  34.780  -8.494  1.00  0.00     0.028 A 
ENDBRANCH   1  16
BRANCH  15  29
HETATM   29  C13 UNL     1       6.828  30.844  -9.039  1.00  0.00    -0.025 A 
HETATM   30  C14 UNL     1       6.950  30.912  -7.682  1.00  0.00     0.012 A 
HETATM   31  C15 UNL     1       8.097  30.392  -7.045  1.00  0.00     0.003 A 
HETATM   32  C16 UNL     1       9.086  29.816  -7.828  1.00  0.00     0.026 A 
HETATM   33  C17 UNL     1       8.966  29.745  -9.193  1.00  0.00     0.047 A 
HETATM   34  N6  UNL     1      10.018  29.143  -9.919  1.00  0.00    -0.102 NA
HETATM   35  C18 UNL     1       7.818  30.271  -9.778  1.00  0.00     0.038 A 
ENDBRANCH  15  29
TORSDOF 2
ENDMDL
MODEL 2
REMARK VINA RESULT: -7.470365611      1.392      1.923
REMARK  2 active torsions:
REMARK  status: ('A' for Active; 'I' for Inactive)
REMARK    1  A    between atoms: C4_8  and  C5_9 
REMARK    2  A    between atoms: C12_23  and  C13_24 
ROOT
HETATM    1  C5  UNL     1       4.329  32.463  -8.390  1.00  0.00     0.139 A 
HETATM    2  C6  UNL     1       2.978  32.660  -8.916  1.00  0.00     0.090 A 
HETATM    3  N3  UNL     1       2.264  33.707  -8.532  1.00  0.00    -0.388 N 
ATOM      4  H31 UNL     1       1.321  33.845  -8.898  1.00  0.00     0.157 HD
ATOM      5  H32 UNL     1       2.665  34.371  -7.869  1.00  0.00     0.157 HD
HETATM    6  N4  UNL     1       2.423  31.743  -9.833  1.00  0.00    -0.344 N 
ATOM      7  H4  UNL     1       1.480  31.892 -10.192  1.00  0.00     0.167 HD
HETATM    8  C7  UNL     1       3.101  30.716 -10.221  1.00  0.00     0.061 A 
HETATM    9  C8  UNL     1       2.570  29.804 -11.123  1.00  0.00     0.033 A 
HETATM   10  C9  UNL     1       3.279  28.703 -11.547  1.00  0.00     0.019 A 
HETATM   11  C10 UNL     1       4.553  28.488 -11.071  1.00  0.00     0.088 A 
HETATM   12  N5  UNL     1       5.046  29.376 -10.206  1.00  0.00    -0.364 N 
ATOM     13  H5  UNL     1       5.990  29.221  -9.852  1.00  0.00     0.165 HD
HETATM   14  C11 UNL     1       4.374  30.478  -9.762  1.00  0.00     0.067 A 
HETATM   15  C12 UNL     1       4.980  31.277  -8.903  1.00  0.00    -0.002 A 
ENDROOT
BRANCH   1  16
HETATM   16  C4  UNL     1       4.393  32.587  -6.912  1.00  0.00     0.026 A 
HETATM   17  N2  UNL     1       4.952  33.650  -6.319  1.00  0.00    -0.343 N 
HETATM   18  C3  UNL     1       5.027  33.798  -4.977  1.00  0.00     0.134 A 
ATOM     19  H2  UNL     1       5.339  34.386  -6.910  1.00  0.00     0.167 HD
HETATM   20  N1  UNL     1       5.529  34.753  -4.159  1.00  0.00    -0.331 N 
HETATM   21  C21 UNL     1       4.512  32.819  -4.153  1.00  0.00     0.078 A 
HETATM   22  C2  UNL     1       5.354  34.423  -2.884  1.00  0.00     0.079 A 
ATOM     23  H1  UNL     1       5.981  35.610  -4.478  1.00  0.00     0.168 HD
HETATM   24  C1  UNL     1       5.732  35.143  -1.640  1.00  0.00     0.089 C 
HETATM   25  N7  UNL     1       4.725  33.225  -2.872  1.00  0.00    -0.343 N 
ATOM     26  H7  UNL     1       4.453  32.709  -2.035  1.00  0.00     0.167 HD
HETATM   27  C20 UNL     1       3.928  31.708  -4.726  1.00  0.00     0.035 A 
HETATM   28  C19 UNL     1       3.876  31.607  -6.095  1.00  0.00     0.028 A 
ENDBRANCH   1  16
BRANCH  15  29
HETATM   29  C13 UNL     1       6.341  30.887  -8.509  1.00  0.00    -0.025 A 
HETATM   30  C14 UNL     1       6.719  31.052  -7.209  1.00  0.00     0.012 A 
HETATM   31  C15 UNL     1       8.018  30.688  -6.795  1.00  0.00     0.003 A 
HETATM   32  C16 UNL     1       8.891  30.164  -7.736  1.00  0.00     0.026 A 
HETATM   33  C17 UNL     1       8.514  29.995  -9.044  1.00  0.00     0.047 A 
HETATM   34  N6  UNL     1       9.462  29.455  -9.941  1.00  0.00    -0.102 NA
HETATM   35  C18 UNL     1       7.223  30.368  -9.408  1.00  0.00     0.038 A 
ENDBRANCH  15  29
TORSDOF 2
ENDMDL
MODEL 3
REMARK VINA RESULT: -5.985065419      2.398      6.911
REMARK  2 active torsions:
REMARK  status: ('A' for Active; 'I' for Inactive)
REMARK    1  A    between atoms: C4_8  and  C5_9 
REMARK    2  A    between atoms: C12_23  and  C13_24 
ROOT
HETATM    1  C5  UNL     1       4.801  34.870  -7.042  1.00  0.00     0.139 A 
HETATM    2  C6  UNL     1       5.982  35.624  -6.620  1.00  0.00     0.090 A 
HETATM    3  N3  UNL     1       6.665  36.336  -7.503  1.00  0.00    -0.388 N 
ATOM      4  H31 UNL     1       7.489  36.861  -7.209  1.00  0.00     0.157 HD
ATOM      5  H32 UNL     1       6.359  36.352  -8.476  1.00  0.00     0.157 HD
HETATM    6  N4  UNL     1       6.405  35.601  -5.273  1.00  0.00    -0.344 N 
ATOM      7  H4  UNL     1       7.230  36.130  -4.993  1.00  0.00     0.167 HD
HETATM    8  C7  UNL     1       5.754  34.914  -4.396  1.00  0.00     0.061 A 
HETATM    9  C8  UNL     1       6.157  34.881  -3.068  1.00  0.00     0.033 A 
HETATM   10  C9  UNL     1       5.475  34.153  -2.119  1.00  0.00     0.019 A 
HETATM   11  C10 UNL     1       4.359  33.433  -2.484  1.00  0.00     0.088 A 
HETATM   12  N5  UNL     1       3.988  33.478  -3.764  1.00  0.00    -0.364 N 
ATOM     13  H5  UNL     1       3.162  32.947  -4.038  1.00  0.00     0.165 HD
HETATM   14  C11 UNL     1       4.638  34.187  -4.733  1.00  0.00     0.067 A 
HETATM   15  C12 UNL     1       4.164  34.145  -5.965  1.00  0.00    -0.002 A 
ENDROOT
BRANCH   1  16
HETATM   16  C4  UNL     1       5.048  34.047  -8.253  1.00  0.00     0.026 A 
HETATM   17  N2  UNL     1       4.612  32.785  -8.346  1.00  0.00    -0.343 N 
HETATM   18  C3  UNL     1       4.819  32.005  -9.432  1.00  0.00     0.134 A 
ATOM     19  H2  UNL     1       4.098  32.391  -7.558  1.00  0.00     0.167 HD
HETATM   20  N1  UNL     1       4.487  30.734  -9.759  1.00  0.00    -0.331 N 
HETATM   21  C21 UNL     1       5.511  32.511 -10.512  1.00  0.00     0.078 A 
HETATM   22  C2  UNL     1       4.932  30.427 -10.972  1.00  0.00     0.079 A 
ATOM     23  H1  UNL     1       3.966  30.098  -9.154  1.00  0.00     0.168 HD
HETATM   24  C1  UNL     1       4.815  29.167 -11.752  1.00  0.00     0.089 C 
HETATM   25  N7  UNL     1       5.568  31.522 -11.446  1.00  0.00    -0.343 N 
ATOM     26  H7  UNL     1       6.019  31.596 -12.358  1.00  0.00     0.167 HD
HETATM   27  C20 UNL     1       5.977  33.808 -10.455  1.00  0.00     0.035 A 
HETATM   28  C19 UNL     1       5.740  34.558  -9.328  1.00  0.00     0.028 A 
ENDBRANCH   1  16
BRANCH  15  29
HETATM   29  C13 UNL     1       2.962  33.323  -6.165  1.00  0.00    -0.025 A 
HETATM   30  C14 UNL     1       2.559  32.496  -5.159  1.00  0.00     0.012 A 
HETATM   31  C15 UNL     1       1.409  31.693  -5.316  1.00  0.00     0.003 A 
HETATM   32  C16 UNL     1       0.707  31.767  -6.510  1.00  0.00     0.026 A 
HETATM   33  C17 UNL     1       1.109  32.599  -7.524  1.00  0.00     0.047 A 
HETATM   34  N6  UNL     1       0.340  32.616  -8.710  1.00  0.00    -0.102 NA
HETATM   35  C18 UNL     1       2.249  33.372  -7.325  1.00  0.00     0.038 A 
ENDBRANCH  15  29
TORSDOF 2
ENDMDL
MODEL 4
REMARK VINA RESULT: -5.579580275      2.426      4.529
REMARK  2 active torsions:
REMARK  status: ('A' for Active; 'I' for Inactive)
REMARK    1  A    between atoms: C4_8  and  C5_9 
REMARK    2  A    between atoms: C12_23  and  C13_24 
ROOT
HETATM    1  C5  UNL     1       5.359  31.193  -7.188  1.00  0.00     0.139 A 
HETATM    2  C6  UNL     1       6.587  30.848  -7.905  1.00  0.00     0.090 A 
HETATM    3  N3  UNL     1       7.737  30.776  -7.254  1.00  0.00    -0.388 N 
ATOM      4  H31 UNL     1       8.594  30.536  -7.754  1.00  0.00     0.157 HD
ATOM      5  H32 UNL     1       7.758  30.964  -6.251  1.00  0.00     0.157 HD
HETATM    6  N4  UNL     1       6.559  30.588  -9.292  1.00  0.00    -0.344 N 
ATOM      7  H4  UNL     1       7.422  30.349  -9.780  1.00  0.00     0.167 HD
HETATM    8  C7  UNL     1       5.449  30.652  -9.947  1.00  0.00     0.061 A 
HETATM    9  C8  UNL     1       5.405  30.400 -11.311  1.00  0.00     0.033 A 
HETATM   10  C9  UNL     1       4.230  30.464 -12.025  1.00  0.00     0.019 A 
HETATM   11  C10 UNL     1       3.056  30.787 -11.380  1.00  0.00     0.088 A 
HETATM   12  N5  UNL     1       3.120  31.025 -10.069  1.00  0.00    -0.364 N 
ATOM     13  H5  UNL     1       2.253  31.264  -9.587  1.00  0.00     0.165 HD
HETATM   14  C11 UNL     1       4.265  30.972  -9.327  1.00  0.00     0.067 A 
HETATM   15  C12 UNL     1       4.187  31.231  -8.035  1.00  0.00    -0.002 A 
ENDROOT
BRANCH   1  16
HETATM   16  C4  UNL     1       5.515  32.395  -6.330  1.00  0.00     0.026 A 
HETATM   17  N2  UNL     1       5.246  32.363  -5.019  1.00  0.00    -0.343 N 
HETATM   18  C3  UNL     1       5.377  33.437  -4.207  1.00  0.00     0.134 A 
ATOM     19  H2  UNL     1       4.926  31.484  -4.611  1.00  0.00     0.167 HD
HETATM   20  N1  UNL     1       5.173  33.653  -2.886  1.00  0.00    -0.331 N 
HETATM   21  C21 UNL     1       5.807  34.639  -4.730  1.00  0.00     0.078 A 
HETATM   22  C2  UNL     1       5.451  34.911  -2.564  1.00  0.00     0.079 A 
ATOM     23  H1  UNL     1       4.848  32.945  -2.227  1.00  0.00     0.168 HD
HETATM   24  C1  UNL     1       5.381  35.610  -1.255  1.00  0.00     0.089 C 
HETATM   25  N7  UNL     1       5.844  35.529  -3.701  1.00  0.00    -0.343 N 
ATOM     26  H7  UNL     1       6.124  36.507  -3.776  1.00  0.00     0.167 HD
HETATM   27  C20 UNL     1       6.095  34.712  -6.077  1.00  0.00     0.035 A 
HETATM   28  C19 UNL     1       5.946  33.591  -6.858  1.00  0.00     0.028 A 
ENDBRANCH   1  16
BRANCH  15  29
HETATM   29  C13 UNL     1       2.849  31.556  -7.521  1.00  0.00    -0.025 A 
HETATM   30  C14 UNL     1       2.645  31.548  -6.173  1.00  0.00     0.012 A 
HETATM   31  C15 UNL     1       1.373  31.855  -5.645  1.00  0.00     0.003 A 
HETATM   32  C16 UNL     1       0.346  32.162  -6.525  1.00  0.00     0.026 A 
HETATM   33  C17 UNL     1       0.548  32.172  -7.882  1.00  0.00     0.047 A 
HETATM   34  N6  UNL     1      -0.550  32.495  -8.712  1.00  0.00    -0.102 NA
HETATM   35  C18 UNL     1       1.819  31.862  -8.359  1.00  0.00     0.038 A 
ENDBRANCH  15  29
TORSDOF 2
ENDMDL
MODEL 5
REMARK VINA RESULT: -5.176878255      2.045      6.916
REMARK  2 active torsions:
REMARK  status: ('A' for Active; 'I' for Inactive)
REMARK    1  A    between atoms: C4_8  and  C5_9 
REMARK    2  A    between atoms: C12_23  and  C13_24 
ROOT
HETATM    1  C5  UNL     1       4.599  33.674  -8.687  1.00  0.00     0.139 A 
HETATM    2  C6  UNL     1       5.633  34.456  -9.366  1.00  0.00     0.090 A 
HETATM    3  N3  UNL     1       5.793  34.348 -10.675  1.00  0.00    -0.388 N 
ATOM      4  H31 UNL     1       6.514  34.893 -11.149  1.00  0.00     0.157 HD
ATOM      5  H32 UNL     1       5.191  33.715 -11.203  1.00  0.00     0.157 HD
HETATM    6  N4  UNL     1       6.466  35.331  -8.636  1.00  0.00    -0.344 N 
ATOM      7  H4  UNL     1       7.182  35.871  -9.122  1.00  0.00     0.167 HD
HETATM    8  C7  UNL     1       6.327  35.453  -7.359  1.00  0.00     0.061 A 
HETATM    9  C8  UNL     1       7.138  36.309  -6.627  1.00  0.00     0.033 A 
HETATM   10  C9  UNL     1       7.004  36.451  -5.265  1.00  0.00     0.019 A 
HETATM   11  C10 UNL     1       6.041  35.729  -4.595  1.00  0.00     0.088 A 
HETATM   12  N5  UNL     1       5.271  34.912  -5.317  1.00  0.00    -0.364 N 
ATOM     13  H5  UNL     1       4.556  34.375  -4.825  1.00  0.00     0.165 HD
HETATM   14  C11 UNL     1       5.374  34.744  -6.667  1.00  0.00     0.067 A 
HETATM   15  C12 UNL     1       4.548  33.901  -7.259  1.00  0.00    -0.002 A 
ENDROOT
BRANCH   1  16
HETATM   16  C4  UNL     1       4.629  32.237  -9.062  1.00  0.00     0.026 A 
HETATM   17  N2  UNL     1       3.728  31.711  -9.901  1.00  0.00    -0.343 N 
HETATM   18  C3  UNL     1       3.724  30.409 -10.265  1.00  0.00     0.134 A 
ATOM     19  H2  UNL     1       3.008  32.323 -10.285  1.00  0.00     0.167 HD
HETATM   20  N1  UNL     1       2.941  29.657 -11.075  1.00  0.00    -0.331 N 
HETATM   21  C21 UNL     1       4.685  29.557  -9.762  1.00  0.00     0.078 A 
HETATM   22  C2  UNL     1       3.361  28.397 -11.101  1.00  0.00     0.079 A 
ATOM     23  H1  UNL     1       2.137  30.010 -11.594  1.00  0.00     0.168 HD
HETATM   24  C1  UNL     1       2.832  27.218 -11.835  1.00  0.00     0.089 C 
HETATM   25  N7  UNL     1       4.441  28.326 -10.290  1.00  0.00    -0.343 N 
ATOM     26  H7  UNL     1       4.986  27.485 -10.103  1.00  0.00     0.167 HD
HETATM   27  C20 UNL     1       5.631  30.061  -8.894  1.00  0.00     0.035 A 
HETATM   28  C19 UNL     1       5.591  31.393  -8.556  1.00  0.00     0.028 A 
ENDBRANCH   1  16
BRANCH  15  29
HETATM   29  C13 UNL     1       3.585  33.220  -6.383  1.00  0.00    -0.025 A 
HETATM   30  C14 UNL     1       2.299  33.072  -6.812  1.00  0.00     0.012 A 
HETATM   31  C15 UNL     1       1.348  32.423  -5.997  1.00  0.00     0.003 A 
HETATM   32  C16 UNL     1       1.752  31.943  -4.760  1.00  0.00     0.026 A 
HETATM   33  C17 UNL     1       3.045  32.089  -4.325  1.00  0.00     0.047 A 
HETATM   34  N6  UNL     1       3.377  31.572  -3.053  1.00  0.00    -0.102 NA
HETATM   35  C18 UNL     1       3.949  32.736  -5.162  1.00  0.00     0.038 A 
ENDBRANCH  15  29
TORSDOF 2
ENDMDL
