MODEL 1
REMARK VINA RESULT: -6.602659636      0.000      0.000
REMARK  3 active torsions:
REMARK  status: ('A' for Active; 'I' for Inactive)
REMARK    1  A    between atoms: C7_9  and  C8_10 
REMARK    2  A    between atoms: C10_12  and  C11_13 
REMARK    3  A    between atoms: C18_21  and  N3_22 
REMARK       I    between atoms: N3_22  and  C19_24 
ROOT
HETATM    1  C1  UNL     1       5.660  35.979  -5.917  1.00  0.00     0.103 C 
HETATM    2  C2  UNL     1       5.576  35.414  -4.828  1.00  0.00    -0.148 C 
HETATM    3  C3  UNL     1       5.494  34.790  -3.540  1.00  0.00     0.019 A 
HETATM    4  C4  UNL     1       5.979  35.456  -2.411  1.00  0.00     0.037 A 
HETATM    5  C5  UNL     1       5.893  34.843  -1.193  1.00  0.00     0.089 A 
HETATM    6  N1  UNL     1       5.341  33.598  -1.074  1.00  0.00    -0.374 N 
ATOM      7  H1  UNL     1       5.290  33.166  -0.151  1.00  0.00     0.164 HD
HETATM    8  C6  UNL     1       4.870  32.932  -2.124  1.00  0.00     0.102 A 
HETATM    9  C7  UNL     1       4.953  33.549  -3.377  1.00  0.00     0.026 A 
ENDROOT
BRANCH   9  10
HETATM   10  C8  UNL     1       4.432  32.806  -4.516  1.00  0.00     0.070 A 
HETATM   11  C9  UNL     1       5.171  32.261  -5.568  1.00  0.00     0.074 A 
HETATM   12  C10 UNL     1       4.293  31.645  -6.426  1.00  0.00     0.127 A 
HETATM   13  O1  UNL     1       3.097  31.807  -5.926  1.00  0.00    -0.235 OA
HETATM   14  N7  UNL     1       3.167  32.478  -4.819  1.00  0.00    -0.260 N 
ATOM     15  H7  UNL     1       2.359  32.727  -4.248  1.00  0.00     0.195 HD
BRANCH  12  16
HETATM   16  C11 UNL     1       4.663  30.946  -7.663  1.00  0.00     0.072 A 
HETATM   17  C12 UNL     1       3.820  30.976  -8.752  1.00  0.00     0.063 A 
HETATM   18  C13 UNL     1       4.147  30.322  -9.935  1.00  0.00     0.050 A 
HETATM   19  C14 UNL     1       5.365  29.639  -9.959  1.00  0.00     0.036 A 
HETATM   20  N2  UNL     1       3.552  30.170 -11.133  1.00  0.00    -0.360 N 
HETATM   21  C15 UNL     1       5.454  29.081 -11.230  1.00  0.00     0.034 A 
HETATM   22  C18 UNL     1       6.199  29.616  -8.864  1.00  0.00     0.120 A 
HETATM   23  C16 UNL     1       4.330  29.422 -11.929  1.00  0.00     0.092 A 
HETATM   24  N6  UNL     1       5.822  30.265  -7.763  1.00  0.00    -0.339 N 
ATOM     25  H6  UNL     1       6.442  30.245  -6.953  1.00  0.00     0.167 HD
HETATM   26  C17 UNL     1       2.268  30.740 -11.481  1.00  0.00     0.155 C 
BRANCH  22  27
HETATM   27  N3  UNL     1       7.306  28.973  -8.943  1.00  0.00    -0.316 N 
HETATM   28  C19 UNL     1       8.582  29.512  -8.764  1.00  0.00     0.187 C 
HETATM   29  N4  UNL     1       9.039  29.997  -7.673  1.00  0.00    -0.373 N 
HETATM   30  N5  UNL     1       9.469  29.527  -9.894  1.00  0.00    -0.064 NA
ATOM     31  H42 UNL     1       8.409  29.985  -6.870  1.00  0.00     0.158 HD
ATOM     32  H41 UNL     1       9.970  30.390  -7.542  1.00  0.00     0.158 HD
ATOM     33  H3  UNL     1       7.250  27.977  -9.155  1.00  0.00     0.170 HD
ENDBRANCH  22  27
ENDBRANCH  12  16
ENDBRANCH   9  10
TORSDOF 3
ENDMDL
MODEL 2
REMARK VINA RESULT: -5.123867176      2.455      3.062
REMARK  3 active torsions:
REMARK  status: ('A' for Active; 'I' for Inactive)
REMARK    1  A    between atoms: C7_9  and  C8_10 
REMARK    2  A    between atoms: C10_12  and  C11_13 
REMARK    3  A    between atoms: C18_21  and  N3_22 
REMARK       I    between atoms: N3_22  and  C19_24 
ROOT
HETATM    1  C1  UNL     1       6.356  36.165  -5.443  1.00  0.00     0.103 C 
HETATM    2  C2  UNL     1       5.989  35.405  -4.550  1.00  0.00    -0.148 C 
HETATM    3  C3  UNL     1       5.588  34.538  -3.480  1.00  0.00     0.019 A 
HETATM    4  C4  UNL     1       6.160  34.683  -2.214  1.00  0.00     0.037 A 
HETATM    5  C5  UNL     1       5.764  33.847  -1.209  1.00  0.00     0.089 A 
HETATM    6  N1  UNL     1       4.823  32.881  -1.433  1.00  0.00    -0.374 N 
ATOM      7  H1  UNL     1       4.547  32.271  -0.663  1.00  0.00     0.164 HD
HETATM    8  C6  UNL     1       4.257  32.711  -2.623  1.00  0.00     0.102 A 
HETATM    9  C7  UNL     1       4.653  33.561  -3.661  1.00  0.00     0.026 A 
ENDROOT
BRANCH   9  10
HETATM   10  C8  UNL     1       4.022  33.362  -4.959  1.00  0.00     0.070 A 
HETATM   11  C9  UNL     1       4.628  32.866  -6.115  1.00  0.00     0.074 A 
HETATM   12  C10 UNL     1       3.679  32.840  -7.108  1.00  0.00     0.127 A 
HETATM   13  O1  UNL     1       2.570  33.291  -6.587  1.00  0.00    -0.235 OA
HETATM   14  N7  UNL     1       2.759  33.596  -5.341  1.00  0.00    -0.260 N 
ATOM     15  H7  UNL     1       2.034  33.969  -4.727  1.00  0.00     0.195 HD
BRANCH  12  16
HETATM   16  C11 UNL     1       3.905  32.383  -8.486  1.00  0.00     0.072 A 
HETATM   17  C12 UNL     1       4.778  33.066  -9.304  1.00  0.00     0.063 A 
HETATM   18  C13 UNL     1       5.010  32.655 -10.613  1.00  0.00     0.050 A 
HETATM   19  C14 UNL     1       4.315  31.523 -11.048  1.00  0.00     0.036 A 
HETATM   20  N2  UNL     1       5.778  33.096 -11.627  1.00  0.00    -0.360 N 
HETATM   21  C15 UNL     1       4.714  31.325 -12.366  1.00  0.00     0.034 A 
HETATM   22  C18 UNL     1       3.445  30.851 -10.221  1.00  0.00     0.120 A 
HETATM   23  C16 UNL     1       5.611  32.302 -12.695  1.00  0.00     0.092 A 
HETATM   24  N6  UNL     1       3.271  31.301  -8.979  1.00  0.00    -0.339 N 
ATOM     25  H6  UNL     1       2.624  30.800  -8.369  1.00  0.00     0.167 HD
HETATM   26  C17 UNL     1       6.642  34.253 -11.546  1.00  0.00     0.155 C 
BRANCH  22  27
HETATM   27  N3  UNL     1       2.833  29.818 -10.673  1.00  0.00    -0.316 N 
HETATM   28  C19 UNL     1       3.343  28.519 -10.722  1.00  0.00     0.187 C 
HETATM   29  N4  UNL     1       3.636  27.796  -9.709  1.00  0.00    -0.373 N 
HETATM   30  N5  UNL     1       3.560  27.931 -12.015  1.00  0.00    -0.064 NA
ATOM     31  H42 UNL     1       3.482  28.214  -8.791  1.00  0.00     0.158 HD
ATOM     32  H41 UNL     1       4.009  26.848  -9.745  1.00  0.00     0.158 HD
ATOM     33  H3  UNL     1       1.888  29.958 -11.031  1.00  0.00     0.170 HD
ENDBRANCH  22  27
ENDBRANCH  12  16
ENDBRANCH   9  10
TORSDOF 3
ENDMDL
MODEL 3
REMARK VINA RESULT: -4.979384094      1.063      1.848
REMARK  3 active torsions:
REMARK  status: ('A' for Active; 'I' for Inactive)
REMARK    1  A    between atoms: C7_9  and  C8_10 
REMARK    2  A    between atoms: C10_12  and  C11_13 
REMARK    3  A    between atoms: C18_21  and  N3_22 
REMARK       I    between atoms: N3_22  and  C19_24 
ROOT
HETATM    1  C1  UNL     1       3.658  31.190  -2.671  1.00  0.00     0.103 C 
HETATM    2  C2  UNL     1       4.246  32.270  -2.682  1.00  0.00    -0.148 C 
HETATM    3  C3  UNL     1       4.937  33.526  -2.652  1.00  0.00     0.019 A 
HETATM    4  C4  UNL     1       5.383  34.047  -1.435  1.00  0.00     0.037 A 
HETATM    5  C5  UNL     1       6.039  35.246  -1.429  1.00  0.00     0.089 A 
HETATM    6  N1  UNL     1       6.258  35.929  -2.592  1.00  0.00    -0.374 N 
ATOM      7  H1  UNL     1       6.751  36.822  -2.556  1.00  0.00     0.164 HD
HETATM    8  C6  UNL     1       5.848  35.467  -3.770  1.00  0.00     0.102 A 
HETATM    9  C7  UNL     1       5.175  34.240  -3.789  1.00  0.00     0.026 A 
ENDROOT
BRANCH   9  10
HETATM   10  C8  UNL     1       4.733  33.749  -5.087  1.00  0.00     0.070 A 
HETATM   11  C9  UNL     1       5.286  32.692  -5.813  1.00  0.00     0.074 A 
HETATM   12  C10 UNL     1       4.571  32.562  -6.979  1.00  0.00     0.127 A 
HETATM   13  O1  UNL     1       3.645  33.483  -6.961  1.00  0.00    -0.235 OA
HETATM   14  N7  UNL     1       3.731  34.176  -5.869  1.00  0.00    -0.260 N 
ATOM     15  H7  UNL     1       3.111  34.951  -5.633  1.00  0.00     0.195 HD
BRANCH  12  16
HETATM   16  C11 UNL     1       4.828  31.564  -8.026  1.00  0.00     0.072 A 
HETATM   17  C12 UNL     1       3.933  31.405  -9.061  1.00  0.00     0.063 A 
HETATM   18  C13 UNL     1       4.152  30.467 -10.065  1.00  0.00     0.050 A 
HETATM   19  C14 UNL     1       5.317  29.703  -9.966  1.00  0.00     0.036 A 
HETATM   20  N2  UNL     1       3.487  30.086 -11.172  1.00  0.00    -0.360 N 
HETATM   21  C15 UNL     1       5.301  28.856 -11.070  1.00  0.00     0.034 A 
HETATM   22  C18 UNL     1       6.202  29.871  -8.927  1.00  0.00     0.120 A 
HETATM   23  C16 UNL     1       4.169  29.113 -11.792  1.00  0.00     0.092 A 
HETATM   24  N6  UNL     1       5.929  30.788  -7.999  1.00  0.00    -0.339 N 
ATOM     25  H6  UNL     1       6.588  30.909  -7.229  1.00  0.00     0.167 HD
HETATM   26  C17 UNL     1       2.230  30.659 -11.602  1.00  0.00     0.155 C 
BRANCH  22  27
HETATM   27  N3  UNL     1       7.257  29.141  -8.887  1.00  0.00    -0.316 N 
HETATM   28  C19 UNL     1       8.564  29.597  -8.708  1.00  0.00     0.187 C 
HETATM   29  N4  UNL     1       9.018  30.162  -7.655  1.00  0.00    -0.373 N 
HETATM   30  N5  UNL     1       9.490  29.423  -9.793  1.00  0.00    -0.064 NA
ATOM     31  H42 UNL     1       8.360  30.286  -6.885  1.00  0.00     0.158 HD
ATOM     32  H41 UNL     1       9.973  30.495  -7.525  1.00  0.00     0.158 HD
ATOM     33  H3  UNL     1       7.128  28.135  -8.996  1.00  0.00     0.170 HD
ENDBRANCH  22  27
ENDBRANCH  12  16
ENDBRANCH   9  10
TORSDOF 3
ENDMDL
MODEL 4
REMARK VINA RESULT: -4.618725381      1.613      2.027
REMARK  3 active torsions:
REMARK  status: ('A' for Active; 'I' for Inactive)
REMARK    1  A    between atoms: C7_9  and  C8_10 
REMARK    2  A    between atoms: C10_12  and  C11_13 
REMARK    3  A    between atoms: C18_21  and  N3_22 
REMARK       I    between atoms: N3_22  and  C19_24 
ROOT
HETATM    1  C1  UNL     1       2.199  32.859  -4.675  1.00  0.00     0.103 C 
HETATM    2  C2  UNL     1       3.146  33.447  -4.156  1.00  0.00    -0.148 C 
HETATM    3  C3  UNL     1       4.229  34.132  -3.514  1.00  0.00     0.019 A 
HETATM    4  C4  UNL     1       4.136  34.469  -2.161  1.00  0.00     0.037 A 
HETATM    5  C5  UNL     1       5.178  35.122  -1.568  1.00  0.00     0.089 A 
HETATM    6  N1  UNL     1       6.299  35.444  -2.282  1.00  0.00    -0.374 N 
ATOM      7  H1  UNL     1       7.062  35.931  -1.811  1.00  0.00     0.164 HD
HETATM    8  C6  UNL     1       6.425  35.141  -3.570  1.00  0.00     0.102 A 
HETATM    9  C7  UNL     1       5.364  34.472  -4.189  1.00  0.00     0.026 A 
ENDROOT
BRANCH   9  10
HETATM   10  C8  UNL     1       5.519  34.148  -5.601  1.00  0.00     0.070 A 
HETATM   11  C9  UNL     1       5.401  32.886  -6.186  1.00  0.00     0.074 A 
HETATM   12  C10 UNL     1       5.622  33.025  -7.535  1.00  0.00     0.127 A 
HETATM   13  O1  UNL     1       5.861  34.290  -7.751  1.00  0.00    -0.235 OA
HETATM   14  N7  UNL     1       5.804  34.950  -6.637  1.00  0.00    -0.260 N 
ATOM     15  H7  UNL     1       5.956  35.956  -6.558  1.00  0.00     0.195 HD
BRANCH  12  16
HETATM   16  C11 UNL     1       5.589  31.934  -8.518  1.00  0.00     0.072 A 
HETATM   17  C12 UNL     1       4.458  31.722  -9.275  1.00  0.00     0.063 A 
HETATM   18  C13 UNL     1       4.401  30.696 -10.212  1.00  0.00     0.050 A 
HETATM   19  C14 UNL     1       5.541  29.900 -10.343  1.00  0.00     0.036 A 
HETATM   20  N2  UNL     1       3.470  30.248 -11.076  1.00  0.00    -0.360 N 
HETATM   21  C15 UNL     1       5.233  28.965 -11.326  1.00  0.00     0.034 A 
HETATM   22  C18 UNL     1       6.665  30.122  -9.580  1.00  0.00     0.120 A 
HETATM   23  C16 UNL     1       3.957  29.201 -11.758  1.00  0.00     0.092 A 
HETATM   24  N6  UNL     1       6.650  31.123  -8.701  1.00  0.00    -0.339 N 
ATOM     25  H6  UNL     1       7.485  31.284  -8.137  1.00  0.00     0.167 HD
HETATM   26  C17 UNL     1       2.153  30.829 -11.224  1.00  0.00     0.155 C 
BRANCH  22  27
HETATM   27  N3  UNL     1       7.684  29.360  -9.742  1.00  0.00    -0.316 N 
HETATM   28  C19 UNL     1       8.939  29.532  -9.154  1.00  0.00     0.187 C 
HETATM   29  N4  UNL     1       9.190  29.460  -7.902  1.00  0.00    -0.373 N 
HETATM   30  N5  UNL     1      10.053  29.813 -10.017  1.00  0.00    -0.064 NA
ATOM     31  H42 UNL     1       8.399  29.260  -7.289  1.00  0.00     0.158 HD
ATOM     32  H41 UNL     1      10.106  29.585  -7.473  1.00  0.00     0.158 HD
ATOM     33  H3  UNL     1       7.568  28.555 -10.358  1.00  0.00     0.170 HD
ENDBRANCH  22  27
ENDBRANCH  12  16
ENDBRANCH   9  10
TORSDOF 3
ENDMDL
MODEL 5
REMARK VINA RESULT: -4.204947768      1.952      2.371
REMARK  3 active torsions:
REMARK  status: ('A' for Active; 'I' for Inactive)
REMARK    1  A    between atoms: C7_9  and  C8_10 
REMARK    2  A    between atoms: C10_12  and  C11_13 
REMARK    3  A    between atoms: C18_21  and  N3_22 
REMARK       I    between atoms: N3_22  and  C19_24 
ROOT
HETATM    1  C1  UNL     1       5.208  35.665  -5.943  1.00  0.00     0.103 C 
HETATM    2  C2  UNL     1       5.207  35.039  -4.885  1.00  0.00    -0.148 C 
HETATM    3  C3  UNL     1       5.220  34.344  -3.630  1.00  0.00     0.019 A 
HETATM    4  C4  UNL     1       5.659  34.998  -2.477  1.00  0.00     0.037 A 
HETATM    5  C5  UNL     1       5.664  34.318  -1.292  1.00  0.00     0.089 A 
HETATM    6  N1  UNL     1       5.247  33.017  -1.230  1.00  0.00    -0.374 N 
ATOM      7  H1  UNL     1       5.262  32.536  -0.331  1.00  0.00     0.164 HD
HETATM    8  C6  UNL     1       4.823  32.361  -2.306  1.00  0.00     0.102 A 
HETATM    9  C7  UNL     1       4.813  33.047  -3.525  1.00  0.00     0.026 A 
ENDROOT
BRANCH   9  10
HETATM   10  C8  UNL     1       4.345  32.313  -4.693  1.00  0.00     0.070 A 
HETATM   11  C9  UNL     1       4.997  32.194  -5.922  1.00  0.00     0.074 A 
HETATM   12  C10 UNL     1       4.213  31.419  -6.742  1.00  0.00     0.127 A 
HETATM   13  O1  UNL     1       3.154  31.090  -6.053  1.00  0.00    -0.235 OA
HETATM   14  N7  UNL     1       3.221  31.603  -4.865  1.00  0.00    -0.260 N 
ATOM     15  H7  UNL     1       2.506  31.481  -4.147  1.00  0.00     0.195 HD
BRANCH  12  16
HETATM   16  C11 UNL     1       4.537  31.050  -8.126  1.00  0.00     0.072 A 
HETATM   17  C12 UNL     1       3.981  29.922  -8.687  1.00  0.00     0.063 A 
HETATM   18  C13 UNL     1       4.272  29.550  -9.996  1.00  0.00     0.050 A 
HETATM   19  C14 UNL     1       5.149  30.375 -10.703  1.00  0.00     0.036 A 
HETATM   20  N2  UNL     1       3.901  28.536 -10.801  1.00  0.00    -0.360 N 
HETATM   21  C15 UNL     1       5.273  29.796 -11.962  1.00  0.00     0.034 A 
HETATM   22  C18 UNL     1       5.698  31.500 -10.131  1.00  0.00     0.120 A 
HETATM   23  C16 UNL     1       4.498  28.670 -11.994  1.00  0.00     0.092 A 
HETATM   24  N6  UNL     1       5.376  31.796  -8.872  1.00  0.00    -0.339 N 
ATOM     25  H6  UNL     1       5.785  32.631  -8.451  1.00  0.00     0.167 HD
HETATM   26  C17 UNL     1       2.994  27.479 -10.411  1.00  0.00     0.155 C 
BRANCH  22  27
HETATM   27  N3  UNL     1       6.498  32.222 -10.828  1.00  0.00    -0.316 N 
HETATM   28  C19 UNL     1       6.203  33.467 -11.386  1.00  0.00     0.187 C 
HETATM   29  N4  UNL     1       5.946  34.535 -10.731  1.00  0.00    -0.373 N 
HETATM   30  N5  UNL     1       6.185  33.573 -12.819  1.00  0.00    -0.064 NA
ATOM     31  H42 UNL     1       5.958  34.460  -9.714  1.00  0.00     0.158 HD
ATOM     32  H41 UNL     1       5.731  35.444 -11.140  1.00  0.00     0.158 HD
ATOM     33  H3  UNL     1       7.435  31.852 -10.988  1.00  0.00     0.170 HD
ENDBRANCH  22  27
ENDBRANCH  12  16
ENDBRANCH   9  10
TORSDOF 3
ENDMDL
