MODEL 1
REMARK VINA RESULT: -8.080818450      0.000      0.000
REMARK  5 active torsions:
REMARK  status: ('A' for Active; 'I' for Inactive)
REMARK    1  A    between atoms: N1_2  and  C2_4 
REMARK    2  A    between atoms: C3_7  and  N3_8 
REMARK    3  A    between atoms: N3_8  and  C4_10 
REMARK    4  A    between atoms: C8_19  and  N7_20 
REMARK    5  A    between atoms: N7_20  and  C9_22 
ROOT
HETATM    1  C2  UNL     1       3.584  30.550 -10.387  1.00  0.00     0.706 A 
HETATM    2  N2  UNL     1       4.925  30.541 -10.642  1.00  0.00    -0.021 N 
ATOM      3  H2  UNL     1       5.314  29.861 -11.295  1.00  0.00     0.203 HD
HETATM    4  C3  UNL     1       5.732  31.426 -10.032  1.00  0.00     0.713 A 
HETATM    5  N6  UNL     1       5.179  32.303  -9.180  1.00  0.00    -0.021 N 
ATOM      6  H6  UNL     1       5.787  32.977  -8.714  1.00  0.00     0.203 HD
HETATM    7  C8  UNL     1       3.862  32.336  -8.910  1.00  0.00     0.711 A 
HETATM    8  N8  UNL     1       3.074  31.444  -9.528  1.00  0.00    -0.021 N 
ATOM      9  H8  UNL     1       2.071  31.445  -9.342  1.00  0.00     0.203 HD
ENDROOT
BRANCH   7  10
HETATM   10  N7  UNL     1       3.399  33.209  -8.077  1.00  0.00    -0.190 N 
ATOM     11  H7  UNL     1       2.808  33.957  -8.438  1.00  0.00     0.184 HD
BRANCH  10  12
HETATM   12  C9  UNL     1       3.670  33.180  -6.694  1.00  0.00     0.056 A 
HETATM   13  C10 UNL     1       3.033  32.255  -5.894  1.00  0.00     0.031 A 
HETATM   14  C11 UNL     1       3.268  32.192  -4.537  1.00  0.00     0.014 A 
HETATM   15  C12 UNL     1       4.167  33.079  -3.951  1.00  0.00    -0.025 A 
HETATM   16  C13 UNL     1       4.432  33.053  -2.605  1.00  0.00     0.012 A 
HETATM   17  C17 UNL     1       4.821  34.017  -4.727  1.00  0.00    -0.018 A 
HETATM   18  C14 UNL     1       5.326  33.925  -1.991  1.00  0.00     0.001 A 
HETATM   19  C15 UNL     1       5.978  34.865  -2.777  1.00  0.00     0.001 A 
HETATM   20  C16 UNL     1       5.708  34.886  -4.129  1.00  0.00     0.013 A 
HETATM   21  C18 UNL     1       4.556  34.045  -6.086  1.00  0.00    -0.024 A 
HETATM   22  C19 UNL     1       5.248  35.040  -6.914  1.00  0.00     0.051 C 
ENDBRANCH  10  12
ENDBRANCH   7  10
BRANCH   4  23
HETATM   23  N3  UNL     1       6.996  31.423 -10.266  1.00  0.00    -0.174 N 
ATOM     24  H3  UNL     1       7.405  32.134 -10.872  1.00  0.00     0.186 HD
BRANCH  23  25
HETATM   25  C4  UNL     1       7.821  30.428  -9.675  1.00  0.00     0.137 A 
HETATM   26  C5  UNL     1       7.338  29.419  -8.854  1.00  0.00     0.140 A 
HETATM   27  N4  UNL     1       8.384  28.688  -8.496  1.00  0.00    -0.354 N 
HETATM   28  C6  UNL     1       8.393  27.517  -7.639  1.00  0.00     0.156 C 
HETATM   29  C7  UNL     1       9.484  29.198  -9.053  1.00  0.00     0.183 A 
HETATM   30  N5  UNL     1       9.142  30.260  -9.773  1.00  0.00    -0.337 N 
ATOM     31  H5  UNL     1       9.779  30.847 -10.311  1.00  0.00     0.168 HD
ENDBRANCH  23  25
ENDBRANCH   4  23
BRANCH   1  32
HETATM   32  N1  UNL     1       2.858  29.669 -11.007  1.00  0.00    -0.229 N 
HETATM   33  C1  UNL     1       3.471  28.381 -11.266  1.00  0.00     0.165 C 
ATOM     34  H1  UNL     1       1.902  29.875 -11.298  1.00  0.00     0.177 HD
ENDBRANCH   1  32
TORSDOF 5
ENDMDL
MODEL 2
REMARK VINA RESULT: -7.936393431      0.482      1.592
REMARK  5 active torsions:
REMARK  status: ('A' for Active; 'I' for Inactive)
REMARK    1  A    between atoms: N1_2  and  C2_4 
REMARK    2  A    between atoms: C3_7  and  N3_8 
REMARK    3  A    between atoms: N3_8  and  C4_10 
REMARK    4  A    between atoms: C8_19  and  N7_20 
REMARK    5  A    between atoms: N7_20  and  C9_22 
ROOT
HETATM    1  C2  UNL     1       3.551  30.469 -10.410  1.00  0.00     0.706 A 
HETATM    2  N2  UNL     1       4.896  30.503 -10.637  1.00  0.00    -0.021 N 
ATOM      3  H2  UNL     1       5.321  29.835 -11.280  1.00  0.00     0.203 HD
HETATM    4  C3  UNL     1       5.661  31.416 -10.014  1.00  0.00     0.713 A 
HETATM    5  N6  UNL     1       5.062  32.277  -9.177  1.00  0.00    -0.021 N 
ATOM      6  H6  UNL     1       5.638  32.972  -8.701  1.00  0.00     0.203 HD
HETATM    7  C8  UNL     1       3.739  32.267  -8.935  1.00  0.00     0.711 A 
HETATM    8  N8  UNL     1       2.994  31.348  -9.565  1.00  0.00    -0.021 N 
ATOM      9  H8  UNL     1       1.987  31.317  -9.400  1.00  0.00     0.203 HD
ENDROOT
BRANCH   7  10
HETATM   10  N7  UNL     1       3.231  33.127  -8.115  1.00  0.00    -0.190 N 
ATOM     11  H7  UNL     1       2.291  33.476  -8.300  1.00  0.00     0.184 HD
BRANCH  10  12
HETATM   12  C9  UNL     1       3.909  33.608  -6.977  1.00  0.00     0.056 A 
HETATM   13  C10 UNL     1       4.792  34.660  -7.102  1.00  0.00     0.031 A 
HETATM   14  C11 UNL     1       5.477  35.160  -6.015  1.00  0.00     0.014 A 
HETATM   15  C12 UNL     1       5.279  34.598  -4.758  1.00  0.00    -0.025 A 
HETATM   16  C13 UNL     1       5.938  35.064  -3.648  1.00  0.00     0.012 A 
HETATM   17  C17 UNL     1       4.400  33.543  -4.600  1.00  0.00    -0.018 A 
HETATM   18  C14 UNL     1       5.761  34.523  -2.377  1.00  0.00     0.001 A 
HETATM   19  C15 UNL     1       4.878  33.463  -2.228  1.00  0.00     0.001 A 
HETATM   20  C16 UNL     1       4.219  33.000  -3.347  1.00  0.00     0.013 A 
HETATM   21  C18 UNL     1       3.734  33.071  -5.717  1.00  0.00    -0.024 A 
HETATM   22  C19 UNL     1       2.800  31.950  -5.555  1.00  0.00     0.051 C 
ENDBRANCH  10  12
ENDBRANCH   7  10
BRANCH   4  23
HETATM   23  N3  UNL     1       6.929  31.454 -10.222  1.00  0.00    -0.174 N 
ATOM     24  H3  UNL     1       7.330  32.189 -10.804  1.00  0.00     0.186 HD
BRANCH  23  25
HETATM   25  C4  UNL     1       7.770  30.469  -9.636  1.00  0.00     0.137 A 
HETATM   26  C5  UNL     1       7.298  29.418  -8.863  1.00  0.00     0.140 A 
HETATM   27  N4  UNL     1       8.358  28.713  -8.494  1.00  0.00    -0.354 N 
HETATM   28  C6  UNL     1       8.381  27.516  -7.675  1.00  0.00     0.156 C 
HETATM   29  C7  UNL     1       9.456  29.278  -9.000  1.00  0.00     0.183 A 
HETATM   30  N5  UNL     1       9.098  30.350  -9.697  1.00  0.00    -0.337 N 
ATOM     31  H5  UNL     1       9.731  30.976 -10.195  1.00  0.00     0.168 HD
ENDBRANCH  23  25
ENDBRANCH   4  23
BRANCH   1  32
HETATM   32  N1  UNL     1       2.867  29.563 -11.042  1.00  0.00    -0.229 N 
HETATM   33  C1  UNL     1       3.525  28.292 -11.277  1.00  0.00     0.165 C 
ATOM     34  H1  UNL     1       1.913  29.737 -11.358  1.00  0.00     0.177 HD
ENDBRANCH   1  32
TORSDOF 5
ENDMDL
MODEL 3
REMARK VINA RESULT: -7.820909998      1.211      2.018
REMARK  5 active torsions:
REMARK  status: ('A' for Active; 'I' for Inactive)
REMARK    1  A    between atoms: N1_2  and  C2_4 
REMARK    2  A    between atoms: C3_7  and  N3_8 
REMARK    3  A    between atoms: N3_8  and  C4_10 
REMARK    4  A    between atoms: C8_19  and  N7_20 
REMARK    5  A    between atoms: N7_20  and  C9_22 
ROOT
HETATM    1  C2  UNL     1       4.857  32.669 -11.002  1.00  0.00     0.706 A 
HETATM    2  N2  UNL     1       5.216  31.382 -10.725  1.00  0.00    -0.021 N 
ATOM      3  H2  UNL     1       5.734  30.837 -11.415  1.00  0.00     0.203 HD
HETATM    4  C3  UNL     1       4.887  30.830  -9.544  1.00  0.00     0.713 A 
HETATM    5  N6  UNL     1       4.205  31.581  -8.664  1.00  0.00    -0.021 N 
ATOM      6  H6  UNL     1       3.953  31.167  -7.766  1.00  0.00     0.203 HD
HETATM    7  C8  UNL     1       3.839  32.851  -8.910  1.00  0.00     0.711 A 
HETATM    8  N8  UNL     1       4.177  33.382 -10.094  1.00  0.00    -0.021 N 
ATOM      9  H8  UNL     1       3.911  34.344 -10.308  1.00  0.00     0.203 HD
ENDROOT
BRANCH   7  10
HETATM   10  N7  UNL     1       3.184  33.514  -8.015  1.00  0.00    -0.190 N 
ATOM     11  H7  UNL     1       2.408  34.103  -8.320  1.00  0.00     0.184 HD
BRANCH  10  12
HETATM   12  C9  UNL     1       3.485  33.467  -6.639  1.00  0.00     0.056 A 
HETATM   13  C10 UNL     1       2.755  32.644  -5.809  1.00  0.00     0.031 A 
HETATM   14  C11 UNL     1       3.015  32.567  -4.457  1.00  0.00     0.014 A 
HETATM   15  C12 UNL     1       4.039  33.334  -3.909  1.00  0.00    -0.025 A 
HETATM   16  C13 UNL     1       4.335  33.289  -2.569  1.00  0.00     0.012 A 
HETATM   17  C17 UNL     1       4.789  34.168  -4.716  1.00  0.00    -0.018 A 
HETATM   18  C14 UNL     1       5.352  34.044  -1.991  1.00  0.00     0.001 A 
HETATM   19  C15 UNL     1       6.100  34.880  -2.808  1.00  0.00     0.001 A 
HETATM   20  C16 UNL     1       5.798  34.920  -4.153  1.00  0.00     0.013 A 
HETATM   21  C18 UNL     1       4.494  34.215  -6.067  1.00  0.00    -0.024 A 
HETATM   22  C19 UNL     1       5.288  35.099  -6.928  1.00  0.00     0.051 C 
ENDBRANCH  10  12
ENDBRANCH   7  10
BRANCH   4  23
HETATM   23  N3  UNL     1       5.220  29.619  -9.276  1.00  0.00    -0.174 N 
ATOM     24  H3  UNL     1       4.512  28.884  -9.268  1.00  0.00     0.186 HD
BRANCH  23  25
HETATM   25  C4  UNL     1       6.577  29.305  -8.990  1.00  0.00     0.137 A 
HETATM   26  C5  UNL     1       7.653  29.985  -9.541  1.00  0.00     0.140 A 
HETATM   27  N4  UNL     1       8.749  29.423  -9.050  1.00  0.00    -0.354 N 
HETATM   28  C6  UNL     1      10.127  29.782  -9.327  1.00  0.00     0.156 C 
HETATM   29  C7  UNL     1       8.399  28.432  -8.228  1.00  0.00     0.183 A 
HETATM   30  N5  UNL     1       7.074  28.359  -8.190  1.00  0.00    -0.337 N 
ATOM     31  H5  UNL     1       6.528  27.694  -7.643  1.00  0.00     0.168 HD
ENDBRANCH  23  25
ENDBRANCH   4  23
BRANCH   1  32
HETATM   32  N1  UNL     1       5.204  33.143 -12.161  1.00  0.00    -0.229 N 
HETATM   33  C1  UNL     1       6.578  33.585 -12.302  1.00  0.00     0.165 C 
ATOM     34  H1  UNL     1       4.542  33.202 -12.934  1.00  0.00     0.177 HD
ENDBRANCH   1  32
TORSDOF 5
ENDMDL
MODEL 4
REMARK VINA RESULT: -7.787204243      1.303      2.561
REMARK  5 active torsions:
REMARK  status: ('A' for Active; 'I' for Inactive)
REMARK    1  A    between atoms: N1_2  and  C2_4 
REMARK    2  A    between atoms: C3_7  and  N3_8 
REMARK    3  A    between atoms: N3_8  and  C4_10 
REMARK    4  A    between atoms: C8_19  and  N7_20 
REMARK    5  A    between atoms: N7_20  and  C9_22 
ROOT
HETATM    1  C2  UNL     1       4.715  32.721 -10.842  1.00  0.00     0.706 A 
HETATM    2  N2  UNL     1       5.070  31.424 -10.609  1.00  0.00    -0.021 N 
ATOM      3  H2  UNL     1       5.521  30.880 -11.345  1.00  0.00     0.203 HD
HETATM    4  C3  UNL     1       4.827  30.863  -9.412  1.00  0.00     0.713 A 
HETATM    5  N6  UNL     1       4.233  31.614  -8.471  1.00  0.00    -0.021 N 
ATOM      6  H6  UNL     1       4.045  31.194  -7.560  1.00  0.00     0.203 HD
HETATM    7  C8  UNL     1       3.873  32.895  -8.672  1.00  0.00     0.711 A 
HETATM    8  N8  UNL     1       4.123  33.435  -9.874  1.00  0.00    -0.021 N 
ATOM      9  H8  UNL     1       3.860  34.404 -10.054  1.00  0.00     0.203 HD
ENDROOT
BRANCH   7  10
HETATM   10  N7  UNL     1       3.303  33.558  -7.720  1.00  0.00    -0.190 N 
ATOM     11  H7  UNL     1       2.330  33.838  -7.839  1.00  0.00     0.184 HD
BRANCH  10  12
HETATM   12  C9  UNL     1       3.959  33.914  -6.524  1.00  0.00     0.056 A 
HETATM   13  C10 UNL     1       4.795  35.011  -6.505  1.00  0.00     0.031 A 
HETATM   14  C11 UNL     1       5.456  35.394  -5.358  1.00  0.00     0.014 A 
HETATM   15  C12 UNL     1       5.282  34.664  -4.186  1.00  0.00    -0.025 A 
HETATM   16  C13 UNL     1       5.920  35.009  -3.020  1.00  0.00     0.012 A 
HETATM   17  C17 UNL     1       4.451  33.560  -4.174  1.00  0.00    -0.018 A 
HETATM   18  C14 UNL     1       5.767  34.299  -1.833  1.00  0.00     0.001 A 
HETATM   19  C15 UNL     1       4.931  33.191  -1.829  1.00  0.00     0.001 A 
HETATM   20  C16 UNL     1       4.293  32.850  -3.003  1.00  0.00     0.013 A 
HETATM   21  C18 UNL     1       3.807  33.210  -5.347  1.00  0.00    -0.024 A 
HETATM   22  C19 UNL     1       2.923  32.038  -5.339  1.00  0.00     0.051 C 
ENDBRANCH  10  12
ENDBRANCH   7  10
BRANCH   4  23
HETATM   23  N3  UNL     1       5.157  29.643  -9.185  1.00  0.00    -0.174 N 
ATOM     24  H3  UNL     1       4.445  28.912  -9.182  1.00  0.00     0.186 HD
BRANCH  23  25
HETATM   25  C4  UNL     1       6.518  29.313  -8.939  1.00  0.00     0.137 A 
HETATM   26  C5  UNL     1       7.586  29.989  -9.512  1.00  0.00     0.140 A 
HETATM   27  N4  UNL     1       8.689  29.409  -9.057  1.00  0.00    -0.354 N 
HETATM   28  C6  UNL     1      10.062  29.758  -9.367  1.00  0.00     0.156 C 
HETATM   29  C7  UNL     1       8.351  28.412  -8.237  1.00  0.00     0.183 A 
HETATM   30  N5  UNL     1       7.027  28.353  -8.164  1.00  0.00    -0.337 N 
ATOM     31  H5  UNL     1       6.489  27.687  -7.610  1.00  0.00     0.168 HD
ENDBRANCH  23  25
ENDBRANCH   4  23
BRANCH   1  32
HETATM   32  N1  UNL     1       4.977  33.204 -12.019  1.00  0.00    -0.229 N 
HETATM   33  C1  UNL     1       6.350  33.595 -12.275  1.00  0.00     0.165 C 
ATOM     34  H1  UNL     1       4.251  33.304 -12.728  1.00  0.00     0.177 HD
ENDBRANCH   1  32
TORSDOF 5
ENDMDL
MODEL 5
REMARK VINA RESULT: -7.565117521      2.880      4.935
REMARK  5 active torsions:
REMARK  status: ('A' for Active; 'I' for Inactive)
REMARK    1  A    between atoms: N1_2  and  C2_4 
REMARK    2  A    between atoms: C3_7  and  N3_8 
REMARK    3  A    between atoms: N3_8  and  C4_10 
REMARK    4  A    between atoms: C8_19  and  N7_20 
REMARK    5  A    between atoms: N7_20  and  C9_22 
ROOT
HETATM    1  C2  UNL     1       5.490  33.407 -11.268  1.00  0.00     0.706 A 
HETATM    2  N2  UNL     1       4.181  33.060 -11.099  1.00  0.00    -0.021 N 
ATOM      3  H2  UNL     1       3.636  32.725 -11.894  1.00  0.00     0.203 HD
HETATM    4  C3  UNL     1       3.608  33.159  -9.887  1.00  0.00     0.713 A 
HETATM    5  N6  UNL     1       4.360  33.604  -8.868  1.00  0.00    -0.021 N 
ATOM      6  H6  UNL     1       3.931  33.682  -7.946  1.00  0.00     0.203 HD
HETATM    7  C8  UNL     1       5.652  33.953  -9.005  1.00  0.00     0.711 A 
HETATM    8  N8  UNL     1       6.204  33.847 -10.223  1.00  0.00    -0.021 N 
ATOM      9  H8  UNL     1       7.182  34.106 -10.356  1.00  0.00     0.203 HD
ENDROOT
BRANCH   7  10
HETATM   10  N7  UNL     1       6.315  34.374  -7.978  1.00  0.00    -0.190 N 
ATOM     11  H7  UNL     1       7.198  34.860  -8.138  1.00  0.00     0.184 HD
BRANCH  10  12
HETATM   12  C9  UNL     1       5.881  34.196  -6.649  1.00  0.00     0.056 A 
HETATM   13  C10 UNL     1       5.758  35.290  -5.820  1.00  0.00     0.031 A 
HETATM   14  C11 UNL     1       5.338  35.162  -4.513  1.00  0.00     0.014 A 
HETATM   15  C12 UNL     1       5.027  33.902  -4.011  1.00  0.00    -0.025 A 
HETATM   16  C13 UNL     1       4.604  33.726  -2.716  1.00  0.00     0.012 A 
HETATM   17  C17 UNL     1       5.140  32.786  -4.818  1.00  0.00    -0.018 A 
HETATM   18  C14 UNL     1       4.286  32.479  -2.185  1.00  0.00     0.001 A 
HETATM   19  C15 UNL     1       4.403  31.363  -3.002  1.00  0.00     0.001 A 
HETATM   20  C16 UNL     1       4.828  31.547  -4.301  1.00  0.00     0.013 A 
HETATM   21  C18 UNL     1       5.566  32.960  -6.123  1.00  0.00    -0.024 A 
HETATM   22  C19 UNL     1       5.687  31.778  -6.984  1.00  0.00     0.051 C 
ENDBRANCH  10  12
ENDBRANCH   7  10
BRANCH   4  23
HETATM   23  N3  UNL     1       2.376  32.835  -9.720  1.00  0.00    -0.174 N 
ATOM     24  H3  UNL     1       1.787  32.632 -10.527  1.00  0.00     0.186 HD
BRANCH  23  25
HETATM   25  C4  UNL     1       1.838  32.760  -8.406  1.00  0.00     0.137 A 
HETATM   26  C5  UNL     1       2.299  33.524  -7.344  1.00  0.00     0.140 A 
HETATM   27  N4  UNL     1       1.567  33.189  -6.290  1.00  0.00    -0.354 N 
HETATM   28  C6  UNL     1       1.667  33.713  -4.941  1.00  0.00     0.156 C 
HETATM   29  C7  UNL     1       0.682  32.258  -6.653  1.00  0.00     0.183 A 
HETATM   30  N5  UNL     1       0.846  31.996  -7.944  1.00  0.00    -0.337 N 
ATOM     31  H5  UNL     1       0.306  31.324  -8.489  1.00  0.00     0.168 HD
ENDBRANCH  23  25
ENDBRANCH   4  23
BRANCH   1  32
HETATM   32  N1  UNL     1       5.983  33.289 -12.464  1.00  0.00    -0.229 N 
HETATM   33  C1  UNL     1       7.227  33.987 -12.731  1.00  0.00     0.165 C 
ATOM     34  H1  UNL     1       5.518  32.733 -13.181  1.00  0.00     0.177 HD
ENDBRANCH   1  32
TORSDOF 5
ENDMDL
