MODEL 1
REMARK VINA RESULT: -7.226362067      0.000      0.000
REMARK  6 active torsions:
REMARK  status: ('A' for Active; 'I' for Inactive)
REMARK    1  A    between atoms: O1_2  and  C2_3 
REMARK    2  A    between atoms: C5_6  and  N1_7 
REMARK    3  A    between atoms: N1_7  and  C6_9 
REMARK    4  A    between atoms: C9_14  and  N3_15 
REMARK    5  A    between atoms: N3_15  and  C10_17 
REMARK    6  A    between atoms: C18_29  and  O3_30 
ROOT
HETATM    1  C6  UNL     1      25.698 -25.914 137.122  1.00  0.00     0.684 A 
HETATM    2  N2  UNL     1      24.825 -26.935 137.217  1.00  0.00    -0.194 N 
ATOM      3  H2  UNL     1      24.988 -27.688 137.884  1.00  0.00     0.184 HD
HETATM    4  C7  UNL     1      23.731 -26.955 136.423  1.00  0.00     0.041 A 
HETATM    5  C8  UNL     1      23.505 -25.937 135.518  1.00  0.00     0.033 A 
HETATM    6  C9  UNL     1      24.402 -24.900 135.429  1.00  0.00     0.128 A 
HETATM    7  N4  UNL     1      25.467 -24.933 136.241  1.00  0.00    -0.176 N 
ATOM      8  H4  UNL     1      26.139 -24.168 136.185  1.00  0.00     0.186 HD
HETATM    9  C12 UNL     1      22.276 -26.053 134.693  1.00  0.00     0.213 C 
HETATM   10  O2  UNL     1      21.192 -26.432 135.432  1.00  0.00    -0.376 OA
HETATM   11  C13 UNL     1      21.366 -27.401 136.369  1.00  0.00     0.059 C 
HETATM   12  C14 UNL     1      21.013 -26.909 137.778  1.00  0.00     0.046 C 
HETATM   13  C15 UNL     1      20.357 -28.517 136.072  1.00  0.00     0.046 C 
HETATM   14  C16 UNL     1      22.711 -28.035 136.453  1.00  0.00     0.095 C 
ENDROOT
BRANCH   1  15
HETATM   15  N1  UNL     1      26.752 -25.899 137.891  1.00  0.00    -0.192 N 
ATOM     16  H1  UNL     1      27.510 -26.554 137.699  1.00  0.00     0.184 HD
BRANCH  15  17
HETATM   17  C5  UNL     1      26.881 -25.011 138.980  1.00  0.00     0.052 A 
HETATM   18  C4  UNL     1      25.896 -25.015 139.929  1.00  0.00     0.033 A 
HETATM   19  C3  UNL     1      26.003 -24.156 140.999  1.00  0.00     0.042 A 
HETATM   20  C2  UNL     1      27.076 -23.291 141.142  1.00  0.00     0.101 A 
HETATM   21  C18 UNL     1      28.041 -23.327 140.157  1.00  0.00     0.103 A 
HETATM   22  C17 UNL     1      27.969 -24.173 139.071  1.00  0.00     0.069 A 
BRANCH  20  23
HETATM   23  O1  UNL     1      27.200 -22.419 142.212  1.00  0.00    -0.353 OA
HETATM   24  C1  UNL     1      26.768 -22.887 143.484  1.00  0.00     0.210 C 
ENDBRANCH  20  23
BRANCH  21  25
HETATM   25  O3  UNL     1      29.123 -22.443 140.317  1.00  0.00    -0.353 OA
HETATM   26  C19 UNL     1      30.244 -22.604 139.437  1.00  0.00     0.210 C 
ENDBRANCH  21  25
ENDBRANCH  15  17
ENDBRANCH   1  15
BRANCH   6  27
HETATM   27  N3  UNL     1      24.186 -23.950 134.581  1.00  0.00    -0.358 N 
ATOM     28  H3  UNL     1      23.485 -23.250 134.824  1.00  0.00     0.162 HD
BRANCH  27  29
HETATM   29  C10 UNL     1      24.860 -23.808 133.324  1.00  0.00     0.176 C 
HETATM   30  C11 UNL     1      23.902 -23.077 132.384  1.00  0.00     0.049 C 
HETATM   31 CL1  UNL     1      26.292 -22.760 133.570  1.00  0.00    -0.103 Cl
ENDBRANCH  27  29
ENDBRANCH   6  27
TORSDOF 6
ENDMDL
MODEL 2
REMARK VINA RESULT: -7.225373243      3.225      5.781
REMARK  6 active torsions:
REMARK  status: ('A' for Active; 'I' for Inactive)
REMARK    1  A    between atoms: O1_2  and  C2_3 
REMARK    2  A    between atoms: C5_6  and  N1_7 
REMARK    3  A    between atoms: N1_7  and  C6_9 
REMARK    4  A    between atoms: C9_14  and  N3_15 
REMARK    5  A    between atoms: N3_15  and  C10_17 
REMARK    6  A    between atoms: C18_29  and  O3_30 
ROOT
HETATM    1  C6  UNL     1      24.798 -24.675 133.930  1.00  0.00     0.684 A 
HETATM    2  N2  UNL     1      24.486 -24.484 132.633  1.00  0.00    -0.194 N 
ATOM      3  H2  UNL     1      23.875 -25.143 132.151  1.00  0.00     0.184 HD
HETATM    4  C7  UNL     1      24.988 -23.416 131.975  1.00  0.00     0.041 A 
HETATM    5  C8  UNL     1      25.815 -22.520 132.624  1.00  0.00     0.033 A 
HETATM    6  C9  UNL     1      26.127 -22.724 133.947  1.00  0.00     0.128 A 
HETATM    7  N4  UNL     1      25.601 -23.799 134.547  1.00  0.00    -0.176 N 
ATOM      8  H4  UNL     1      25.824 -23.960 135.529  1.00  0.00     0.186 HD
HETATM    9  C12 UNL     1      26.313 -21.380 131.813  1.00  0.00     0.213 C 
HETATM   10  O2  UNL     1      25.329 -20.822 131.049  1.00  0.00    -0.376 OA
HETATM   11  C13 UNL     1      24.457 -21.656 130.421  1.00  0.00     0.059 C 
HETATM   12  C14 UNL     1      23.007 -21.404 130.853  1.00  0.00     0.046 C 
HETATM   13  C15 UNL     1      24.493 -21.318 128.926  1.00  0.00     0.046 C 
HETATM   14  C16 UNL     1      24.703 -23.118 130.547  1.00  0.00     0.095 C 
ENDROOT
BRANCH   1  15
HETATM   15  N1  UNL     1      24.311 -25.708 134.560  1.00  0.00    -0.192 N 
ATOM     16  H1  UNL     1      23.976 -26.503 134.015  1.00  0.00     0.184 HD
BRANCH  15  17
HETATM   17  C5  UNL     1      24.229 -25.766 135.968  1.00  0.00     0.052 A 
HETATM   18  C4  UNL     1      23.115 -25.245 136.566  1.00  0.00     0.033 A 
HETATM   19  C3  UNL     1      23.016 -25.293 137.938  1.00  0.00     0.042 A 
HETATM   20  C2  UNL     1      24.009 -25.851 138.727  1.00  0.00     0.101 A 
HETATM   21  C18 UNL     1      25.111 -26.363 138.073  1.00  0.00     0.103 A 
HETATM   22  C17 UNL     1      25.246 -26.334 136.701  1.00  0.00     0.069 A 
BRANCH  20  23
HETATM   23  O1  UNL     1      23.927 -25.907 140.110  1.00  0.00    -0.353 OA
HETATM   24  C1  UNL     1      22.960 -26.787 140.667  1.00  0.00     0.210 C 
ENDBRANCH  20  23
BRANCH  21  25
HETATM   25  O3  UNL     1      26.109 -26.925 138.889  1.00  0.00    -0.353 OA
HETATM   26  C19 UNL     1      27.348 -26.212 139.004  1.00  0.00     0.210 C 
ENDBRANCH  21  25
ENDBRANCH  15  17
ENDBRANCH   1  15
BRANCH   6  27
HETATM   27  N3  UNL     1      26.901 -21.883 134.549  1.00  0.00    -0.358 N 
ATOM     28  H3  UNL     1      26.690 -20.890 134.449  1.00  0.00     0.162 HD
BRANCH  27  29
HETATM   29  C10 UNL     1      28.035 -22.245 135.349  1.00  0.00     0.176 C 
HETATM   30  C11 UNL     1      28.899 -20.992 135.489  1.00  0.00     0.049 C 
HETATM   31 CL1  UNL     1      27.449 -22.693 136.982  1.00  0.00    -0.103 Cl
ENDBRANCH  27  29
ENDBRANCH   6  27
TORSDOF 6
ENDMDL
MODEL 3
REMARK VINA RESULT: -7.101900569      4.363      7.775
REMARK  6 active torsions:
REMARK  status: ('A' for Active; 'I' for Inactive)
REMARK    1  A    between atoms: O1_2  and  C2_3 
REMARK    2  A    between atoms: C5_6  and  N1_7 
REMARK    3  A    between atoms: N1_7  and  C6_9 
REMARK    4  A    between atoms: C9_14  and  N3_15 
REMARK    5  A    between atoms: N3_15  and  C10_17 
REMARK    6  A    between atoms: C18_29  and  O3_30 
ROOT
HETATM    1  C6  UNL     1      24.360 -24.165 133.947  1.00  0.00     0.684 A 
HETATM    2  N2  UNL     1      24.710 -24.561 135.186  1.00  0.00    -0.194 N 
ATOM      3  H2  UNL     1      25.274 -23.952 135.779  1.00  0.00     0.184 HD
HETATM    4  C7  UNL     1      24.312 -25.770 135.639  1.00  0.00     0.041 A 
HETATM    5  C8  UNL     1      23.548 -26.598 134.841  1.00  0.00     0.033 A 
HETATM    6  C9  UNL     1      23.195 -26.185 133.579  1.00  0.00     0.128 A 
HETATM    7  N4  UNL     1      23.619 -24.977 133.185  1.00  0.00    -0.176 N 
ATOM      8  H4  UNL     1      23.362 -24.659 132.250  1.00  0.00     0.186 HD
HETATM    9  C12 UNL     1      23.162 -27.906 135.432  1.00  0.00     0.213 C 
HETATM   10  O2  UNL     1      22.739 -27.783 136.724  1.00  0.00    -0.376 OA
HETATM   11  C13 UNL     1      23.427 -26.946 137.545  1.00  0.00     0.059 C 
HETATM   12  C14 UNL     1      22.538 -25.829 138.105  1.00  0.00     0.046 C 
HETATM   13  C15 UNL     1      23.866 -27.759 138.769  1.00  0.00     0.046 C 
HETATM   14  C16 UNL     1      24.646 -26.297 136.989  1.00  0.00     0.095 C 
ENDROOT
BRANCH   1  15
HETATM   15  N1  UNL     1      24.747 -22.996 133.516  1.00  0.00    -0.192 N 
ATOM     16  H1  UNL     1      25.032 -22.291 134.196  1.00  0.00     0.184 HD
BRANCH  15  17
HETATM   17  C5  UNL     1      24.786 -22.672 132.143  1.00  0.00     0.052 A 
HETATM   18  C4  UNL     1      25.955 -22.889 131.467  1.00  0.00     0.033 A 
HETATM   19  C3  UNL     1      26.013 -22.580 130.127  1.00  0.00     0.042 A 
HETATM   20  C2  UNL     1      24.925 -22.057 129.447  1.00  0.00     0.101 A 
HETATM   21  C18 UNL     1      23.771 -21.857 130.175  1.00  0.00     0.103 A 
HETATM   22  C17 UNL     1      23.674 -22.155 131.518  1.00  0.00     0.069 A 
BRANCH  20  23
HETATM   23  O1  UNL     1      24.966 -21.739 128.098  1.00  0.00    -0.353 OA
HETATM   24  C1  UNL     1      26.023 -20.895 127.661  1.00  0.00     0.210 C 
ENDBRANCH  20  23
BRANCH  21  25
HETATM   25  O3  UNL     1      22.677 -21.326 129.469  1.00  0.00    -0.353 OA
HETATM   26  C19 UNL     1      21.600 -20.774 130.238  1.00  0.00     0.210 C 
ENDBRANCH  21  25
ENDBRANCH  15  17
ENDBRANCH   1  15
BRANCH   6  27
HETATM   27  N3  UNL     1      22.480 -26.963 132.837  1.00  0.00    -0.358 N 
ATOM     28  H3  UNL     1      22.869 -27.875 132.596  1.00  0.00     0.162 HD
BRANCH  27  29
HETATM   29  C10 UNL     1      21.181 -26.639 132.326  1.00  0.00     0.176 C 
HETATM   30  C11 UNL     1      21.117 -27.174 130.896  1.00  0.00     0.049 C 
HETATM   31 CL1  UNL     1      19.961 -27.522 133.297  1.00  0.00    -0.103 Cl
ENDBRANCH  27  29
ENDBRANCH   6  27
TORSDOF 6
ENDMDL
MODEL 4
REMARK VINA RESULT: -7.065702487      1.148      2.108
REMARK  6 active torsions:
REMARK  status: ('A' for Active; 'I' for Inactive)
REMARK    1  A    between atoms: O1_2  and  C2_3 
REMARK    2  A    between atoms: C5_6  and  N1_7 
REMARK    3  A    between atoms: N1_7  and  C6_9 
REMARK    4  A    between atoms: C9_14  and  N3_15 
REMARK    5  A    between atoms: N3_15  and  C10_17 
REMARK    6  A    between atoms: C18_29  and  O3_30 
ROOT
HETATM    1  C6  UNL     1      25.518 -25.670 137.001  1.00  0.00     0.684 A 
HETATM    2  N2  UNL     1      24.677 -26.718 137.099  1.00  0.00    -0.194 N 
ATOM      3  H2  UNL     1      24.836 -27.439 137.802  1.00  0.00     0.184 HD
HETATM    4  C7  UNL     1      23.621 -26.809 136.260  1.00  0.00     0.041 A 
HETATM    5  C8  UNL     1      23.401 -25.835 135.306  1.00  0.00     0.033 A 
HETATM    6  C9  UNL     1      24.264 -24.769 135.215  1.00  0.00     0.128 A 
HETATM    7  N4  UNL     1      25.291 -24.733 136.073  1.00  0.00    -0.176 N 
ATOM      8  H4  UNL     1      25.938 -23.946 136.016  1.00  0.00     0.186 HD
HETATM    9  C12 UNL     1      22.214 -26.028 134.434  1.00  0.00     0.213 C 
HETATM   10  O2  UNL     1      21.113 -26.418 135.140  1.00  0.00    -0.376 OA
HETATM   11  C13 UNL     1      21.279 -27.343 136.122  1.00  0.00     0.059 C 
HETATM   12  C14 UNL     1      20.845 -26.811 137.493  1.00  0.00     0.046 C 
HETATM   13  C15 UNL     1      20.323 -28.506 135.825  1.00  0.00     0.046 C 
HETATM   14  C16 UNL     1      22.639 -27.924 136.288  1.00  0.00     0.095 C 
ENDROOT
BRANCH   1  15
HETATM   15  N1  UNL     1      26.534 -25.587 137.815  1.00  0.00    -0.192 N 
ATOM     16  H1  UNL     1      27.426 -25.993 137.530  1.00  0.00     0.184 HD
BRANCH  15  17
HETATM   17  C5  UNL     1      26.446 -24.956 139.074  1.00  0.00     0.052 A 
HETATM   18  C4  UNL     1      27.065 -23.746 139.228  1.00  0.00     0.033 A 
HETATM   19  C3  UNL     1      26.990 -23.115 140.449  1.00  0.00     0.042 A 
HETATM   20  C2  UNL     1      26.308 -23.667 141.521  1.00  0.00     0.101 A 
HETATM   21  C18 UNL     1      25.701 -24.888 141.311  1.00  0.00     0.103 A 
HETATM   22  C17 UNL     1      25.753 -25.551 140.104  1.00  0.00     0.069 A 
BRANCH  20  23
HETATM   23  O1  UNL     1      26.222 -23.045 142.757  1.00  0.00    -0.353 OA
HETATM   24  C1  UNL     1      26.215 -21.623 142.769  1.00  0.00     0.210 C 
ENDBRANCH  20  23
BRANCH  21  25
HETATM   25  O3  UNL     1      25.012 -25.434 142.409  1.00  0.00    -0.353 OA
HETATM   26  C19 UNL     1      24.115 -26.522 142.151  1.00  0.00     0.210 C 
ENDBRANCH  21  25
ENDBRANCH  15  17
ENDBRANCH   1  15
BRANCH   6  27
HETATM   27  N3  UNL     1      24.053 -23.861 134.321  1.00  0.00    -0.358 N 
ATOM     28  H3  UNL     1      23.303 -23.192 134.496  1.00  0.00     0.162 HD
BRANCH  27  29
HETATM   29  C10 UNL     1      24.795 -23.726 133.102  1.00  0.00     0.176 C 
HETATM   30  C11 UNL     1      23.881 -23.025 132.098  1.00  0.00     0.049 C 
HETATM   31 CL1  UNL     1      26.194 -22.651 133.415  1.00  0.00    -0.103 Cl
ENDBRANCH  27  29
ENDBRANCH   6  27
TORSDOF 6
ENDMDL
MODEL 5
REMARK VINA RESULT: -7.037264351      4.040      7.223
REMARK  6 active torsions:
REMARK  status: ('A' for Active; 'I' for Inactive)
REMARK    1  A    between atoms: O1_2  and  C2_3 
REMARK    2  A    between atoms: C5_6  and  N1_7 
REMARK    3  A    between atoms: N1_7  and  C6_9 
REMARK    4  A    between atoms: C9_14  and  N3_15 
REMARK    5  A    between atoms: N3_15  and  C10_17 
REMARK    6  A    between atoms: C18_29  and  O3_30 
ROOT
HETATM    1  C6  UNL     1      29.375 -22.847 139.971  1.00  0.00     0.684 A 
HETATM    2  N2  UNL     1      28.561 -23.535 139.147  1.00  0.00    -0.194 N 
ATOM      3  H2  UNL     1      28.855 -23.742 138.192  1.00  0.00     0.184 HD
HETATM    4  C7  UNL     1      27.353 -23.948 139.591  1.00  0.00     0.041 A 
HETATM    5  C8  UNL     1      26.952 -23.670 140.882  1.00  0.00     0.033 A 
HETATM    6  C9  UNL     1      27.789 -22.968 141.716  1.00  0.00     0.128 A 
HETATM    7  N4  UNL     1      28.973 -22.585 141.220  1.00  0.00    -0.176 N 
ATOM      8  H4  UNL     1      29.604 -22.064 141.830  1.00  0.00     0.186 HD
HETATM    9  C12 UNL     1      25.607 -24.168 141.273  1.00  0.00     0.213 C 
HETATM   10  O2  UNL     1      25.390 -25.449 140.853  1.00  0.00    -0.376 OA
HETATM   11  C13 UNL     1      25.806 -25.791 139.605  1.00  0.00     0.059 C 
HETATM   12  C14 UNL     1      26.823 -26.939 139.632  1.00  0.00     0.046 C 
HETATM   13  C15 UNL     1      24.592 -26.351 138.853  1.00  0.00     0.046 C 
HETATM   14  C16 UNL     1      26.386 -24.712 138.760  1.00  0.00     0.095 C 
ENDROOT
BRANCH   1  15
HETATM   15  N1  UNL     1      30.540 -22.451 139.537  1.00  0.00    -0.192 N 
ATOM     16  H1  UNL     1      31.367 -22.649 140.100  1.00  0.00     0.184 HD
BRANCH  15  17
HETATM   17  C5  UNL     1      30.697 -21.760 138.317  1.00  0.00     0.052 A 
HETATM   18  C4  UNL     1      31.852 -21.052 138.126  1.00  0.00     0.033 A 
HETATM   19  C3  UNL     1      32.025 -20.371 136.943  1.00  0.00     0.042 A 
HETATM   20  C2  UNL     1      31.066 -20.382 135.943  1.00  0.00     0.101 A 
HETATM   21  C18 UNL     1      29.920 -21.111 136.186  1.00  0.00     0.103 A 
HETATM   22  C17 UNL     1      29.711 -21.806 137.358  1.00  0.00     0.069 A 
BRANCH  20  23
HETATM   23  O1  UNL     1      31.222 -19.702 134.745  1.00  0.00    -0.353 OA
HETATM   24  C1  UNL     1      32.334 -18.822 134.639  1.00  0.00     0.210 C 
ENDBRANCH  20  23
BRANCH  21  25
HETATM   25  O3  UNL     1      28.957 -21.112 135.160  1.00  0.00    -0.353 OA
HETATM   26  C19 UNL     1      27.838 -21.996 135.306  1.00  0.00     0.210 C 
ENDBRANCH  21  25
ENDBRANCH  15  17
ENDBRANCH   1  15
BRANCH   6  27
HETATM   27  N3  UNL     1      27.408 -22.711 142.923  1.00  0.00    -0.358 N 
ATOM     28  H3  UNL     1      27.951 -23.114 143.686  1.00  0.00     0.162 HD
BRANCH  27  29
HETATM   29  C10 UNL     1      26.277 -21.900 143.267  1.00  0.00     0.176 C 
HETATM   30  C11 UNL     1      26.689 -21.047 144.466  1.00  0.00     0.049 C 
HETATM   31 CL1  UNL     1      25.942 -20.795 141.897  1.00  0.00    -0.103 Cl
ENDBRANCH  27  29
ENDBRANCH   6  27
TORSDOF 6
ENDMDL
