MODEL 1
REMARK VINA RESULT: -5.952791274      0.000      0.000
REMARK  6 active torsions:
REMARK  status: ('A' for Active; 'I' for Inactive)
REMARK    1  A    between atoms: N1_1  and  C1_5 
REMARK    2  A    between atoms: C1_5  and  C2_6 
REMARK    3  A    between atoms: C2_6  and  N2_7 
REMARK    4  A    between atoms: N2_7  and  C3_9 
REMARK    5  A    between atoms: C4_12  and  N4_13 
REMARK    6  A    between atoms: C6_17  and  N6_18 
ROOT
HETATM    1  C3  UNL     1      52.682 -18.579  -5.926  1.00  0.00     0.679 A 
HETATM    2  N3  UNL     1      52.307 -19.255  -7.030  1.00  0.00    -0.172 N 
ATOM      3  H3  UNL     1      52.706 -18.977  -7.927  1.00  0.00     0.186 HD
HETATM    4  C4  UNL     1      51.430 -20.283  -7.008  1.00  0.00     0.179 A 
HETATM    5  C7  UNL     1      50.904 -20.640  -5.768  1.00  0.00     0.097 A 
HETATM    6 CL1  UNL     1      49.752 -21.981  -5.686  1.00  0.00    -0.079 Cl
HETATM    7  C8  UNL     1      51.275 -19.963  -4.633  1.00  0.00     0.134 A 
HETATM    8  N8  UNL     1      52.149 -18.957  -4.743  1.00  0.00    -0.200 N 
ATOM      9  H8  UNL     1      52.424 -18.455  -3.899  1.00  0.00     0.183 HD
ENDROOT
BRANCH   4  10
HETATM   10  N4  UNL     1      51.071 -20.961  -8.201  1.00  0.00    -0.180 N 
HETATM   11  N5  UNL     1      51.566 -22.155  -8.752  1.00  0.00    -0.292 N 
HETATM   12  C5  UNL     1      50.689 -22.676  -9.535  1.00  0.00     0.133 C 
ATOM     13  H5  UNL     1      52.487 -22.550  -8.559  1.00  0.00     0.187 HD
HETATM   14  C6  UNL     1      49.513 -21.781  -9.520  1.00  0.00     0.337 C 
HETATM   15  N7  UNL     1      50.094 -20.524  -9.100  1.00  0.00    -0.077 NA
BRANCH  14  16
HETATM   16  N6  UNL     1      48.895 -21.678 -10.827  1.00  0.00    -0.055 N 
ATOM     17  H63 UNL     1      48.674 -20.709 -11.057  1.00  0.00     0.276 HD
ATOM     18  H62 UNL     1      49.566 -21.870 -11.571  1.00  0.00     0.276 HD
ATOM     19  H61 UNL     1      48.072 -22.274 -10.907  1.00  0.00     0.276 HD
ENDBRANCH  14  16
ENDBRANCH   4  10
BRANCH   1  20
HETATM   20  N2  UNL     1      53.522 -17.601  -5.989  1.00  0.00    -0.224 N 
ATOM     21  H2  UNL     1      53.218 -16.652  -5.770  1.00  0.00     0.177 HD
BRANCH  20  22
HETATM   22  C2  UNL     1      54.893 -17.853  -6.372  1.00  0.00     0.165 C 
BRANCH  22  23
HETATM   23  C1  UNL     1      55.424 -16.685  -7.198  1.00  0.00     0.249 C 
BRANCH  23  24
HETATM   24  N1  UNL     1      54.558 -16.405  -8.316  1.00  0.00    -0.078 N 
ATOM     25  H13 UNL     1      55.009 -16.621  -9.205  1.00  0.00     0.274 HD
ATOM     26  H12 UNL     1      53.786 -17.070  -8.369  1.00  0.00     0.274 HD
ATOM     27  H11 UNL     1      54.223 -15.442  -8.288  1.00  0.00     0.274 HD
ENDBRANCH  23  24
ENDBRANCH  22  23
ENDBRANCH  20  22
ENDBRANCH   1  20
TORSDOF 6
ENDMDL
MODEL 2
REMARK VINA RESULT: -5.857463337      4.289      6.574
REMARK  6 active torsions:
REMARK  status: ('A' for Active; 'I' for Inactive)
REMARK    1  A    between atoms: N1_1  and  C1_5 
REMARK    2  A    between atoms: C1_5  and  C2_6 
REMARK    3  A    between atoms: C2_6  and  N2_7 
REMARK    4  A    between atoms: N2_7  and  C3_9 
REMARK    5  A    between atoms: C4_12  and  N4_13 
REMARK    6  A    between atoms: C6_17  and  N6_18 
ROOT
HETATM    1  C3  UNL     1      54.384 -17.610  -8.044  1.00  0.00     0.679 A 
HETATM    2  N3  UNL     1      55.166 -18.706  -8.093  1.00  0.00    -0.172 N 
ATOM      3  H3  UNL     1      54.778 -19.561  -8.493  1.00  0.00     0.186 HD
HETATM    4  C4  UNL     1      56.439 -18.730  -7.638  1.00  0.00     0.179 A 
HETATM    5  C7  UNL     1      56.941 -17.547  -7.099  1.00  0.00     0.097 A 
HETATM    6 CL1  UNL     1      58.604 -17.526  -6.492  1.00  0.00    -0.079 Cl
HETATM    7  C8  UNL     1      56.160 -16.421  -7.042  1.00  0.00     0.134 A 
HETATM    8  N8  UNL     1      54.910 -16.483  -7.514  1.00  0.00    -0.200 N 
ATOM      9  H8  UNL     1      54.329 -15.646  -7.472  1.00  0.00     0.183 HD
ENDROOT
BRANCH   4  10
HETATM   10  N4  UNL     1      57.219 -19.913  -7.715  1.00  0.00    -0.180 N 
HETATM   11  N5  UNL     1      58.003 -20.417  -8.766  1.00  0.00    -0.292 N 
HETATM   12  C5  UNL     1      58.906 -21.208  -8.302  1.00  0.00     0.133 C 
ATOM     13  H5  UNL     1      57.875 -20.191  -9.752  1.00  0.00     0.187 HD
HETATM   14  C6  UNL     1      58.730 -21.247  -6.835  1.00  0.00     0.337 C 
HETATM   15  N7  UNL     1      57.348 -20.848  -6.685  1.00  0.00    -0.077 NA
BRANCH  14  16
HETATM   16  N6  UNL     1      58.970 -22.572  -6.297  1.00  0.00    -0.055 N 
ATOM     17  H63 UNL     1      59.584 -23.113  -6.904  1.00  0.00     0.276 HD
ATOM     18  H62 UNL     1      59.560 -22.533  -5.465  1.00  0.00     0.276 HD
ATOM     19  H61 UNL     1      58.100 -23.070  -6.111  1.00  0.00     0.276 HD
ENDBRANCH  14  16
ENDBRANCH   4  10
BRANCH   1  20
HETATM   20  N2  UNL     1      53.173 -17.629  -8.487  1.00  0.00    -0.224 N 
ATOM     21  H2  UNL     1      52.987 -17.882  -9.458  1.00  0.00     0.177 HD
BRANCH  20  22
HETATM   22  C2  UNL     1      52.078 -17.289  -7.604  1.00  0.00     0.165 C 
BRANCH  22  23
HETATM   23  C1  UNL     1      51.840 -18.426  -6.614  1.00  0.00     0.249 C 
BRANCH  23  24
HETATM   24  N1  UNL     1      52.153 -18.013  -5.268  1.00  0.00    -0.078 N 
ATOM     25  H13 UNL     1      52.507 -17.056  -5.241  1.00  0.00     0.274 HD
ATOM     26  H12 UNL     1      51.310 -17.880  -4.710  1.00  0.00     0.274 HD
ATOM     27  H11 UNL     1      52.799 -18.666  -4.825  1.00  0.00     0.274 HD
ENDBRANCH  23  24
ENDBRANCH  22  23
ENDBRANCH  20  22
ENDBRANCH   1  20
TORSDOF 6
ENDMDL
MODEL 3
REMARK VINA RESULT: -5.832023780      1.170      1.475
REMARK  6 active torsions:
REMARK  status: ('A' for Active; 'I' for Inactive)
REMARK    1  A    between atoms: N1_1  and  C1_5 
REMARK    2  A    between atoms: C1_5  and  C2_6 
REMARK    3  A    between atoms: C2_6  and  N2_7 
REMARK    4  A    between atoms: N2_7  and  C3_9 
REMARK    5  A    between atoms: C4_12  and  N4_13 
REMARK    6  A    between atoms: C6_17  and  N6_18 
ROOT
HETATM    1  C3  UNL     1      53.063 -17.629  -7.416  1.00  0.00     0.679 A 
HETATM    2  N3  UNL     1      52.538 -18.538  -8.261  1.00  0.00    -0.172 N 
ATOM      3  H3  UNL     1      52.718 -18.433  -9.259  1.00  0.00     0.186 HD
HETATM    4  C4  UNL     1      51.785 -19.583  -7.850  1.00  0.00     0.179 A 
HETATM    5  C7  UNL     1      51.558 -19.701  -6.480  1.00  0.00     0.097 A 
HETATM    6 CL1  UNL     1      50.580 -21.054  -5.892  1.00  0.00    -0.079 Cl
HETATM    7  C8  UNL     1      52.086 -18.785  -5.606  1.00  0.00     0.134 A 
HETATM    8  N8  UNL     1      52.820 -17.779  -6.096  1.00  0.00    -0.200 N 
ATOM      9  H8  UNL     1      53.212 -17.099  -5.445  1.00  0.00     0.183 HD
ENDROOT
BRANCH   4  10
HETATM   10  N4  UNL     1      51.257 -20.512  -8.783  1.00  0.00    -0.180 N 
HETATM   11  N5  UNL     1      51.702 -21.798  -9.135  1.00  0.00    -0.292 N 
HETATM   12  C5  UNL     1      50.727 -22.484  -9.619  1.00  0.00     0.133 C 
ATOM     13  H5  UNL     1      52.657 -22.137  -9.025  1.00  0.00     0.187 HD
HETATM   14  C6  UNL     1      49.533 -21.612  -9.594  1.00  0.00     0.337 C 
HETATM   15  N7  UNL     1      50.124 -20.292  -9.570  1.00  0.00    -0.077 NA
BRANCH  14  16
HETATM   16  N6  UNL     1      48.697 -21.807 -10.763  1.00  0.00    -0.055 N 
ATOM     17  H63 UNL     1      48.063 -21.020 -10.900  1.00  0.00     0.276 HD
ATOM     18  H62 UNL     1      49.239 -21.727 -11.624  1.00  0.00     0.276 HD
ATOM     19  H61 UNL     1      48.190 -22.690 -10.725  1.00  0.00     0.276 HD
ENDBRANCH  14  16
ENDBRANCH   4  10
BRANCH   1  20
HETATM   20  N2  UNL     1      53.775 -16.643  -7.848  1.00  0.00    -0.224 N 
ATOM     21  H2  UNL     1      53.376 -15.705  -7.892  1.00  0.00     0.177 HD
BRANCH  20  22
HETATM   22  C2  UNL     1      55.139 -16.872  -8.272  1.00  0.00     0.165 C 
BRANCH  22  23
HETATM   23  C1  UNL     1      56.084 -16.715  -7.084  1.00  0.00     0.249 C 
BRANCH  23  24
HETATM   24  N1  UNL     1      56.624 -17.989  -6.681  1.00  0.00    -0.078 N 
ATOM     25  H13 UNL     1      56.128 -18.765  -7.121  1.00  0.00     0.274 HD
ATOM     26  H12 UNL     1      57.548 -18.150  -7.081  1.00  0.00     0.274 HD
ATOM     27  H11 UNL     1      56.634 -18.078  -5.664  1.00  0.00     0.274 HD
ENDBRANCH  23  24
ENDBRANCH  22  23
ENDBRANCH  20  22
ENDBRANCH   1  20
TORSDOF 6
ENDMDL
MODEL 4
REMARK VINA RESULT: -5.716107518      3.401      6.545
REMARK  6 active torsions:
REMARK  status: ('A' for Active; 'I' for Inactive)
REMARK    1  A    between atoms: N1_1  and  C1_5 
REMARK    2  A    between atoms: C1_5  and  C2_6 
REMARK    3  A    between atoms: C2_6  and  N2_7 
REMARK    4  A    between atoms: N2_7  and  C3_9 
REMARK    5  A    between atoms: C4_12  and  N4_13 
REMARK    6  A    between atoms: C6_17  and  N6_18 
ROOT
HETATM    1  C3  UNL     1      52.919 -18.450  -4.837  1.00  0.00     0.679 A 
HETATM    2  N3  UNL     1      54.255 -18.493  -5.012  1.00  0.00    -0.172 N 
ATOM      3  H3  UNL     1      54.818 -18.990  -4.321  1.00  0.00     0.186 HD
HETATM    4  C4  UNL     1      54.885 -17.912  -6.056  1.00  0.00     0.179 A 
HETATM    5  C7  UNL     1      54.089 -17.242  -6.984  1.00  0.00     0.097 A 
HETATM    6 CL1  UNL     1      54.867 -16.466  -8.371  1.00  0.00    -0.079 Cl
HETATM    7  C8  UNL     1      52.728 -17.188  -6.822  1.00  0.00     0.134 A 
HETATM    8  N8  UNL     1      52.184 -17.790  -5.759  1.00  0.00    -0.200 N 
ATOM      9  H8  UNL     1      51.171 -17.750  -5.640  1.00  0.00     0.183 HD
ENDROOT
BRANCH   4  10
HETATM   10  N4  UNL     1      56.295 -17.990  -6.192  1.00  0.00    -0.180 N 
HETATM   11  N5  UNL     1      57.149 -19.105  -6.174  1.00  0.00    -0.292 N 
HETATM   12  C5  UNL     1      58.242 -18.834  -6.798  1.00  0.00     0.133 C 
ATOM     13  H5  UNL     1      56.935 -19.999  -5.731  1.00  0.00     0.187 HD
HETATM   14  C6  UNL     1      58.128 -17.440  -7.277  1.00  0.00     0.337 C 
HETATM   15  N7  UNL     1      57.138 -16.891  -6.377  1.00  0.00    -0.077 NA
BRANCH  14  16
HETATM   16  N6  UNL     1      59.390 -16.733  -7.186  1.00  0.00    -0.055 N 
ATOM     17  H63 UNL     1      60.180 -17.375  -7.249  1.00  0.00     0.276 HD
ATOM     18  H62 UNL     1      59.567 -16.179  -8.024  1.00  0.00     0.276 HD
ATOM     19  H61 UNL     1      59.445 -16.160  -6.345  1.00  0.00     0.276 HD
ENDBRANCH  14  16
ENDBRANCH   4  10
BRANCH   1  20
HETATM   20  N2  UNL     1      52.355 -19.016  -3.824  1.00  0.00    -0.224 N 
ATOM     21  H2  UNL     1      52.699 -18.834  -2.881  1.00  0.00     0.177 HD
BRANCH  20  22
HETATM   22  C2  UNL     1      51.236 -19.908  -4.029  1.00  0.00     0.165 C 
BRANCH  22  23
HETATM   23  C1  UNL     1      51.690 -21.139  -4.808  1.00  0.00     0.249 C 
BRANCH  23  24
HETATM   24  N1  UNL     1      50.913 -21.307  -6.010  1.00  0.00    -0.078 N 
ATOM     25  H13 UNL     1      49.998 -21.712  -5.813  1.00  0.00     0.274 HD
ATOM     26  H12 UNL     1      50.607 -20.411  -6.388  1.00  0.00     0.274 HD
ATOM     27  H11 UNL     1      51.425 -21.852  -6.705  1.00  0.00     0.274 HD
ENDBRANCH  23  24
ENDBRANCH  22  23
ENDBRANCH  20  22
ENDBRANCH   1  20
TORSDOF 6
ENDMDL
MODEL 5
REMARK VINA RESULT: -5.643381345      4.015      6.331
REMARK  6 active torsions:
REMARK  status: ('A' for Active; 'I' for Inactive)
REMARK    1  A    between atoms: N1_1  and  C1_5 
REMARK    2  A    between atoms: C1_5  and  C2_6 
REMARK    3  A    between atoms: C2_6  and  N2_7 
REMARK    4  A    between atoms: N2_7  and  C3_9 
REMARK    5  A    between atoms: C4_12  and  N4_13 
REMARK    6  A    between atoms: C6_17  and  N6_18 
ROOT
HETATM    1  C3  UNL     1      54.228 -17.635  -8.081  1.00  0.00     0.679 A 
HETATM    2  N3  UNL     1      54.829 -18.704  -7.522  1.00  0.00    -0.172 N 
ATOM      3  H3  UNL     1      54.329 -19.593  -7.518  1.00  0.00     0.186 HD
HETATM    4  C4  UNL     1      56.060 -18.656  -6.966  1.00  0.00     0.179 A 
HETATM    5  C7  UNL     1      56.718 -17.427  -6.988  1.00  0.00     0.097 A 
HETATM    6 CL1  UNL     1      58.333 -17.314  -6.274  1.00  0.00    -0.079 Cl
HETATM    7  C8  UNL     1      56.122 -16.329  -7.554  1.00  0.00     0.134 A 
HETATM    8  N8  UNL     1      54.900 -16.463  -8.082  1.00  0.00    -0.200 N 
ATOM      9  H8  UNL     1      54.458 -15.645  -8.503  1.00  0.00     0.183 HD
ENDROOT
BRANCH   4  10
HETATM   10  N4  UNL     1      56.646 -19.813  -6.391  1.00  0.00    -0.180 N 
HETATM   11  N5  UNL     1      56.239 -20.586  -5.291  1.00  0.00    -0.292 N 
HETATM   12  C5  UNL     1      56.720 -21.776  -5.386  1.00  0.00     0.133 C 
ATOM     13  H5  UNL     1      55.649 -20.253  -4.528  1.00  0.00     0.187 HD
HETATM   14  C6  UNL     1      57.508 -21.822  -6.636  1.00  0.00     0.337 C 
HETATM   15  N7  UNL     1      57.815 -20.425  -6.852  1.00  0.00    -0.077 NA
BRANCH  14  16
HETATM   16  N6  UNL     1      58.710 -22.620  -6.488  1.00  0.00    -0.055 N 
ATOM     17  H63 UNL     1      58.773 -23.025  -5.554  1.00  0.00     0.276 HD
ATOM     18  H62 UNL     1      58.653 -23.481  -7.032  1.00  0.00     0.276 HD
ATOM     19  H61 UNL     1      59.549 -22.090  -6.719  1.00  0.00     0.276 HD
ENDBRANCH  14  16
ENDBRANCH   4  10
BRANCH   1  20
HETATM   20  N2  UNL     1      53.050 -17.721  -8.600  1.00  0.00    -0.224 N 
ATOM     21  H2  UNL     1      52.897 -17.445  -9.570  1.00  0.00     0.177 HD
BRANCH  20  22
HETATM   22  C2  UNL     1      51.947 -18.210  -7.803  1.00  0.00     0.165 C 
BRANCH  22  23
HETATM   23  C1  UNL     1      51.949 -17.526  -6.439  1.00  0.00     0.249 C 
BRANCH  23  24
HETATM   24  N1  UNL     1      51.853 -18.494  -5.374  1.00  0.00    -0.078 N 
ATOM     25  H13 UNL     1      50.967 -18.417  -4.875  1.00  0.00     0.274 HD
ATOM     26  H12 UNL     1      51.745 -19.441  -5.736  1.00  0.00     0.274 HD
ATOM     27  H11 UNL     1      52.649 -18.422  -4.740  1.00  0.00     0.274 HD
ENDBRANCH  23  24
ENDBRANCH  22  23
ENDBRANCH  20  22
ENDBRANCH   1  20
TORSDOF 6
ENDMDL
