MODEL 1
REMARK VINA RESULT: -5.954577062      0.000      0.000
REMARK  1 active torsions:
REMARK  status: ('A' for Active; 'I' for Inactive)
REMARK    1  A    between atoms: N1_1  and  N2_4 
ROOT
HETATM    1  N2  UNL     1      31.085   6.706  56.781  1.00  0.00    -0.262 N 
HETATM    2  C1  UNL     1      31.883   7.902  56.791  1.00  0.00     0.156 C 
HETATM    3  C2  UNL     1      32.786   8.015  57.969  1.00  0.00     0.063 C 
HETATM    4  C3  UNL     1      33.363   6.740  58.418  1.00  0.00    -0.015 A 
HETATM    5  C4  UNL     1      32.822   5.531  58.065  1.00  0.00     0.110 A 
HETATM    6  N3  UNL     1      33.545   4.550  58.613  1.00  0.00    -0.346 N 
ATOM      7  H3  UNL     1      33.375   3.549  58.522  1.00  0.00     0.166 HD
HETATM    8  C5  UNL     1      34.548   5.134  59.315  1.00  0.00     0.108 A 
HETATM    9  C6  UNL     1      34.475   6.503  59.223  1.00  0.00    -0.015 A 
HETATM   10  C7  UNL     1      35.439   7.392  59.902  1.00  0.00     0.061 C 
HETATM   11  C8  UNL     1      36.738   6.662  60.114  1.00  0.00     0.128 C 
HETATM   12  N4  UNL     1      36.540   5.346  60.708  1.00  0.00    -0.355 N 
ATOM     13  H4  UNL     1      37.051   5.066  61.545  1.00  0.00     0.162 HD
HETATM   14  C9  UNL     1      35.601   4.451  60.076  1.00  0.00     0.268 C 
HETATM   15  O1  UNL     1      35.684   3.209  60.173  1.00  0.00    -0.266 OA
HETATM   16  C10 UNL     1      31.622   5.453  57.205  1.00  0.00     0.288 C 
HETATM   17  O2  UNL     1      31.118   4.361  56.876  1.00  0.00    -0.264 OA
ENDROOT
BRANCH   1  18
HETATM   18  N1  UNL     1      29.763   6.744  56.354  1.00  0.00    -0.340 N 
ATOM     19  H12 UNL     1      29.152   7.466  56.737  1.00  0.00     0.177 HD
ATOM     20  H11 UNL     1      29.420   6.066  55.674  1.00  0.00     0.177 HD
ENDBRANCH   1  18
TORSDOF 1
ENDMDL
MODEL 2
REMARK VINA RESULT: -5.873723133      0.943      5.046
REMARK  1 active torsions:
REMARK  status: ('A' for Active; 'I' for Inactive)
REMARK    1  A    between atoms: N1_1  and  N2_4 
ROOT
HETATM    1  N2  UNL     1      35.541   5.441  60.580  1.00  0.00    -0.262 N 
HETATM    2  C1  UNL     1      35.015   6.743  60.890  1.00  0.00     0.156 C 
HETATM    3  C2  UNL     1      34.324   7.403  59.748  1.00  0.00     0.063 C 
HETATM    4  C3  UNL     1      33.564   6.488  58.886  1.00  0.00    -0.015 A 
HETATM    5  C4  UNL     1      33.791   5.136  58.879  1.00  0.00     0.110 A 
HETATM    6  N3  UNL     1      32.964   4.557  58.004  1.00  0.00    -0.346 N 
ATOM      7  H3  UNL     1      32.910   3.561  57.790  1.00  0.00     0.166 HD
HETATM    8  C5  UNL     1      32.208   5.539  57.455  1.00  0.00     0.108 A 
HETATM    9  C6  UNL     1      32.548   6.765  57.974  1.00  0.00    -0.015 A 
HETATM   10  C7  UNL     1      31.890   8.014  57.544  1.00  0.00     0.061 C 
HETATM   11  C8  UNL     1      30.510   7.708  57.027  1.00  0.00     0.128 C 
HETATM   12  N4  UNL     1      30.512   6.612  56.067  1.00  0.00    -0.355 N 
ATOM     13  H4  UNL     1      30.074   6.716  55.151  1.00  0.00     0.162 HD
HETATM   14  C9  UNL     1      31.151   5.376  56.448  1.00  0.00     0.268 C 
HETATM   15  O1  UNL     1      30.829   4.272  55.963  1.00  0.00    -0.266 OA
HETATM   16  C10 UNL     1      34.820   4.529  59.750  1.00  0.00     0.288 C 
HETATM   17  O2  UNL     1      35.039   3.303  59.755  1.00  0.00    -0.264 OA
ENDROOT
BRANCH   1  18
HETATM   18  N1  UNL     1      36.771   5.039  61.086  1.00  0.00    -0.340 N 
ATOM     19  H12 UNL     1      36.889   5.006  62.098  1.00  0.00     0.177 HD
ATOM     20  H11 UNL     1      37.531   4.785  60.455  1.00  0.00     0.177 HD
ENDBRANCH   1  18
TORSDOF 1
ENDMDL
MODEL 3
REMARK VINA RESULT: -5.809296984      7.167      9.022
REMARK  1 active torsions:
REMARK  status: ('A' for Active; 'I' for Inactive)
REMARK    1  A    between atoms: N1_1  and  N2_4 
ROOT
HETATM    1  N2  UNL     1      28.902   7.327  63.057  1.00  0.00    -0.262 N 
HETATM    2  C1  UNL     1      30.073   7.789  62.362  1.00  0.00     0.156 C 
HETATM    3  C2  UNL     1      29.776   8.663  61.194  1.00  0.00     0.063 C 
HETATM    4  C3  UNL     1      28.628   9.562  61.382  1.00  0.00    -0.015 A 
HETATM    5  C4  UNL     1      27.682   9.342  62.350  1.00  0.00     0.110 A 
HETATM    6  N3  UNL     1      26.761  10.308  62.290  1.00  0.00    -0.346 N 
ATOM      7  H3  UNL     1      25.941  10.400  62.889  1.00  0.00     0.166 HD
HETATM    8  C5  UNL     1      27.121  11.144  61.285  1.00  0.00     0.108 A 
HETATM    9  C6  UNL     1      28.282  10.718  60.687  1.00  0.00    -0.015 A 
HETATM   10  C7  UNL     1      28.895  11.437  59.553  1.00  0.00     0.061 C 
HETATM   11  C8  UNL     1      28.489  12.886  59.593  1.00  0.00     0.128 C 
HETATM   12  N4  UNL     1      27.052  13.051  59.763  1.00  0.00    -0.355 N 
ATOM     13  H4  UNL     1      26.512  13.638  59.128  1.00  0.00     0.162 HD
HETATM   14  C9  UNL     1      26.414  12.358  60.857  1.00  0.00     0.268 C 
HETATM   15  O1  UNL     1      25.358  12.761  61.386  1.00  0.00    -0.266 OA
HETATM   16  C10 UNL     1      27.776   8.181  63.260  1.00  0.00     0.288 C 
HETATM   17  O2  UNL     1      26.924   7.968  64.144  1.00  0.00    -0.264 OA
ENDROOT
BRANCH   1  18
HETATM   18  N1  UNL     1      28.842   6.030  63.550  1.00  0.00    -0.340 N 
ATOM     19  H12 UNL     1      28.093   5.422  63.221  1.00  0.00     0.177 HD
ATOM     20  H11 UNL     1      29.534   5.701  64.224  1.00  0.00     0.177 HD
ENDBRANCH   1  18
TORSDOF 1
ENDMDL
MODEL 4
REMARK VINA RESULT: -5.592269911      6.956      7.634
REMARK  1 active torsions:
REMARK  status: ('A' for Active; 'I' for Inactive)
REMARK    1  A    between atoms: N1_1  and  N2_4 
ROOT
HETATM    1  N2  UNL     1      27.772  11.782  60.747  1.00  0.00    -0.262 N 
HETATM    2  C1  UNL     1      27.464  12.099  62.116  1.00  0.00     0.156 C 
HETATM    3  C2  UNL     1      27.112  10.914  62.945  1.00  0.00     0.063 C 
HETATM    4  C3  UNL     1      27.872   9.698  62.623  1.00  0.00    -0.015 A 
HETATM    5  C4  UNL     1      28.533   9.546  61.431  1.00  0.00     0.110 A 
HETATM    6  N3  UNL     1      29.131   8.351  61.411  1.00  0.00    -0.346 N 
ATOM      7  H3  UNL     1      29.693   7.969  60.651  1.00  0.00     0.166 HD
HETATM    8  C5  UNL     1      28.851   7.742  62.589  1.00  0.00     0.108 A 
HETATM    9  C6  UNL     1      28.066   8.545  63.380  1.00  0.00    -0.015 A 
HETATM   10  C7  UNL     1      27.602   8.124  64.717  1.00  0.00     0.061 C 
HETATM   11  C8  UNL     1      28.555   7.108  65.288  1.00  0.00     0.128 C 
HETATM   12  N4  UNL     1      28.856   6.043  64.341  1.00  0.00    -0.355 N 
ATOM     13  H4  UNL     1      28.752   5.063  64.603  1.00  0.00     0.162 HD
HETATM   14  C9  UNL     1      29.307   6.414  63.022  1.00  0.00     0.268 C 
HETATM   15  O1  UNL     1      30.020   5.669  62.317  1.00  0.00    -0.266 OA
HETATM   16  C10 UNL     1      28.515  10.611  60.407  1.00  0.00     0.288 C 
HETATM   17  O2  UNL     1      29.110  10.488  59.319  1.00  0.00    -0.264 OA
ENDROOT
BRANCH   1  18
HETATM   18  N1  UNL     1      27.351  12.617  59.720  1.00  0.00    -0.340 N 
ATOM     19  H12 UNL     1      27.306  13.620  59.900  1.00  0.00     0.177 HD
ATOM     20  H11 UNL     1      27.094  12.230  58.812  1.00  0.00     0.177 HD
ENDBRANCH   1  18
TORSDOF 1
ENDMDL
MODEL 5
REMARK VINA RESULT: -5.588921285      3.077      4.364
REMARK  1 active torsions:
REMARK  status: ('A' for Active; 'I' for Inactive)
REMARK    1  A    between atoms: N1_1  and  N2_4 
ROOT
HETATM    1  N2  UNL     1      33.919   4.602  58.967  1.00  0.00    -0.262 N 
HETATM    2  C1  UNL     1      35.200   4.308  59.552  1.00  0.00     0.156 C 
HETATM    3  C2  UNL     1      36.242   5.333  59.270  1.00  0.00     0.063 C 
HETATM    4  C3  UNL     1      35.745   6.715  59.243  1.00  0.00    -0.015 A 
HETATM    5  C4  UNL     1      34.414   7.008  59.084  1.00  0.00     0.110 A 
HETATM    6  N3  UNL     1      34.253   8.334  59.095  1.00  0.00    -0.346 N 
ATOM      7  H3  UNL     1      33.371   8.837  58.996  1.00  0.00     0.166 HD
HETATM    8  C5  UNL     1      35.480   8.887  59.262  1.00  0.00     0.108 A 
HETATM    9  C6  UNL     1      36.444   7.914  59.359  1.00  0.00    -0.015 A 
HETATM   10  C7  UNL     1      37.874   8.235  59.535  1.00  0.00     0.061 C 
HETATM   11  C8  UNL     1      38.014   9.583  60.191  1.00  0.00     0.128 C 
HETATM   12  N4  UNL     1      37.196  10.599  59.543  1.00  0.00    -0.355 N 
ATOM     13  H4  UNL     1      37.602  11.483  59.236  1.00  0.00     0.162 HD
HETATM   14  C9  UNL     1      35.794  10.319  59.347  1.00  0.00     0.268 C 
HETATM   15  O1  UNL     1      34.932  11.218  59.261  1.00  0.00    -0.266 OA
HETATM   16  C10 UNL     1      33.409   5.935  58.934  1.00  0.00     0.288 C 
HETATM   17  O2  UNL     1      32.197   6.184  58.788  1.00  0.00    -0.264 OA
ENDROOT
BRANCH   1  18
HETATM   18  N1  UNL     1      33.146   3.586  58.419  1.00  0.00    -0.340 N 
ATOM     19  H12 UNL     1      33.058   2.712  58.937  1.00  0.00     0.177 HD
ATOM     20  H11 UNL     1      32.681   3.718  57.521  1.00  0.00     0.177 HD
ENDBRANCH   1  18
TORSDOF 1
ENDMDL
