MODEL 1
REMARK VINA RESULT: -5.759597058      0.000      0.000
REMARK  2 active torsions:
REMARK  status: ('A' for Active; 'I' for Inactive)
REMARK    1  A    between atoms: N1_3  and  C3_5 
REMARK    2  A    between atoms: C3_5  and  N2_7 
REMARK       I    between atoms: N3_10  and  C6_11 
ROOT
HETATM    1  C1  UNL     1      26.721   4.748  55.295  1.00  0.00     0.123 C 
HETATM    2  C2  UNL     1      27.749   5.280  55.701  1.00  0.00    -0.073 C 
HETATM    3  N1  UNL     1      28.880   5.913  56.182  1.00  0.00    -0.303 N 
ATOM      4  H1  UNL     1      28.706   6.810  56.635  1.00  0.00     0.177 HD
ENDROOT
BRANCH   3   5
HETATM    5  C3  UNL     1      30.209   5.528  56.150  1.00  0.00     0.180 C 
HETATM    6  S1  UNL     1      30.517   4.337  54.959  1.00  0.00    -0.040 SA
BRANCH   5   7
HETATM    7  N2  UNL     1      31.292   5.944  56.908  1.00  0.00    -0.354 N 
HETATM    8  C4  UNL     1      31.454   7.394  57.196  1.00  0.00     0.145 C 
HETATM    9  C5  UNL     1      32.197   7.553  58.508  1.00  0.00     0.145 C 
HETATM   10  N3  UNL     1      32.008   6.472  59.422  1.00  0.00    -0.353 N 
HETATM   11  C6  UNL     1      31.824   6.781  60.806  1.00  0.00     0.184 C 
HETATM   12  C7  UNL     1      32.001   5.112  58.979  1.00  0.00     0.145 C 
HETATM   13  N4  UNL     1      32.008   5.905  61.736  1.00  0.00    -0.374 N 
HETATM   14  N5  UNL     1      31.428   8.078  61.210  1.00  0.00    -0.064 NA
ATOM     15  H42 UNL     1      32.293   4.970  61.444  1.00  0.00     0.158 HD
ATOM     16  H41 UNL     1      31.877   6.125  62.723  1.00  0.00     0.158 HD
HETATM   17  C8  UNL     1      32.308   5.135  57.468  1.00  0.00     0.145 C 
ENDBRANCH   5   7
ENDBRANCH   3   5
TORSDOF 2
ENDMDL
MODEL 2
REMARK VINA RESULT: -5.413309891      3.476      6.358
REMARK  2 active torsions:
REMARK  status: ('A' for Active; 'I' for Inactive)
REMARK    1  A    between atoms: N1_3  and  C3_5 
REMARK    2  A    between atoms: C3_5  and  N2_7 
REMARK       I    between atoms: N3_10  and  C6_11 
ROOT
HETATM    1  C1  UNL     1      37.860   8.458  59.677  1.00  0.00     0.123 C 
HETATM    2  C2  UNL     1      37.111   7.539  59.365  1.00  0.00    -0.073 C 
HETATM    3  N1  UNL     1      36.300   6.487  58.982  1.00  0.00    -0.303 N 
ATOM      4  H1  UNL     1      36.618   5.983  58.154  1.00  0.00     0.177 HD
ENDROOT
BRANCH   3   5
HETATM    5  C3  UNL     1      35.128   6.005  59.537  1.00  0.00     0.180 C 
HETATM    6  S1  UNL     1      35.409   5.043  60.926  1.00  0.00    -0.040 SA
BRANCH   5   7
HETATM    7  N2  UNL     1      33.807   6.174  59.156  1.00  0.00    -0.354 N 
HETATM    8  C4  UNL     1      33.425   7.406  58.413  1.00  0.00     0.145 C 
HETATM    9  C5  UNL     1      32.226   7.097  57.537  1.00  0.00     0.145 C 
HETATM   10  N3  UNL     1      32.143   5.734  57.119  1.00  0.00    -0.353 N 
HETATM   11  C6  UNL     1      31.758   5.463  55.769  1.00  0.00     0.184 C 
HETATM   12  C7  UNL     1      32.433   4.659  58.017  1.00  0.00     0.145 C 
HETATM   13  N4  UNL     1      31.307   4.310  55.402  1.00  0.00    -0.374 N 
HETATM   14  N5  UNL     1      31.858   6.464  54.774  1.00  0.00    -0.064 NA
ATOM     15  H42 UNL     1      31.235   3.589  56.119  1.00  0.00     0.158 HD
ATOM     16  H41 UNL     1      31.032   4.117  54.439  1.00  0.00     0.158 HD
HETATM   17  C8  UNL     1      32.726   5.293  59.392  1.00  0.00     0.145 C 
ENDBRANCH   5   7
ENDBRANCH   3   5
TORSDOF 2
ENDMDL
MODEL 3
REMARK VINA RESULT: -5.306925736      3.175      5.921
REMARK  2 active torsions:
REMARK  status: ('A' for Active; 'I' for Inactive)
REMARK    1  A    between atoms: N1_3  and  C3_5 
REMARK    2  A    between atoms: C3_5  and  N2_7 
REMARK       I    between atoms: N3_10  and  C6_11 
ROOT
HETATM    1  C1  UNL     1      36.042   3.760  60.095  1.00  0.00     0.123 C 
HETATM    2  C2  UNL     1      35.875   4.879  59.621  1.00  0.00    -0.073 C 
HETATM    3  N1  UNL     1      35.727   6.134  59.061  1.00  0.00    -0.303 N 
ATOM      4  H1  UNL     1      36.531   6.457  58.521  1.00  0.00     0.177 HD
ENDROOT
BRANCH   3   5
HETATM    5  C3  UNL     1      34.669   7.024  59.111  1.00  0.00     0.180 C 
HETATM    6  S1  UNL     1      35.128   8.552  59.732  1.00  0.00    -0.040 SA
BRANCH   5   7
HETATM    7  N2  UNL     1      33.340   6.874  58.750  1.00  0.00    -0.354 N 
HETATM    8  C4  UNL     1      32.696   7.930  57.923  1.00  0.00     0.145 C 
HETATM    9  C5  UNL     1      31.586   7.301  57.103  1.00  0.00     0.145 C 
HETATM   10  N3  UNL     1      31.796   5.923  56.794  1.00  0.00    -0.353 N 
HETATM   11  C6  UNL     1      31.469   5.467  55.480  1.00  0.00     0.184 C 
HETATM   12  C7  UNL     1      32.318   5.012  57.766  1.00  0.00     0.145 C 
HETATM   13  N4  UNL     1      31.275   4.218  55.214  1.00  0.00    -0.374 N 
HETATM   14  N5  UNL     1      31.343   6.382  54.408  1.00  0.00    -0.064 NA
ATOM     15  H42 UNL     1      31.366   3.559  55.987  1.00  0.00     0.158 HD
ATOM     16  H41 UNL     1      31.041   3.894  54.276  1.00  0.00     0.158 HD
HETATM   17  C8  UNL     1      32.476   5.803  59.080  1.00  0.00     0.145 C 
ENDBRANCH   5   7
ENDBRANCH   3   5
TORSDOF 2
ENDMDL
MODEL 4
REMARK VINA RESULT: -5.274199494      2.133      2.921
REMARK  2 active torsions:
REMARK  status: ('A' for Active; 'I' for Inactive)
REMARK    1  A    between atoms: N1_3  and  C3_5 
REMARK    2  A    between atoms: C3_5  and  N2_7 
REMARK       I    between atoms: N3_10  and  C6_11 
ROOT
HETATM    1  C1  UNL     1      27.711   4.602  55.584  1.00  0.00     0.123 C 
HETATM    2  C2  UNL     1      28.598   5.374  55.930  1.00  0.00    -0.073 C 
HETATM    3  N1  UNL     1      29.565   6.280  56.325  1.00  0.00    -0.303 N 
ATOM      4  H1  UNL     1      29.250   7.250  56.366  1.00  0.00     0.177 HD
ENDROOT
BRANCH   3   5
HETATM    5  C3  UNL     1      30.890   6.088  56.674  1.00  0.00     0.180 C 
HETATM    6  S1  UNL     1      31.877   5.727  55.321  1.00  0.00    -0.040 SA
BRANCH   5   7
HETATM    7  N2  UNL     1      31.521   6.140  57.907  1.00  0.00    -0.354 N 
HETATM    8  C4  UNL     1      31.926   4.866  58.561  1.00  0.00     0.145 C 
HETATM    9  C5  UNL     1      33.125   5.132  59.450  1.00  0.00     0.145 C 
HETATM   10  N3  UNL     1      33.944   6.219  59.017  1.00  0.00    -0.353 N 
HETATM   11  C6  UNL     1      35.363   6.066  59.091  1.00  0.00     0.184 C 
HETATM   12  C7  UNL     1      33.373   7.433  58.522  1.00  0.00     0.145 C 
HETATM   13  N4  UNL     1      36.165   7.079  59.077  1.00  0.00    -0.374 N 
HETATM   14  N5  UNL     1      35.948   4.781  59.184  1.00  0.00    -0.064 NA
ATOM     15  H42 UNL     1      35.743   8.005  59.010  1.00  0.00     0.158 HD
ATOM     16  H41 UNL     1      37.178   6.970  59.130  1.00  0.00     0.158 HD
HETATM   17  C8  UNL     1      31.843   7.294  58.658  1.00  0.00     0.145 C 
ENDBRANCH   5   7
ENDBRANCH   3   5
TORSDOF 2
ENDMDL
MODEL 5
REMARK VINA RESULT: -5.221049880      3.661      6.457
REMARK  2 active torsions:
REMARK  status: ('A' for Active; 'I' for Inactive)
REMARK    1  A    between atoms: N1_3  and  C3_5 
REMARK    2  A    between atoms: C3_5  and  N2_7 
REMARK       I    between atoms: N3_10  and  C6_11 
ROOT
HETATM    1  C1  UNL     1      37.415   3.852  62.202  1.00  0.00     0.123 C 
HETATM    2  C2  UNL     1      36.762   4.119  61.199  1.00  0.00    -0.073 C 
HETATM    3  N1  UNL     1      36.024   4.373  60.058  1.00  0.00    -0.303 N 
ATOM      4  H1  UNL     1      35.904   3.569  59.440  1.00  0.00     0.177 HD
ENDROOT
BRANCH   3   5
HETATM    5  C3  UNL     1      35.419   5.536  59.617  1.00  0.00     0.180 C 
HETATM    6  S1  UNL     1      36.539   6.816  59.409  1.00  0.00    -0.040 SA
BRANCH   5   7
HETATM    7  N2  UNL     1      34.094   5.817  59.328  1.00  0.00    -0.354 N 
HETATM    8  C4  UNL     1      33.752   7.138  58.733  1.00  0.00     0.145 C 
HETATM    9  C5  UNL     1      32.495   6.988  57.898  1.00  0.00     0.145 C 
HETATM   10  N3  UNL     1      32.308   5.682  57.351  1.00  0.00    -0.353 N 
HETATM   11  C6  UNL     1      31.842   5.574  56.005  1.00  0.00     0.184 C 
HETATM   12  C7  UNL     1      32.576   4.506  58.119  1.00  0.00     0.145 C 
HETATM   13  N4  UNL     1      31.305   4.493  55.548  1.00  0.00    -0.374 N 
HETATM   14  N5  UNL     1      31.954   6.666  55.111  1.00  0.00    -0.064 NA
ATOM     15  H42 UNL     1      31.224   3.706  56.193  1.00  0.00     0.158 HD
ATOM     16  H41 UNL     1      30.971   4.416  54.588  1.00  0.00     0.158 HD
HETATM   17  C8  UNL     1      32.974   4.978  59.533  1.00  0.00     0.145 C 
ENDBRANCH   5   7
ENDBRANCH   3   5
TORSDOF 2
ENDMDL
