MODEL 1
REMARK VINA RESULT: -5.849499522      0.000      0.000
REMARK  0 active torsions:
REMARK  status: ('A' for Active; 'I' for Inactive)
REMARK       I    between atoms: C1_4  and  N3_6 
REMARK       I    between atoms: N4_12  and  C7_13 
ROOT
HETATM    1  N1  UNL     1      31.270   4.363  55.476  1.00  0.00    -0.374 N 
ATOM      2  H11 UNL     1      31.204   3.676  56.227  1.00  0.00     0.158 HD
ATOM      3  H12 UNL     1      30.977   4.169  54.518  1.00  0.00     0.158 HD
HETATM    4  C1  UNL     1      31.746   5.528  55.768  1.00  0.00     0.183 C 
HETATM    5  N2  UNL     1      31.837   6.482  54.727  1.00  0.00    -0.064 NA
HETATM    6  N3  UNL     1      32.153   5.798  57.103  1.00  0.00    -0.355 N 
HETATM    7  C2  UNL     1      32.349   7.132  57.643  1.00  0.00     0.126 C 
HETATM    8  C3  UNL     1      32.434   6.921  59.133  1.00  0.00     0.033 C 
HETATM    9  C4  UNL     1      33.156   5.579  59.206  1.00  0.00    -0.005 C 
HETATM   10  C5  UNL     1      34.618   5.703  58.931  1.00  0.00     0.033 C 
HETATM   11  C6  UNL     1      35.344   5.322  60.197  1.00  0.00     0.128 C 
HETATM   12  N4  UNL     1      34.321   5.204  61.226  1.00  0.00    -0.336 N 
HETATM   13  C7  UNL     1      34.550   5.325  62.611  1.00  0.00     0.330 C 
HETATM   14  N5  UNL     1      35.843   5.578  63.111  1.00  0.00    -0.040 NA
HETATM   15  O1  UNL     1      33.597   5.205  63.404  1.00  0.00    -0.251 OA
HETATM   16  C8  UNL     1      33.058   4.946  60.552  1.00  0.00     0.138 C 
HETATM   17  C9  UNL     1      32.432   4.807  58.124  1.00  0.00     0.136 C 
ENDROOT
TORSDOF 0
ENDMDL
MODEL 2
REMARK VINA RESULT: -5.637820519      6.903      8.543
REMARK  0 active torsions:
REMARK  status: ('A' for Active; 'I' for Inactive)
REMARK       I    between atoms: C1_4  and  N3_6 
REMARK       I    between atoms: N4_12  and  C7_13 
ROOT
HETATM    1  N1  UNL     1      28.890   5.978  63.404  1.00  0.00    -0.374 N 
ATOM      2  H11 UNL     1      27.933   6.329  63.357  1.00  0.00     0.158 HD
ATOM      3  H12 UNL     1      29.144   5.124  63.900  1.00  0.00     0.158 HD
HETATM    4  C1  UNL     1      29.809   6.655  62.800  1.00  0.00     0.183 C 
HETATM    5  N2  UNL     1      31.136   6.168  62.863  1.00  0.00    -0.064 NA
HETATM    6  N3  UNL     1      29.454   7.845  62.108  1.00  0.00    -0.355 N 
HETATM    7  C2  UNL     1      30.287   8.486  61.105  1.00  0.00     0.126 C 
HETATM    8  C3  UNL     1      29.367   9.476  60.435  1.00  0.00     0.033 C 
HETATM    9  C4  UNL     1      28.503   9.925  61.610  1.00  0.00    -0.005 C 
HETATM   10  C5  UNL     1      29.217  10.880  62.509  1.00  0.00     0.033 C 
HETATM   11  C6  UNL     1      28.487  12.198  62.429  1.00  0.00     0.128 C 
HETATM   12  N4  UNL     1      27.526  12.059  61.344  1.00  0.00    -0.336 N 
HETATM   13  C7  UNL     1      26.969  13.128  60.615  1.00  0.00     0.330 C 
HETATM   14  N5  UNL     1      27.324  14.461  60.901  1.00  0.00    -0.040 NA
HETATM   15  O1  UNL     1      26.152  12.891  59.704  1.00  0.00    -0.251 OA
HETATM   16  C8  UNL     1      27.268  10.637  61.176  1.00  0.00     0.138 C 
HETATM   17  C9  UNL     1      28.227   8.599  62.285  1.00  0.00     0.136 C 
ENDROOT
TORSDOF 0
ENDMDL
MODEL 3
REMARK VINA RESULT: -5.435484829      6.675      8.507
REMARK  0 active torsions:
REMARK  status: ('A' for Active; 'I' for Inactive)
REMARK       I    between atoms: C1_4  and  N3_6 
REMARK       I    between atoms: N4_12  and  C7_13 
ROOT
HETATM    1  N1  UNL     1      30.280   5.948  61.733  1.00  0.00    -0.374 N 
ATOM      2  H11 UNL     1      30.418   6.389  60.824  1.00  0.00     0.158 HD
ATOM      3  H12 UNL     1      30.421   4.951  61.894  1.00  0.00     0.158 HD
HETATM    4  C1  UNL     1      29.912   6.701  62.716  1.00  0.00     0.183 C 
HETATM    5  N2  UNL     1      29.721   6.090  63.978  1.00  0.00    -0.064 NA
HETATM    6  N3  UNL     1      29.717   8.091  62.492  1.00  0.00    -0.355 N 
HETATM    7  C2  UNL     1      29.669   9.090  63.546  1.00  0.00     0.126 C 
HETATM    8  C3  UNL     1      29.790  10.405  62.817  1.00  0.00     0.033 C 
HETATM    9  C4  UNL     1      29.017  10.110  61.535  1.00  0.00    -0.005 C 
HETATM   10  C5  UNL     1      27.539  10.123  61.745  1.00  0.00     0.033 C 
HETATM   11  C6  UNL     1      26.984  11.269  60.935  1.00  0.00     0.128 C 
HETATM   12  N4  UNL     1      28.138  12.021  60.462  1.00  0.00    -0.336 N 
HETATM   13  C7  UNL     1      28.118  13.377  60.081  1.00  0.00     0.330 C 
HETATM   14  N5  UNL     1      26.925  14.127  60.135  1.00  0.00    -0.040 NA
HETATM   15  O1  UNL     1      29.168  13.921  59.689  1.00  0.00    -0.251 OA
HETATM   16  C8  UNL     1      29.275  11.114  60.464  1.00  0.00     0.138 C 
HETATM   17  C9  UNL     1      29.537   8.728  61.201  1.00  0.00     0.136 C 
ENDROOT
TORSDOF 0
ENDMDL
MODEL 4
REMARK VINA RESULT: -5.415809793      2.236      5.932
REMARK  0 active torsions:
REMARK  status: ('A' for Active; 'I' for Inactive)
REMARK       I    between atoms: C1_4  and  N3_6 
REMARK       I    between atoms: N4_12  and  C7_13 
ROOT
HETATM    1  N1  UNL     1      33.959   5.585  63.423  1.00  0.00    -0.374 N 
ATOM      2  H11 UNL     1      32.987   5.429  63.155  1.00  0.00     0.158 HD
ATOM      3  H12 UNL     1      34.250   5.749  64.386  1.00  0.00     0.158 HD
HETATM    4  C1  UNL     1      34.849   5.568  62.487  1.00  0.00     0.183 C 
HETATM    5  N2  UNL     1      36.198   5.783  62.857  1.00  0.00    -0.064 NA
HETATM    6  N3  UNL     1      34.443   5.338  61.145  1.00  0.00    -0.355 N 
HETATM    7  C2  UNL     1      35.341   4.933  60.077  1.00  0.00     0.126 C 
HETATM    8  C3  UNL     1      34.422   4.494  58.965  1.00  0.00     0.033 C 
HETATM    9  C4  UNL     1      33.265   5.475  59.126  1.00  0.00    -0.005 C 
HETATM   10  C5  UNL     1      33.592   6.834  58.601  1.00  0.00     0.033 C 
HETATM   11  C6  UNL     1      32.674   7.093  57.433  1.00  0.00     0.128 C 
HETATM   12  N4  UNL     1      32.002   5.829  57.162  1.00  0.00    -0.336 N 
HETATM   13  C7  UNL     1      31.432   5.466  55.926  1.00  0.00     0.330 C 
HETATM   14  N5  UNL     1      31.475   6.341  54.823  1.00  0.00    -0.040 NA
HETATM   15  O1  UNL     1      30.879   4.355  55.808  1.00  0.00    -0.251 OA
HETATM   16  C8  UNL     1      32.042   5.048  58.389  1.00  0.00     0.138 C 
HETATM   17  C9  UNL     1      33.093   5.467  60.631  1.00  0.00     0.136 C 
ENDROOT
TORSDOF 0
ENDMDL
MODEL 5
REMARK VINA RESULT: -5.394548504      1.785      1.940
REMARK  0 active torsions:
REMARK  status: ('A' for Active; 'I' for Inactive)
REMARK       I    between atoms: C1_4  and  N3_6 
REMARK       I    between atoms: N4_12  and  C7_13 
ROOT
HETATM    1  N1  UNL     1      31.758   4.590  55.837  1.00  0.00    -0.374 N 
ATOM      2  H11 UNL     1      32.404   3.817  55.994  1.00  0.00     0.158 HD
ATOM      3  H12 UNL     1      31.200   4.683  54.988  1.00  0.00     0.158 HD
HETATM    4  C1  UNL     1      31.651   5.482  56.764  1.00  0.00     0.183 C 
HETATM    5  N2  UNL     1      30.754   6.555  56.547  1.00  0.00    -0.064 NA
HETATM    6  N3  UNL     1      32.429   5.352  57.947  1.00  0.00    -0.355 N 
HETATM    7  C2  UNL     1      32.148   6.049  59.190  1.00  0.00     0.126 C 
HETATM    8  C3  UNL     1      33.006   5.347  60.212  1.00  0.00     0.033 C 
HETATM    9  C4  UNL     1      34.244   5.011  59.385  1.00  0.00    -0.005 C 
HETATM   10  C5  UNL     1      35.119   6.200  59.162  1.00  0.00     0.033 C 
HETATM   11  C6  UNL     1      36.426   5.930  59.864  1.00  0.00     0.128 C 
HETATM   12  N4  UNL     1      36.216   4.723  60.652  1.00  0.00    -0.336 N 
HETATM   13  C7  UNL     1      36.962   4.362  61.791  1.00  0.00     0.330 C 
HETATM   14  N5  UNL     1      38.008   5.181  62.261  1.00  0.00    -0.040 NA
HETATM   15  O1  UNL     1      36.695   3.302  62.390  1.00  0.00    -0.251 OA
HETATM   16  C8  UNL     1      35.114   3.995  60.042  1.00  0.00     0.138 C 
HETATM   17  C9  UNL     1      33.605   4.518  58.104  1.00  0.00     0.136 C 
ENDROOT
TORSDOF 0
ENDMDL
