MODEL 1
REMARK VINA RESULT: -6.305843193      0.000      0.000
REMARK  3 active torsions:
REMARK  status: ('A' for Active; 'I' for Inactive)
REMARK    1  A    between atoms: O1_2  and  C2_3 
REMARK    2  A    between atoms: C2_3  and  C3_5 
REMARK    3  A    between atoms: C3_5  and  C4_6 
ROOT
HETATM    1  C3  UNL     1      32.645   5.407  59.481  1.00  0.00     0.369 C 
HETATM    2  N2  UNL     1      32.891   6.718  60.050  1.00  0.00    -0.012 N 
ATOM      3  H21 UNL     1      33.869   6.997  59.972  1.00  0.00     0.282 HD
ATOM      4  H22 UNL     1      32.822   6.717  61.067  1.00  0.00     0.282 HD
HETATM    5  C5  UNL     1      32.001   7.674  59.444  1.00  0.00     0.202 C 
HETATM    6  C6  UNL     1      31.419   8.459  60.572  1.00  0.00     0.061 C 
HETATM    7  C7  UNL     1      30.897   9.774  60.084  1.00  0.00     0.004 C 
HETATM    8  C8  UNL     1      32.104  10.597  59.665  1.00  0.00     0.000 C 
HETATM    9  C9  UNL     1      33.010   9.896  58.718  1.00  0.00     0.004 C 
HETATM   10  C10 UNL     1      32.664   8.516  58.370  1.00  0.00     0.061 C 
HETATM   11  N3  UNL     1      31.061   6.895  58.687  1.00  0.00    -0.325 N 
ATOM     12  H3  UNL     1      30.116   7.167  58.420  1.00  0.00     0.165 HD
HETATM   13  C11 UNL     1      31.703   5.684  58.391  1.00  0.00     0.276 C 
HETATM   14  O4  UNL     1      31.528   4.974  57.322  1.00  0.00    -0.269 OA
ENDROOT
BRANCH   1  15
HETATM   15  C2  UNL     1      33.888   4.695  59.208  1.00  0.00     0.314 C 
HETATM   16  O2  UNL     1      34.004   3.582  59.719  1.00  0.00    -0.261 OA
BRANCH  15  17
HETATM   17  O1  UNL     1      34.852   5.274  58.482  1.00  0.00    -0.324 OA
HETATM   18  C1  UNL     1      35.951   5.993  59.003  1.00  0.00     0.213 C 
ENDBRANCH  15  17
ENDBRANCH   1  15
BRANCH   1  19
HETATM   19  C4  UNL     1      31.745   4.616  60.435  1.00  0.00     0.288 C 
HETATM   20  N1  UNL     1      30.601   3.904  60.084  1.00  0.00    -0.059 NA
HETATM   21  O3  UNL     1      32.020   4.588  61.690  1.00  0.00    -0.273 OA
ENDBRANCH   1  19
TORSDOF 3
ENDMDL
MODEL 2
REMARK VINA RESULT: -6.240200546      0.997      1.322
REMARK  3 active torsions:
REMARK  status: ('A' for Active; 'I' for Inactive)
REMARK    1  A    between atoms: O1_2  and  C2_3 
REMARK    2  A    between atoms: C2_3  and  C3_5 
REMARK    3  A    between atoms: C3_5  and  C4_6 
ROOT
HETATM    1  C3  UNL     1      32.757   5.689  59.316  1.00  0.00     0.369 C 
HETATM    2  N2  UNL     1      32.751   6.956  60.020  1.00  0.00    -0.012 N 
ATOM      3  H21 UNL     1      33.691   7.329  60.155  1.00  0.00     0.282 HD
ATOM      4  H22 UNL     1      32.495   6.852  61.002  1.00  0.00     0.282 HD
HETATM    5  C5  UNL     1      31.891   7.880  59.329  1.00  0.00     0.202 C 
HETATM    6  C6  UNL     1      31.029   8.497  60.380  1.00  0.00     0.061 C 
HETATM    7  C7  UNL     1      30.467   9.800  59.902  1.00  0.00     0.004 C 
HETATM    8  C8  UNL     1      31.634  10.766  59.789  1.00  0.00     0.000 C 
HETATM    9  C9  UNL     1      32.770  10.245  58.984  1.00  0.00     0.004 C 
HETATM   10  C10 UNL     1      32.645   8.879  58.472  1.00  0.00     0.061 C 
HETATM   11  N3  UNL     1      31.197   7.095  58.347  1.00  0.00    -0.325 N 
ATOM     12  H3  UNL     1      30.293   7.304  57.923  1.00  0.00     0.165 HD
HETATM   13  C11 UNL     1      32.009   5.982  58.089  1.00  0.00     0.276 C 
HETATM   14  O4  UNL     1      32.112   5.365  56.955  1.00  0.00    -0.269 OA
ENDROOT
BRANCH   1  15
HETATM   15  C2  UNL     1      34.099   5.123  59.235  1.00  0.00     0.314 C 
HETATM   16  O2  UNL     1      34.917   5.748  58.563  1.00  0.00    -0.261 OA
BRANCH  15  17
HETATM   17  O1  UNL     1      34.374   3.953  59.827  1.00  0.00    -0.324 OA
HETATM   18  C1  UNL     1      35.654   3.524  60.238  1.00  0.00     0.213 C 
ENDBRANCH  15  17
ENDBRANCH   1  15
BRANCH   1  19
HETATM   19  C4  UNL     1      31.787   4.731  60.014  1.00  0.00     0.288 C 
HETATM   20  N1  UNL     1      31.665   4.542  61.388  1.00  0.00    -0.059 NA
HETATM   21  O3  UNL     1      31.003   3.998  59.308  1.00  0.00    -0.273 OA
ENDBRANCH   1  19
TORSDOF 3
ENDMDL
MODEL 3
REMARK VINA RESULT: -6.050411269      6.548      8.784
REMARK  3 active torsions:
REMARK  status: ('A' for Active; 'I' for Inactive)
REMARK    1  A    between atoms: O1_2  and  C2_3 
REMARK    2  A    between atoms: C2_3  and  C3_5 
REMARK    3  A    between atoms: C3_5  and  C4_6 
ROOT
HETATM    1  C3  UNL     1      27.181  12.655  61.146  1.00  0.00     0.369 C 
HETATM    2  N2  UNL     1      28.285  11.729  61.308  1.00  0.00    -0.012 N 
ATOM      3  H21 UNL     1      27.970  10.763  61.401  1.00  0.00     0.282 HD
ATOM      4  H22 UNL     1      28.738  11.822  62.217  1.00  0.00     0.282 HD
HETATM    5  C5  UNL     1      29.211  11.898  60.218  1.00  0.00     0.202 C 
HETATM    6  C6  UNL     1      30.565  11.971  60.844  1.00  0.00     0.061 C 
HETATM    7  C7  UNL     1      31.626  11.638  59.843  1.00  0.00     0.004 C 
HETATM    8  C8  UNL     1      31.468  10.164  59.511  1.00  0.00     0.000 C 
HETATM    9  C9  UNL     1      30.089   9.783  59.107  1.00  0.00     0.004 C 
HETATM   10  C10 UNL     1      29.075  10.837  59.143  1.00  0.00     0.061 C 
HETATM   11  N3  UNL     1      28.785  13.087  59.535  1.00  0.00    -0.325 N 
ATOM     12  H3  UNL     1      29.359  13.701  58.959  1.00  0.00     0.165 HD
HETATM   13  C11 UNL     1      27.420  13.235  59.820  1.00  0.00     0.276 C 
HETATM   14  O4  UNL     1      26.531  13.744  59.028  1.00  0.00    -0.269 OA
ENDROOT
BRANCH   1  15
HETATM   15  C2  UNL     1      25.901  12.027  61.448  1.00  0.00     0.314 C 
HETATM   16  O2  UNL     1      25.773  10.852  61.105  1.00  0.00    -0.261 OA
BRANCH  15  17
HETATM   17  O1  UNL     1      24.919  12.737  62.019  1.00  0.00    -0.324 OA
HETATM   18  C1  UNL     1      24.481  12.603  63.354  1.00  0.00     0.213 C 
ENDBRANCH  15  17
ENDBRANCH   1  15
BRANCH   1  19
HETATM   19  C4  UNL     1      27.427  13.878  62.034  1.00  0.00     0.288 C 
HETATM   20  N1  UNL     1      27.223  15.208  61.677  1.00  0.00    -0.059 NA
HETATM   21  O3  UNL     1      27.881  13.715  63.226  1.00  0.00    -0.273 OA
ENDBRANCH   1  19
TORSDOF 3
ENDMDL
MODEL 4
REMARK VINA RESULT: -6.037295777      1.498      1.729
REMARK  3 active torsions:
REMARK  status: ('A' for Active; 'I' for Inactive)
REMARK    1  A    between atoms: O1_2  and  C2_3 
REMARK    2  A    between atoms: C2_3  and  C3_5 
REMARK    3  A    between atoms: C3_5  and  C4_6 
ROOT
HETATM    1  C3  UNL     1      32.337   6.120  58.269  1.00  0.00     0.369 C 
HETATM    2  N2  UNL     1      32.152   7.081  59.339  1.00  0.00    -0.012 N 
ATOM      3  H21 UNL     1      33.036   7.363  59.763  1.00  0.00     0.282 HD
ATOM      4  H22 UNL     1      31.722   6.664  60.164  1.00  0.00     0.282 HD
HETATM    5  C5  UNL     1      31.403   8.206  58.843  1.00  0.00     0.202 C 
HETATM    6  C6  UNL     1      30.338   8.463  59.856  1.00  0.00     0.061 C 
HETATM    7  C7  UNL     1      29.828   9.865  59.740  1.00  0.00     0.004 C 
HETATM    8  C8  UNL     1      30.959  10.781  60.174  1.00  0.00     0.000 C 
HETATM    9  C9  UNL     1      32.244  10.525  59.471  1.00  0.00     0.004 C 
HETATM   10  C10 UNL     1      32.267   9.411  58.522  1.00  0.00     0.061 C 
HETATM   11  N3  UNL     1      30.934   7.810  57.544  1.00  0.00    -0.325 N 
ATOM     12  H3  UNL     1      30.118   8.173  57.051  1.00  0.00     0.165 HD
HETATM   13  C11 UNL     1      31.821   6.823  57.090  1.00  0.00     0.276 C 
HETATM   14  O4  UNL     1      32.156   6.615  55.857  1.00  0.00    -0.269 OA
ENDROOT
BRANCH   1  15
HETATM   15  C2  UNL     1      33.689   5.575  58.260  1.00  0.00     0.314 C 
HETATM   16  O2  UNL     1      33.795   4.376  58.008  1.00  0.00    -0.261 OA
BRANCH  15  17
HETATM   17  O1  UNL     1      34.733   6.356  58.568  1.00  0.00    -0.324 OA
HETATM   18  C1  UNL     1      35.923   5.924  59.193  1.00  0.00     0.213 C 
ENDBRANCH  15  17
ENDBRANCH   1  15
BRANCH   1  19
HETATM   19  C4  UNL     1      31.289   5.012  58.415  1.00  0.00     0.288 C 
HETATM   20  N1  UNL     1      30.999   4.303  59.578  1.00  0.00    -0.059 NA
HETATM   21  O3  UNL     1      30.599   4.653  57.392  1.00  0.00    -0.273 OA
ENDBRANCH   1  19
TORSDOF 3
ENDMDL
MODEL 5
REMARK VINA RESULT: -5.995621327      2.060      3.404
REMARK  3 active torsions:
REMARK  status: ('A' for Active; 'I' for Inactive)
REMARK    1  A    between atoms: O1_2  and  C2_3 
REMARK    2  A    between atoms: C2_3  and  C3_5 
REMARK    3  A    between atoms: C3_5  and  C4_6 
ROOT
HETATM    1  C3  UNL     1      31.908   6.488  57.782  1.00  0.00     0.369 C 
HETATM    2  N2  UNL     1      30.621   6.935  58.279  1.00  0.00    -0.012 N 
ATOM      3  H21 UNL     1      30.199   6.262  58.919  1.00  0.00     0.282 HD
ATOM      4  H22 UNL     1      29.901   6.918  57.556  1.00  0.00     0.282 HD
HETATM    5  C5  UNL     1      30.767   8.237  58.874  1.00  0.00     0.202 C 
HETATM    6  C6  UNL     1      29.653   9.063  58.321  1.00  0.00     0.061 C 
HETATM    7  C7  UNL     1      29.378  10.237  59.207  1.00  0.00     0.004 C 
HETATM    8  C8  UNL     1      28.802   9.686  60.500  1.00  0.00     0.000 C 
HETATM    9  C9  UNL     1      29.631   8.618  61.120  1.00  0.00     0.004 C 
HETATM   10  C10 UNL     1      30.829   8.203  60.389  1.00  0.00     0.061 C 
HETATM   11  N3  UNL     1      32.089   8.672  58.521  1.00  0.00    -0.325 N 
ATOM     12  H3  UNL     1      32.420   9.635  58.456  1.00  0.00     0.165 HD
HETATM   13  C11 UNL     1      32.835   7.509  58.281  1.00  0.00     0.276 C 
HETATM   14  O4  UNL     1      34.100   7.359  58.512  1.00  0.00    -0.269 OA
ENDROOT
BRANCH   1  15
HETATM   15  C2  UNL     1      32.144   5.080  58.081  1.00  0.00     0.314 C 
HETATM   16  O2  UNL     1      31.181   4.442  58.503  1.00  0.00    -0.261 OA
BRANCH  15  17
HETATM   17  O1  UNL     1      33.369   4.558  57.946  1.00  0.00    -0.324 OA
HETATM   18  C1  UNL     1      34.141   3.996  58.987  1.00  0.00     0.213 C 
ENDBRANCH  15  17
ENDBRANCH   1  15
BRANCH   1  19
HETATM   19  C4  UNL     1      31.977   6.758  56.276  1.00  0.00     0.288 C 
HETATM   20  N1  UNL     1      31.712   5.840  55.264  1.00  0.00    -0.059 NA
HETATM   21  O3  UNL     1      32.326   7.922  55.856  1.00  0.00    -0.273 OA
ENDBRANCH   1  19
TORSDOF 3
ENDMDL
