MODEL 1
REMARK VINA RESULT: -5.773219346      0.000      0.000
REMARK  2 active torsions:
REMARK  status: ('A' for Active; 'I' for Inactive)
REMARK    1  A    between atoms: C1_2  and  C2_3 
REMARK    2  A    between atoms: C2_3  and  N1_4 
ROOT
HETATM    1  N1  UNL     1      31.410   6.116  56.128  1.00  0.00     0.121 N 
HETATM    2  C3  UNL     1      30.137   6.650  56.666  1.00  0.00     0.302 C 
HETATM    3  C4  UNL     1      30.457   8.002  57.273  1.00  0.00     0.262 C 
HETATM    4  N2  UNL     1      29.262   8.644  57.698  1.00  0.00    -0.071 N 
ATOM      5  H21 UNL     1      28.604   7.958  58.068  1.00  0.00     0.277 HD
ATOM      6  H22 UNL     1      28.734   8.979  56.893  1.00  0.00     0.277 HD
HETATM    7  C5  UNL     1      29.455   9.706  58.643  1.00  0.00     0.258 C 
HETATM    8  C6  UNL     1      30.468   9.401  59.708  1.00  0.00     0.195 C 
HETATM    9  O2  UNL     1      30.021   8.325  60.446  1.00  0.00    -0.388 OA
HETATM   10  C7  UNL     1      30.404   8.385  61.788  1.00  0.00     0.195 C 
HETATM   11  C8  UNL     1      31.085   7.111  62.185  1.00  0.00     0.258 C 
HETATM   12  N3  UNL     1      31.327   6.316  61.015  1.00  0.00    -0.073 N 
ATOM     13  H31 UNL     1      31.822   6.860  60.307  1.00  0.00     0.277 HD
ATOM     14  H32 UNL     1      30.455   6.137  60.515  1.00  0.00     0.277 HD
HETATM   15  C9  UNL     1      32.020   5.083  61.280  1.00  0.00     0.234 C 
HETATM   16  C10 UNL     1      32.980   4.858  60.128  1.00  0.00     0.055 C 
HETATM   17  C11 UNL     1      32.297   4.096  59.041  1.00  0.00     0.236 C 
HETATM   18  N4  UNL     1      31.389   4.914  58.235  1.00  0.00    -0.049 N 
ATOM     19  H41 UNL     1      30.817   5.547  58.794  1.00  0.00     0.279 HD
ATOM     20  H42 UNL     1      30.625   4.377  57.823  1.00  0.00     0.279 HD
HETATM   21  C12 UNL     1      32.195   5.599  57.248  1.00  0.00     0.503 C 
ENDROOT
BRANCH   1  22
HETATM   22  C2  UNL     1      31.082   5.037  55.204  1.00  0.00     0.343 C 
BRANCH  22  23
HETATM   23  C1  UNL     1      29.608   4.882  55.079  1.00  0.00     0.261 C 
HETATM   24  O1  UNL     1      29.106   4.682  54.007  1.00  0.00    -0.305 OA
ENDBRANCH  22  23
ENDBRANCH   1  22
TORSDOF 2
ENDMDL
MODEL 2
REMARK VINA RESULT: -5.705256806      1.062      1.124
REMARK  2 active torsions:
REMARK  status: ('A' for Active; 'I' for Inactive)
REMARK    1  A    between atoms: C1_2  and  C2_3 
REMARK    2  A    between atoms: C2_3  and  N1_4 
ROOT
HETATM    1  N1  UNL     1      30.844   5.749  55.809  1.00  0.00     0.121 N 
HETATM    2  C3  UNL     1      29.871   6.345  56.754  1.00  0.00     0.302 C 
HETATM    3  C4  UNL     1      30.387   7.730  57.091  1.00  0.00     0.262 C 
HETATM    4  N2  UNL     1      29.442   8.424  57.894  1.00  0.00    -0.071 N 
ATOM      5  H21 UNL     1      28.983   7.778  58.537  1.00  0.00     0.277 HD
ATOM      6  H22 UNL     1      28.641   8.710  57.331  1.00  0.00     0.277 HD
HETATM    7  C5  UNL     1      29.973   9.546  58.611  1.00  0.00     0.258 C 
HETATM    8  C6  UNL     1      31.321   9.299  59.225  1.00  0.00     0.195 C 
HETATM    9  O2  UNL     1      31.202   8.288  60.155  1.00  0.00    -0.388 OA
HETATM   10  C7  UNL     1      32.071   8.436  61.237  1.00  0.00     0.195 C 
HETATM   11  C8  UNL     1      32.865   7.181  61.435  1.00  0.00     0.258 C 
HETATM   12  N3  UNL     1      32.646   6.300  60.323  1.00  0.00    -0.073 N 
ATOM     13  H31 UNL     1      32.825   6.781  59.442  1.00  0.00     0.277 HD
ATOM     14  H32 UNL     1      31.651   6.102  60.212  1.00  0.00     0.277 HD
HETATM   15  C9  UNL     1      33.400   5.076  60.392  1.00  0.00     0.234 C 
HETATM   16  C10 UNL     1      33.845   4.750  58.980  1.00  0.00     0.055 C 
HETATM   17  C11 UNL     1      32.803   3.926  58.297  1.00  0.00     0.236 C 
HETATM   18  N4  UNL     1      31.647   4.701  57.844  1.00  0.00    -0.049 N 
ATOM     19  H41 UNL     1      31.329   5.384  58.532  1.00  0.00     0.279 HD
ATOM     20  H42 UNL     1      30.790   4.151  57.799  1.00  0.00     0.279 HD
HETATM   21  C12 UNL     1      32.006   5.298  56.576  1.00  0.00     0.503 C 
ENDROOT
BRANCH   1  22
HETATM   22  C2  UNL     1      30.197   4.612  55.165  1.00  0.00     0.343 C 
BRANCH  22  23
HETATM   23  C1  UNL     1      28.735   4.615  55.439  1.00  0.00     0.261 C 
HETATM   24  O1  UNL     1      27.946   4.642  54.535  1.00  0.00    -0.305 OA
ENDBRANCH  22  23
ENDBRANCH   1  22
TORSDOF 2
ENDMDL
MODEL 3
REMARK VINA RESULT: -5.386877807      2.326      5.432
REMARK  2 active torsions:
REMARK  status: ('A' for Active; 'I' for Inactive)
REMARK    1  A    between atoms: C1_2  and  C2_3 
REMARK    2  A    between atoms: C2_3  and  N1_4 
ROOT
HETATM    1  N1  UNL     1      30.122   9.542  60.204  1.00  0.00     0.121 N 
HETATM    2  C3  UNL     1      29.981   8.298  60.996  1.00  0.00     0.302 C 
HETATM    3  C4  UNL     1      31.380   7.892  61.417  1.00  0.00     0.262 C 
HETATM    4  N2  UNL     1      31.324   6.774  62.294  1.00  0.00    -0.071 N 
ATOM      5  H21 UNL     1      30.571   6.145  62.016  1.00  0.00     0.277 HD
ATOM      6  H22 UNL     1      30.984   7.061  63.211  1.00  0.00     0.277 HD
HETATM    7  C5  UNL     1      32.555   6.050  62.422  1.00  0.00     0.258 C 
HETATM    8  C6  UNL     1      33.286   5.849  61.126  1.00  0.00     0.195 C 
HETATM    9  O2  UNL     1      32.495   5.090  60.289  1.00  0.00    -0.388 OA
HETATM   10  C7  UNL     1      33.234   4.257  59.447  1.00  0.00     0.195 C 
HETATM   11  C8  UNL     1      32.820   4.468  58.022  1.00  0.00     0.258 C 
HETATM   12  N3  UNL     1      31.955   5.611  57.943  1.00  0.00    -0.073 N 
ATOM     13  H31 UNL     1      32.389   6.422  58.385  1.00  0.00     0.277 HD
ATOM     14  H32 UNL     1      31.148   5.493  58.556  1.00  0.00     0.277 HD
HETATM   15  C9  UNL     1      31.532   5.930  56.605  1.00  0.00     0.234 C 
HETATM   16  C10 UNL     1      31.505   7.442  56.499  1.00  0.00     0.055 C 
HETATM   17  C11 UNL     1      30.165   7.956  56.912  1.00  0.00     0.236 C 
HETATM   18  N4  UNL     1      29.966   7.970  58.363  1.00  0.00    -0.049 N 
ATOM     19  H41 UNL     1      30.307   7.126  58.822  1.00  0.00     0.279 HD
ATOM     20  H42 UNL     1      28.987   7.880  58.633  1.00  0.00     0.279 HD
HETATM   21  C12 UNL     1      30.585   9.178  58.865  1.00  0.00     0.503 C 
ENDROOT
BRANCH   1  22
HETATM   22  C2  UNL     1      28.807  10.169  60.128  1.00  0.00     0.343 C 
BRANCH  22  23
HETATM   23  C1  UNL     1      28.884  11.463  59.399  1.00  0.00     0.261 C 
HETATM   24  O1  UNL     1      28.072  11.738  58.560  1.00  0.00    -0.305 OA
ENDBRANCH  22  23
ENDBRANCH   1  22
TORSDOF 2
ENDMDL
MODEL 4
REMARK VINA RESULT: -5.325609675      2.166      2.382
REMARK  2 active torsions:
REMARK  status: ('A' for Active; 'I' for Inactive)
REMARK    1  A    between atoms: C1_2  and  C2_3 
REMARK    2  A    between atoms: C2_3  and  N1_4 
ROOT
HETATM    1  N1  UNL     1      30.924   6.289  56.527  1.00  0.00     0.121 N 
HETATM    2  C3  UNL     1      30.586   7.180  57.661  1.00  0.00     0.302 C 
HETATM    3  C4  UNL     1      31.635   8.274  57.679  1.00  0.00     0.262 C 
HETATM    4  N2  UNL     1      31.311   9.249  58.662  1.00  0.00    -0.071 N 
ATOM      5  H21 UNL     1      30.890   8.804  59.477  1.00  0.00     0.277 HD
ATOM      6  H22 UNL     1      30.526   9.820  58.348  1.00  0.00     0.277 HD
HETATM    7  C5  UNL     1      32.406  10.085  59.062  1.00  0.00     0.258 C 
HETATM    8  C6  UNL     1      33.701   9.350  59.249  1.00  0.00     0.195 C 
HETATM    9  O2  UNL     1      33.543   8.434  60.268  1.00  0.00    -0.388 OA
HETATM   10  C7  UNL     1      34.710   8.233  61.008  1.00  0.00     0.195 C 
HETATM   11  C8  UNL     1      35.029   6.770  61.076  1.00  0.00     0.258 C 
HETATM   12  N3  UNL     1      34.166   6.052  60.182  1.00  0.00    -0.073 N 
ATOM     13  H31 UNL     1      34.206   6.453  59.245  1.00  0.00     0.277 HD
ATOM     14  H32 UNL     1      33.187   6.235  60.405  1.00  0.00     0.277 HD
HETATM   15  C9  UNL     1      34.419   4.637  60.138  1.00  0.00     0.234 C 
HETATM   16  C10 UNL     1      34.236   4.199  58.698  1.00  0.00     0.055 C 
HETATM   17  C11 UNL     1      32.810   3.826  58.458  1.00  0.00     0.236 C 
HETATM   18  N4  UNL     1      31.921   4.980  58.309  1.00  0.00    -0.049 N 
ATOM     19  H41 UNL     1      32.105   5.717  58.989  1.00  0.00     0.279 HD
ATOM     20  H42 UNL     1      30.959   4.782  58.587  1.00  0.00     0.279 HD
HETATM   21  C12 UNL     1      32.033   5.430  56.939  1.00  0.00     0.503 C 
ENDROOT
BRANCH   1  22
HETATM   22  C2  UNL     1      29.745   5.481  56.233  1.00  0.00     0.343 C 
BRANCH  22  23
HETATM   23  C1  UNL     1      30.043   4.486  55.168  1.00  0.00     0.261 C 
HETATM   24  O1  UNL     1      29.557   4.601  54.077  1.00  0.00    -0.305 OA
ENDBRANCH  22  23
ENDBRANCH   1  22
TORSDOF 2
ENDMDL
MODEL 5
REMARK VINA RESULT: -5.286012575      2.430      5.493
REMARK  2 active torsions:
REMARK  status: ('A' for Active; 'I' for Inactive)
REMARK    1  A    between atoms: C1_2  and  C2_3 
REMARK    2  A    between atoms: C2_3  and  N1_4 
ROOT
HETATM    1  N1  UNL     1      29.450  10.347  60.010  1.00  0.00     0.121 N 
HETATM    2  C3  UNL     1      28.839   9.283  60.839  1.00  0.00     0.302 C 
HETATM    3  C4  UNL     1      29.936   8.752  61.740  1.00  0.00     0.262 C 
HETATM    4  N2  UNL     1      29.400   7.812  62.663  1.00  0.00    -0.071 N 
ATOM      5  H21 UNL     1      28.664   7.262  62.220  1.00  0.00     0.277 HD
ATOM      6  H22 UNL     1      28.856   8.291  63.380  1.00  0.00     0.277 HD
HETATM    7  C5  UNL     1      30.371   6.947  63.269  1.00  0.00     0.258 C 
HETATM    8  C6  UNL     1      31.413   6.434  62.318  1.00  0.00     0.195 C 
HETATM    9  O2  UNL     1      30.790   5.672  61.352  1.00  0.00    -0.388 OA
HETATM   10  C7  UNL     1      31.580   4.614  60.897  1.00  0.00     0.195 C 
HETATM   11  C8  UNL     1      31.673   4.649  59.402  1.00  0.00     0.258 C 
HETATM   12  N3  UNL     1      31.109   5.877  58.919  1.00  0.00    -0.073 N 
ATOM     13  H31 UNL     1      31.531   6.677  59.390  1.00  0.00     0.277 HD
ATOM     14  H32 UNL     1      30.145   5.979  59.238  1.00  0.00     0.277 HD
HETATM   15  C9  UNL     1      31.188   6.032  57.490  1.00  0.00     0.234 C 
HETATM   16  C10 UNL     1      31.483   7.495  57.220  1.00  0.00     0.055 C 
HETATM   17  C11 UNL     1      30.204   8.258  57.108  1.00  0.00     0.236 C 
HETATM   18  N4  UNL     1      29.575   8.537  58.400  1.00  0.00    -0.049 N 
ATOM     19  H41 UNL     1      29.590   7.738  59.034  1.00  0.00     0.279 HD
ATOM     20  H42 UNL     1      28.561   8.636  58.338  1.00  0.00     0.279 HD
HETATM   21  C12 UNL     1      30.226   9.707  58.947  1.00  0.00     0.503 C 
ENDROOT
BRANCH   1  22
HETATM   22  C2  UNL     1      28.368  11.138  59.435  1.00  0.00     0.343 C 
BRANCH  22  23
HETATM   23  C1  UNL     1      28.624  12.592  59.620  1.00  0.00     0.261 C 
HETATM   24  O1  UNL     1      28.054  13.401  58.942  1.00  0.00    -0.305 OA
ENDBRANCH  22  23
ENDBRANCH   1  22
TORSDOF 2
ENDMDL
