MODEL 1
REMARK VINA RESULT: -6.295466955      0.000      0.000
REMARK  6 active torsions:
REMARK  status: ('A' for Active; 'I' for Inactive)
REMARK    1  A    between atoms: C2_3  and  N2_4 
REMARK    2  A    between atoms: C2_3  and  C3_8 
REMARK    3  A    between atoms: C2_3  and  N5_17 
REMARK       I    between atoms: C3_8  and  N3_10 
REMARK    4  A    between atoms: N3_10  and  C4_12 
REMARK    5  A    between atoms: C4_12  and  N4_13 
REMARK    6  A    between atoms: N4_13  and  O2_15 
ROOT
HETATM    1  N1  UNL     1     -13.681 -11.194 -32.596  1.00  0.00    -0.192 NA
HETATM    2  C1  UNL     1     -14.225 -12.209 -32.502  1.00  0.00     0.134 C 
HETATM    3  C2  UNL     1     -14.935 -13.506 -32.400  1.00  0.00     0.386 C 
ENDROOT
BRANCH   3   4
HETATM    4  N2  UNL     1     -16.085 -13.245 -31.537  1.00  0.00    -0.028 N 
ATOM      5  H23 UNL     1     -16.150 -12.279 -31.218  1.00  0.00     0.279 HD
ATOM      6  H22 UNL     1     -16.980 -13.269 -32.025  1.00  0.00     0.279 HD
ATOM      7  H21 UNL     1     -16.010 -13.925 -30.781  1.00  0.00     0.279 HD
ENDBRANCH   3   4
BRANCH   3   8
HETATM    8  C3  UNL     1     -15.353 -13.999 -33.718  1.00  0.00     0.296 C 
HETATM    9  O1  UNL     1     -14.544 -14.045 -34.667  1.00  0.00    -0.267 OA
HETATM   10  N3  UNL     1     -16.673 -14.439 -33.963  1.00  0.00    -0.317 N 
ATOM     11  H3  UNL     1     -17.344 -14.406 -33.195  1.00  0.00     0.169 HD
BRANCH  10  12
HETATM   12  C4  UNL     1     -17.112 -14.922 -35.218  1.00  0.00     0.206 C 
BRANCH  12  13
HETATM   13  N4  UNL     1     -16.459 -15.874 -35.776  1.00  0.00    -0.265 N 
ATOM     14  H4  UNL     1     -15.717 -15.636 -36.434  1.00  0.00     0.194 HD
BRANCH  13  15
HETATM   15  O2  UNL     1     -16.716 -17.203 -35.525  1.00  0.00    -0.289 OA
ATOM     16  H2  UNL     1     -16.058 -17.881 -35.619  1.00  0.00     0.244 HD
ENDBRANCH  13  15
ENDBRANCH  12  13
ENDBRANCH  10  12
ENDBRANCH   3   8
BRANCH   3  17
HETATM   17  N5  UNL     1     -14.090 -14.431 -31.681  1.00  0.00    -0.196 N 
HETATM   18  N6  UNL     1     -12.878 -14.028 -31.333  1.00  0.00    -0.301 N 
HETATM   19  C5  UNL     1     -12.010 -14.798 -30.664  1.00  0.00     0.138 A 
ATOM     20  H6  UNL     1     -12.592 -13.082 -31.586  1.00  0.00     0.186 HD
HETATM   21  C6  UNL     1     -12.334 -16.090 -30.290  1.00  0.00     0.119 A 
HETATM   22  N7  UNL     1     -11.441 -16.929 -29.584  1.00  0.00    -0.097 NA
HETATM   23  C7  UNL     1     -13.603 -16.525 -30.649  1.00  0.00     0.266 A 
HETATM   24  O3  UNL     1     -13.934 -17.690 -30.328  1.00  0.00    -0.280 OA
HETATM   25  C8  UNL     1     -14.443 -15.671 -31.338  1.00  0.00     0.317 A 
HETATM   26  O4  UNL     1     -15.577 -16.084 -31.650  1.00  0.00    -0.262 OA
ENDBRANCH   3  17
TORSDOF 6
ENDMDL
MODEL 2
REMARK VINA RESULT: -6.077534911      1.823      2.270
REMARK  6 active torsions:
REMARK  status: ('A' for Active; 'I' for Inactive)
REMARK    1  A    between atoms: C2_3  and  N2_4 
REMARK    2  A    between atoms: C2_3  and  C3_8 
REMARK    3  A    between atoms: C2_3  and  N5_17 
REMARK       I    between atoms: C3_8  and  N3_10 
REMARK    4  A    between atoms: N3_10  and  C4_12 
REMARK    5  A    between atoms: C4_12  and  N4_13 
REMARK    6  A    between atoms: N4_13  and  O2_15 
ROOT
HETATM    1  N1  UNL     1     -11.851 -13.392 -30.547  1.00  0.00    -0.192 NA
HETATM    2  C1  UNL     1     -12.857 -13.888 -30.821  1.00  0.00     0.134 C 
HETATM    3  C2  UNL     1     -14.150 -14.511 -31.190  1.00  0.00     0.386 C 
ENDROOT
BRANCH   3   4
HETATM    4  N2  UNL     1     -15.171 -13.671 -30.570  1.00  0.00    -0.028 N 
ATOM      5  H23 UNL     1     -16.106 -14.079 -30.587  1.00  0.00     0.279 HD
ATOM      6  H22 UNL     1     -15.089 -13.604 -29.556  1.00  0.00     0.279 HD
ATOM      7  H21 UNL     1     -15.105 -12.773 -31.049  1.00  0.00     0.279 HD
ENDBRANCH   3   4
BRANCH   3   8
HETATM    8  C3  UNL     1     -14.322 -14.579 -32.647  1.00  0.00     0.296 C 
HETATM    9  O1  UNL     1     -13.359 -14.859 -33.390  1.00  0.00    -0.267 OA
HETATM   10  N3  UNL     1     -15.570 -14.334 -33.260  1.00  0.00    -0.317 N 
ATOM     11  H3  UNL     1     -16.366 -14.104 -32.664  1.00  0.00     0.169 HD
BRANCH  10  12
HETATM   12  C4  UNL     1     -15.775 -14.391 -34.660  1.00  0.00     0.206 C 
BRANCH  12  13
HETATM   13  N4  UNL     1     -15.717 -15.530 -35.245  1.00  0.00    -0.265 N 
ATOM     14  H4  UNL     1     -14.899 -15.745 -35.815  1.00  0.00     0.194 HD
BRANCH  13  15
HETATM   15  O2  UNL     1     -16.713 -16.476 -35.139  1.00  0.00    -0.289 OA
ATOM     16  H2  UNL     1     -17.351 -16.630 -35.825  1.00  0.00     0.244 HD
ENDBRANCH  13  15
ENDBRANCH  12  13
ENDBRANCH  10  12
ENDBRANCH   3   8
BRANCH   3  17
HETATM   17  N5  UNL     1     -14.235 -15.799 -30.541  1.00  0.00    -0.196 N 
HETATM   18  N6  UNL     1     -13.142 -16.286 -29.976  1.00  0.00    -0.301 N 
HETATM   19  C5  UNL     1     -13.103 -17.467 -29.345  1.00  0.00     0.138 A 
ATOM     20  H6  UNL     1     -12.286 -15.733 -30.021  1.00  0.00     0.186 HD
HETATM   21  C6  UNL     1     -14.227 -18.268 -29.246  1.00  0.00     0.119 A 
HETATM   22  N7  UNL     1     -14.221 -19.520 -28.589  1.00  0.00    -0.097 NA
HETATM   23  C7  UNL     1     -15.382 -17.768 -29.836  1.00  0.00     0.266 A 
HETATM   24  O3  UNL     1     -16.421 -18.463 -29.767  1.00  0.00    -0.280 OA
HETATM   25  C8  UNL     1     -15.343 -16.540 -30.467  1.00  0.00     0.317 A 
HETATM   26  O4  UNL     1     -16.390 -16.111 -30.989  1.00  0.00    -0.262 OA
ENDBRANCH   3  17
TORSDOF 6
ENDMDL
MODEL 3
REMARK VINA RESULT: -5.970800578      3.586      6.517
REMARK  6 active torsions:
REMARK  status: ('A' for Active; 'I' for Inactive)
REMARK    1  A    between atoms: C2_3  and  N2_4 
REMARK    2  A    between atoms: C2_3  and  C3_8 
REMARK    3  A    between atoms: C2_3  and  N5_17 
REMARK       I    between atoms: C3_8  and  N3_10 
REMARK    4  A    between atoms: N3_10  and  C4_12 
REMARK    5  A    between atoms: C4_12  and  N4_13 
REMARK    6  A    between atoms: N4_13  and  O2_15 
ROOT
HETATM    1  N1  UNL     1     -18.686 -11.877 -33.627  1.00  0.00    -0.192 NA
HETATM    2  C1  UNL     1     -17.571 -11.633 -33.450  1.00  0.00     0.134 C 
HETATM    3  C2  UNL     1     -16.137 -11.340 -33.215  1.00  0.00     0.386 C 
ENDROOT
BRANCH   3   4
HETATM    4  N2  UNL     1     -16.062 -10.880 -31.831  1.00  0.00    -0.028 N 
ATOM      5  H23 UNL     1     -16.721 -11.344 -31.206  1.00  0.00     0.279 HD
ATOM      6  H22 UNL     1     -15.214 -11.170 -31.346  1.00  0.00     0.279 HD
ATOM      7  H21 UNL     1     -16.183  -9.869 -31.879  1.00  0.00     0.279 HD
ENDBRANCH   3   4
BRANCH   3   8
HETATM    8  C3  UNL     1     -15.300 -12.526 -33.434  1.00  0.00     0.296 C 
HETATM    9  O1  UNL     1     -15.381 -13.177 -34.495  1.00  0.00    -0.267 OA
HETATM   10  N3  UNL     1     -14.377 -12.973 -32.462  1.00  0.00    -0.317 N 
ATOM     11  H3  UNL     1     -14.300 -12.449 -31.589  1.00  0.00     0.169 HD
BRANCH  10  12
HETATM   12  C4  UNL     1     -13.552 -14.110 -32.637  1.00  0.00     0.206 C 
BRANCH  12  13
HETATM   13  N4  UNL     1     -14.085 -15.201 -33.048  1.00  0.00    -0.265 N 
ATOM     14  H4  UNL     1     -14.576 -15.789 -32.374  1.00  0.00     0.194 HD
BRANCH  13  15
HETATM   15  O2  UNL     1     -14.022 -15.614 -34.361  1.00  0.00    -0.289 OA
ATOM     16  H2  UNL     1     -13.434 -16.298 -34.658  1.00  0.00     0.244 HD
ENDBRANCH  13  15
ENDBRANCH  12  13
ENDBRANCH  10  12
ENDBRANCH   3   8
BRANCH   3  17
HETATM   17  N5  UNL     1     -15.763 -10.213 -34.038  1.00  0.00    -0.196 N 
HETATM   18  N6  UNL     1     -16.686  -9.679 -34.823  1.00  0.00    -0.301 N 
HETATM   19  C5  UNL     1     -16.454  -8.633 -35.627  1.00  0.00     0.138 A 
ATOM     20  H6  UNL     1     -17.621 -10.086 -34.814  1.00  0.00     0.186 HD
HETATM   21  C6  UNL     1     -15.208  -8.035 -35.687  1.00  0.00     0.119 A 
HETATM   22  N7  UNL     1     -14.930  -6.929 -36.525  1.00  0.00    -0.097 NA
HETATM   23  C7  UNL     1     -14.230  -8.584 -34.868  1.00  0.00     0.266 A 
HETATM   24  O3  UNL     1     -13.089  -8.069 -34.894  1.00  0.00    -0.280 OA
HETATM   25  C8  UNL     1     -14.547  -9.663 -34.065  1.00  0.00     0.317 A 
HETATM   26  O4  UNL     1     -13.654 -10.141 -33.339  1.00  0.00    -0.262 OA
ENDBRANCH   3  17
TORSDOF 6
ENDMDL
MODEL 4
REMARK VINA RESULT: -5.897861373      3.676      6.325
REMARK  6 active torsions:
REMARK  status: ('A' for Active; 'I' for Inactive)
REMARK    1  A    between atoms: C2_3  and  N2_4 
REMARK    2  A    between atoms: C2_3  and  C3_8 
REMARK    3  A    between atoms: C2_3  and  N5_17 
REMARK       I    between atoms: C3_8  and  N3_10 
REMARK    4  A    between atoms: N3_10  and  C4_12 
REMARK    5  A    between atoms: C4_12  and  N4_13 
REMARK    6  A    between atoms: N4_13  and  O2_15 
ROOT
HETATM    1  N1  UNL     1     -19.456 -10.953 -32.982  1.00  0.00    -0.192 NA
HETATM    2  C1  UNL     1     -18.315 -11.116 -33.069  1.00  0.00     0.134 C 
HETATM    3  C2  UNL     1     -16.855 -11.346 -33.176  1.00  0.00     0.386 C 
ENDROOT
BRANCH   3   4
HETATM    4  N2  UNL     1     -16.341 -11.179 -31.820  1.00  0.00    -0.028 N 
ATOM      5  H23 UNL     1     -15.408 -11.568 -31.682  1.00  0.00     0.279 HD
ATOM      6  H22 UNL     1     -16.104 -10.216 -31.584  1.00  0.00     0.279 HD
ATOM      7  H21 UNL     1     -17.051 -11.588 -31.213  1.00  0.00     0.279 HD
ENDBRANCH   3   4
BRANCH   3   8
HETATM    8  C3  UNL     1     -16.556 -12.682 -33.705  1.00  0.00     0.296 C 
HETATM    9  O1  UNL     1     -17.404 -13.310 -34.370  1.00  0.00    -0.267 OA
HETATM   10  N3  UNL     1     -15.307 -13.305 -33.485  1.00  0.00    -0.317 N 
ATOM     11  H3  UNL     1     -14.604 -12.803 -32.941  1.00  0.00     0.169 HD
BRANCH  10  12
HETATM   12  C4  UNL     1     -14.980 -14.591 -33.978  1.00  0.00     0.206 C 
BRANCH  12  13
HETATM   13  N4  UNL     1     -15.023 -14.795 -35.244  1.00  0.00    -0.265 N 
ATOM     14  H4  UNL     1     -14.265 -14.432 -35.822  1.00  0.00     0.194 HD
BRANCH  13  15
HETATM   15  O2  UNL     1     -16.047 -15.482 -35.855  1.00  0.00    -0.289 OA
ATOM     16  H2  UNL     1     -16.239 -15.403 -36.782  1.00  0.00     0.244 HD
ENDBRANCH  13  15
ENDBRANCH  12  13
ENDBRANCH  10  12
ENDBRANCH   3   8
BRANCH   3  17
HETATM   17  N5  UNL     1     -16.284 -10.276 -33.961  1.00  0.00    -0.196 N 
HETATM   18  N6  UNL     1     -17.088  -9.582 -34.750  1.00  0.00    -0.301 N 
HETATM   19  C5  UNL     1     -16.670  -8.569 -35.521  1.00  0.00     0.138 A 
ATOM     20  H6  UNL     1     -18.077  -9.831 -34.772  1.00  0.00     0.186 HD
HETATM   21  C6  UNL     1     -15.343  -8.179 -35.539  1.00  0.00     0.119 A 
HETATM   22  N7  UNL     1     -14.868  -7.115 -36.341  1.00  0.00    -0.097 NA
HETATM   23  C7  UNL     1     -14.487  -8.899 -34.715  1.00  0.00     0.266 A 
HETATM   24  O3  UNL     1     -13.277  -8.576 -34.704  1.00  0.00    -0.280 OA
HETATM   25  C8  UNL     1     -14.994  -9.931 -33.948  1.00  0.00     0.317 A 
HETATM   26  O4  UNL     1     -14.208 -10.563 -33.216  1.00  0.00    -0.262 OA
ENDBRANCH   3  17
TORSDOF 6
ENDMDL
MODEL 5
REMARK VINA RESULT: -5.699559935      3.131      4.608
REMARK  6 active torsions:
REMARK  status: ('A' for Active; 'I' for Inactive)
REMARK    1  A    between atoms: C2_3  and  N2_4 
REMARK    2  A    between atoms: C2_3  and  C3_8 
REMARK    3  A    between atoms: C2_3  and  N5_17 
REMARK       I    between atoms: C3_8  and  N3_10 
REMARK    4  A    between atoms: N3_10  and  C4_12 
REMARK    5  A    between atoms: C4_12  and  N4_13 
REMARK    6  A    between atoms: N4_13  and  O2_15 
ROOT
HETATM    1  N1  UNL     1     -15.026  -9.510 -30.142  1.00  0.00    -0.192 NA
HETATM    2  C1  UNL     1     -15.089 -10.099 -31.133  1.00  0.00     0.134 C 
HETATM    3  C2  UNL     1     -15.174 -10.835 -32.417  1.00  0.00     0.386 C 
ENDROOT
BRANCH   3   4
HETATM    4  N2  UNL     1     -16.574 -11.230 -32.539  1.00  0.00    -0.028 N 
ATOM      5  H23 UNL     1     -17.133 -11.026 -31.711  1.00  0.00     0.279 HD
ATOM      6  H22 UNL     1     -17.109 -10.654 -33.189  1.00  0.00     0.279 HD
ATOM      7  H21 UNL     1     -16.552 -12.219 -32.788  1.00  0.00     0.279 HD
ENDBRANCH   3   4
BRANCH   3   8
HETATM    8  C3  UNL     1     -14.749 -10.001 -33.548  1.00  0.00     0.296 C 
HETATM    9  O1  UNL     1     -13.567  -9.614 -33.647  1.00  0.00    -0.267 OA
HETATM   10  N3  UNL     1     -15.652  -9.608 -34.561  1.00  0.00    -0.317 N 
ATOM     11  H3  UNL     1     -16.622  -9.918 -34.492  1.00  0.00     0.169 HD
BRANCH  10  12
HETATM   12  C4  UNL     1     -15.280  -8.806 -35.667  1.00  0.00     0.206 C 
BRANCH  12  13
HETATM   13  N4  UNL     1     -14.605  -7.737 -35.455  1.00  0.00    -0.265 N 
ATOM     14  H4  UNL     1     -13.950  -7.722 -34.673  1.00  0.00     0.194 HD
BRANCH  13  15
HETATM   15  O2  UNL     1     -14.726  -6.610 -36.236  1.00  0.00    -0.289 OA
ATOM     16  H2  UNL     1     -14.330  -5.779 -36.005  1.00  0.00     0.244 HD
ENDBRANCH  13  15
ENDBRANCH  12  13
ENDBRANCH  10  12
ENDBRANCH   3   8
BRANCH   3  17
HETATM   17  N5  UNL     1     -14.416 -12.059 -32.289  1.00  0.00    -0.196 N 
HETATM   18  N6  UNL     1     -13.670 -12.221 -31.208  1.00  0.00    -0.301 N 
HETATM   19  C5  UNL     1     -12.928 -13.313 -30.982  1.00  0.00     0.138 A 
ATOM     20  H6  UNL     1     -13.660 -11.477 -30.511  1.00  0.00     0.186 HD
HETATM   21  C6  UNL     1     -12.896 -14.360 -31.886  1.00  0.00     0.119 A 
HETATM   22  N7  UNL     1     -12.123 -15.527 -31.679  1.00  0.00    -0.097 NA
HETATM   23  C7  UNL     1     -13.675 -14.203 -33.025  1.00  0.00     0.266 A 
HETATM   24  O3  UNL     1     -13.672 -15.130 -33.867  1.00  0.00    -0.280 OA
HETATM   25  C8  UNL     1     -14.414 -13.047 -33.186  1.00  0.00     0.317 A 
HETATM   26  O4  UNL     1     -15.106 -12.927 -34.216  1.00  0.00    -0.262 OA
ENDBRANCH   3  17
TORSDOF 6
ENDMDL
