MODEL 1
REMARK VINA RESULT: -6.285872162      0.000      0.000
REMARK  6 active torsions:
REMARK  status: ('A' for Active; 'I' for Inactive)
REMARK    1  A    between atoms: C4_8  and  S1_9 
REMARK    2  A    between atoms: S1_9  and  C5_10 
REMARK    3  A    between atoms: C5_10  and  C6_11 
REMARK       I    between atoms: C6_11  and  N3_13 
REMARK       I    between atoms: N3_13  and  C7_15 
REMARK       I    between atoms: C7_15  and  N6_21 
REMARK    4  A    between atoms: N4_16  and  N5_18 
REMARK    5  A    between atoms: N6_21  and  N7_23 
REMARK    6  A    between atoms: N7_23  and  N8_24 
ROOT
HETATM    1  C6  UNL     1     -15.916  -9.637 -34.520  1.00  0.00     0.245 C 
HETATM    2  O1  UNL     1     -17.062 -10.118 -34.695  1.00  0.00    -0.272 OA
HETATM    3  N3  UNL     1     -15.420  -8.671 -35.427  1.00  0.00    -0.157 N 
ATOM      4  H3  UNL     1     -14.490  -8.273 -35.296  1.00  0.00     0.187 HD
HETATM    5  C7  UNL     1     -16.226  -8.260 -36.516  1.00  0.00     0.712 C 
HETATM    6  N4  UNL     1     -15.764  -7.375 -37.341  1.00  0.00    -0.137 N 
ATOM      7  H4  UNL     1     -14.829  -7.003 -37.175  1.00  0.00     0.205 HD
HETATM    8  N6  UNL     1     -17.508  -8.777 -36.734  1.00  0.00    -0.115 N 
ATOM      9  H6  UNL     1     -17.573  -9.667 -37.228  1.00  0.00     0.203 HD
ENDROOT
BRANCH   1  10
HETATM   10  C5  UNL     1     -15.139 -10.123 -33.353  1.00  0.00     0.185 C 
BRANCH  10  11
HETATM   11  S1  UNL     1     -15.950 -11.485 -32.503  1.00  0.00    -0.085 SA
BRANCH  11  12
HETATM   12  C4  UNL     1     -15.436 -13.006 -33.317  1.00  0.00     0.146 A 
HETATM   13  N2  UNL     1     -14.219 -13.542 -33.124  1.00  0.00    -0.333 N 
HETATM   14  C3  UNL     1     -13.810 -14.670 -33.714  1.00  0.00     0.183 A 
ATOM     15  H2  UNL     1     -13.575 -13.063 -32.494  1.00  0.00     0.168 HD
HETATM   16  N1  UNL     1     -14.663 -15.294 -34.540  1.00  0.00    -0.342 N 
HETATM   17  C2  UNL     1     -15.888 -14.795 -34.762  1.00  0.00     0.079 A 
ATOM     18  H1  UNL     1     -14.377 -16.157 -35.005  1.00  0.00     0.167 HD
HETATM   19  C1  UNL     1     -16.820 -15.509 -35.686  1.00  0.00     0.089 C 
HETATM   20  N9  UNL     1     -16.275 -13.658 -34.155  1.00  0.00    -0.327 N 
ATOM     21  H9  UNL     1     -17.208 -13.285 -34.329  1.00  0.00     0.169 HD
ENDBRANCH  11  12
ENDBRANCH  10  11
ENDBRANCH   1  10
BRANCH   6  22
HETATM   22  N5  UNL     1     -16.467  -6.911 -38.428  1.00  0.00    -0.331 N 
ATOM     23  H52 UNL     1     -17.229  -7.494 -38.773  1.00  0.00     0.177 HD
ATOM     24  H51 UNL     1     -16.262  -6.028 -38.894  1.00  0.00     0.177 HD
ENDBRANCH   6  22
BRANCH   8  25
HETATM   25  N7  UNL     1     -18.698  -8.186 -36.334  1.00  0.00    -0.015 NA
BRANCH  25  26
HETATM   26  N8  UNL     1     -19.633  -9.086 -35.823  1.00  0.00    -0.328 N 
ATOM     27  H82 UNL     1     -19.520 -10.096 -35.914  1.00  0.00     0.174 HD
ATOM     28  H81 UNL     1     -20.424  -8.640 -35.359  1.00  0.00     0.174 HD
ENDBRANCH  25  26
ENDBRANCH   8  25
TORSDOF 6
ENDMDL
MODEL 2
REMARK VINA RESULT: -6.038987799      1.521      2.082
REMARK  6 active torsions:
REMARK  status: ('A' for Active; 'I' for Inactive)
REMARK    1  A    between atoms: C4_8  and  S1_9 
REMARK    2  A    between atoms: S1_9  and  C5_10 
REMARK    3  A    between atoms: C5_10  and  C6_11 
REMARK       I    between atoms: C6_11  and  N3_13 
REMARK       I    between atoms: N3_13  and  C7_15 
REMARK       I    between atoms: C7_15  and  N6_21 
REMARK    4  A    between atoms: N4_16  and  N5_18 
REMARK    5  A    between atoms: N6_21  and  N7_23 
REMARK    6  A    between atoms: N7_23  and  N8_24 
ROOT
HETATM    1  C6  UNL     1     -16.222  -9.427 -34.547  1.00  0.00     0.245 C 
HETATM    2  O1  UNL     1     -15.263  -9.487 -35.353  1.00  0.00    -0.272 OA
HETATM    3  N3  UNL     1     -16.832  -8.178 -34.279  1.00  0.00    -0.157 N 
ATOM      4  H3  UNL     1     -17.611  -8.116 -33.624  1.00  0.00     0.187 HD
HETATM    5  C7  UNL     1     -16.349  -7.015 -34.927  1.00  0.00     0.712 C 
HETATM    6  N4  UNL     1     -16.912  -5.877 -34.675  1.00  0.00    -0.137 N 
ATOM      7  H4  UNL     1     -17.689  -5.858 -34.015  1.00  0.00     0.205 HD
HETATM    8  N6  UNL     1     -15.283  -7.053 -35.832  1.00  0.00    -0.115 N 
ATOM      9  H6  UNL     1     -14.340  -7.032 -35.443  1.00  0.00     0.203 HD
ENDROOT
BRANCH   1  10
HETATM   10  C5  UNL     1     -16.666 -10.693 -33.912  1.00  0.00     0.185 C 
BRANCH  10  11
HETATM   11  S1  UNL     1     -15.384 -11.440 -32.895  1.00  0.00    -0.085 SA
BRANCH  11  12
HETATM   12  C4  UNL     1     -15.156 -13.129 -33.473  1.00  0.00     0.146 A 
HETATM   13  N2  UNL     1     -14.118 -13.884 -33.077  1.00  0.00    -0.333 N 
HETATM   14  C3  UNL     1     -13.923 -15.142 -33.489  1.00  0.00     0.183 A 
ATOM     15  H2  UNL     1     -13.445 -13.478 -32.427  1.00  0.00     0.168 HD
HETATM   16  N1  UNL     1     -14.814 -15.670 -34.343  1.00  0.00    -0.342 N 
HETATM   17  C2  UNL     1     -15.865 -14.952 -34.765  1.00  0.00     0.079 A 
ATOM     18  H1  UNL     1     -14.690 -16.627 -34.674  1.00  0.00     0.167 HD
HETATM   19  C1  UNL     1     -16.842 -15.563 -35.715  1.00  0.00     0.089 C 
HETATM   20  N9  UNL     1     -16.038 -13.689 -34.334  1.00  0.00    -0.327 N 
ATOM     21  H9  UNL     1     -16.840 -13.149 -34.659  1.00  0.00     0.169 HD
ENDBRANCH  11  12
ENDBRANCH  10  11
ENDBRANCH   1  10
BRANCH   6  22
HETATM   22  N5  UNL     1     -16.518  -4.692 -35.251  1.00  0.00    -0.331 N 
ATOM     23  H52 UNL     1     -15.759  -4.183 -34.799  1.00  0.00     0.177 HD
ATOM     24  H51 UNL     1     -16.943  -4.308 -36.095  1.00  0.00     0.177 HD
ENDBRANCH   6  22
BRANCH   8  25
HETATM   25  N7  UNL     1     -15.396  -7.116 -37.214  1.00  0.00    -0.015 NA
BRANCH  25  26
HETATM   26  N8  UNL     1     -16.563  -7.737 -37.658  1.00  0.00    -0.328 N 
ATOM     27  H82 UNL     1     -16.561  -8.419 -38.416  1.00  0.00     0.174 HD
ATOM     28  H81 UNL     1     -17.402  -7.444 -37.157  1.00  0.00     0.174 HD
ENDBRANCH  25  26
ENDBRANCH   8  25
TORSDOF 6
ENDMDL
MODEL 3
REMARK VINA RESULT: -6.034886859      1.143      2.159
REMARK  6 active torsions:
REMARK  status: ('A' for Active; 'I' for Inactive)
REMARK    1  A    between atoms: C4_8  and  S1_9 
REMARK    2  A    between atoms: S1_9  and  C5_10 
REMARK    3  A    between atoms: C5_10  and  C6_11 
REMARK       I    between atoms: C6_11  and  N3_13 
REMARK       I    between atoms: N3_13  and  C7_15 
REMARK       I    between atoms: C7_15  and  N6_21 
REMARK    4  A    between atoms: N4_16  and  N5_18 
REMARK    5  A    between atoms: N6_21  and  N7_23 
REMARK    6  A    between atoms: N7_23  and  N8_24 
ROOT
HETATM    1  C6  UNL     1     -16.693  -9.698 -34.155  1.00  0.00     0.245 C 
HETATM    2  O1  UNL     1     -15.806  -9.011 -33.593  1.00  0.00    -0.272 OA
HETATM    3  N3  UNL     1     -17.082  -9.387 -35.479  1.00  0.00    -0.157 N 
ATOM      4  H3  UNL     1     -17.803  -9.938 -35.946  1.00  0.00     0.187 HD
HETATM    5  C7  UNL     1     -16.463  -8.305 -36.151  1.00  0.00     0.712 C 
HETATM    6  N4  UNL     1     -16.825  -8.027 -37.362  1.00  0.00    -0.137 N 
ATOM      7  H4  UNL     1     -17.549  -8.602 -37.793  1.00  0.00     0.205 HD
HETATM    8  N6  UNL     1     -15.470  -7.524 -35.550  1.00  0.00    -0.115 N 
ATOM      9  H6  UNL     1     -15.778  -6.763 -34.945  1.00  0.00     0.203 HD
ENDROOT
BRANCH   1  10
HETATM   10  C5  UNL     1     -17.289 -10.815 -33.380  1.00  0.00     0.185 C 
BRANCH  10  11
HETATM   11  S1  UNL     1     -16.086 -11.648 -32.335  1.00  0.00    -0.085 SA
BRANCH  11  12
HETATM   12  C4  UNL     1     -15.527 -13.111 -33.222  1.00  0.00     0.146 A 
HETATM   13  N2  UNL     1     -14.300 -13.627 -33.044  1.00  0.00    -0.333 N 
HETATM   14  C3  UNL     1     -13.857 -14.712 -33.689  1.00  0.00     0.183 A 
ATOM     15  H2  UNL     1     -13.673 -13.168 -32.383  1.00  0.00     0.168 HD
HETATM   16  N1  UNL     1     -14.686 -15.312 -34.557  1.00  0.00    -0.342 N 
HETATM   17  C2  UNL     1     -15.921 -14.831 -34.766  1.00  0.00     0.079 A 
ATOM     18  H1  UNL     1     -14.375 -16.141 -35.063  1.00  0.00     0.167 HD
HETATM   19  C1  UNL     1     -16.826 -15.516 -35.737  1.00  0.00     0.089 C 
HETATM   20  N9  UNL     1     -16.341 -13.738 -34.104  1.00  0.00    -0.327 N 
ATOM     21  H9  UNL     1     -17.282 -13.377 -34.268  1.00  0.00     0.169 HD
ENDBRANCH  11  12
ENDBRANCH  10  11
ENDBRANCH   1  10
BRANCH   6  22
HETATM   22  N5  UNL     1     -16.286  -6.998 -38.098  1.00  0.00    -0.331 N 
ATOM     23  H52 UNL     1     -15.828  -7.243 -38.976  1.00  0.00     0.177 HD
ATOM     24  H51 UNL     1     -16.323  -6.021 -37.810  1.00  0.00     0.177 HD
ENDBRANCH   6  22
BRANCH   8  25
HETATM   25  N7  UNL     1     -14.100  -7.694 -35.705  1.00  0.00    -0.015 NA
BRANCH  25  26
HETATM   26  N8  UNL     1     -13.483  -8.321 -34.623  1.00  0.00    -0.328 N 
ATOM     27  H82 UNL     1     -14.004  -8.886 -33.952  1.00  0.00     0.174 HD
ATOM     28  H81 UNL     1     -12.477  -8.160 -34.571  1.00  0.00     0.174 HD
ENDBRANCH  25  26
ENDBRANCH   8  25
TORSDOF 6
ENDMDL
MODEL 4
REMARK VINA RESULT: -5.912978295      4.620      8.543
REMARK  6 active torsions:
REMARK  status: ('A' for Active; 'I' for Inactive)
REMARK    1  A    between atoms: C4_8  and  S1_9 
REMARK    2  A    between atoms: S1_9  and  C5_10 
REMARK    3  A    between atoms: C5_10  and  C6_11 
REMARK       I    between atoms: C6_11  and  N3_13 
REMARK       I    between atoms: N3_13  and  C7_15 
REMARK       I    between atoms: C7_15  and  N6_21 
REMARK    4  A    between atoms: N4_16  and  N5_18 
REMARK    5  A    between atoms: N6_21  and  N7_23 
REMARK    6  A    between atoms: N7_23  and  N8_24 
ROOT
HETATM    1  C6  UNL     1     -12.984 -14.902 -31.372  1.00  0.00     0.245 C 
HETATM    2  O1  UNL     1     -11.772 -15.144 -31.158  1.00  0.00    -0.272 OA
HETATM    3  N3  UNL     1     -13.958 -15.879 -31.053  1.00  0.00    -0.157 N 
ATOM      4  H3  UNL     1     -14.946 -15.694 -31.223  1.00  0.00     0.187 HD
HETATM    5  C7  UNL     1     -13.547 -17.115 -30.497  1.00  0.00     0.712 C 
HETATM    6  N4  UNL     1     -14.444 -18.002 -30.209  1.00  0.00    -0.137 N 
ATOM      7  H4  UNL     1     -15.422 -17.779 -30.394  1.00  0.00     0.205 HD
HETATM    8  N6  UNL     1     -12.203 -17.411 -30.247  1.00  0.00    -0.115 N 
ATOM      9  H6  UNL     1     -11.650 -17.762 -31.028  1.00  0.00     0.203 HD
ENDROOT
BRANCH   1  10
HETATM   10  C5  UNL     1     -13.328 -13.582 -31.956  1.00  0.00     0.185 C 
BRANCH  10  11
HETATM   11  S1  UNL     1     -14.867 -12.918 -31.303  1.00  0.00    -0.085 SA
BRANCH  11  12
HETATM   12  C4  UNL     1     -16.148 -13.231 -32.528  1.00  0.00     0.146 A 
HETATM   13  N2  UNL     1     -17.320 -12.575 -32.517  1.00  0.00    -0.333 N 
HETATM   14  C3  UNL     1     -18.290 -12.786 -33.414  1.00  0.00     0.183 A 
ATOM     15  H2  UNL     1     -17.479 -11.880 -31.787  1.00  0.00     0.168 HD
HETATM   16  N1  UNL     1     -18.075 -13.701 -34.372  1.00  0.00    -0.342 N 
HETATM   17  C2  UNL     1     -16.919 -14.379 -34.421  1.00  0.00     0.079 A 
ATOM     18  H1  UNL     1     -18.797 -13.882 -35.069  1.00  0.00     0.167 HD
HETATM   19  C1  UNL     1     -16.703 -15.393 -35.496  1.00  0.00     0.089 C 
HETATM   20  N9  UNL     1     -15.960 -14.148 -33.506  1.00  0.00    -0.327 N 
ATOM     21  H9  UNL     1     -15.083 -14.667 -33.550  1.00  0.00     0.169 HD
ENDBRANCH  11  12
ENDBRANCH  10  11
ENDBRANCH   1  10
BRANCH   6  22
HETATM   22  N5  UNL     1     -14.149 -19.231 -29.667  1.00  0.00    -0.331 N 
ATOM     23  H52 UNL     1     -13.886 -19.975 -30.313  1.00  0.00     0.177 HD
ATOM     24  H51 UNL     1     -14.180 -19.427 -28.666  1.00  0.00     0.177 HD
ENDBRANCH   6  22
BRANCH   8  25
HETATM   25  N7  UNL     1     -11.556 -17.268 -29.027  1.00  0.00    -0.015 NA
BRANCH  25  26
HETATM   26  N8  UNL     1     -10.165 -17.268 -29.122  1.00  0.00    -0.328 N 
ATOM     27  H82 UNL     1      -9.670 -16.762 -29.856  1.00  0.00     0.174 HD
ATOM     28  H81 UNL     1      -9.701 -17.814 -28.396  1.00  0.00     0.174 HD
ENDBRANCH  25  26
ENDBRANCH   8  25
TORSDOF 6
ENDMDL
MODEL 5
REMARK VINA RESULT: -5.849600275      1.486      2.235
REMARK  6 active torsions:
REMARK  status: ('A' for Active; 'I' for Inactive)
REMARK    1  A    between atoms: C4_8  and  S1_9 
REMARK    2  A    between atoms: S1_9  and  C5_10 
REMARK    3  A    between atoms: C5_10  and  C6_11 
REMARK       I    between atoms: C6_11  and  N3_13 
REMARK       I    between atoms: N3_13  and  C7_15 
REMARK       I    between atoms: C7_15  and  N6_21 
REMARK    4  A    between atoms: N4_16  and  N5_18 
REMARK    5  A    between atoms: N6_21  and  N7_23 
REMARK    6  A    between atoms: N7_23  and  N8_24 
ROOT
HETATM    1  C6  UNL     1     -17.040 -11.094 -32.882  1.00  0.00     0.245 C 
HETATM    2  O1  UNL     1     -17.632 -11.347 -33.958  1.00  0.00    -0.272 OA
HETATM    3  N3  UNL     1     -15.989 -10.146 -32.869  1.00  0.00    -0.157 N 
ATOM      4  H3  UNL     1     -15.499  -9.933 -32.000  1.00  0.00     0.187 HD
HETATM    5  C7  UNL     1     -15.624  -9.496 -34.073  1.00  0.00     0.712 C 
HETATM    6  N4  UNL     1     -14.661  -8.631 -34.052  1.00  0.00    -0.137 N 
ATOM      7  H4  UNL     1     -14.197  -8.446 -33.163  1.00  0.00     0.205 HD
HETATM    8  N6  UNL     1     -16.269  -9.756 -35.287  1.00  0.00    -0.115 N 
ATOM      9  H6  UNL     1     -15.953 -10.568 -35.818  1.00  0.00     0.203 HD
ENDROOT
BRANCH   1  10
HETATM   10  C5  UNL     1     -17.486 -11.820 -31.666  1.00  0.00     0.185 C 
BRANCH  10  11
HETATM   11  S1  UNL     1     -16.283 -13.036 -31.109  1.00  0.00    -0.085 SA
BRANCH  11  12
HETATM   12  C4  UNL     1     -15.638 -13.861 -32.572  1.00  0.00     0.146 A 
HETATM   13  N2  UNL     1     -14.320 -14.029 -32.773  1.00  0.00    -0.333 N 
HETATM   14  C3  UNL     1     -13.811 -14.638 -33.850  1.00  0.00     0.183 A 
ATOM     15  H2  UNL     1     -13.674 -13.674 -32.068  1.00  0.00     0.168 HD
HETATM   16  N1  UNL     1     -14.666 -15.103 -34.774  1.00  0.00    -0.342 N 
HETATM   17  C2  UNL     1     -15.990 -14.957 -34.614  1.00  0.00     0.079 A 
ATOM     18  H1  UNL     1     -14.306 -15.572 -35.606  1.00  0.00     0.167 HD
HETATM   19  C1  UNL     1     -16.922 -15.483 -35.657  1.00  0.00     0.089 C 
HETATM   20  N9  UNL     1     -16.476 -14.341 -33.522  1.00  0.00    -0.327 N 
ATOM     21  H9  UNL     1     -17.484 -14.234 -33.407  1.00  0.00     0.169 HD
ENDBRANCH  11  12
ENDBRANCH  10  11
ENDBRANCH   1  10
BRANCH   6  22
HETATM   22  N5  UNL     1     -14.232  -7.947 -35.165  1.00  0.00    -0.331 N 
ATOM     23  H52 UNL     1     -14.941  -7.467 -35.720  1.00  0.00     0.177 HD
ATOM     24  H51 UNL     1     -13.255  -7.899 -35.454  1.00  0.00     0.177 HD
ENDBRANCH   6  22
BRANCH   8  25
HETATM   25  N7  UNL     1     -17.301  -9.006 -35.833  1.00  0.00    -0.015 NA
BRANCH  25  26
HETATM   26  N8  UNL     1     -17.112  -8.675 -37.174  1.00  0.00    -0.328 N 
ATOM     27  H82 UNL     1     -17.838  -8.816 -37.876  1.00  0.00     0.174 HD
ATOM     28  H81 UNL     1     -16.191  -8.287 -37.378  1.00  0.00     0.174 HD
ENDBRANCH  25  26
ENDBRANCH   8  25
TORSDOF 6
ENDMDL
