MODEL 1
REMARK VINA RESULT: -8.315941081      0.000      0.000
REMARK  6 active torsions:
REMARK  status: ('A' for Active; 'I' for Inactive)
REMARK    1  A    between atoms: N5_16  and  C7_17 
REMARK    2  A    between atoms: C7_17  and  C9_25 
REMARK    3  A    between atoms: N6_18  and  N7_20 
REMARK    4  A    between atoms: C9_25  and  O2_26 
REMARK    5  A    between atoms: C9_25  and  C10_28 
REMARK    6  A    between atoms: C10_28  and  O3_29 
ROOT
HETATM    1  C1  UNL     1     119.382 103.478  11.461  1.00  0.00     0.164 C 
HETATM    2  N1  UNL     1     120.847 103.366  11.486  1.00  0.00    -0.268 N 
HETATM    3  C2  UNL     1     121.350 102.665  12.506  1.00  0.00     0.280 A 
HETATM    4  O1  UNL     1     120.603 102.139  13.384  1.00  0.00    -0.265 OA
HETATM    5  C3  UNL     1     122.722 102.548  12.547  1.00  0.00     0.133 A 
HETATM    6  N2  UNL     1     123.262 101.846  13.565  1.00  0.00    -0.346 N 
ATOM      7  H2  UNL     1     122.653 101.426  14.267  1.00  0.00     0.167 HD
HETATM    8  C4  UNL     1     124.586 101.695  13.662  1.00  0.00     0.182 A 
HETATM    9  N3  UNL     1     125.347 102.260  12.724  1.00  0.00    -0.337 N 
ATOM     10  H3  UNL     1     126.358 102.148  12.796  1.00  0.00     0.168 HD
HETATM   11  C5  UNL     1     124.856 102.974  11.682  1.00  0.00     0.130 A 
HETATM   12  N4  UNL     1     125.651 103.486  10.822  1.00  0.00    -0.384 N 
ATOM     13  H41 UNL     1     125.282 104.023  10.038  1.00  0.00     0.157 HD
ATOM     14  H42 UNL     1     126.659 103.361  10.910  1.00  0.00     0.157 HD
HETATM   15  C6  UNL     1     123.515 103.140  11.565  1.00  0.00     0.121 A 
HETATM   16  N5  UNL     1     122.987 103.836  10.553  1.00  0.00    -0.243 N 
HETATM   17  C11 UNL     1     121.606 103.932  10.546  1.00  0.00     0.337 A 
HETATM   18  O4  UNL     1     121.049 104.583   9.608  1.00  0.00    -0.246 OA
ENDROOT
BRANCH  16  19
HETATM   19  C7  UNL     1     123.645 104.480   9.505  1.00  0.00     0.138 C 
HETATM   20  N6  UNL     1     123.783 105.723   9.484  1.00  0.00    -0.284 N 
ATOM     21  H6  UNL     1     124.286 106.029   8.652  1.00  0.00     0.188 HD
BRANCH  20  22
HETATM   22  N7  UNL     1     123.445 106.762  10.268  1.00  0.00    -0.275 N 
HETATM   23  C8  UNL     1     122.611 107.707   9.993  1.00  0.00     0.215 C 
HETATM   24  N8  UNL     1     121.897 107.816   8.796  1.00  0.00    -0.065 NA
HETATM   25  N9  UNL     1     122.423 108.694  10.992  1.00  0.00    -0.065 NA
ATOM     26  H7  UNL     1     123.897 106.808  11.180  1.00  0.00     0.189 HD
ENDBRANCH  20  22
BRANCH  19  27
HETATM   27  C9  UNL     1     124.075 103.735   8.330  1.00  0.00     0.211 C 
BRANCH  27  28
HETATM   28  O2  UNL     1     124.439 102.431   8.451  1.00  0.00    -0.386 OA
ATOM     29  H2  UNL     1     125.350 102.182   8.349  1.00  0.00     0.210 HD
ENDBRANCH  27  28
BRANCH  27  30
HETATM   30  C10 UNL     1     125.147 104.540   7.569  1.00  0.00     0.203 C 
BRANCH  30  31
HETATM   31  O3  UNL     1     126.366 104.275   8.140  1.00  0.00    -0.398 OA
ATOM     32  H3  UNL     1     126.528 104.931   8.808  1.00  0.00     0.209 HD
ENDBRANCH  30  31
ENDBRANCH  27  30
ENDBRANCH  19  27
ENDBRANCH  16  19
TORSDOF 6
ENDMDL
MODEL 2
REMARK VINA RESULT: -7.555786946      2.149      5.242
REMARK  6 active torsions:
REMARK  status: ('A' for Active; 'I' for Inactive)
REMARK    1  A    between atoms: N5_16  and  C7_17 
REMARK    2  A    between atoms: C7_17  and  C9_25 
REMARK    3  A    between atoms: N6_18  and  N7_20 
REMARK    4  A    between atoms: C9_25  and  O2_26 
REMARK    5  A    between atoms: C9_25  and  C10_28 
REMARK    6  A    between atoms: C10_28  and  O3_29 
ROOT
HETATM    1  C1  UNL     1     122.400 108.725  10.537  1.00  0.00     0.164 C 
HETATM    2  N1  UNL     1     122.912 107.531   9.850  1.00  0.00    -0.268 N 
HETATM    3  C2  UNL     1     123.261 107.711   8.573  1.00  0.00     0.280 A 
HETATM    4  O1  UNL     1     123.154 108.839   8.006  1.00  0.00    -0.265 OA
HETATM    5  C3  UNL     1     123.744 106.603   7.911  1.00  0.00     0.133 A 
HETATM    6  N2  UNL     1     124.106 106.752   6.620  1.00  0.00    -0.346 N 
ATOM      7  H2  UNL     1     124.016 107.664   6.173  1.00  0.00     0.167 HD
HETATM    8  C4  UNL     1     124.582 105.717   5.922  1.00  0.00     0.182 A 
HETATM    9  N3  UNL     1     124.684 104.542   6.543  1.00  0.00    -0.337 N 
ATOM     10  H3  UNL     1     125.046 103.749   6.014  1.00  0.00     0.168 HD
HETATM   11  C5  UNL     1     124.335 104.339   7.838  1.00  0.00     0.130 A 
HETATM   12  N4  UNL     1     124.463 103.181   8.364  1.00  0.00    -0.384 N 
ATOM     13  H41 UNL     1     124.200 103.028   9.337  1.00  0.00     0.157 HD
ATOM     14  H42 UNL     1     124.828 102.402   7.818  1.00  0.00     0.157 HD
HETATM   15  C6  UNL     1     123.850 105.376   8.564  1.00  0.00     0.121 A 
HETATM   16  N5  UNL     1     123.494 105.222   9.843  1.00  0.00    -0.243 N 
HETATM   17  C11 UNL     1     123.014 106.356  10.474  1.00  0.00     0.337 A 
HETATM   18  O4  UNL     1     122.659 106.268  11.691  1.00  0.00    -0.246 OA
ENDROOT
BRANCH  16  19
HETATM   19  C7  UNL     1     123.541 104.067  10.625  1.00  0.00     0.138 C 
HETATM   20  N6  UNL     1     122.507 103.421  10.900  1.00  0.00    -0.284 N 
ATOM     21  H6  UNL     1     122.717 102.607  11.477  1.00  0.00     0.188 HD
BRANCH  20  22
HETATM   22  N7  UNL     1     121.191 103.514  10.638  1.00  0.00    -0.275 N 
HETATM   23  C8  UNL     1     120.228 103.579  11.494  1.00  0.00     0.215 C 
HETATM   24  N8  UNL     1     120.393 103.561  12.882  1.00  0.00    -0.065 NA
HETATM   25  N9  UNL     1     118.917 103.674  10.964  1.00  0.00    -0.065 NA
ATOM     26  H7  UNL     1     120.925 103.536   9.654  1.00  0.00     0.189 HD
ENDBRANCH  20  22
BRANCH  19  27
HETATM   27  C9  UNL     1     124.784 103.652  11.259  1.00  0.00     0.211 C 
BRANCH  27  28
HETATM   28  O2  UNL     1     125.976 103.992  10.701  1.00  0.00    -0.386 OA
ATOM     29  H2  UNL     1     126.779 103.601  11.025  1.00  0.00     0.210 HD
ENDBRANCH  27  28
BRANCH  27  30
HETATM   30  C10 UNL     1     124.729 102.142  11.570  1.00  0.00     0.203 C 
BRANCH  30  31
HETATM   31  O3  UNL     1     125.761 101.531  10.903  1.00  0.00    -0.398 OA
ATOM     32  H3  UNL     1     125.465 101.330  10.023  1.00  0.00     0.209 HD
ENDBRANCH  30  31
ENDBRANCH  27  30
ENDBRANCH  19  27
ENDBRANCH  16  19
TORSDOF 6
ENDMDL
MODEL 3
REMARK VINA RESULT: -7.393082344      2.785      5.897
REMARK  6 active torsions:
REMARK  status: ('A' for Active; 'I' for Inactive)
REMARK    1  A    between atoms: N5_16  and  C7_17 
REMARK    2  A    between atoms: C7_17  and  C9_25 
REMARK    3  A    between atoms: N6_18  and  N7_20 
REMARK    4  A    between atoms: C9_25  and  O2_26 
REMARK    5  A    between atoms: C9_25  and  C10_28 
REMARK    6  A    between atoms: C10_28  and  O3_29 
ROOT
HETATM    1  C1  UNL     1     125.908 103.331  10.151  1.00  0.00     0.164 C 
HETATM    2  N1  UNL     1     125.309 104.090   9.044  1.00  0.00    -0.268 N 
HETATM    3  C2  UNL     1     125.714 103.736   7.822  1.00  0.00     0.280 A 
HETATM    4  O1  UNL     1     126.557 102.807   7.643  1.00  0.00    -0.265 OA
HETATM    5  C3  UNL     1     125.164 104.437   6.770  1.00  0.00     0.133 A 
HETATM    6  N2  UNL     1     125.551 104.103   5.523  1.00  0.00    -0.346 N 
ATOM      7  H2  UNL     1     126.231 103.354   5.389  1.00  0.00     0.167 HD
HETATM    8  C4  UNL     1     125.055 104.743   4.460  1.00  0.00     0.182 A 
HETATM    9  N3  UNL     1     124.170 105.716   4.678  1.00  0.00    -0.337 N 
ATOM     10  H3  UNL     1     123.790 106.209   3.870  1.00  0.00     0.168 HD
HETATM   11  C5  UNL     1     123.747 106.091   5.910  1.00  0.00     0.130 A 
HETATM   12  N4  UNL     1     122.895 107.034   6.039  1.00  0.00    -0.384 N 
ATOM     13  H41 UNL     1     122.576 107.316   6.965  1.00  0.00     0.157 HD
ATOM     14  H42 UNL     1     122.525 107.513   5.218  1.00  0.00     0.157 HD
HETATM   15  C6  UNL     1     124.238 105.454   7.002  1.00  0.00     0.121 A 
HETATM   16  N5  UNL     1     123.849 105.789   8.237  1.00  0.00    -0.243 N 
HETATM   17  C11 UNL     1     124.424 105.064   9.266  1.00  0.00     0.337 A 
HETATM   18  O4  UNL     1     124.091 105.340  10.460  1.00  0.00    -0.246 OA
ENDROOT
BRANCH  16  19
HETATM   19  C7  UNL     1     122.941 106.775   8.623  1.00  0.00     0.138 C 
HETATM   20  N6  UNL     1     121.828 106.483   9.113  1.00  0.00    -0.284 N 
ATOM     21  H6  UNL     1     121.289 107.318   9.340  1.00  0.00     0.188 HD
BRANCH  20  22
HETATM   22  N7  UNL     1     121.153 105.361   9.419  1.00  0.00    -0.275 N 
HETATM   23  C8  UNL     1     120.576 105.079  10.538  1.00  0.00     0.215 C 
HETATM   24  N8  UNL     1     120.556 105.916  11.657  1.00  0.00    -0.065 NA
HETATM   25  N9  UNL     1     119.923 103.824  10.613  1.00  0.00    -0.065 NA
ATOM     26  H7  UNL     1     121.090 104.656   8.686  1.00  0.00     0.189 HD
ENDBRANCH  20  22
BRANCH  19  27
HETATM   27  C9  UNL     1     123.207 108.179   8.342  1.00  0.00     0.211 C 
BRANCH  27  28
HETATM   28  O2  UNL     1     124.488 108.628   8.290  1.00  0.00    -0.386 OA
ATOM     29  H2  UNL     1     124.942 108.861   9.091  1.00  0.00     0.210 HD
ENDBRANCH  27  28
BRANCH  27  30
HETATM   30  C10 UNL     1     122.348 109.065   9.267  1.00  0.00     0.203 C 
BRANCH  30  31
HETATM   31  O3  UNL     1     121.198 109.395   8.595  1.00  0.00    -0.398 OA
ATOM     32  H3  UNL     1     120.756 110.078   9.084  1.00  0.00     0.209 HD
ENDBRANCH  30  31
ENDBRANCH  27  30
ENDBRANCH  19  27
ENDBRANCH  16  19
TORSDOF 6
ENDMDL
MODEL 4
REMARK VINA RESULT: -7.314160544      2.612      5.426
REMARK  6 active torsions:
REMARK  status: ('A' for Active; 'I' for Inactive)
REMARK    1  A    between atoms: N5_16  and  C7_17 
REMARK    2  A    between atoms: C7_17  and  C9_25 
REMARK    3  A    between atoms: N6_18  and  N7_20 
REMARK    4  A    between atoms: C9_25  and  O2_26 
REMARK    5  A    between atoms: C9_25  and  C10_28 
REMARK    6  A    between atoms: C10_28  and  O3_29 
ROOT
HETATM    1  C1  UNL     1     122.779 109.482  10.607  1.00  0.00     0.164 C 
HETATM    2  N1  UNL     1     122.754 108.021  10.451  1.00  0.00    -0.268 N 
HETATM    3  C2  UNL     1     123.438 107.545   9.407  1.00  0.00     0.280 A 
HETATM    4  O1  UNL     1     124.062 108.312   8.614  1.00  0.00    -0.265 OA
HETATM    5  C3  UNL     1     123.427 106.177   9.243  1.00  0.00     0.133 A 
HETATM    6  N2  UNL     1     124.109 105.664   8.199  1.00  0.00    -0.346 N 
ATOM      7  H2  UNL     1     124.608 106.290   7.566  1.00  0.00     0.167 HD
HETATM    8  C4  UNL     1     124.138 104.346   7.985  1.00  0.00     0.182 A 
HETATM    9  N3  UNL     1     123.473 103.563   8.835  1.00  0.00    -0.337 N 
ATOM     10  H3  UNL     1     123.492 102.556   8.674  1.00  0.00     0.168 HD
HETATM   11  C5  UNL     1     122.773 104.026   9.899  1.00  0.00     0.130 A 
HETATM   12  N4  UNL     1     122.161 103.212  10.670  1.00  0.00    -0.384 N 
ATOM     13  H41 UNL     1     121.634 103.560  11.471  1.00  0.00     0.157 HD
ATOM     14  H42 UNL     1     122.193 102.208  10.493  1.00  0.00     0.157 HD
HETATM   15  C6  UNL     1     122.730 105.361  10.134  1.00  0.00     0.121 A 
HETATM   16  N5  UNL     1     122.053 105.863  11.172  1.00  0.00    -0.243 N 
HETATM   17  C11 UNL     1     122.088 107.240  11.303  1.00  0.00     0.337 A 
HETATM   18  O4  UNL     1     121.461 107.772  12.271  1.00  0.00    -0.246 OA
ENDROOT
BRANCH  16  19
HETATM   19  C7  UNL     1     121.315 105.180  12.139  1.00  0.00     0.138 C 
HETATM   20  N6  UNL     1     120.067 105.123  12.090  1.00  0.00    -0.284 N 
ATOM     21  H6  UNL     1     119.686 104.587  12.869  1.00  0.00     0.188 HD
BRANCH  20  22
HETATM   22  N7  UNL     1     119.094 105.580  11.283  1.00  0.00    -0.275 N 
HETATM   23  C8  UNL     1     118.040 106.241  11.628  1.00  0.00     0.215 C 
HETATM   24  N8  UNL     1     117.722 106.603  12.939  1.00  0.00    -0.065 NA
HETATM   25  N9  UNL     1     117.159 106.615  10.583  1.00  0.00    -0.065 NA
ATOM     26  H7  UNL     1     119.199 105.383  10.288  1.00  0.00     0.189 HD
ENDBRANCH  20  22
BRANCH  19  27
HETATM   27  C9  UNL     1     121.970 104.624  13.315  1.00  0.00     0.211 C 
BRANCH  27  28
HETATM   28  O2  UNL     1     123.147 103.957  13.184  1.00  0.00    -0.386 OA
ATOM     29  H2  UNL     1     123.193 103.182  12.638  1.00  0.00     0.210 HD
ENDBRANCH  27  28
BRANCH  27  30
HETATM   30  C10 UNL     1     120.955 103.799  14.133  1.00  0.00     0.203 C 
BRANCH  30  31
HETATM   31  O3  UNL     1     120.736 102.616  13.473  1.00  0.00    -0.398 OA
ATOM     32  H3  UNL     1     121.129 102.682  12.611  1.00  0.00     0.209 HD
ENDBRANCH  30  31
ENDBRANCH  27  30
ENDBRANCH  19  27
ENDBRANCH  16  19
TORSDOF 6
ENDMDL
MODEL 5
REMARK VINA RESULT: -7.192028889      1.785      4.677
REMARK  6 active torsions:
REMARK  status: ('A' for Active; 'I' for Inactive)
REMARK    1  A    between atoms: N5_16  and  C7_17 
REMARK    2  A    between atoms: C7_17  and  C9_25 
REMARK    3  A    between atoms: N6_18  and  N7_20 
REMARK    4  A    between atoms: C9_25  and  O2_26 
REMARK    5  A    between atoms: C9_25  and  C10_28 
REMARK    6  A    between atoms: C10_28  and  O3_29 
ROOT
HETATM    1  C1  UNL     1     124.969 102.587  13.071  1.00  0.00     0.164 C 
HETATM    2  N1  UNL     1     124.363 103.323  11.952  1.00  0.00    -0.268 N 
HETATM    3  C2  UNL     1     125.055 103.300  10.809  1.00  0.00     0.280 A 
HETATM    4  O1  UNL     1     126.156 102.680  10.711  1.00  0.00    -0.265 OA
HETATM    5  C3  UNL     1     124.503 103.984   9.748  1.00  0.00     0.133 A 
HETATM    6  N2  UNL     1     125.176 103.979   8.580  1.00  0.00    -0.346 N 
ATOM      7  H2  UNL     1     126.062 103.478   8.510  1.00  0.00     0.167 HD
HETATM    8  C4  UNL     1     124.695 104.623   7.513  1.00  0.00     0.182 A 
HETATM    9  N3  UNL     1     123.535 105.266   7.646  1.00  0.00    -0.337 N 
ATOM     10  H3  UNL     1     123.164 105.760   6.834  1.00  0.00     0.168 HD
HETATM   11  C5  UNL     1     122.818 105.302   8.796  1.00  0.00     0.130 A 
HETATM   12  N4  UNL     1     121.712 105.940   8.845  1.00  0.00    -0.384 N 
ATOM     13  H41 UNL     1     121.173 105.968   9.711  1.00  0.00     0.157 HD
ATOM     14  H42 UNL     1     121.358 106.426   8.022  1.00  0.00     0.157 HD
HETATM   15  C6  UNL     1     123.289 104.655   9.891  1.00  0.00     0.121 A 
HETATM   16  N5  UNL     1     122.616 104.663  11.046  1.00  0.00    -0.243 N 
HETATM   17  C11 UNL     1     123.202 103.965  12.088  1.00  0.00     0.337 A 
HETATM   18  O4  UNL     1     122.607 103.940  13.210  1.00  0.00    -0.246 OA
ENDROOT
BRANCH  16  19
HETATM   19  C7  UNL     1     121.401 105.284  11.339  1.00  0.00     0.138 C 
HETATM   20  N6  UNL     1     121.322 106.521  11.505  1.00  0.00    -0.284 N 
ATOM     21  H6  UNL     1     120.366 106.810  11.710  1.00  0.00     0.188 HD
BRANCH  20  22
HETATM   22  N7  UNL     1     122.163 107.570  11.484  1.00  0.00    -0.275 N 
HETATM   23  C8  UNL     1     122.097 108.607  10.719  1.00  0.00     0.215 C 
HETATM   24  N8  UNL     1     121.112 108.821   9.751  1.00  0.00    -0.065 NA
HETATM   25  N9  UNL     1     123.107 109.585  10.892  1.00  0.00    -0.065 NA
ATOM     26  H7  UNL     1     122.937 107.544  12.147  1.00  0.00     0.189 HD
ENDBRANCH  20  22
BRANCH  19  27
HETATM   27  C9  UNL     1     120.206 104.492  11.596  1.00  0.00     0.211 C 
BRANCH  27  28
HETATM   28  O2  UNL     1     119.454 104.045  10.556  1.00  0.00    -0.386 OA
ATOM     29  H2  UNL     1     119.867 103.847   9.723  1.00  0.00     0.210 HD
ENDBRANCH  27  28
BRANCH  27  30
HETATM   30  C10 UNL     1     119.330 105.200  12.648  1.00  0.00     0.203 C 
BRANCH  30  31
HETATM   31  O3  UNL     1     119.961 105.105  13.863  1.00  0.00    -0.398 OA
ATOM     32  H3  UNL     1     120.898 105.128  13.711  1.00  0.00     0.209 HD
ENDBRANCH  30  31
ENDBRANCH  27  30
ENDBRANCH  19  27
ENDBRANCH  16  19
TORSDOF 6
ENDMDL
