MODEL 1
REMARK VINA RESULT: -9.551868833      0.000      0.000
REMARK  7 active torsions:
REMARK  status: ('A' for Active; 'I' for Inactive)
REMARK    1  A    between atoms: C3_6  and  O1_7 
REMARK    2  A    between atoms: C3_6  and  C4_9 
REMARK    3  A    between atoms: C4_9  and  N2_10 
REMARK    4  A    between atoms: N3_13  and  C6_14 
REMARK    5  A    between atoms: C6_14  and  O3_15 
REMARK    6  A    between atoms: N4_17  and  C7_18 
REMARK    7  A    between atoms: C9_23  and  O4_24 
ROOT
HETATM    1  N2  UNL     1     123.816 102.232  11.170  1.00  0.00    -0.245 N 
HETATM    2  C5  UNL     1     122.698 102.642  11.794  1.00  0.00     0.349 A 
HETATM    3  O2  UNL     1     121.772 103.388  11.311  1.00  0.00    -0.245 OA
HETATM    4  N3  UNL     1     122.743 102.113  13.030  1.00  0.00    -0.210 N 
HETATM    5  N4  UNL     1     123.829 101.395  13.210  1.00  0.00    -0.200 N 
HETATM    6  C10 UNL     1     124.500 101.471  12.045  1.00  0.00     0.349 A 
HETATM    7  O5  UNL     1     125.622 100.913  11.781  1.00  0.00    -0.245 OA
ENDROOT
BRANCH   1   8
HETATM    8  C4  UNL     1     124.175 102.562   9.830  1.00  0.00     0.187 C 
BRANCH   8   9
HETATM    9  C3  UNL     1     125.179 103.639   9.666  1.00  0.00     0.161 C 
HETATM   10  C2  UNL     1     124.418 104.972   9.755  1.00  0.00     0.125 C 
HETATM   11  C1  UNL     1     124.101 105.298   8.345  1.00  0.00     0.080 C 
HETATM   12  N1  UNL     1     123.161 106.031   7.848  1.00  0.00    -0.389 N 
HETATM   13  N6  UNL     1     125.070 104.626   7.555  1.00  0.00    -0.314 N 
ATOM     14  H12 UNL     1     122.465 106.513   8.416  1.00  0.00     0.157 HD
ATOM     15  H11 UNL     1     122.943 106.255   6.878  1.00  0.00     0.157 HD
HETATM   16  C11 UNL     1     125.827 103.730   8.361  1.00  0.00     0.259 C 
ATOM     17  H6  UNL     1     125.205 104.766   6.554  1.00  0.00     0.170 HD
HETATM   18  O6  UNL     1     126.864 103.154   7.946  1.00  0.00    -0.270 OA
BRANCH   9  19
HETATM   19  O1  UNL     1     126.142 103.683  10.661  1.00  0.00    -0.378 OA
ATOM     20  H1  UNL     1     126.743 102.970  10.476  1.00  0.00     0.211 HD
ENDBRANCH   9  19
ENDBRANCH   8   9
ENDBRANCH   1   8
BRANCH   4  21
HETATM   21  C6  UNL     1     121.658 102.367  13.989  1.00  0.00     0.318 C 
BRANCH  21  22
HETATM   22  O3  UNL     1     120.500 101.677  13.623  1.00  0.00    -0.380 OA
ATOM     23  H3  UNL     1     119.839 101.744  14.301  1.00  0.00     0.211 HD
ENDBRANCH  21  22
ENDBRANCH   4  21
BRANCH   5  24
HETATM   24  C7  UNL     1     124.176 100.705  14.404  1.00  0.00     0.342 C 
HETATM   25  N5  UNL     1     124.818  99.409  14.238  1.00  0.00    -0.047 N 
HETATM   26  C8  UNL     1     124.256  99.108  15.570  1.00  0.00     0.270 C 
ATOM     27  H52 UNL     1     124.644  98.814  13.428  1.00  0.00     0.279 HD
ATOM     28  H51 UNL     1     125.813  99.316  14.034  1.00  0.00     0.279 HD
HETATM   29  C9  UNL     1     123.067  99.967  15.106  1.00  0.00     0.196 C 
BRANCH  29  30
HETATM   30  O4  UNL     1     122.274  99.169  14.302  1.00  0.00    -0.390 OA
ATOM     31  H4  UNL     1     121.916  99.589  13.529  1.00  0.00     0.210 HD
ENDBRANCH  29  30
ENDBRANCH   5  24
TORSDOF 7
ENDMDL
MODEL 2
REMARK VINA RESULT: -9.297667939      2.154      3.797
REMARK  7 active torsions:
REMARK  status: ('A' for Active; 'I' for Inactive)
REMARK    1  A    between atoms: C3_6  and  O1_7 
REMARK    2  A    between atoms: C3_6  and  C4_9 
REMARK    3  A    between atoms: C4_9  and  N2_10 
REMARK    4  A    between atoms: N3_13  and  C6_14 
REMARK    5  A    between atoms: C6_14  and  O3_15 
REMARK    6  A    between atoms: N4_17  and  C7_18 
REMARK    7  A    between atoms: C9_23  and  O4_24 
ROOT
HETATM    1  N2  UNL     1     124.489 100.569  13.519  1.00  0.00    -0.245 N 
HETATM    2  C5  UNL     1     125.623 100.305  14.193  1.00  0.00     0.349 A 
HETATM    3  O2  UNL     1     126.826 100.500  13.790  1.00  0.00    -0.245 OA
HETATM    4  N3  UNL     1     125.244  99.795  15.378  1.00  0.00    -0.210 N 
HETATM    5  N4  UNL     1     123.936  99.725  15.480  1.00  0.00    -0.200 N 
HETATM    6  C10 UNL     1     123.465 100.211  14.315  1.00  0.00     0.349 A 
HETATM    7  O5  UNL     1     122.232 100.325  13.988  1.00  0.00    -0.245 OA
ENDROOT
BRANCH   1   8
HETATM    8  C4  UNL     1     124.426 101.127  12.208  1.00  0.00     0.187 C 
BRANCH   8   9
HETATM    9  C3  UNL     1     124.750 102.569  12.094  1.00  0.00     0.161 C 
HETATM   10  C2  UNL     1     123.432 103.336  12.286  1.00  0.00     0.125 C 
HETATM   11  C1  UNL     1     122.922 103.524  10.909  1.00  0.00     0.080 C 
HETATM   12  N1  UNL     1     121.718 103.710  10.481  1.00  0.00    -0.389 N 
HETATM   13  N6  UNL     1     124.055 103.464  10.055  1.00  0.00    -0.314 N 
ATOM     14  H12 UNL     1     120.904 103.752  11.095  1.00  0.00     0.157 HD
ATOM     15  H11 UNL     1     121.367 103.839   9.532  1.00  0.00     0.157 HD
HETATM   16  C11 UNL     1     125.198 103.031  10.783  1.00  0.00     0.259 C 
ATOM     17  H6  UNL     1     124.050 103.698   9.062  1.00  0.00     0.170 HD
HETATM   18  O6  UNL     1     126.361 103.071  10.309  1.00  0.00    -0.270 OA
BRANCH   9  19
HETATM   19  O1  UNL     1     125.613 103.043  13.068  1.00  0.00    -0.378 OA
ATOM     20  H1  UNL     1     126.267 103.558  12.611  1.00  0.00     0.211 HD
ENDBRANCH   9  19
ENDBRANCH   8   9
ENDBRANCH   1   8
BRANCH   4  21
HETATM   21  C6  UNL     1     126.251  99.393  16.372  1.00  0.00     0.318 C 
BRANCH  21  22
HETATM   22  O3  UNL     1     126.819  98.164  16.035  1.00  0.00    -0.380 OA
ATOM     23  H3  UNL     1     126.986  97.644  16.812  1.00  0.00     0.211 HD
ENDBRANCH  21  22
ENDBRANCH   4  21
BRANCH   5  24
HETATM   24  C7  UNL     1     123.218  99.233  16.605  1.00  0.00     0.342 C 
HETATM   25  N5  UNL     1     123.913  98.266  17.443  1.00  0.00    -0.047 N 
HETATM   26  C8  UNL     1     122.559  97.801  17.800  1.00  0.00     0.270 C 
ATOM     27  H52 UNL     1     124.625  97.636  17.072  1.00  0.00     0.279 HD
ATOM     28  H51 UNL     1     124.597  98.547  18.146  1.00  0.00     0.279 HD
HETATM   29  C9  UNL     1     122.208  98.149  16.344  1.00  0.00     0.196 C 
BRANCH  29  30
HETATM   30  O4  UNL     1     122.644  97.099  15.556  1.00  0.00    -0.390 OA
ATOM     31  H4  UNL     1     123.099  96.402  16.014  1.00  0.00     0.210 HD
ENDBRANCH  29  30
ENDBRANCH   5  24
TORSDOF 7
ENDMDL
MODEL 3
REMARK VINA RESULT: -9.219373953      2.784      7.176
REMARK  7 active torsions:
REMARK  status: ('A' for Active; 'I' for Inactive)
REMARK    1  A    between atoms: C3_6  and  O1_7 
REMARK    2  A    between atoms: C3_6  and  C4_9 
REMARK    3  A    between atoms: C4_9  and  N2_10 
REMARK    4  A    between atoms: N3_13  and  C6_14 
REMARK    5  A    between atoms: C6_14  and  O3_15 
REMARK    6  A    between atoms: N4_17  and  C7_18 
REMARK    7  A    between atoms: C9_23  and  O4_24 
ROOT
HETATM    1  N2  UNL     1     123.399 100.291  13.886  1.00  0.00    -0.245 N 
HETATM    2  C5  UNL     1     124.489 100.646  13.182  1.00  0.00     0.349 A 
HETATM    3  O2  UNL     1     125.541  99.940  12.977  1.00  0.00    -0.245 OA
HETATM    4  N3  UNL     1     124.255 101.892  12.734  1.00  0.00    -0.210 N 
HETATM    5  N4  UNL     1     123.079 102.334  13.120  1.00  0.00    -0.200 N 
HETATM    6  C10 UNL     1     122.544 101.330  13.841  1.00  0.00     0.349 A 
HETATM    7  O5  UNL     1     121.397 101.336  14.411  1.00  0.00    -0.245 OA
ENDROOT
BRANCH   1   8
HETATM    8  C4  UNL     1     123.219  99.037  14.541  1.00  0.00     0.187 C 
BRANCH   8   9
HETATM    9  C3  UNL     1     123.195  99.069  16.022  1.00  0.00     0.161 C 
HETATM   10  C2  UNL     1     124.533  99.677  16.474  1.00  0.00     0.125 C 
HETATM   11  C1  UNL     1     125.406  98.500  16.692  1.00  0.00     0.080 C 
HETATM   12  N1  UNL     1     126.692  98.399  16.665  1.00  0.00    -0.389 N 
HETATM   13  N6  UNL     1     124.539  97.408  16.957  1.00  0.00    -0.314 N 
ATOM     14  H12 UNL     1     127.315  99.184  16.474  1.00  0.00     0.157 HD
ATOM     15  H11 UNL     1     127.294  97.588  16.815  1.00  0.00     0.157 HD
HETATM   16  C11 UNL     1     123.189  97.775  16.700  1.00  0.00     0.259 C 
ATOM     17  H6  UNL     1     124.842  96.490  17.285  1.00  0.00     0.170 HD
HETATM   18  O6  UNL     1     122.214  97.055  17.029  1.00  0.00    -0.270 OA
BRANCH   9  19
HETATM   19  O1  UNL     1     122.207  99.876  16.563  1.00  0.00    -0.378 OA
ATOM     20  H1  UNL     1     121.411  99.358  16.553  1.00  0.00     0.211 HD
ENDBRANCH   9  19
ENDBRANCH   8   9
ENDBRANCH   1   8
BRANCH   4  21
HETATM   21  C6  UNL     1     125.259 102.591  11.916  1.00  0.00     0.318 C 
BRANCH  21  22
HETATM   22  O3  UNL     1     125.811 101.730  10.966  1.00  0.00    -0.380 OA
ATOM     23  H3  UNL     1     126.547 102.139  10.527  1.00  0.00     0.211 HD
ENDBRANCH  21  22
ENDBRANCH   4  21
BRANCH   5  24
HETATM   24  C7  UNL     1     122.533 103.611  12.814  1.00  0.00     0.342 C 
HETATM   25  N5  UNL     1     121.588 104.158  13.777  1.00  0.00    -0.047 N 
HETATM   26  C8  UNL     1     121.050 104.907  12.624  1.00  0.00     0.270 C 
ATOM     27  H52 UNL     1     121.001 103.564  14.362  1.00  0.00     0.279 HD
ATOM     28  H51 UNL     1     121.891 104.622  14.634  1.00  0.00     0.279 HD
HETATM   29  C9  UNL     1     121.404 103.645  11.820  1.00  0.00     0.196 C 
BRANCH  29  30
HETATM   30  O4  UNL     1     120.391 102.728  12.030  1.00  0.00    -0.390 OA
ATOM     31  H4  UNL     1     120.660 101.817  12.067  1.00  0.00     0.210 HD
ENDBRANCH  29  30
ENDBRANCH   5  24
TORSDOF 7
ENDMDL
MODEL 4
REMARK VINA RESULT: -9.083455299      2.964      4.823
REMARK  7 active torsions:
REMARK  status: ('A' for Active; 'I' for Inactive)
REMARK    1  A    between atoms: C3_6  and  O1_7 
REMARK    2  A    between atoms: C3_6  and  C4_9 
REMARK    3  A    between atoms: C4_9  and  N2_10 
REMARK    4  A    between atoms: N3_13  and  C6_14 
REMARK    5  A    between atoms: C6_14  and  O3_15 
REMARK    6  A    between atoms: N4_17  and  C7_18 
REMARK    7  A    between atoms: C9_23  and  O4_24 
ROOT
HETATM    1  N2  UNL     1     122.779 104.257  11.839  1.00  0.00    -0.245 N 
HETATM    2  C5  UNL     1     123.718 104.070  10.894  1.00  0.00     0.349 A 
HETATM    3  O2  UNL     1     124.037 104.877   9.949  1.00  0.00    -0.245 OA
HETATM    4  N3  UNL     1     124.258 102.862  11.138  1.00  0.00    -0.210 N 
HETATM    5  N4  UNL     1     123.707 102.287  12.183  1.00  0.00    -0.200 N 
HETATM    6  C10 UNL     1     122.782 103.162  12.621  1.00  0.00     0.349 A 
HETATM    7  O5  UNL     1     122.006 103.002  13.628  1.00  0.00    -0.245 OA
ENDROOT
BRANCH   1   8
HETATM    8  C4  UNL     1     121.957 105.417  11.958  1.00  0.00     0.187 C 
BRANCH   8   9
HETATM    9  C3  UNL     1     120.763 105.465  11.082  1.00  0.00     0.161 C 
HETATM   10  C2  UNL     1     120.088 106.825  11.327  1.00  0.00     0.125 C 
HETATM   11  C1  UNL     1     119.085 106.543  12.378  1.00  0.00     0.080 C 
HETATM   12  N1  UNL     1     118.541 107.329  13.247  1.00  0.00    -0.389 N 
HETATM   13  N6  UNL     1     118.784 105.160  12.279  1.00  0.00    -0.314 N 
ATOM     14  H12 UNL     1     118.758 108.324  13.318  1.00  0.00     0.157 HD
ATOM     15  H11 UNL     1     117.850 107.136  13.971  1.00  0.00     0.157 HD
HETATM   16  C11 UNL     1     119.693 104.520  11.390  1.00  0.00     0.259 C 
ATOM     17  H6  UNL     1     118.026 104.691  12.775  1.00  0.00     0.170 HD
HETATM   18  O6  UNL     1     119.532 103.342  10.986  1.00  0.00    -0.270 OA
BRANCH   9  19
HETATM   19  O1  UNL     1     121.043 105.416   9.726  1.00  0.00    -0.378 OA
ATOM     20  H1  UNL     1     121.982 105.291   9.656  1.00  0.00     0.211 HD
ENDBRANCH   9  19
ENDBRANCH   8   9
ENDBRANCH   1   8
BRANCH   4  21
HETATM   21  C6  UNL     1     125.331 102.339  10.279  1.00  0.00     0.318 C 
BRANCH  21  22
HETATM   22  O3  UNL     1     126.483 103.121  10.392  1.00  0.00    -0.380 OA
ATOM     23  H3  UNL     1     126.452 103.657  11.175  1.00  0.00     0.211 HD
ENDBRANCH  21  22
ENDBRANCH   4  21
BRANCH   5  24
HETATM   24  C7  UNL     1     124.052 101.009  12.702  1.00  0.00     0.342 C 
HETATM   25  N5  UNL     1     123.684 100.751  14.087  1.00  0.00    -0.047 N 
HETATM   26  C8  UNL     1     124.808  99.794  14.069  1.00  0.00     0.270 C 
ATOM     27  H52 UNL     1     123.616 101.497  14.780  1.00  0.00     0.279 HD
ATOM     28  H51 UNL     1     122.740 100.478  14.357  1.00  0.00     0.279 HD
HETATM   29  C9  UNL     1     125.480 100.817  13.138  1.00  0.00     0.196 C 
BRANCH  29  30
HETATM   30  O4  UNL     1     126.003 101.817  13.938  1.00  0.00    -0.390 OA
ATOM     31  H4  UNL     1     126.200 101.567  14.833  1.00  0.00     0.210 HD
ENDBRANCH  29  30
ENDBRANCH   5  24
TORSDOF 7
ENDMDL
MODEL 5
REMARK VINA RESULT: -9.035100797      2.008      3.433
REMARK  7 active torsions:
REMARK  status: ('A' for Active; 'I' for Inactive)
REMARK    1  A    between atoms: C3_6  and  O1_7 
REMARK    2  A    between atoms: C3_6  and  C4_9 
REMARK    3  A    between atoms: C4_9  and  N2_10 
REMARK    4  A    between atoms: N3_13  and  C6_14 
REMARK    5  A    between atoms: C6_14  and  O3_15 
REMARK    6  A    between atoms: N4_17  and  C7_18 
REMARK    7  A    between atoms: C9_23  and  O4_24 
ROOT
HETATM    1  N2  UNL     1     123.826 102.774  10.250  1.00  0.00    -0.245 N 
HETATM    2  C5  UNL     1     124.627 102.160  11.139  1.00  0.00     0.349 A 
HETATM    3  O2  UNL     1     125.775 101.632  10.909  1.00  0.00    -0.245 OA
HETATM    4  N3  UNL     1     123.985 102.209  12.319  1.00  0.00    -0.210 N 
HETATM    5  N4  UNL     1     122.826 102.820  12.215  1.00  0.00    -0.200 N 
HETATM    6  C10 UNL     1     122.728 103.173  10.919  1.00  0.00     0.349 A 
HETATM    7  O5  UNL     1     121.749 103.796  10.378  1.00  0.00    -0.245 OA
ENDROOT
BRANCH   1   8
HETATM    8  C4  UNL     1     124.120 102.951   8.866  1.00  0.00     0.187 C 
BRANCH   8   9
HETATM    9  C3  UNL     1     125.015 104.082   8.527  1.00  0.00     0.161 C 
HETATM   10  C2  UNL     1     124.421 105.333   9.194  1.00  0.00     0.125 C 
HETATM   11  C1  UNL     1     123.564 105.928   8.142  1.00  0.00     0.080 C 
HETATM   12  N1  UNL     1     122.538 106.705   8.240  1.00  0.00    -0.389 N 
HETATM   13  N6  UNL     1     124.088 105.477   6.902  1.00  0.00    -0.314 N 
ATOM     14  H12 UNL     1     122.161 107.029   9.131  1.00  0.00     0.157 HD
ATOM     15  H11 UNL     1     121.948 107.115   7.516  1.00  0.00     0.157 HD
HETATM   16  C11 UNL     1     125.068 104.468   7.119  1.00  0.00     0.259 C 
ATOM     17  H6  UNL     1     123.803 105.825   5.987  1.00  0.00     0.170 HD
HETATM   18  O6  UNL     1     125.813 104.036   6.204  1.00  0.00    -0.270 OA
BRANCH   9  19
HETATM   19  O1  UNL     1     126.304 103.963   9.020  1.00  0.00    -0.378 OA
ATOM     20  H1  UNL     1     126.583 104.844   9.241  1.00  0.00     0.211 HD
ENDBRANCH   9  19
ENDBRANCH   8   9
ENDBRANCH   1   8
BRANCH   4  21
HETATM   21  C6  UNL     1     124.592 101.621  13.523  1.00  0.00     0.318 C 
BRANCH  21  22
HETATM   22  O3  UNL     1     125.875 102.132  13.732  1.00  0.00    -0.380 OA
ATOM     23  H3  UNL     1     126.079 102.160  14.659  1.00  0.00     0.211 HD
ENDBRANCH  21  22
ENDBRANCH   4  21
BRANCH   5  24
HETATM   24  C7  UNL     1     121.907 103.037  13.279  1.00  0.00     0.342 C 
HETATM   25  N5  UNL     1     120.514 103.224  12.901  1.00  0.00    -0.047 N 
HETATM   26  C8  UNL     1     120.411 103.980  14.165  1.00  0.00     0.270 C 
ATOM     27  H52 UNL     1     120.241 103.625  12.004  1.00  0.00     0.279 HD
ATOM     28  H51 UNL     1     119.898 102.440  12.684  1.00  0.00     0.279 HD
HETATM   29  C9  UNL     1     121.848 104.428  13.850  1.00  0.00     0.196 C 
BRANCH  29  30
HETATM   30  O4  UNL     1     121.763 105.454  12.926  1.00  0.00    -0.390 OA
ATOM     31  H4  UNL     1     121.991 106.318  13.247  1.00  0.00     0.210 HD
ENDBRANCH  29  30
ENDBRANCH   5  24
TORSDOF 7
ENDMDL
