MODEL 1
REMARK VINA RESULT: -8.699632742      0.000      0.000
REMARK  11 active torsions:
REMARK  status: ('A' for Active; 'I' for Inactive)
REMARK    1  A    between atoms: N1_1  and  N2_4 
REMARK    2  A    between atoms: N2_4  and  C1_6 
REMARK    3  A    between atoms: C4_16  and  C5_17 
REMARK    4  A    between atoms: C5_17  and  N6_19 
REMARK    5  A    between atoms: N6_19  and  N7_21 
REMARK    6  A    between atoms: N8_24  and  O2_25 
REMARK    7  A    between atoms: N9_28  and  C7_29 
REMARK    8  A    between atoms: C7_29  and  C8_30 
REMARK    9  A    between atoms: C8_30  and  O3_31 
REMARK   10  A    between atoms: C8_30  and  C9_33 
REMARK   11  A    between atoms: C9_33  and  O4_34 
ROOT
HETATM    1  C1  UNL     1     122.778 102.813  11.496  1.00  0.00     0.707 A 
HETATM    2  N3  UNL     1     123.930 102.636  10.887  1.00  0.00    -0.152 N 
ATOM      3  H3  UNL     1     124.145 103.158  10.038  1.00  0.00     0.187 HD
HETATM    4  C2  UNL     1     124.806 101.783  11.375  1.00  0.00     0.291 A 
HETATM    5  O1  UNL     1     125.944 101.557  10.841  1.00  0.00    -0.265 OA
HETATM    6  C3  UNL     1     124.501 101.090  12.520  1.00  0.00     0.164 A 
HETATM    7  N4  UNL     1     125.388 100.226  13.049  1.00  0.00    -0.291 N 
ATOM      8  H4  UNL     1     126.285 100.075  12.588  1.00  0.00     0.187 HD
HETATM    9  N5  UNL     1     125.104  99.577  14.158  1.00  0.00    -0.280 N 
ATOM     10  H5  UNL     1     125.796  98.929  14.535  1.00  0.00     0.188 HD
HETATM   11  C4  UNL     1     123.950  99.728  14.810  1.00  0.00     0.189 A 
HETATM   12  N8  UNL     1     123.046 100.609  14.270  1.00  0.00    -0.183 N 
HETATM   13  C6  UNL     1     123.264 101.303  13.147  1.00  0.00     0.191 A 
HETATM   14  N9  UNL     1     122.374 102.168  12.647  1.00  0.00    -0.138 N 
ENDROOT
BRANCH  11  15
HETATM   15  C5  UNL     1     123.617  99.022  16.035  1.00  0.00     0.162 C 
HETATM   16  S1  UNL     1     124.811  98.610  17.057  1.00  0.00    -0.055 SA
BRANCH  15  17
HETATM   17  N6  UNL     1     122.279  98.689  16.350  1.00  0.00    -0.294 N 
ATOM     18  H6  UNL     1     121.852  99.127  17.166  1.00  0.00     0.187 HD
BRANCH  17  19
HETATM   19  N7  UNL     1     121.512  97.793  15.606  1.00  0.00    -0.344 N 
ATOM     20  H72 UNL     1     121.955  97.364  14.794  1.00  0.00     0.176 HD
ATOM     21  H71 UNL     1     120.547  97.553  15.834  1.00  0.00     0.176 HD
ENDBRANCH  17  19
ENDBRANCH  15  17
ENDBRANCH  11  15
BRANCH  12  22
HETATM   22  O2  UNL     1     121.889 100.802  14.955  1.00  0.00    -0.279 OA
ATOM     23  H2  UNL     1     121.936 101.338  15.739  1.00  0.00     0.245 HD
ENDBRANCH  12  22
BRANCH  14  24
HETATM   24  C7  UNL     1     121.125 102.411  13.247  1.00  0.00     0.123 C 
BRANCH  24  25
HETATM   25  C8  UNL     1     121.000 103.686  14.010  1.00  0.00     0.181 C 
BRANCH  25  26
HETATM   26  O3  UNL     1     121.929 104.639  14.008  1.00  0.00    -0.388 OA
ATOM     27  H3  UNL     1     121.983 105.320  13.348  1.00  0.00     0.210 HD
ENDBRANCH  25  26
BRANCH  25  28
HETATM   28  C9  UNL     1     119.644 104.351  13.695  1.00  0.00     0.201 C 
BRANCH  28  29
HETATM   29  O4  UNL     1     119.326 104.068  12.388  1.00  0.00    -0.398 OA
ATOM     30  H4  UNL     1     118.413 104.296  12.252  1.00  0.00     0.209 HD
ENDBRANCH  28  29
ENDBRANCH  25  28
ENDBRANCH  24  25
ENDBRANCH  14  24
BRANCH   1  31
HETATM   31  N2  UNL     1     121.911 103.665  11.000  1.00  0.00    -0.138 N 
ATOM     32  H2  UNL     1     121.024 103.318  10.633  1.00  0.00     0.205 HD
BRANCH  31  33
HETATM   33  N1  UNL     1     122.173 105.024  10.965  1.00  0.00    -0.331 N 
ATOM     34  H12 UNL     1     122.167 105.494  10.060  1.00  0.00     0.177 HD
ATOM     35  H11 UNL     1     122.368 105.550  11.816  1.00  0.00     0.177 HD
ENDBRANCH  31  33
ENDBRANCH   1  31
TORSDOF 11
ENDMDL
MODEL 2
REMARK VINA RESULT: -8.566392067      2.695      5.470
REMARK  11 active torsions:
REMARK  status: ('A' for Active; 'I' for Inactive)
REMARK    1  A    between atoms: N1_1  and  N2_4 
REMARK    2  A    between atoms: N2_4  and  C1_6 
REMARK    3  A    between atoms: C4_16  and  C5_17 
REMARK    4  A    between atoms: C5_17  and  N6_19 
REMARK    5  A    between atoms: N6_19  and  N7_21 
REMARK    6  A    between atoms: N8_24  and  O2_25 
REMARK    7  A    between atoms: N9_28  and  C7_29 
REMARK    8  A    between atoms: C7_29  and  C8_30 
REMARK    9  A    between atoms: C8_30  and  O3_31 
REMARK   10  A    between atoms: C8_30  and  C9_33 
REMARK   11  A    between atoms: C9_33  and  O4_34 
ROOT
HETATM    1  C1  UNL     1     124.820  99.828  14.208  1.00  0.00     0.707 A 
HETATM    2  N3  UNL     1     125.611 100.054  13.182  1.00  0.00    -0.152 N 
ATOM      3  H3  UNL     1     126.512  99.580  13.117  1.00  0.00     0.187 HD
HETATM    4  C2  UNL     1     125.240 100.894  12.239  1.00  0.00     0.291 A 
HETATM    5  O1  UNL     1     125.953 101.166  11.215  1.00  0.00    -0.265 OA
HETATM    6  C3  UNL     1     124.023 101.523  12.342  1.00  0.00     0.164 A 
HETATM    7  N4  UNL     1     123.613 102.372  11.382  1.00  0.00    -0.291 N 
ATOM      8  H4  UNL     1     124.215 102.561  10.581  1.00  0.00     0.187 HD
HETATM    9  N5  UNL     1     122.439 102.959  11.471  1.00  0.00    -0.280 N 
ATOM     10  H5  UNL     1     122.155 103.597  10.727  1.00  0.00     0.188 HD
HETATM   11  C4  UNL     1     121.603 102.756  12.490  1.00  0.00     0.189 A 
HETATM   12  N8  UNL     1     122.022 101.890  13.469  1.00  0.00    -0.183 N 
HETATM   13  C6  UNL     1     123.202 101.258  13.449  1.00  0.00     0.191 A 
HETATM   14  N9  UNL     1     123.583 100.406  14.407  1.00  0.00    -0.138 N 
ENDROOT
BRANCH  11  15
HETATM   15  C5  UNL     1     120.302 103.392  12.607  1.00  0.00     0.162 C 
HETATM   16  S1  UNL     1     119.379 103.549  11.279  1.00  0.00    -0.055 SA
BRANCH  15  17
HETATM   17  N6  UNL     1     119.830 103.875  13.849  1.00  0.00    -0.294 N 
ATOM     18  H6  UNL     1     120.001 103.312  14.682  1.00  0.00     0.187 HD
BRANCH  17  19
HETATM   19  N7  UNL     1     119.143 105.080  13.998  1.00  0.00    -0.344 N 
ATOM     20  H72 UNL     1     119.686 105.939  13.911  1.00  0.00     0.176 HD
ATOM     21  H71 UNL     1     118.143 105.139  14.186  1.00  0.00     0.176 HD
ENDBRANCH  17  19
ENDBRANCH  15  17
ENDBRANCH  11  15
BRANCH  12  22
HETATM   22  O2  UNL     1     121.156 101.643  14.487  1.00  0.00    -0.279 OA
ATOM     23  H2  UNL     1     121.328 102.078  15.315  1.00  0.00     0.245 HD
ENDBRANCH  12  22
BRANCH  14  24
HETATM   24  C7  UNL     1     122.787 100.113  15.529  1.00  0.00     0.123 C 
BRANCH  24  25
HETATM   25  C8  UNL     1     122.146  98.766  15.545  1.00  0.00     0.181 C 
BRANCH  25  26
HETATM   26  O3  UNL     1     122.244  97.892  14.547  1.00  0.00    -0.388 OA
ATOM     27  H3  UNL     1     122.425  98.139  13.648  1.00  0.00     0.210 HD
ENDBRANCH  25  26
BRANCH  25  28
HETATM   28  C9  UNL     1     122.514  98.030  16.851  1.00  0.00     0.201 C 
BRANCH  28  29
HETATM   29  O4  UNL     1     123.592  97.217  16.591  1.00  0.00    -0.398 OA
ATOM     30  H4  UNL     1     123.908  96.875  17.420  1.00  0.00     0.209 HD
ENDBRANCH  28  29
ENDBRANCH  25  28
ENDBRANCH  24  25
ENDBRANCH  14  24
BRANCH   1  31
HETATM   31  N2  UNL     1     125.201  98.989  15.143  1.00  0.00    -0.138 N 
ATOM     32  H2  UNL     1     124.813  98.046  15.155  1.00  0.00     0.205 HD
BRANCH  31  33
HETATM   33  N1  UNL     1     126.117  99.357  16.113  1.00  0.00    -0.331 N 
ATOM     34  H12 UNL     1     126.025 100.279  16.540  1.00  0.00     0.177 HD
ATOM     35  H11 UNL     1     126.869  98.730  16.401  1.00  0.00     0.177 HD
ENDBRANCH  31  33
ENDBRANCH   1  31
TORSDOF 11
ENDMDL
MODEL 3
REMARK VINA RESULT: -8.094336099      0.823      1.035
REMARK  11 active torsions:
REMARK  status: ('A' for Active; 'I' for Inactive)
REMARK    1  A    between atoms: N1_1  and  N2_4 
REMARK    2  A    between atoms: N2_4  and  C1_6 
REMARK    3  A    between atoms: C4_16  and  C5_17 
REMARK    4  A    between atoms: C5_17  and  N6_19 
REMARK    5  A    between atoms: N6_19  and  N7_21 
REMARK    6  A    between atoms: N8_24  and  O2_25 
REMARK    7  A    between atoms: N9_28  and  C7_29 
REMARK    8  A    between atoms: C7_29  and  C8_30 
REMARK    9  A    between atoms: C8_30  and  O3_31 
REMARK   10  A    between atoms: C8_30  and  C9_33 
REMARK   11  A    between atoms: C9_33  and  O4_34 
ROOT
HETATM    1  C1  UNL     1     122.771 102.961  11.472  1.00  0.00     0.707 A 
HETATM    2  N3  UNL     1     123.964 102.929  10.919  1.00  0.00    -0.152 N 
ATOM      3  H3  UNL     1     124.192 103.571  10.160  1.00  0.00     0.187 HD
HETATM    4  C2  UNL     1     124.862 102.067  11.345  1.00  0.00     0.291 A 
HETATM    5  O1  UNL     1     126.039 101.975  10.858  1.00  0.00    -0.265 OA
HETATM    6  C3  UNL     1     124.538 101.210  12.368  1.00  0.00     0.164 A 
HETATM    7  N4  UNL     1     125.445 100.332  12.834  1.00  0.00    -0.291 N 
ATOM      8  H4  UNL     1     126.374 100.292  12.414  1.00  0.00     0.187 HD
HETATM    9  N5  UNL     1     125.140  99.526  13.828  1.00  0.00    -0.280 N 
ATOM     10  H5  UNL     1     125.849  98.871  14.160  1.00  0.00     0.188 HD
HETATM   11  C4  UNL     1     123.946  99.527  14.421  1.00  0.00     0.189 A 
HETATM   12  N8  UNL     1     123.021 100.423  13.945  1.00  0.00    -0.183 N 
HETATM   13  C6  UNL     1     123.257 101.271  12.938  1.00  0.00     0.191 A 
HETATM   14  N9  UNL     1     122.345 102.147  12.502  1.00  0.00    -0.138 N 
ENDROOT
BRANCH  11  15
HETATM   15  C5  UNL     1     123.589  98.646  15.520  1.00  0.00     0.162 C 
HETATM   16  S1  UNL     1     124.354  98.813  16.944  1.00  0.00    -0.055 SA
BRANCH  15  17
HETATM   17  N6  UNL     1     122.596  97.651  15.371  1.00  0.00    -0.294 N 
ATOM     18  H6  UNL     1     122.853  96.776  14.914  1.00  0.00     0.187 HD
BRANCH  17  19
HETATM   19  N7  UNL     1     121.282  97.801  15.814  1.00  0.00    -0.344 N 
ATOM     20  H72 UNL     1     121.146  98.030  16.799  1.00  0.00     0.176 HD
ATOM     21  H71 UNL     1     120.467  97.693  15.210  1.00  0.00     0.176 HD
ENDBRANCH  17  19
ENDBRANCH  15  17
ENDBRANCH  11  15
BRANCH  12  22
HETATM   22  O2  UNL     1     121.818 100.460  14.576  1.00  0.00    -0.279 OA
ATOM     23  H2  UNL     1     121.221 101.156  14.325  1.00  0.00     0.245 HD
ENDBRANCH  12  22
BRANCH  14  24
HETATM   24  C7  UNL     1     121.052 102.240  13.048  1.00  0.00     0.123 C 
BRANCH  24  25
HETATM   25  C8  UNL     1     120.390 103.573  12.944  1.00  0.00     0.181 C 
BRANCH  25  26
HETATM   26  O3  UNL     1     119.233 103.774  12.320  1.00  0.00    -0.388 OA
ATOM     27  H3  UNL     1     118.564 104.373  12.631  1.00  0.00     0.210 HD
ENDBRANCH  25  26
BRANCH  25  28
HETATM   28  C9  UNL     1     120.285 104.212  14.345  1.00  0.00     0.201 C 
BRANCH  28  29
HETATM   29  O4  UNL     1     119.146 104.981  14.377  1.00  0.00    -0.398 OA
ATOM     30  H4  UNL     1     118.543 104.640  13.727  1.00  0.00     0.209 HD
ENDBRANCH  28  29
ENDBRANCH  25  28
ENDBRANCH  24  25
ENDBRANCH  14  24
BRANCH   1  31
HETATM   31  N2  UNL     1     121.882 103.824  11.039  1.00  0.00    -0.138 N 
ATOM     32  H2  UNL     1     121.204 104.213  11.694  1.00  0.00     0.205 HD
BRANCH  31  33
HETATM   33  N1  UNL     1     121.846 104.219   9.712  1.00  0.00    -0.331 N 
ATOM     34  H12 UNL     1     122.122 105.175   9.485  1.00  0.00     0.177 HD
ATOM     35  H11 UNL     1     121.553 103.579   8.974  1.00  0.00     0.177 HD
ENDBRANCH  31  33
ENDBRANCH   1  31
TORSDOF 11
ENDMDL
MODEL 4
REMARK VINA RESULT: -7.753136416      1.327      1.527
REMARK  11 active torsions:
REMARK  status: ('A' for Active; 'I' for Inactive)
REMARK    1  A    between atoms: N1_1  and  N2_4 
REMARK    2  A    between atoms: N2_4  and  C1_6 
REMARK    3  A    between atoms: C4_16  and  C5_17 
REMARK    4  A    between atoms: C5_17  and  N6_19 
REMARK    5  A    between atoms: N6_19  and  N7_21 
REMARK    6  A    between atoms: N8_24  and  O2_25 
REMARK    7  A    between atoms: N9_28  and  C7_29 
REMARK    8  A    between atoms: C7_29  and  C8_30 
REMARK    9  A    between atoms: C8_30  and  O3_31 
REMARK   10  A    between atoms: C8_30  and  C9_33 
REMARK   11  A    between atoms: C9_33  and  O4_34 
ROOT
HETATM    1  C1  UNL     1     122.619 103.663  10.230  1.00  0.00     0.707 A 
HETATM    2  N3  UNL     1     123.821 103.591   9.702  1.00  0.00    -0.152 N 
ATOM      3  H3  UNL     1     124.051 104.148   8.879  1.00  0.00     0.187 HD
HETATM    4  C2  UNL     1     124.726 102.799  10.235  1.00  0.00     0.291 A 
HETATM    5  O1  UNL     1     125.912 102.675   9.778  1.00  0.00    -0.265 OA
HETATM    6  C3  UNL     1     124.399 102.057  11.344  1.00  0.00     0.164 A 
HETATM    7  N4  UNL     1     125.313 101.254  11.918  1.00  0.00    -0.291 N 
ATOM      8  H4  UNL     1     126.249 101.184  11.519  1.00  0.00     0.187 HD
HETATM    9  N5  UNL     1     125.006 100.558  12.992  1.00  0.00    -0.280 N 
ATOM     10  H5  UNL     1     125.719  99.958  13.406  1.00  0.00     0.188 HD
HETATM   11  C4  UNL     1     123.801 100.604  13.564  1.00  0.00     0.189 A 
HETATM   12  N8  UNL     1     122.869 101.423  12.977  1.00  0.00    -0.183 N 
HETATM   13  C6  UNL     1     123.108 102.158  11.884  1.00  0.00     0.191 A 
HETATM   14  N9  UNL     1     122.189 102.962  11.339  1.00  0.00    -0.138 N 
ENDROOT
BRANCH  11  15
HETATM   15  C5  UNL     1     123.442  99.845  14.750  1.00  0.00     0.162 C 
HETATM   16  S1  UNL     1     124.598  99.477  15.830  1.00  0.00    -0.055 SA
BRANCH  15  17
HETATM   17  N6  UNL     1     122.111  99.424  14.976  1.00  0.00    -0.294 N 
ATOM     18  H6  UNL     1     121.372 100.127  14.950  1.00  0.00     0.187 HD
BRANCH  17  19
HETATM   19  N7  UNL     1     121.754  98.101  15.234  1.00  0.00    -0.344 N 
ATOM     20  H72 UNL     1     122.113  97.390  14.598  1.00  0.00     0.176 HD
ATOM     21  H71 UNL     1     121.162  97.819  16.016  1.00  0.00     0.176 HD
ENDBRANCH  17  19
ENDBRANCH  15  17
ENDBRANCH  11  15
BRANCH  12  22
HETATM   22  O2  UNL     1     121.656 101.509  13.582  1.00  0.00    -0.279 OA
ATOM     23  H2  UNL     1     121.330 102.381  13.773  1.00  0.00     0.245 HD
ENDBRANCH  12  22
BRANCH  14  24
HETATM   24  C7  UNL     1     120.886 103.092  11.853  1.00  0.00     0.123 C 
BRANCH  24  25
HETATM   25  C8  UNL     1     120.604 104.340  12.619  1.00  0.00     0.181 C 
BRANCH  25  26
HETATM   26  O3  UNL     1     121.486 105.325  12.772  1.00  0.00    -0.388 OA
ATOM     27  H3  UNL     1     121.517 105.890  13.535  1.00  0.00     0.210 HD
ENDBRANCH  25  26
BRANCH  25  28
HETATM   28  C9  UNL     1     119.282 104.966  12.129  1.00  0.00     0.201 C 
BRANCH  28  29
HETATM   29  O4  UNL     1     119.102 104.603  10.815  1.00  0.00    -0.398 OA
ATOM     30  H4  UNL     1     118.169 104.603  10.636  1.00  0.00     0.209 HD
ENDBRANCH  28  29
ENDBRANCH  25  28
ENDBRANCH  24  25
ENDBRANCH  14  24
BRANCH   1  31
HETATM   31  N2  UNL     1     121.722 104.456   9.690  1.00  0.00    -0.138 N 
ATOM     32  H2  UNL     1     120.852 104.058   9.338  1.00  0.00     0.205 HD
BRANCH  31  33
HETATM   33  N1  UNL     1     121.933 105.820   9.588  1.00  0.00    -0.331 N 
ATOM     34  H12 UNL     1     122.348 106.306  10.384  1.00  0.00     0.177 HD
ATOM     35  H11 UNL     1     121.683 106.336   8.745  1.00  0.00     0.177 HD
ENDBRANCH  31  33
ENDBRANCH   1  31
TORSDOF 11
ENDMDL
MODEL 5
REMARK VINA RESULT: -7.672333218      2.791      5.269
REMARK  11 active torsions:
REMARK  status: ('A' for Active; 'I' for Inactive)
REMARK    1  A    between atoms: N1_1  and  N2_4 
REMARK    2  A    between atoms: N2_4  and  C1_6 
REMARK    3  A    between atoms: C4_16  and  C5_17 
REMARK    4  A    between atoms: C5_17  and  N6_19 
REMARK    5  A    between atoms: N6_19  and  N7_21 
REMARK    6  A    between atoms: N8_24  and  O2_25 
REMARK    7  A    between atoms: N9_28  and  C7_29 
REMARK    8  A    between atoms: C7_29  and  C8_30 
REMARK    9  A    between atoms: C8_30  and  O3_31 
REMARK   10  A    between atoms: C8_30  and  C9_33 
REMARK   11  A    between atoms: C9_33  and  O4_34 
ROOT
HETATM    1  C1  UNL     1     122.907 100.971  13.728  1.00  0.00     0.707 A 
HETATM    2  N3  UNL     1     124.077 100.372  13.765  1.00  0.00    -0.152 N 
ATOM      3  H3  UNL     1     124.254  99.638  14.450  1.00  0.00     0.187 HD
HETATM    4  C2  UNL     1     125.021 100.721  12.916  1.00  0.00     0.291 A 
HETATM    5  O1  UNL     1     126.180 100.187  12.891  1.00  0.00    -0.265 OA
HETATM    6  C3  UNL     1     124.765 101.711  11.999  1.00  0.00     0.164 A 
HETATM    7  N4  UNL     1     125.707 102.073  11.109  1.00  0.00    -0.291 N 
ATOM      8  H4  UNL     1     126.621 101.621  11.125  1.00  0.00     0.187 HD
HETATM    9  N5  UNL     1     125.455 103.007  10.217  1.00  0.00    -0.280 N 
ATOM     10  H5  UNL     1     126.188 103.260   9.555  1.00  0.00     0.188 HD
HETATM   11  C4  UNL     1     124.282 103.638  10.140  1.00  0.00     0.189 A 
HETATM   12  N8  UNL     1     123.322 103.268  11.049  1.00  0.00    -0.183 N 
HETATM   13  C6  UNL     1     123.505 102.329  11.985  1.00  0.00     0.191 A 
HETATM   14  N9  UNL     1     122.549 101.974  12.850  1.00  0.00    -0.138 N 
ENDROOT
BRANCH  11  15
HETATM   15  C5  UNL     1     123.983 104.671   9.164  1.00  0.00     0.162 C 
HETATM   16  S1  UNL     1     124.452 104.458   7.623  1.00  0.00    -0.055 SA
BRANCH  15  17
HETATM   17  N6  UNL     1     123.295 105.851   9.530  1.00  0.00    -0.294 N 
ATOM     18  H6  UNL     1     123.725 106.464  10.223  1.00  0.00     0.187 HD
BRANCH  17  19
HETATM   19  N7  UNL     1     122.062 106.222   8.996  1.00  0.00    -0.344 N 
ATOM     20  H72 UNL     1     121.770 105.762   8.134  1.00  0.00     0.176 HD
ATOM     21  H71 UNL     1     121.450 106.919   9.421  1.00  0.00     0.176 HD
ENDBRANCH  17  19
ENDBRANCH  15  17
ENDBRANCH  11  15
BRANCH  12  22
HETATM   22  O2  UNL     1     122.110 103.874  10.947  1.00  0.00    -0.279 OA
ATOM     23  H2  UNL     1     121.743 104.241  11.743  1.00  0.00     0.245 HD
ENDBRANCH  12  22
BRANCH  14  24
HETATM   24  C7  UNL     1     121.274 102.568  12.866  1.00  0.00     0.123 C 
BRANCH  24  25
HETATM   25  C8  UNL     1     121.093 103.706  13.813  1.00  0.00     0.181 C 
BRANCH  25  26
HETATM   26  O3  UNL     1     121.968 104.700  13.945  1.00  0.00    -0.388 OA
ATOM     27  H3  UNL     1     122.455 105.072  13.220  1.00  0.00     0.210 HD
ENDBRANCH  25  26
BRANCH  25  28
HETATM   28  C9  UNL     1     119.697 104.334  13.611  1.00  0.00     0.201 C 
BRANCH  28  29
HETATM   29  O4  UNL     1     119.251 103.984  12.358  1.00  0.00    -0.398 OA
ATOM     30  H4  UNL     1     119.665 103.163  12.118  1.00  0.00     0.209 HD
ENDBRANCH  28  29
ENDBRANCH  25  28
ENDBRANCH  24  25
ENDBRANCH  14  24
BRANCH   1  31
HETATM   31  N2  UNL     1     121.973 100.615  14.580  1.00  0.00    -0.138 N 
ATOM     32  H2  UNL     1     121.182 101.238  14.741  1.00  0.00     0.205 HD
BRANCH  31  33
HETATM   33  N1  UNL     1     122.040  99.413  15.263  1.00  0.00    -0.331 N 
ATOM     34  H12 UNL     1     122.565  98.647  14.843  1.00  0.00     0.177 HD
ATOM     35  H11 UNL     1     121.578  99.287  16.164  1.00  0.00     0.177 HD
ENDBRANCH  31  33
ENDBRANCH   1  31
TORSDOF 11
ENDMDL
