MODEL 1
REMARK VINA RESULT: -8.794609179      0.000      0.000
REMARK  11 active torsions:
REMARK  status: ('A' for Active; 'I' for Inactive)
REMARK    1  A    between atoms: N3_6  and  C3_7 
REMARK    2  A    between atoms: C5_9  and  N4_10 
REMARK    3  A    between atoms: C6_14  and  N5_15 
REMARK    4  A    between atoms: C7_19  and  O1_20 
REMARK    5  A    between atoms: O1_20  and  C8_21 
REMARK    6  A    between atoms: C8_21  and  C9_22 
REMARK    7  A    between atoms: C9_22  and  N6_23 
REMARK    8  A    between atoms: C9_22  and  C10_27 
REMARK    9  A    between atoms: C10_27  and  O2_28 
REMARK   10  A    between atoms: C10_27  and  O3_30 
REMARK   11  A    between atoms: C11_32  and  N7_33 
ROOT
HETATM    1  C3  UNL     1     -35.612 -55.834  14.075  1.00  0.00     0.123 C 
HETATM    2  C4  UNL     1     -35.368 -57.222  13.514  1.00  0.00     0.062 C 
HETATM    3  C5  UNL     1     -34.043 -57.116  12.790  1.00  0.00     0.218 C 
HETATM    4  C6  UNL     1     -33.965 -55.926  11.913  1.00  0.00     0.244 C 
HETATM    5  C7  UNL     1     -35.262 -55.188  11.679  1.00  0.00     0.186 C 
HETATM    6  C11 UNL     1     -36.089 -55.006  12.903  1.00  0.00     0.237 C 
ENDROOT
BRANCH   5   7
HETATM    7  O1  UNL     1     -36.039 -55.734  10.714  1.00  0.00    -0.379 OA
BRANCH   7   8
HETATM    8  C8  UNL     1     -37.363 -55.561  10.698  1.00  0.00     0.206 C 
BRANCH   8   9
HETATM    9  C9  UNL     1     -38.145 -56.690  11.318  1.00  0.00     0.261 C 
BRANCH   9  10
HETATM   10  N6  UNL     1     -38.071 -57.917  10.571  1.00  0.00    -0.068 N 
ATOM     11  H63 UNL     1     -38.566 -57.829   9.683  1.00  0.00     0.275 HD
ATOM     12  H62 UNL     1     -37.125 -58.073  10.224  1.00  0.00     0.275 HD
ATOM     13  H61 UNL     1     -38.404 -58.730  11.090  1.00  0.00     0.275 HD
ENDBRANCH   9  10
BRANCH   9  14
HETATM   14  C10 UNL     1     -39.635 -56.331  11.407  1.00  0.00     0.286 C 
BRANCH  14  15
HETATM   15  O2  UNL     1     -39.723 -54.953  11.335  1.00  0.00    -0.369 OA
ATOM     16  H2  UNL     1     -39.511 -54.618  12.199  1.00  0.00     0.212 HD
ENDBRANCH  14  15
BRANCH  14  17
HETATM   17  O3  UNL     1     -40.313 -56.882  10.337  1.00  0.00    -0.369 OA
ATOM     18  H3  UNL     1     -40.292 -56.283   9.600  1.00  0.00     0.212 HD
ENDBRANCH  14  17
ENDBRANCH   9  14
ENDBRANCH   8   9
ENDBRANCH   7   8
ENDBRANCH   5   7
BRANCH   4  19
HETATM   19  N5  UNL     1     -33.045 -54.987  12.507  1.00  0.00    -0.070 N 
ATOM     20  H53 UNL     1     -33.382 -54.615  13.396  1.00  0.00     0.274 HD
ATOM     21  H52 UNL     1     -32.198 -55.434  12.858  1.00  0.00     0.274 HD
ATOM     22  H51 UNL     1     -32.849 -54.256  11.824  1.00  0.00     0.274 HD
ENDBRANCH   4  19
BRANCH   6  23
HETATM   23  N7  UNL     1     -36.076 -53.577  13.254  1.00  0.00    -0.070 N 
ATOM     24  H73 UNL     1     -36.633 -53.383  14.085  1.00  0.00     0.274 HD
ATOM     25  H72 UNL     1     -35.167 -53.280  13.611  1.00  0.00     0.274 HD
ATOM     26  H71 UNL     1     -36.374 -53.016  12.455  1.00  0.00     0.274 HD
ENDBRANCH   6  23
BRANCH   3  27
HETATM   27  N4  UNL     1     -32.926 -57.149  13.704  1.00  0.00    -0.073 N 
ATOM     28  H43 UNL     1     -33.215 -57.461  14.631  1.00  0.00     0.274 HD
ATOM     29  H42 UNL     1     -32.282 -57.905  13.473  1.00  0.00     0.274 HD
ATOM     30  H41 UNL     1     -32.443 -56.252  13.749  1.00  0.00     0.274 HD
ENDBRANCH   3  27
BRANCH   1  31
HETATM   31  N3  UNL     1     -36.645 -55.945  15.067  1.00  0.00    -0.332 N 
HETATM   32  C2  UNL     1     -38.032 -55.669  14.844  1.00  0.00     0.252 A 
HETATM   33  N2  UNL     1     -38.829 -55.893  16.012  1.00  0.00    -0.348 N 
HETATM   34  C1  UNL     1     -38.426 -56.274  17.152  1.00  0.00     0.191 A 
ATOM     35  H2  UNL     1     -39.832 -55.727  15.917  1.00  0.00     0.163 HD
HETATM   36  N1  UNL     1     -39.331 -56.459  18.235  1.00  0.00    -0.063 NA
HETATM   37  N9  UNL     1     -37.035 -56.533  17.360  1.00  0.00    -0.305 N 
HETATM   38  C12 UNL     1     -36.229 -56.371  16.372  1.00  0.00     0.194 A 
ATOM     39  H9  UNL     1     -36.692 -56.839  18.270  1.00  0.00     0.171 HD
HETATM   40  N8  UNL     1     -34.842 -56.646  16.640  1.00  0.00    -0.063 NA
ENDBRANCH   1  31
TORSDOF 11
ENDMDL
MODEL 2
REMARK VINA RESULT: -8.555664782      1.987      3.988
REMARK  11 active torsions:
REMARK  status: ('A' for Active; 'I' for Inactive)
REMARK    1  A    between atoms: N3_6  and  C3_7 
REMARK    2  A    between atoms: C5_9  and  N4_10 
REMARK    3  A    between atoms: C6_14  and  N5_15 
REMARK    4  A    between atoms: C7_19  and  O1_20 
REMARK    5  A    between atoms: O1_20  and  C8_21 
REMARK    6  A    between atoms: C8_21  and  C9_22 
REMARK    7  A    between atoms: C9_22  and  N6_23 
REMARK    8  A    between atoms: C9_22  and  C10_27 
REMARK    9  A    between atoms: C10_27  and  O2_28 
REMARK   10  A    between atoms: C10_27  and  O3_30 
REMARK   11  A    between atoms: C11_32  and  N7_33 
ROOT
HETATM    1  C3  UNL     1     -36.435 -55.365  14.022  1.00  0.00     0.123 C 
HETATM    2  C4  UNL     1     -35.307 -54.682  13.273  1.00  0.00     0.062 C 
HETATM    3  C5  UNL     1     -35.998 -53.720  12.332  1.00  0.00     0.218 C 
HETATM    4  C6  UNL     1     -37.116 -54.348  11.593  1.00  0.00     0.244 C 
HETATM    5  C7  UNL     1     -37.214 -55.852  11.690  1.00  0.00     0.186 C 
HETATM    6  C11 UNL     1     -36.990 -56.391  13.059  1.00  0.00     0.237 C 
ENDROOT
BRANCH   5   7
HETATM    7  O1  UNL     1     -36.399 -56.512  10.833  1.00  0.00    -0.379 OA
BRANCH   7   8
HETATM    8  C8  UNL     1     -35.436 -57.328  11.267  1.00  0.00     0.206 C 
BRANCH   8   9
HETATM    9  C9  UNL     1     -34.108 -57.143  10.580  1.00  0.00     0.261 C 
BRANCH   9  10
HETATM   10  N6  UNL     1     -33.125 -56.485  11.399  1.00  0.00    -0.068 N 
ATOM     11  H63 UNL     1     -33.096 -55.486  11.197  1.00  0.00     0.275 HD
ATOM     12  H62 UNL     1     -33.428 -56.453  12.372  1.00  0.00     0.275 HD
ATOM     13  H61 UNL     1     -32.194 -56.895  11.324  1.00  0.00     0.275 HD
ENDBRANCH   9  10
BRANCH   9  14
HETATM   14  C10 UNL     1     -34.266 -56.276   9.322  1.00  0.00     0.286 C 
BRANCH  14  15
HETATM   15  O2  UNL     1     -33.970 -54.976   9.690  1.00  0.00    -0.369 OA
ATOM     16  H2  UNL     1     -33.909 -54.964  10.638  1.00  0.00     0.212 HD
ENDBRANCH  14  15
BRANCH  14  17
HETATM   17  O3  UNL     1     -33.369 -56.686   8.356  1.00  0.00    -0.369 OA
ATOM     18  H3  UNL     1     -33.049 -57.557   8.562  1.00  0.00     0.212 HD
ENDBRANCH  14  17
ENDBRANCH   9  14
ENDBRANCH   8   9
ENDBRANCH   7   8
ENDBRANCH   5   7
BRANCH   4  19
HETATM   19  N5  UNL     1     -38.354 -53.810  12.106  1.00  0.00    -0.070 N 
ATOM     20  H53 UNL     1     -38.211 -53.170  12.888  1.00  0.00     0.274 HD
ATOM     21  H52 UNL     1     -38.791 -53.149  11.465  1.00  0.00     0.274 HD
ATOM     22  H51 UNL     1     -38.966 -54.591  12.344  1.00  0.00     0.274 HD
ENDBRANCH   4  19
BRANCH   6  23
HETATM   23  N7  UNL     1     -38.274 -56.911  13.559  1.00  0.00    -0.070 N 
ATOM     24  H73 UNL     1     -38.165 -57.410  14.442  1.00  0.00     0.274 HD
ATOM     25  H72 UNL     1     -38.889 -56.164  13.883  1.00  0.00     0.274 HD
ATOM     26  H71 UNL     1     -38.719 -57.490  12.847  1.00  0.00     0.274 HD
ENDBRANCH   6  23
BRANCH   3  27
HETATM   27  N4  UNL     1     -36.442 -52.526  13.010  1.00  0.00    -0.073 N 
ATOM     28  H43 UNL     1     -36.589 -51.759  12.354  1.00  0.00     0.274 HD
ATOM     29  H42 UNL     1     -37.397 -52.628  13.354  1.00  0.00     0.274 HD
ATOM     30  H41 UNL     1     -35.806 -52.255  13.760  1.00  0.00     0.274 HD
ENDBRANCH   3  27
BRANCH   1  31
HETATM   31  N3  UNL     1     -35.864 -56.010  15.171  1.00  0.00    -0.332 N 
HETATM   32  C2  UNL     1     -34.665 -56.792  15.163  1.00  0.00     0.252 A 
HETATM   33  N2  UNL     1     -34.326 -57.287  16.464  1.00  0.00    -0.348 N 
HETATM   34  C1  UNL     1     -34.971 -57.112  17.541  1.00  0.00     0.191 A 
ATOM     35  H2  UNL     1     -33.473 -57.842  16.531  1.00  0.00     0.163 HD
HETATM   36  N1  UNL     1     -34.521 -57.664  18.773  1.00  0.00    -0.063 NA
HETATM   37  N9  UNL     1     -36.174 -56.339  17.527  1.00  0.00    -0.305 N 
HETATM   38  C12 UNL     1     -36.567 -55.838  16.410  1.00  0.00     0.194 A 
ATOM     39  H9  UNL     1     -36.708 -56.188  18.383  1.00  0.00     0.171 HD
HETATM   40  N8  UNL     1     -37.782 -55.070  16.457  1.00  0.00    -0.063 NA
ENDBRANCH   1  31
TORSDOF 11
ENDMDL
MODEL 3
REMARK VINA RESULT: -8.397346153      1.907      2.597
REMARK  11 active torsions:
REMARK  status: ('A' for Active; 'I' for Inactive)
REMARK    1  A    between atoms: N3_6  and  C3_7 
REMARK    2  A    between atoms: C5_9  and  N4_10 
REMARK    3  A    between atoms: C6_14  and  N5_15 
REMARK    4  A    between atoms: C7_19  and  O1_20 
REMARK    5  A    between atoms: O1_20  and  C8_21 
REMARK    6  A    between atoms: C8_21  and  C9_22 
REMARK    7  A    between atoms: C9_22  and  N6_23 
REMARK    8  A    between atoms: C9_22  and  C10_27 
REMARK    9  A    between atoms: C10_27  and  O2_28 
REMARK   10  A    between atoms: C10_27  and  O3_30 
REMARK   11  A    between atoms: C11_32  and  N7_33 
ROOT
HETATM    1  C3  UNL     1     -35.281 -55.918  12.980  1.00  0.00     0.123 C 
HETATM    2  C4  UNL     1     -35.957 -57.085  12.286  1.00  0.00     0.062 C 
HETATM    3  C5  UNL     1     -35.550 -56.957  10.835  1.00  0.00     0.218 C 
HETATM    4  C6  UNL     1     -35.710 -55.581  10.315  1.00  0.00     0.244 C 
HETATM    5  C7  UNL     1     -36.476 -54.624  11.197  1.00  0.00     0.186 C 
HETATM    6  C11 UNL     1     -36.123 -54.708  12.641  1.00  0.00     0.237 C 
ENDROOT
BRANCH   5   7
HETATM    7  O1  UNL     1     -37.822 -54.724  11.080  1.00  0.00    -0.379 OA
BRANCH   7   8
HETATM    8  C8  UNL     1     -38.641 -54.382  12.077  1.00  0.00     0.206 C 
BRANCH   8   9
HETATM    9  C9  UNL     1     -40.081 -54.764  11.857  1.00  0.00     0.261 C 
BRANCH   9  10
HETATM   10  N6  UNL     1     -40.972 -54.251  12.864  1.00  0.00    -0.068 N 
ATOM     11  H63 UNL     1     -40.878 -54.778  13.733  1.00  0.00     0.275 HD
ATOM     12  H62 UNL     1     -40.662 -53.334  13.187  1.00  0.00     0.275 HD
ATOM     13  H61 UNL     1     -41.946 -54.217  12.566  1.00  0.00     0.275 HD
ENDBRANCH   9  10
BRANCH   9  14
HETATM   14  C10 UNL     1     -40.246 -56.291  11.880  1.00  0.00     0.286 C 
BRANCH  14  15
HETATM   15  O2  UNL     1     -40.059 -56.734  10.584  1.00  0.00    -0.369 OA
ATOM     16  H2  UNL     1     -40.104 -57.683  10.607  1.00  0.00     0.212 HD
ENDBRANCH  14  15
BRANCH  14  17
HETATM   17  O3  UNL     1     -39.282 -56.853  12.693  1.00  0.00    -0.369 OA
ATOM     18  H3  UNL     1     -39.164 -57.769  12.466  1.00  0.00     0.212 HD
ENDBRANCH  14  17
ENDBRANCH   9  14
ENDBRANCH   8   9
ENDBRANCH   7   8
ENDBRANCH   5   7
BRANCH   4  19
HETATM   19  N5  UNL     1     -34.396 -55.016  10.121  1.00  0.00    -0.070 N 
ATOM     20  H53 UNL     1     -33.703 -55.716   9.856  1.00  0.00     0.274 HD
ATOM     21  H52 UNL     1     -34.336 -54.439   9.282  1.00  0.00     0.274 HD
ATOM     22  H51 UNL     1     -34.139 -54.508  10.967  1.00  0.00     0.274 HD
ENDBRANCH   4  19
BRANCH   6  23
HETATM   23  N7  UNL     1     -35.408 -53.475  13.008  1.00  0.00    -0.070 N 
ATOM     24  H73 UNL     1     -35.562 -52.728  12.330  1.00  0.00     0.274 HD
ATOM     25  H72 UNL     1     -35.820 -53.023  13.825  1.00  0.00     0.274 HD
ATOM     26  H71 UNL     1     -34.416 -53.671  13.140  1.00  0.00     0.274 HD
ENDBRANCH   6  23
BRANCH   3  27
HETATM   27  N4  UNL     1     -34.208 -57.435  10.607  1.00  0.00    -0.073 N 
ATOM     28  H43 UNL     1     -33.575 -56.668  10.381  1.00  0.00     0.274 HD
ATOM     29  H42 UNL     1     -33.775 -57.751  11.475  1.00  0.00     0.274 HD
ATOM     30  H41 UNL     1     -34.177 -58.163   9.893  1.00  0.00     0.274 HD
ENDBRANCH   3  27
BRANCH   1  31
HETATM   31  N3  UNL     1     -35.315 -56.175  14.392  1.00  0.00    -0.332 N 
HETATM   32  C2  UNL     1     -36.399 -55.836  15.263  1.00  0.00     0.252 A 
HETATM   33  N2  UNL     1     -36.161 -56.241  16.617  1.00  0.00    -0.348 N 
HETATM   34  C1  UNL     1     -35.129 -56.820  17.071  1.00  0.00     0.191 A 
ATOM     35  H2  UNL     1     -36.902 -56.041  17.288  1.00  0.00     0.163 HD
HETATM   36  N1  UNL     1     -35.020 -57.169  18.447  1.00  0.00    -0.063 NA
HETATM   37  N9  UNL     1     -34.050 -57.139  16.188  1.00  0.00    -0.305 N 
HETATM   38  C12 UNL     1     -34.163 -56.827  14.947  1.00  0.00     0.194 A 
ATOM     39  H9  UNL     1     -33.211 -57.604  16.536  1.00  0.00     0.171 HD
HETATM   40  N8  UNL     1     -33.048 -57.173  14.106  1.00  0.00    -0.063 NA
ENDBRANCH   1  31
TORSDOF 11
ENDMDL
MODEL 4
REMARK VINA RESULT: -8.378417871      1.525      1.907
REMARK  11 active torsions:
REMARK  status: ('A' for Active; 'I' for Inactive)
REMARK    1  A    between atoms: N3_6  and  C3_7 
REMARK    2  A    between atoms: C5_9  and  N4_10 
REMARK    3  A    between atoms: C6_14  and  N5_15 
REMARK    4  A    between atoms: C7_19  and  O1_20 
REMARK    5  A    between atoms: O1_20  and  C8_21 
REMARK    6  A    between atoms: C8_21  and  C9_22 
REMARK    7  A    between atoms: C9_22  and  N6_23 
REMARK    8  A    between atoms: C9_22  and  C10_27 
REMARK    9  A    between atoms: C10_27  and  O2_28 
REMARK   10  A    between atoms: C10_27  and  O3_30 
REMARK   11  A    between atoms: C11_32  and  N7_33 
ROOT
HETATM    1  C3  UNL     1     -35.598 -56.377  14.637  1.00  0.00     0.123 C 
HETATM    2  C4  UNL     1     -35.315 -57.689  13.930  1.00  0.00     0.062 C 
HETATM    3  C5  UNL     1     -34.488 -57.305  12.723  1.00  0.00     0.218 C 
HETATM    4  C6  UNL     1     -35.059 -56.160  11.980  1.00  0.00     0.244 C 
HETATM    5  C7  UNL     1     -36.459 -55.749  12.369  1.00  0.00     0.186 C 
HETATM    6  C11 UNL     1     -36.702 -55.721  13.837  1.00  0.00     0.237 C 
ENDROOT
BRANCH   5   7
HETATM    7  O1  UNL     1     -37.432 -56.491  11.789  1.00  0.00    -0.379 OA
BRANCH   7   8
HETATM    8  C8  UNL     1     -38.528 -56.858  12.457  1.00  0.00     0.206 C 
BRANCH   8   9
HETATM    9  C9  UNL     1     -39.814 -56.326  11.881  1.00  0.00     0.261 C 
BRANCH   9  10
HETATM   10  N6  UNL     1     -39.786 -56.182  10.450  1.00  0.00    -0.068 N 
ATOM     11  H63 UNL     1     -40.371 -55.400  10.154  1.00  0.00     0.275 HD
ATOM     12  H62 UNL     1     -38.876 -55.842  10.139  1.00  0.00     0.275 HD
ATOM     13  H61 UNL     1     -40.043 -57.034   9.950  1.00  0.00     0.275 HD
ENDBRANCH   9  10
BRANCH   9  14
HETATM   14  C10 UNL     1     -40.125 -54.932  12.444  1.00  0.00     0.286 C 
BRANCH  14  15
HETATM   15  O2  UNL     1     -39.974 -55.010  13.817  1.00  0.00    -0.369 OA
ATOM     16  H2  UNL     1     -40.804 -55.312  14.169  1.00  0.00     0.212 HD
ENDBRANCH  14  15
BRANCH  14  17
HETATM   17  O3  UNL     1     -39.223 -54.013  11.943  1.00  0.00    -0.369 OA
ATOM     18  H3  UNL     1     -38.473 -53.950  12.523  1.00  0.00     0.212 HD
ENDBRANCH  14  17
ENDBRANCH   9  14
ENDBRANCH   8   9
ENDBRANCH   7   8
ENDBRANCH   5   7
BRANCH   4  19
HETATM   19  N5  UNL     1     -34.208 -55.014  12.192  1.00  0.00    -0.070 N 
ATOM     20  H53 UNL     1     -34.326 -54.602  13.118  1.00  0.00     0.274 HD
ATOM     21  H52 UNL     1     -33.223 -55.266  12.278  1.00  0.00     0.274 HD
ATOM     22  H51 UNL     1     -34.378 -54.346  11.440  1.00  0.00     0.274 HD
ENDBRANCH   4  19
BRANCH   6  23
HETATM   23  N7  UNL     1     -36.857 -54.316  14.247  1.00  0.00    -0.070 N 
ATOM     24  H73 UNL     1     -36.198 -54.057  14.981  1.00  0.00     0.274 HD
ATOM     25  H72 UNL     1     -36.538 -53.670  13.525  1.00  0.00     0.274 HD
ATOM     26  H71 UNL     1     -37.823 -54.136  14.521  1.00  0.00     0.274 HD
ENDBRANCH   6  23
BRANCH   3  27
HETATM   27  N4  UNL     1     -33.111 -57.050  13.073  1.00  0.00    -0.073 N 
ATOM     28  H43 UNL     1     -32.662 -56.441  12.388  1.00  0.00     0.274 HD
ATOM     29  H42 UNL     1     -33.042 -56.448  13.893  1.00  0.00     0.274 HD
ATOM     30  H41 UNL     1     -32.584 -57.913  13.203  1.00  0.00     0.274 HD
ENDBRANCH   3  27
BRANCH   1  31
HETATM   31  N3  UNL     1     -36.054 -56.689  15.962  1.00  0.00    -0.332 N 
HETATM   32  C2  UNL     1     -37.407 -56.576  16.414  1.00  0.00     0.252 A 
HETATM   33  N2  UNL     1     -37.565 -56.983  17.778  1.00  0.00    -0.348 N 
HETATM   34  C1  UNL     1     -36.658 -57.392  18.564  1.00  0.00     0.191 A 
ATOM     35  H2  UNL     1     -38.511 -56.940  18.159  1.00  0.00     0.163 HD
HETATM   36  N1  UNL     1     -36.954 -57.767  19.905  1.00  0.00    -0.063 NA
HETATM   37  N9  UNL     1     -35.310 -57.486  18.099  1.00  0.00    -0.305 N 
HETATM   38  C12 UNL     1     -35.056 -57.152  16.884  1.00  0.00     0.194 A 
ATOM     39  H9  UNL     1     -34.566 -57.812  18.717  1.00  0.00     0.171 HD
HETATM   40  N8  UNL     1     -33.683 -57.268  16.472  1.00  0.00    -0.063 NA
ENDBRANCH   1  31
TORSDOF 11
ENDMDL
MODEL 5
REMARK VINA RESULT: -8.214817960      3.302      6.402
REMARK  11 active torsions:
REMARK  status: ('A' for Active; 'I' for Inactive)
REMARK    1  A    between atoms: N3_6  and  C3_7 
REMARK    2  A    between atoms: C5_9  and  N4_10 
REMARK    3  A    between atoms: C6_14  and  N5_15 
REMARK    4  A    between atoms: C7_19  and  O1_20 
REMARK    5  A    between atoms: O1_20  and  C8_21 
REMARK    6  A    between atoms: C8_21  and  C9_22 
REMARK    7  A    between atoms: C9_22  and  N6_23 
REMARK    8  A    between atoms: C9_22  and  C10_27 
REMARK    9  A    between atoms: C10_27  and  O2_28 
REMARK   10  A    between atoms: C10_27  and  O3_30 
REMARK   11  A    between atoms: C11_32  and  N7_33 
ROOT
HETATM    1  C3  UNL     1     -36.839 -55.804  12.653  1.00  0.00     0.123 C 
HETATM    2  C4  UNL     1     -37.484 -57.037  13.256  1.00  0.00     0.062 C 
HETATM    3  C5  UNL     1     -38.750 -56.527  13.910  1.00  0.00     0.218 C 
HETATM    4  C6  UNL     1     -38.520 -55.320  14.735  1.00  0.00     0.244 C 
HETATM    5  C7  UNL     1     -37.077 -54.964  15.002  1.00  0.00     0.186 C 
HETATM    6  C11 UNL     1     -36.189 -55.084  13.814  1.00  0.00     0.237 C 
ENDROOT
BRANCH   5   7
HETATM    7  O1  UNL     1     -36.519 -55.655  16.024  1.00  0.00    -0.379 OA
BRANCH   7   8
HETATM    8  C8  UNL     1     -35.422 -56.397  15.854  1.00  0.00     0.206 C 
BRANCH   8   9
HETATM    9  C9  UNL     1     -34.962 -57.118  17.093  1.00  0.00     0.261 C 
BRANCH   9  10
HETATM   10  N6  UNL     1     -33.640 -57.674  16.976  1.00  0.00    -0.068 N 
ATOM     11  H63 UNL     1     -33.003 -57.004  16.546  1.00  0.00     0.275 HD
ATOM     12  H62 UNL     1     -33.201 -57.760  17.893  1.00  0.00     0.275 HD
ATOM     13  H61 UNL     1     -33.615 -58.565  16.480  1.00  0.00     0.275 HD
ENDBRANCH   9  10
BRANCH   9  14
HETATM   14  C10 UNL     1     -35.894 -58.296  17.413  1.00  0.00     0.286 C 
BRANCH  14  15
HETATM   15  O2  UNL     1     -35.262 -59.058  18.378  1.00  0.00    -0.369 OA
ATOM     16  H2  UNL     1     -34.501 -59.450  17.967  1.00  0.00     0.212 HD
ENDBRANCH  14  15
BRANCH  14  17
HETATM   17  O3  UNL     1     -37.088 -57.824  17.921  1.00  0.00    -0.369 OA
ATOM     18  H3  UNL     1     -37.709 -58.538  18.000  1.00  0.00     0.212 HD
ENDBRANCH  14  17
ENDBRANCH   9  14
ENDBRANCH   8   9
ENDBRANCH   7   8
ENDBRANCH   5   7
BRANCH   4  19
HETATM   19  N5  UNL     1     -39.117 -54.192  14.061  1.00  0.00    -0.070 N 
ATOM     20  H53 UNL     1     -38.589 -53.329  14.196  1.00  0.00     0.274 HD
ATOM     21  H52 UNL     1     -39.029 -54.249  13.046  1.00  0.00     0.274 HD
ATOM     22  H51 UNL     1     -40.086 -54.112  14.368  1.00  0.00     0.274 HD
ENDBRANCH   4  19
BRANCH   6  23
HETATM   23  N7  UNL     1     -35.786 -53.728  13.406  1.00  0.00    -0.070 N 
ATOM     24  H73 UNL     1     -36.575 -53.082  13.399  1.00  0.00     0.274 HD
ATOM     25  H72 UNL     1     -35.221 -53.267  14.120  1.00  0.00     0.274 HD
ATOM     26  H71 UNL     1     -35.310 -53.759  12.505  1.00  0.00     0.274 HD
ENDBRANCH   6  23
BRANCH   3  27
HETATM   27  N4  UNL     1     -39.798 -56.293  12.946  1.00  0.00    -0.073 N 
ATOM     28  H43 UNL     1     -39.903 -55.298  12.746  1.00  0.00     0.274 HD
ATOM     29  H42 UNL     1     -39.526 -56.616  12.017  1.00  0.00     0.274 HD
ATOM     30  H41 UNL     1     -40.683 -56.708  13.236  1.00  0.00     0.274 HD
ENDBRANCH   3  27
BRANCH   1  31
HETATM   31  N3  UNL     1     -35.844 -56.250  11.718  1.00  0.00    -0.332 N 
HETATM   32  C2  UNL     1     -34.636 -56.933  12.065  1.00  0.00     0.252 A 
HETATM   33  N2  UNL     1     -33.852 -57.277  10.917  1.00  0.00    -0.348 N 
HETATM   34  C1  UNL     1     -34.120 -57.026   9.704  1.00  0.00     0.191 A 
ATOM     35  H2  UNL     1     -32.982 -57.780  11.095  1.00  0.00     0.163 HD
HETATM   36  N1  UNL     1     -33.248 -57.427   8.653  1.00  0.00    -0.063 NA
HETATM   37  N9  UNL     1     -35.326 -56.331   9.376  1.00  0.00    -0.305 N 
HETATM   38  C12 UNL     1     -36.110 -55.982  10.333  1.00  0.00     0.194 A 
ATOM     39  H9  UNL     1     -35.559 -56.119   8.406  1.00  0.00     0.171 HD
HETATM   40  N8  UNL     1     -37.308 -55.286   9.943  1.00  0.00    -0.063 NA
ENDBRANCH   1  31
TORSDOF 11
ENDMDL
