MODEL 1
REMARK VINA RESULT: -8.795238811      0.000      0.000
REMARK  10 active torsions:
REMARK  status: ('A' for Active; 'I' for Inactive)
REMARK    1  A    between atoms: O1_2  and  N1_3 
REMARK    2  A    between atoms: N1_3  and  C2_5 
REMARK    3  A    between atoms: C3_8  and  N3_9 
REMARK    4  A    between atoms: N5_15  and  C5_17 
REMARK    5  A    between atoms: C6_19  and  O3_20 
REMARK    6  A    between atoms: C6_19  and  C7_22 
REMARK    7  A    between atoms: C7_22  and  O4_23 
REMARK    8  A    between atoms: C8_26  and  C9_27 
REMARK    9  A    between atoms: C9_27  and  N6_28 
REMARK   10  A    between atoms: N7_33  and  O6_35 
ROOT
HETATM    1  C5  UNL     1     -37.702 -54.666  14.312  1.00  0.00     0.295 C 
HETATM    2  O2  UNL     1     -38.917 -55.236  13.932  1.00  0.00    -0.300 OA
HETATM    3  C6  UNL     1     -38.953 -55.804  12.700  1.00  0.00     0.305 C 
HETATM    4  O5  UNL     1     -38.497 -55.087  11.638  1.00  0.00    -0.318 OA
HETATM    5  C8  UNL     1     -37.253 -54.489  11.796  1.00  0.00     0.205 C 
HETATM    6  C10 UNL     1     -37.060 -53.964  13.167  1.00  0.00     0.089 C 
HETATM    7  N7  UNL     1     -36.362 -52.924  13.409  1.00  0.00    -0.270 N 
ATOM      8  H7  UNL     1     -36.295 -52.647  14.388  1.00  0.00     0.193 HD
ENDROOT
BRANCH   1   9
HETATM    9  N5  UNL     1     -36.887 -55.653  14.910  1.00  0.00    -0.193 N 
HETATM   10  C4  UNL     1     -37.025 -56.305  15.990  1.00  0.00     0.709 A 
HETATM   11  N4  UNL     1     -38.091 -56.099  16.770  1.00  0.00    -0.022 N 
HETATM   12  N8  UNL     1     -36.069 -57.226  16.351  1.00  0.00    -0.020 N 
HETATM   13  C3  UNL     1     -38.213 -56.810  17.917  1.00  0.00     0.705 A 
ATOM     14  H4  UNL     1     -38.802 -55.418  16.505  1.00  0.00     0.203 HD
HETATM   15  N2  UNL     1     -37.264 -57.705  18.250  1.00  0.00    -0.020 N 
HETATM   16  C2  UNL     1     -36.185 -57.930  17.484  1.00  0.00     0.731 A 
ATOM     17  H2  UNL     1     -37.369 -58.232  19.116  1.00  0.00     0.203 HD
ATOM     18  H8  UNL     1     -35.260 -57.375  15.747  1.00  0.00     0.203 HD
ATOM     19  H5  UNL     1     -36.043 -55.880  14.384  1.00  0.00     0.180 HD
BRANCH  13  20
HETATM   20  N3  UNL     1     -39.253 -56.588  18.648  1.00  0.00    -0.234 N 
ATOM     21  H32 UNL     1     -39.681 -57.388  19.113  1.00  0.00     0.174 HD
ATOM     22  H31 UNL     1     -39.654 -55.658  18.772  1.00  0.00     0.174 HD
ENDBRANCH  13  20
BRANCH  16  23
HETATM   23  N1  UNL     1     -35.307 -58.807  17.859  1.00  0.00    -0.096 N 
ATOM     24  H1  UNL     1     -34.397 -58.475  18.180  1.00  0.00     0.213 HD
BRANCH  23  25
HETATM   25  O1  UNL     1     -35.538 -60.147  17.848  1.00  0.00    -0.271 OA
HETATM   26  C1  UNL     1     -35.098 -60.982  16.791  1.00  0.00     0.238 C 
ENDBRANCH  23  25
ENDBRANCH  16  23
ENDBRANCH   1   9
BRANCH   3  27
HETATM   27  O3  UNL     1     -38.336 -57.077  12.725  1.00  0.00    -0.342 OA
ATOM     28  H3  UNL     1     -37.946 -57.272  11.882  1.00  0.00     0.215 HD
ENDBRANCH   3  27
BRANCH   3  29
HETATM   29  C7  UNL     1     -40.430 -56.122  12.423  1.00  0.00     0.266 C 
BRANCH  29  30
HETATM   30  O4  UNL     1     -40.533 -56.427  11.073  1.00  0.00    -0.393 OA
ATOM     31  H4  UNL     1     -40.545 -57.375  11.003  1.00  0.00     0.209 HD
ENDBRANCH  29  30
ENDBRANCH   3  29
BRANCH   5  32
HETATM   32  C9  UNL     1     -36.150 -55.414  11.367  1.00  0.00     0.267 C 
BRANCH  32  33
HETATM   33  N6  UNL     1     -36.506 -56.230  10.244  1.00  0.00    -0.077 N 
ATOM     34  H63 UNL     1     -37.517 -56.247  10.113  1.00  0.00     0.274 HD
ATOM     35  H62 UNL     1     -36.231 -55.784   9.369  1.00  0.00     0.274 HD
ATOM     36  H61 UNL     1     -36.131 -57.176  10.304  1.00  0.00     0.274 HD
ENDBRANCH  32  33
ENDBRANCH   5  32
BRANCH   7  37
HETATM   37  O6  UNL     1     -35.701 -52.144  12.528  1.00  0.00    -0.290 OA
ATOM     38  H6  UNL     1     -35.109 -51.423  12.713  1.00  0.00     0.244 HD
ENDBRANCH   7  37
TORSDOF 10
ENDMDL
MODEL 2
REMARK VINA RESULT: -8.498151747      1.661      1.928
REMARK  10 active torsions:
REMARK  status: ('A' for Active; 'I' for Inactive)
REMARK    1  A    between atoms: O1_2  and  N1_3 
REMARK    2  A    between atoms: N1_3  and  C2_5 
REMARK    3  A    between atoms: C3_8  and  N3_9 
REMARK    4  A    between atoms: N5_15  and  C5_17 
REMARK    5  A    between atoms: C6_19  and  O3_20 
REMARK    6  A    between atoms: C6_19  and  C7_22 
REMARK    7  A    between atoms: C7_22  and  O4_23 
REMARK    8  A    between atoms: C8_26  and  C9_27 
REMARK    9  A    between atoms: C9_27  and  N6_28 
REMARK   10  A    between atoms: N7_33  and  O6_35 
ROOT
HETATM    1  C5  UNL     1     -35.967 -55.210  13.506  1.00  0.00     0.295 C 
HETATM    2  O2  UNL     1     -37.298 -54.846  13.707  1.00  0.00    -0.300 OA
HETATM    3  C6  UNL     1     -38.212 -55.445  12.902  1.00  0.00     0.305 C 
HETATM    4  O5  UNL     1     -37.994 -55.446  11.559  1.00  0.00    -0.318 OA
HETATM    5  C8  UNL     1     -36.732 -55.853  11.147  1.00  0.00     0.205 C 
HETATM    6  C10 UNL     1     -35.669 -55.366  12.056  1.00  0.00     0.089 C 
HETATM    7  N7  UNL     1     -34.499 -55.071  11.643  1.00  0.00    -0.270 N 
ATOM      8  H7  UNL     1     -33.843 -54.744  12.352  1.00  0.00     0.193 HD
ENDROOT
BRANCH   1   9
HETATM    9  N5  UNL     1     -35.672 -56.356  14.279  1.00  0.00    -0.193 N 
HETATM   10  C4  UNL     1     -35.999 -56.667  15.465  1.00  0.00     0.709 A 
HETATM   11  N4  UNL     1     -36.752 -55.839  16.195  1.00  0.00    -0.022 N 
HETATM   12  N8  UNL     1     -35.574 -57.865  15.991  1.00  0.00    -0.020 N 
HETATM   13  C3  UNL     1     -37.086 -56.198  17.459  1.00  0.00     0.705 A 
ATOM     14  H4  UNL     1     -37.069 -54.951  15.808  1.00  0.00     0.203 HD
HETATM   15  N2  UNL     1     -36.657 -57.374  17.953  1.00  0.00    -0.020 N 
HETATM   16  C2  UNL     1     -35.901 -58.223  17.239  1.00  0.00     0.731 A 
ATOM     17  H2  UNL     1     -36.916 -57.630  18.905  1.00  0.00     0.203 HD
ATOM     18  H8  UNL     1     -35.000 -58.489  15.423  1.00  0.00     0.203 HD
ATOM     19  H5  UNL     1     -35.098 -57.051  13.802  1.00  0.00     0.180 HD
BRANCH  13  20
HETATM   20  N3  UNL     1     -37.813 -55.376  18.138  1.00  0.00    -0.234 N 
ATOM     21  H32 UNL     1     -38.087 -55.658  19.080  1.00  0.00     0.174 HD
ATOM     22  H31 UNL     1     -38.118 -54.474  17.773  1.00  0.00     0.174 HD
ENDBRANCH  13  20
BRANCH  16  23
HETATM   23  N1  UNL     1     -35.521 -59.342  17.772  1.00  0.00    -0.096 N 
ATOM     24  H1  UNL     1     -35.773 -59.526  18.743  1.00  0.00     0.213 HD
BRANCH  23  25
HETATM   25  O1  UNL     1     -34.805 -60.283  17.102  1.00  0.00    -0.271 OA
HETATM   26  C1  UNL     1     -35.244 -61.625  16.981  1.00  0.00     0.238 C 
ENDBRANCH  23  25
ENDBRANCH  16  23
ENDBRANCH   1   9
BRANCH   3  27
HETATM   27  O3  UNL     1     -38.479 -56.759  13.351  1.00  0.00    -0.342 OA
ATOM     28  H3  UNL     1     -39.408 -56.944  13.297  1.00  0.00     0.215 HD
ENDBRANCH   3  27
BRANCH   3  29
HETATM   29  C7  UNL     1     -39.536 -54.703  13.140  1.00  0.00     0.266 C 
BRANCH  29  30
HETATM   30  O4  UNL     1     -39.244 -53.594  13.921  1.00  0.00    -0.393 OA
ATOM     31  H4  UNL     1     -39.165 -53.899  14.818  1.00  0.00     0.209 HD
ENDBRANCH  29  30
ENDBRANCH   3  29
BRANCH   5  32
HETATM   32  C9  UNL     1     -36.683 -57.339  10.938  1.00  0.00     0.267 C 
BRANCH  32  33
HETATM   33  N6  UNL     1     -37.958 -57.901  10.601  1.00  0.00    -0.077 N 
ATOM     34  H63 UNL     1     -38.669 -57.618  11.274  1.00  0.00     0.274 HD
ATOM     35  H62 UNL     1     -38.338 -57.464   9.762  1.00  0.00     0.274 HD
ATOM     36  H61 UNL     1     -37.933 -58.916  10.504  1.00  0.00     0.274 HD
ENDBRANCH  32  33
ENDBRANCH   5  32
BRANCH   7  37
HETATM   37  O6  UNL     1     -34.021 -55.137  10.382  1.00  0.00    -0.290 OA
ATOM     38  H6  UNL     1     -34.404 -55.581   9.634  1.00  0.00     0.244 HD
ENDBRANCH   7  37
TORSDOF 10
ENDMDL
MODEL 3
REMARK VINA RESULT: -8.445301781      2.036      3.927
REMARK  10 active torsions:
REMARK  status: ('A' for Active; 'I' for Inactive)
REMARK    1  A    between atoms: O1_2  and  N1_3 
REMARK    2  A    between atoms: N1_3  and  C2_5 
REMARK    3  A    between atoms: C3_8  and  N3_9 
REMARK    4  A    between atoms: N5_15  and  C5_17 
REMARK    5  A    between atoms: C6_19  and  O3_20 
REMARK    6  A    between atoms: C6_19  and  C7_22 
REMARK    7  A    between atoms: C7_22  and  O4_23 
REMARK    8  A    between atoms: C8_26  and  C9_27 
REMARK    9  A    between atoms: C9_27  and  N6_28 
REMARK   10  A    between atoms: N7_33  and  O6_35 
ROOT
HETATM    1  C5  UNL     1     -36.275 -56.033  13.220  1.00  0.00     0.295 C 
HETATM    2  O2  UNL     1     -35.638 -54.793  13.276  1.00  0.00    -0.300 OA
HETATM    3  C6  UNL     1     -36.407 -53.711  12.993  1.00  0.00     0.305 C 
HETATM    4  O5  UNL     1     -37.159 -53.725  11.861  1.00  0.00    -0.318 OA
HETATM    5  C8  UNL     1     -37.932 -54.860  11.656  1.00  0.00     0.205 C 
HETATM    6  C10 UNL     1     -37.227 -56.093  12.077  1.00  0.00     0.089 C 
HETATM    7  N7  UNL     1     -37.402 -57.214  11.493  1.00  0.00    -0.270 N 
ATOM      8  H7  UNL     1     -36.866 -57.999  11.862  1.00  0.00     0.193 HD
ENDROOT
BRANCH   1   9
HETATM    9  N5  UNL     1     -36.866 -56.314  14.473  1.00  0.00    -0.193 N 
HETATM   10  C4  UNL     1     -36.353 -56.706  15.566  1.00  0.00     0.709 A 
HETATM   11  N4  UNL     1     -35.036 -56.920  15.653  1.00  0.00    -0.022 N 
HETATM   12  N8  UNL     1     -37.164 -56.910  16.658  1.00  0.00    -0.020 N 
HETATM   13  C3  UNL     1     -34.517 -57.338  16.834  1.00  0.00     0.705 A 
ATOM     14  H4  UNL     1     -34.433 -56.769  14.846  1.00  0.00     0.203 HD
HETATM   15  N2  UNL     1     -35.329 -57.531  17.889  1.00  0.00    -0.020 N 
HETATM   16  C2  UNL     1     -36.654 -57.324  17.825  1.00  0.00     0.731 A 
ATOM     17  H2  UNL     1     -34.924 -57.847  18.769  1.00  0.00     0.203 HD
ATOM     18  H8  UNL     1     -38.167 -56.743  16.579  1.00  0.00     0.203 HD
ATOM     19  H5  UNL     1     -37.876 -56.179  14.504  1.00  0.00     0.180 HD
BRANCH  13  20
HETATM   20  N3  UNL     1     -33.242 -57.535  16.886  1.00  0.00    -0.234 N 
ATOM     21  H32 UNL     1     -32.915 -58.501  16.883  1.00  0.00     0.174 HD
ATOM     22  H31 UNL     1     -32.565 -56.774  16.930  1.00  0.00     0.174 HD
ENDBRANCH  13  20
BRANCH  16  23
HETATM   23  N1  UNL     1     -37.383 -57.526  18.878  1.00  0.00    -0.096 N 
ATOM     24  H1  UNL     1     -36.921 -57.566  19.787  1.00  0.00     0.213 HD
BRANCH  23  25
HETATM   25  O1  UNL     1     -38.732 -57.689  18.833  1.00  0.00    -0.271 OA
HETATM   26  C1  UNL     1     -39.533 -57.697  20.002  1.00  0.00     0.238 C 
ENDBRANCH  23  25
ENDBRANCH  16  23
ENDBRANCH   1   9
BRANCH   3  27
HETATM   27  O3  UNL     1     -37.212 -53.374  14.106  1.00  0.00    -0.342 OA
ATOM     28  H3  UNL     1     -37.324 -52.432  14.160  1.00  0.00     0.215 HD
ENDBRANCH   3  27
BRANCH   3  29
HETATM   29  C7  UNL     1     -35.439 -52.524  12.873  1.00  0.00     0.266 C 
BRANCH  29  30
HETATM   30  O4  UNL     1     -36.192 -51.369  13.027  1.00  0.00    -0.393 OA
ATOM     31  H4  UNL     1     -36.002 -51.028  13.894  1.00  0.00     0.209 HD
ENDBRANCH  29  30
ENDBRANCH   3  29
BRANCH   5  32
HETATM   32  C9  UNL     1     -39.285 -54.718  12.293  1.00  0.00     0.267 C 
BRANCH  32  33
HETATM   33  N6  UNL     1     -40.330 -55.339  11.535  1.00  0.00    -0.077 N 
ATOM     34  H63 UNL     1     -40.074 -55.409  10.551  1.00  0.00     0.274 HD
ATOM     35  H62 UNL     1     -40.402 -56.331  11.759  1.00  0.00     0.274 HD
ATOM     36  H61 UNL     1     -41.231 -54.875  11.644  1.00  0.00     0.274 HD
ENDBRANCH  32  33
ENDBRANCH   5  32
BRANCH   7  37
HETATM   37  O6  UNL     1     -38.209 -57.488  10.446  1.00  0.00    -0.290 OA
ATOM     38  H6  UNL     1     -39.119 -57.763  10.465  1.00  0.00     0.244 HD
ENDBRANCH   7  37
TORSDOF 10
ENDMDL
MODEL 4
REMARK VINA RESULT: -8.147210701      2.123      2.436
REMARK  10 active torsions:
REMARK  status: ('A' for Active; 'I' for Inactive)
REMARK    1  A    between atoms: O1_2  and  N1_3 
REMARK    2  A    between atoms: N1_3  and  C2_5 
REMARK    3  A    between atoms: C3_8  and  N3_9 
REMARK    4  A    between atoms: N5_15  and  C5_17 
REMARK    5  A    between atoms: C6_19  and  O3_20 
REMARK    6  A    between atoms: C6_19  and  C7_22 
REMARK    7  A    between atoms: C7_22  and  O4_23 
REMARK    8  A    between atoms: C8_26  and  C9_27 
REMARK    9  A    between atoms: C9_27  and  N6_28 
REMARK   10  A    between atoms: N7_33  and  O6_35 
ROOT
HETATM    1  C5  UNL     1     -37.932 -56.215  14.552  1.00  0.00     0.295 C 
HETATM    2  O2  UNL     1     -38.313 -56.976  13.447  1.00  0.00    -0.300 OA
HETATM    3  C6  UNL     1     -37.785 -56.606  12.253  1.00  0.00     0.305 C 
HETATM    4  O5  UNL     1     -37.859 -55.299  11.884  1.00  0.00    -0.318 OA
HETATM    5  C8  UNL     1     -37.451 -54.374  12.835  1.00  0.00     0.205 C 
HETATM    6  C10 UNL     1     -37.857 -54.769  14.203  1.00  0.00     0.089 C 
HETATM    7  N7  UNL     1     -38.151 -53.913  15.103  1.00  0.00    -0.270 N 
ATOM      8  H7  UNL     1     -38.419 -54.293  16.011  1.00  0.00     0.193 HD
ENDROOT
BRANCH   1   9
HETATM    9  N5  UNL     1     -36.735 -56.737  15.092  1.00  0.00    -0.193 N 
HETATM   10  C4  UNL     1     -36.311 -56.781  16.287  1.00  0.00     0.709 A 
HETATM   11  N4  UNL     1     -37.046 -56.274  17.282  1.00  0.00    -0.022 N 
HETATM   12  N8  UNL     1     -35.089 -57.356  16.550  1.00  0.00    -0.020 N 
HETATM   13  C3  UNL     1     -36.567 -56.336  18.549  1.00  0.00     0.705 A 
ATOM     14  H4  UNL     1     -37.952 -55.849  17.091  1.00  0.00     0.203 HD
HETATM   15  N2  UNL     1     -35.368 -56.902  18.781  1.00  0.00    -0.020 N 
HETATM   16  C2  UNL     1     -34.613 -57.417  17.799  1.00  0.00     0.731 A 
ATOM     17  H2  UNL     1     -35.021 -56.940  19.739  1.00  0.00     0.203 HD
ATOM     18  H8  UNL     1     -34.537 -57.739  15.782  1.00  0.00     0.203 HD
ATOM     19  H5  UNL     1     -36.105 -57.149  14.404  1.00  0.00     0.180 HD
BRANCH  13  20
HETATM   20  N3  UNL     1     -37.300 -55.838  19.486  1.00  0.00    -0.234 N 
ATOM     21  H32 UNL     1     -36.948 -55.899  20.442  1.00  0.00     0.174 HD
ATOM     22  H31 UNL     1     -38.202 -55.395  19.309  1.00  0.00     0.174 HD
ENDBRANCH  13  20
BRANCH  16  23
HETATM   23  N1  UNL     1     -33.467 -57.950  18.089  1.00  0.00    -0.096 N 
ATOM     24  H1  UNL     1     -32.761 -58.010  17.355  1.00  0.00     0.213 HD
BRANCH  23  25
HETATM   25  O1  UNL     1     -33.157 -58.434  19.322  1.00  0.00    -0.271 OA
HETATM   26  C1  UNL     1     -32.155 -57.848  20.135  1.00  0.00     0.238 C 
ENDBRANCH  23  25
ENDBRANCH  16  23
ENDBRANCH   1   9
BRANCH   3  27
HETATM   27  O3  UNL     1     -36.452 -57.066  12.140  1.00  0.00    -0.342 OA
ATOM     28  H3  UNL     1     -36.212 -57.575  12.905  1.00  0.00     0.215 HD
ENDBRANCH   3  27
BRANCH   3  29
HETATM   29  C7  UNL     1     -38.540 -57.416  11.188  1.00  0.00     0.266 C 
BRANCH  29  30
HETATM   30  O4  UNL     1     -37.585 -58.095  10.443  1.00  0.00    -0.393 OA
ATOM     31  H4  UNL     1     -38.053 -58.602   9.790  1.00  0.00     0.209 HD
ENDBRANCH  29  30
ENDBRANCH   3  29
BRANCH   5  32
HETATM   32  C9  UNL     1     -35.978 -54.096  12.724  1.00  0.00     0.267 C 
BRANCH  32  33
HETATM   33  N6  UNL     1     -35.663 -52.701  12.808  1.00  0.00    -0.077 N 
ATOM     34  H63 UNL     1     -36.196 -52.251  13.551  1.00  0.00     0.274 HD
ATOM     35  H62 UNL     1     -34.720 -52.563  13.172  1.00  0.00     0.274 HD
ATOM     36  H61 UNL     1     -35.787 -52.210  11.923  1.00  0.00     0.274 HD
ENDBRANCH  32  33
ENDBRANCH   5  32
BRANCH   7  37
HETATM   37  O6  UNL     1     -38.150 -52.567  15.002  1.00  0.00    -0.290 OA
ATOM     38  H6  UNL     1     -38.894 -51.977  15.044  1.00  0.00     0.244 HD
ENDBRANCH   7  37
TORSDOF 10
ENDMDL
MODEL 5
REMARK VINA RESULT: -8.130991523      2.570      4.001
REMARK  10 active torsions:
REMARK  status: ('A' for Active; 'I' for Inactive)
REMARK    1  A    between atoms: O1_2  and  N1_3 
REMARK    2  A    between atoms: N1_3  and  C2_5 
REMARK    3  A    between atoms: C3_8  and  N3_9 
REMARK    4  A    between atoms: N5_15  and  C5_17 
REMARK    5  A    between atoms: C6_19  and  O3_20 
REMARK    6  A    between atoms: C6_19  and  C7_22 
REMARK    7  A    between atoms: C7_22  and  O4_23 
REMARK    8  A    between atoms: C8_26  and  C9_27 
REMARK    9  A    between atoms: C9_27  and  N6_28 
REMARK   10  A    between atoms: N7_33  and  O6_35 
ROOT
HETATM    1  C5  UNL     1     -36.496 -57.173  13.779  1.00  0.00     0.295 C 
HETATM    2  O2  UNL     1     -35.712 -57.135  12.626  1.00  0.00    -0.300 OA
HETATM    3  C6  UNL     1     -35.532 -55.913  12.063  1.00  0.00     0.305 C 
HETATM    4  O5  UNL     1     -36.624 -55.136  11.832  1.00  0.00    -0.318 OA
HETATM    5  C8  UNL     1     -37.504 -54.989  12.895  1.00  0.00     0.205 C 
HETATM    6  C10 UNL     1     -37.654 -56.244  13.667  1.00  0.00     0.089 C 
HETATM    7  N7  UNL     1     -38.746 -56.565  14.245  1.00  0.00    -0.270 N 
ATOM      8  H7  UNL     1     -38.741 -57.452  14.749  1.00  0.00     0.193 HD
ENDROOT
BRANCH   1   9
HETATM    9  N5  UNL     1     -35.681 -56.940  14.909  1.00  0.00    -0.193 N 
HETATM   10  C4  UNL     1     -35.189 -57.742  15.761  1.00  0.00     0.709 A 
HETATM   11  N4  UNL     1     -35.422 -59.055  15.662  1.00  0.00    -0.022 N 
HETATM   12  N8  UNL     1     -34.415 -57.250  16.786  1.00  0.00    -0.020 N 
HETATM   13  C3  UNL     1     -34.884 -59.888  16.587  1.00  0.00     0.705 A 
ATOM     14  H4  UNL     1     -35.995 -59.423  14.904  1.00  0.00     0.203 HD
HETATM   15  N2  UNL     1     -34.131 -59.383  17.581  1.00  0.00    -0.020 N 
HETATM   16  C2  UNL     1     -33.882 -58.070  17.700  1.00  0.00     0.731 A 
ATOM     17  H2  UNL     1     -33.733 -60.023  18.268  1.00  0.00     0.203 HD
ATOM     18  H8  UNL     1     -34.244 -56.246  16.850  1.00  0.00     0.203 HD
ATOM     19  H5  UNL     1     -35.447 -55.960  15.068  1.00  0.00     0.180 HD
BRANCH  13  20
HETATM   20  N3  UNL     1     -35.128 -61.150  16.463  1.00  0.00    -0.234 N 
ATOM     21  H32 UNL     1     -36.058 -61.476  16.724  1.00  0.00     0.174 HD
ATOM     22  H31 UNL     1     -34.436 -61.817  16.123  1.00  0.00     0.174 HD
ENDBRANCH  13  20
BRANCH  16  23
HETATM   23  N1  UNL     1     -33.147 -57.646  18.680  1.00  0.00    -0.096 N 
ATOM     24  H1  UNL     1     -32.738 -56.714  18.611  1.00  0.00     0.213 HD
BRANCH  23  25
HETATM   25  O1  UNL     1     -32.893 -58.380  19.796  1.00  0.00    -0.271 OA
HETATM   26  C1  UNL     1     -32.040 -57.918  20.829  1.00  0.00     0.238 C 
ENDBRANCH  23  25
ENDBRANCH  16  23
ENDBRANCH   1   9
BRANCH   3  27
HETATM   27  O3  UNL     1     -34.558 -55.179  12.779  1.00  0.00    -0.342 OA
ATOM     28  H3  UNL     1     -33.945 -54.770  12.179  1.00  0.00     0.215 HD
ENDBRANCH   3  27
BRANCH   3  29
HETATM   29  C7  UNL     1     -34.868 -56.168  10.702  1.00  0.00     0.266 C 
BRANCH  29  30
HETATM   30  O4  UNL     1     -35.680 -57.060  10.016  1.00  0.00    -0.393 OA
ATOM     31  H4  UNL     1     -35.679 -56.791   9.104  1.00  0.00     0.209 HD
ENDBRANCH  29  30
ENDBRANCH   3  29
BRANCH   5  32
HETATM   32  C9  UNL     1     -37.123 -53.818  13.756  1.00  0.00     0.267 C 
BRANCH  32  33
HETATM   33  N6  UNL     1     -38.233 -53.267  14.477  1.00  0.00    -0.077 N 
ATOM     34  H63 UNL     1     -39.068 -53.240  13.893  1.00  0.00     0.274 HD
ATOM     35  H62 UNL     1     -38.555 -53.912  15.198  1.00  0.00     0.274 HD
ATOM     36  H61 UNL     1     -38.035 -52.348  14.871  1.00  0.00     0.274 HD
ENDBRANCH  32  33
ENDBRANCH   5  32
BRANCH   7  37
HETATM   37  O6  UNL     1     -39.906 -55.876  14.270  1.00  0.00    -0.290 OA
ATOM     38  H6  UNL     1     -40.271 -55.370  14.987  1.00  0.00     0.244 HD
ENDBRANCH   7  37
TORSDOF 10
ENDMDL
