MODEL 1
REMARK VINA RESULT: -9.550381553      0.000      0.000
REMARK  6 active torsions:
REMARK  status: ('A' for Active; 'I' for Inactive)
REMARK       I    between atoms: N1_1  and  C1_5 
REMARK       I    between atoms: C1_5  and  N2_6 
REMARK       I    between atoms: C1_5  and  N3_10 
REMARK       I    between atoms: N3_10  and  C2_12 
REMARK    1  A    between atoms: C2_12  and  C3_14 
REMARK    2  A    between atoms: C4_18  and  O2_19 
REMARK    3  A    between atoms: C5_21  and  O3_22 
REMARK    4  A    between atoms: C6_24  and  N5_25 
REMARK    5  A    between atoms: C7_26  and  N6_27 
REMARK    6  A    between atoms: N6_27  and  O4_29 
ROOT
HETATM    1  C3  UNL     1     -34.177 -56.405  14.339  1.00  0.00     0.419 C 
HETATM    2  N4  UNL     1     -33.356 -56.825  13.227  1.00  0.00    -0.011 N 
ATOM      3  H41 UNL     1     -33.564 -57.792  12.976  1.00  0.00     0.284 HD
ATOM      4  H42 UNL     1     -32.384 -56.928  13.519  1.00  0.00     0.284 HD
HETATM    5  C4  UNL     1     -33.444 -55.983  12.080  1.00  0.00     0.355 C 
HETATM    6  C5  UNL     1     -34.878 -55.421  12.012  1.00  0.00     0.223 C 
HETATM    7  C6  UNL     1     -35.733 -56.447  12.639  1.00  0.00     0.270 C 
HETATM    8  O7  UNL     1     -35.537 -56.472  14.039  1.00  0.00    -0.323 OA
ENDROOT
BRANCH   1   9
HETATM    9  C2  UNL     1     -33.952 -57.422  15.430  1.00  0.00     0.277 C 
HETATM   10  N3  UNL     1     -35.027 -58.321  15.717  1.00  0.00    -0.308 N 
HETATM   11  C1  UNL     1     -34.867 -59.318  16.752  1.00  0.00     0.482 C 
ATOM     12  H3  UNL     1     -35.901 -58.259  15.196  1.00  0.00     0.166 HD
HETATM   13  N1  UNL     1     -35.862 -59.240  17.773  1.00  0.00    -0.033 N 
HETATM   14  N2  UNL     1     -34.937 -60.640  16.138  1.00  0.00    -0.033 N 
ATOM     15  H13 UNL     1     -36.795 -59.463  17.428  1.00  0.00     0.278 HD
ATOM     16  H12 UNL     1     -35.782 -59.993  18.456  1.00  0.00     0.278 HD
ATOM     17  H11 UNL     1     -35.813 -58.316  18.202  1.00  0.00     0.278 HD
ATOM     18  H23 UNL     1     -34.857 -61.394  16.821  1.00  0.00     0.278 HD
ATOM     19  H22 UNL     1     -35.871 -60.863  15.793  1.00  0.00     0.278 HD
ATOM     20  H21 UNL     1     -34.227 -60.696  15.409  1.00  0.00     0.278 HD
HETATM   21  O1  UNL     1     -32.883 -57.502  16.072  1.00  0.00    -0.269 OA
ENDBRANCH   1   9
BRANCH   5  22
HETATM   22  O2  UNL     1     -32.589 -54.905  12.081  1.00  0.00    -0.368 OA
ATOM     23  H2  UNL     1     -32.701 -54.303  12.808  1.00  0.00     0.212 HD
ENDBRANCH   5  22
BRANCH   7  24
HETATM   24  N5  UNL     1     -37.112 -56.488  12.340  1.00  0.00    -0.253 N 
HETATM   25  C7  UNL     1     -37.929 -55.766  13.146  1.00  0.00     0.138 A 
HETATM   26  C8  UNL     1     -39.294 -55.730  12.950  1.00  0.00     0.125 A 
HETATM   27  C9  UNL     1     -39.861 -56.445  11.906  1.00  0.00     0.252 A 
HETATM   28  O5  UNL     1     -41.118 -56.432  11.701  1.00  0.00    -0.268 OA
HETATM   29  N7  UNL     1     -39.027 -57.150  11.128  1.00  0.00    -0.275 N 
HETATM   30  C10 UNL     1     -37.679 -57.170  11.341  1.00  0.00     0.333 A 
ATOM     31  H7  UNL     1     -39.412 -57.687  10.352  1.00  0.00     0.173 HD
HETATM   32  O6  UNL     1     -37.016 -57.876  10.529  1.00  0.00    -0.246 OA
BRANCH  25  33
HETATM   33  N6  UNL     1     -37.435 -55.000  14.242  1.00  0.00    -0.253 N 
ATOM     34  H6  UNL     1     -37.237 -55.480  15.120  1.00  0.00     0.196 HD
BRANCH  33  35
HETATM   35  O4  UNL     1     -37.236 -53.777  14.178  1.00  0.00    -0.288 OA
ATOM     36  H4  UNL     1     -36.374 -53.387  14.263  1.00  0.00     0.244 HD
ENDBRANCH  33  35
ENDBRANCH  25  33
ENDBRANCH   7  24
BRANCH   6  37
HETATM   37  O3  UNL     1     -34.809 -54.225  12.730  1.00  0.00    -0.387 OA
ATOM     38  H3  UNL     1     -35.484 -54.314  13.392  1.00  0.00     0.210 HD
ENDBRANCH   6  37
TORSDOF 6
ENDMDL
MODEL 2
REMARK VINA RESULT: -9.464395137      2.077      4.103
REMARK  6 active torsions:
REMARK  status: ('A' for Active; 'I' for Inactive)
REMARK       I    between atoms: N1_1  and  C1_5 
REMARK       I    between atoms: C1_5  and  N2_6 
REMARK       I    between atoms: C1_5  and  N3_10 
REMARK       I    between atoms: N3_10  and  C2_12 
REMARK    1  A    between atoms: C2_12  and  C3_14 
REMARK    2  A    between atoms: C4_18  and  O2_19 
REMARK    3  A    between atoms: C5_21  and  O3_22 
REMARK    4  A    between atoms: C6_24  and  N5_25 
REMARK    5  A    between atoms: C7_26  and  N6_27 
REMARK    6  A    between atoms: N6_27  and  O4_29 
ROOT
HETATM    1  C3  UNL     1     -37.262 -56.268  14.868  1.00  0.00     0.419 C 
HETATM    2  N4  UNL     1     -37.028 -54.869  15.139  1.00  0.00    -0.011 N 
ATOM      3  H41 UNL     1     -36.037 -54.700  15.310  1.00  0.00     0.284 HD
ATOM      4  H42 UNL     1     -37.408 -54.613  16.050  1.00  0.00     0.284 HD
HETATM    5  C4  UNL     1     -37.517 -53.986  14.131  1.00  0.00     0.355 C 
HETATM    6  C5  UNL     1     -37.388 -54.700  12.771  1.00  0.00     0.223 C 
HETATM    7  C6  UNL     1     -36.235 -55.611  12.912  1.00  0.00     0.270 C 
HETATM    8  O7  UNL     1     -36.565 -56.707  13.743  1.00  0.00    -0.323 OA
ENDROOT
BRANCH   1   9
HETATM    9  C2  UNL     1     -36.667 -57.022  16.032  1.00  0.00     0.277 C 
HETATM   10  N3  UNL     1     -35.525 -57.842  15.765  1.00  0.00    -0.308 N 
HETATM   11  C1  UNL     1     -34.913 -58.586  16.842  1.00  0.00     0.482 C 
ATOM     12  H3  UNL     1     -35.146 -57.902  14.820  1.00  0.00     0.166 HD
HETATM   13  N1  UNL     1     -34.847 -59.990  16.596  1.00  0.00    -0.033 N 
HETATM   14  N2  UNL     1     -33.555 -58.086  17.038  1.00  0.00    -0.033 N 
ATOM     15  H13 UNL     1     -34.228 -60.223  15.820  1.00  0.00     0.278 HD
ATOM     16  H12 UNL     1     -34.347 -60.493  17.329  1.00  0.00     0.278 HD
ATOM     17  H11 UNL     1     -35.795 -60.340  16.459  1.00  0.00     0.278 HD
ATOM     18  H23 UNL     1     -33.055 -58.589  17.772  1.00  0.00     0.278 HD
ATOM     19  H22 UNL     1     -32.936 -58.319  16.262  1.00  0.00     0.278 HD
ATOM     20  H21 UNL     1     -33.602 -57.083  17.215  1.00  0.00     0.278 HD
HETATM   21  O1  UNL     1     -37.128 -56.952  17.190  1.00  0.00    -0.269 OA
ENDBRANCH   1   9
BRANCH   5  22
HETATM   22  O2  UNL     1     -38.835 -53.616  14.268  1.00  0.00    -0.368 OA
ATOM     23  H2  UNL     1     -38.974 -52.751  14.635  1.00  0.00     0.212 HD
ENDBRANCH   5  22
BRANCH   7  24
HETATM   24  N5  UNL     1     -35.553 -56.060  11.761  1.00  0.00    -0.253 N 
HETATM   25  C7  UNL     1     -34.235 -56.346  11.910  1.00  0.00     0.138 A 
HETATM   26  C8  UNL     1     -33.466 -56.792  10.855  1.00  0.00     0.125 A 
HETATM   27  C9  UNL     1     -34.040 -56.959   9.604  1.00  0.00     0.252 A 
HETATM   28  O5  UNL     1     -33.355 -57.369   8.611  1.00  0.00    -0.268 OA
HETATM   29  N7  UNL     1     -35.344 -56.669   9.489  1.00  0.00    -0.275 N 
HETATM   30  C10 UNL     1     -36.085 -56.228  10.547  1.00  0.00     0.333 A 
ATOM     31  H7  UNL     1     -35.797 -56.780   8.582  1.00  0.00     0.173 HD
HETATM   32  O6  UNL     1     -37.300 -55.994  10.293  1.00  0.00    -0.246 OA
BRANCH  25  33
HETATM   33  N6  UNL     1     -33.562 -56.204  13.157  1.00  0.00    -0.253 N 
ATOM     34  H6  UNL     1     -33.283 -55.269  13.456  1.00  0.00     0.196 HD
BRANCH  33  35
HETATM   35  O4  UNL     1     -33.299 -57.165  13.898  1.00  0.00    -0.288 OA
ATOM     36  H4  UNL     1     -33.955 -57.614  14.417  1.00  0.00     0.244 HD
ENDBRANCH  33  35
ENDBRANCH  25  33
ENDBRANCH   7  24
BRANCH   6  37
HETATM   37  O3  UNL     1     -38.612 -55.355  12.613  1.00  0.00    -0.387 OA
ATOM     38  H3  UNL     1     -38.547 -56.107  13.190  1.00  0.00     0.210 HD
ENDBRANCH   6  37
TORSDOF 6
ENDMDL
MODEL 3
REMARK VINA RESULT: -9.416020734      2.549      6.378
REMARK  6 active torsions:
REMARK  status: ('A' for Active; 'I' for Inactive)
REMARK       I    between atoms: N1_1  and  C1_5 
REMARK       I    between atoms: C1_5  and  N2_6 
REMARK       I    between atoms: C1_5  and  N3_10 
REMARK       I    between atoms: N3_10  and  C2_12 
REMARK    1  A    between atoms: C2_12  and  C3_14 
REMARK    2  A    between atoms: C4_18  and  O2_19 
REMARK    3  A    between atoms: C5_21  and  O3_22 
REMARK    4  A    between atoms: C6_24  and  N5_25 
REMARK    5  A    between atoms: C7_26  and  N6_27 
REMARK    6  A    between atoms: N6_27  and  O4_29 
ROOT
HETATM    1  C3  UNL     1     -36.790 -55.225  14.065  1.00  0.00     0.419 C 
HETATM    2  N4  UNL     1     -37.758 -56.265  13.799  1.00  0.00    -0.011 N 
ATOM      3  H41 UNL     1     -37.289 -57.157  13.644  1.00  0.00     0.284 HD
ATOM      4  H42 UNL     1     -38.182 -56.131  12.881  1.00  0.00     0.284 HD
HETATM    5  C4  UNL     1     -38.765 -56.398  14.799  1.00  0.00     0.355 C 
HETATM    6  C5  UNL     1     -38.133 -56.048  16.161  1.00  0.00     0.223 C 
HETATM    7  C6  UNL     1     -36.708 -56.413  16.039  1.00  0.00     0.270 C 
HETATM    8  O7  UNL     1     -36.030 -55.497  15.202  1.00  0.00    -0.323 OA
ENDROOT
BRANCH   1   9
HETATM    9  C2  UNL     1     -35.819 -55.257  12.911  1.00  0.00     0.277 C 
HETATM   10  N3  UNL     1     -34.466 -55.620  13.204  1.00  0.00    -0.308 N 
HETATM   11  C1  UNL     1     -33.492 -55.668  12.137  1.00  0.00     0.482 C 
ATOM     12  H3  UNL     1     -34.191 -55.843  14.161  1.00  0.00     0.166 HD
HETATM   13  N1  UNL     1     -32.360 -54.828  12.364  1.00  0.00    -0.033 N 
HETATM   14  N2  UNL     1     -33.026 -57.044  11.995  1.00  0.00    -0.033 N 
ATOM     15  H13 UNL     1     -31.798 -55.136  13.158  1.00  0.00     0.278 HD
ATOM     16  H12 UNL     1     -31.648 -54.928  11.641  1.00  0.00     0.278 HD
ATOM     17  H11 UNL     1     -32.685 -53.867  12.464  1.00  0.00     0.278 HD
ATOM     18  H23 UNL     1     -32.314 -57.143  11.272  1.00  0.00     0.278 HD
ATOM     19  H22 UNL     1     -32.464 -57.351  12.789  1.00  0.00     0.278 HD
ATOM     20  H21 UNL     1     -33.835 -57.644  11.833  1.00  0.00     0.278 HD
HETATM   21  O1  UNL     1     -36.151 -54.984  11.738  1.00  0.00    -0.269 OA
ENDBRANCH   1   9
BRANCH   5  22
HETATM   22  O2  UNL     1     -39.858 -55.578  14.639  1.00  0.00    -0.368 OA
ATOM     23  H2  UNL     1     -40.687 -56.028  14.528  1.00  0.00     0.212 HD
ENDBRANCH   5  22
BRANCH   7  24
HETATM   24  N5  UNL     1     -35.949 -56.666  17.201  1.00  0.00    -0.253 N 
HETATM   25  C7  UNL     1     -34.783 -57.339  17.028  1.00  0.00     0.138 A 
HETATM   26  C8  UNL     1     -33.958 -57.643  18.092  1.00  0.00     0.125 A 
HETATM   27  C9  UNL     1     -34.314 -57.258  19.375  1.00  0.00     0.252 A 
HETATM   28  O5  UNL     1     -33.573 -57.526  20.376  1.00  0.00    -0.268 OA
HETATM   29  N7  UNL     1     -35.471 -56.595  19.512  1.00  0.00    -0.275 N 
HETATM   30  C10 UNL     1     -36.271 -56.305  18.445  1.00  0.00     0.333 A 
ATOM     31  H7  UNL     1     -35.763 -56.298  20.443  1.00  0.00     0.173 HD
HETATM   32  O6  UNL     1     -37.332 -55.675  18.723  1.00  0.00    -0.246 OA
BRANCH  25  33
HETATM   33  N6  UNL     1     -34.337 -57.774  15.747  1.00  0.00    -0.253 N 
ATOM     34  H6  UNL     1     -34.850 -58.522  15.282  1.00  0.00     0.196 HD
BRANCH  33  35
HETATM   35  O4  UNL     1     -33.353 -57.284  15.171  1.00  0.00    -0.288 OA
ATOM     36  H4  UNL     1     -33.163 -56.353  15.170  1.00  0.00     0.244 HD
ENDBRANCH  33  35
ENDBRANCH  25  33
ENDBRANCH   7  24
BRANCH   6  37
HETATM   37  O3  UNL     1     -38.357 -54.676  16.297  1.00  0.00    -0.387 OA
ATOM     38  H3  UNL     1     -39.011 -54.482  15.636  1.00  0.00     0.210 HD
ENDBRANCH   6  37
TORSDOF 6
ENDMDL
MODEL 4
REMARK VINA RESULT: -9.194433011      1.471      2.572
REMARK  6 active torsions:
REMARK  status: ('A' for Active; 'I' for Inactive)
REMARK       I    between atoms: N1_1  and  C1_5 
REMARK       I    between atoms: C1_5  and  N2_6 
REMARK       I    between atoms: C1_5  and  N3_10 
REMARK       I    between atoms: N3_10  and  C2_12 
REMARK    1  A    between atoms: C2_12  and  C3_14 
REMARK    2  A    between atoms: C4_18  and  O2_19 
REMARK    3  A    between atoms: C5_21  and  O3_22 
REMARK    4  A    between atoms: C6_24  and  N5_25 
REMARK    5  A    between atoms: C7_26  and  N6_27 
REMARK    6  A    between atoms: N6_27  and  O4_29 
ROOT
HETATM    1  C3  UNL     1     -34.306 -56.851  14.460  1.00  0.00     0.419 C 
HETATM    2  N4  UNL     1     -33.992 -57.646  13.296  1.00  0.00    -0.011 N 
ATOM      3  H41 UNL     1     -34.653 -58.417  13.202  1.00  0.00     0.284 HD
ATOM      4  H42 UNL     1     -33.132 -58.174  13.446  1.00  0.00     0.284 HD
HETATM    5  C4  UNL     1     -33.915 -56.904  12.081  1.00  0.00     0.355 C 
HETATM    6  C5  UNL     1     -34.931 -55.748  12.165  1.00  0.00     0.223 C 
HETATM    7  C6  UNL     1     -36.015 -56.239  13.039  1.00  0.00     0.270 C 
HETATM    8  O7  UNL     1     -35.583 -56.295  14.384  1.00  0.00    -0.323 OA
ENDROOT
BRANCH   1   9
HETATM    9  C2  UNL     1     -34.352 -57.814  15.621  1.00  0.00     0.277 C 
HETATM   10  N3  UNL     1     -34.090 -57.282  16.923  1.00  0.00    -0.308 N 
HETATM   11  C1  UNL     1     -34.121 -58.158  18.072  1.00  0.00     0.482 C 
ATOM     12  H3  UNL     1     -33.881 -56.290  17.039  1.00  0.00     0.166 HD
HETATM   13  N1  UNL     1     -32.905 -58.157  18.819  1.00  0.00    -0.033 N 
HETATM   14  N2  UNL     1     -35.205 -57.732  18.951  1.00  0.00    -0.033 N 
ATOM     15  H13 UNL     1     -32.719 -57.258  19.263  1.00  0.00     0.278 HD
ATOM     16  H12 UNL     1     -32.966 -58.721  19.667  1.00  0.00     0.278 HD
ATOM     17  H11 UNL     1     -32.148 -58.455  18.205  1.00  0.00     0.278 HD
ATOM     18  H23 UNL     1     -35.266 -58.296  19.799  1.00  0.00     0.278 HD
ATOM     19  H22 UNL     1     -35.019 -56.832  19.395  1.00  0.00     0.278 HD
ATOM     20  H21 UNL     1     -36.074 -57.733  18.417  1.00  0.00     0.278 HD
HETATM   21  O1  UNL     1     -34.606 -59.029  15.483  1.00  0.00    -0.269 OA
ENDBRANCH   1   9
BRANCH   5  22
HETATM   22  O2  UNL     1     -32.687 -56.343  11.817  1.00  0.00    -0.368 OA
ATOM     23  H2  UNL     1     -32.557 -55.473  12.176  1.00  0.00     0.212 HD
ENDBRANCH   5  22
BRANCH   7  24
HETATM   24  N5  UNL     1     -37.296 -55.652  12.962  1.00  0.00    -0.253 N 
HETATM   25  C7  UNL     1     -38.239 -56.343  12.275  1.00  0.00     0.138 A 
HETATM   26  C8  UNL     1     -39.527 -55.868  12.134  1.00  0.00     0.125 A 
HETATM   27  C9  UNL     1     -39.882 -54.654  12.702  1.00  0.00     0.252 A 
HETATM   28  O5  UNL     1     -41.062 -54.190  12.587  1.00  0.00    -0.268 OA
HETATM   29  N7  UNL     1     -38.927 -53.995  13.374  1.00  0.00    -0.275 N 
HETATM   30  C10 UNL     1     -37.660 -54.485  13.501  1.00  0.00     0.333 A 
ATOM     31  H7  UNL     1     -39.155 -53.099  13.804  1.00  0.00     0.173 HD
HETATM   32  O6  UNL     1     -36.865 -53.757  14.161  1.00  0.00    -0.246 OA
BRANCH  25  33
HETATM   33  N6  UNL     1     -37.965 -57.598  11.658  1.00  0.00    -0.253 N 
ATOM     34  H6  UNL     1     -38.112 -58.449  12.201  1.00  0.00     0.196 HD
BRANCH  33  35
HETATM   35  O4  UNL     1     -37.556 -57.704  10.491  1.00  0.00    -0.288 OA
ATOM     36  H4  UNL     1     -37.941 -58.299   9.859  1.00  0.00     0.244 HD
ENDBRANCH  33  35
ENDBRANCH  25  33
ENDBRANCH   7  24
BRANCH   6  37
HETATM   37  O3  UNL     1     -34.199 -54.691  12.710  1.00  0.00    -0.387 OA
ATOM     38  H3  UNL     1     -33.398 -54.677  12.199  1.00  0.00     0.210 HD
ENDBRANCH   6  37
TORSDOF 6
ENDMDL
MODEL 5
REMARK VINA RESULT: -9.158153605      2.428      5.999
REMARK  6 active torsions:
REMARK  status: ('A' for Active; 'I' for Inactive)
REMARK       I    between atoms: N1_1  and  C1_5 
REMARK       I    between atoms: C1_5  and  N2_6 
REMARK       I    between atoms: C1_5  and  N3_10 
REMARK       I    between atoms: N3_10  and  C2_12 
REMARK    1  A    between atoms: C2_12  and  C3_14 
REMARK    2  A    between atoms: C4_18  and  O2_19 
REMARK    3  A    between atoms: C5_21  and  O3_22 
REMARK    4  A    between atoms: C6_24  and  N5_25 
REMARK    5  A    between atoms: C7_26  and  N6_27 
REMARK    6  A    between atoms: N6_27  and  O4_29 
ROOT
HETATM    1  C3  UNL     1     -37.944 -55.017  12.173  1.00  0.00     0.419 C 
HETATM    2  N4  UNL     1     -38.540 -56.248  11.706  1.00  0.00    -0.011 N 
ATOM      3  H41 UNL     1     -37.837 -56.983  11.643  1.00  0.00     0.284 HD
ATOM      4  H42 UNL     1     -38.798 -56.168  10.723  1.00  0.00     0.284 HD
HETATM    5  C4  UNL     1     -39.654 -56.690  12.478  1.00  0.00     0.355 C 
HETATM    6  C5  UNL     1     -39.412 -56.277  13.944  1.00  0.00     0.223 C 
HETATM    7  C6  UNL     1     -37.946 -56.265  14.112  1.00  0.00     0.270 C 
HETATM    8  O7  UNL     1     -37.376 -55.159  13.439  1.00  0.00    -0.323 OA
ENDROOT
BRANCH   1   9
HETATM    9  C2  UNL     1     -36.792 -54.735  11.242  1.00  0.00     0.277 C 
HETATM   10  N3  UNL     1     -35.853 -55.792  11.022  1.00  0.00    -0.308 N 
HETATM   11  C1  UNL     1     -34.730 -55.577  10.138  1.00  0.00     0.482 C 
ATOM     12  H3  UNL     1     -35.977 -56.692  11.486  1.00  0.00     0.166 HD
HETATM   13  N1  UNL     1     -33.466 -55.809  10.761  1.00  0.00    -0.033 N 
HETATM   14  N2  UNL     1     -34.856 -56.480   8.999  1.00  0.00    -0.033 N 
ATOM     15  H13 UNL     1     -33.330 -56.787  11.018  1.00  0.00     0.278 HD
ATOM     16  H12 UNL     1     -32.687 -55.727  10.108  1.00  0.00     0.278 HD
ATOM     17  H11 UNL     1     -33.378 -55.179  11.557  1.00  0.00     0.278 HD
ATOM     18  H23 UNL     1     -34.077 -56.398   8.346  1.00  0.00     0.278 HD
ATOM     19  H22 UNL     1     -34.720 -57.458   9.256  1.00  0.00     0.278 HD
ATOM     20  H21 UNL     1     -35.759 -56.315   8.554  1.00  0.00     0.278 HD
HETATM   21  O1  UNL     1     -36.636 -53.634  10.673  1.00  0.00    -0.269 OA
ENDBRANCH   1   9
BRANCH   5  22
HETATM   22  O2  UNL     1     -40.869 -56.161  12.107  1.00  0.00    -0.368 OA
ATOM     23  H2  UNL     1     -41.250 -56.541  11.324  1.00  0.00     0.212 HD
ENDBRANCH   5  22
BRANCH   7  24
HETATM   24  N5  UNL     1     -37.388 -56.391  15.402  1.00  0.00    -0.253 N 
HETATM   25  C7  UNL     1     -36.064 -56.683  15.465  1.00  0.00     0.138 A 
HETATM   26  C8  UNL     1     -35.411 -56.829  16.671  1.00  0.00     0.125 A 
HETATM   27  C9  UNL     1     -36.110 -56.678  17.858  1.00  0.00     0.252 A 
HETATM   28  O5  UNL     1     -35.534 -56.808  18.987  1.00  0.00    -0.268 OA
HETATM   29  N7  UNL     1     -37.416 -56.390  17.763  1.00  0.00    -0.275 N 
HETATM   30  C10 UNL     1     -38.041 -56.250  16.558  1.00  0.00     0.333 A 
ATOM     31  H7  UNL     1     -37.959 -56.273  18.617  1.00  0.00     0.173 HD
HETATM   32  O6  UNL     1     -39.274 -55.978  16.620  1.00  0.00    -0.246 OA
BRANCH  25  33
HETATM   33  N6  UNL     1     -35.267 -56.856  14.297  1.00  0.00    -0.253 N 
ATOM     34  H6  UNL     1     -35.244 -57.775  13.856  1.00  0.00     0.196 HD
BRANCH  33  35
HETATM   35  O4  UNL     1     -34.599 -55.940  13.791  1.00  0.00    -0.288 OA
ATOM     36  H4  UNL     1     -33.871 -55.522  14.237  1.00  0.00     0.244 HD
ENDBRANCH  33  35
ENDBRANCH  25  33
ENDBRANCH   7  24
BRANCH   6  37
HETATM   37  O3  UNL     1     -40.004 -55.016  14.044  1.00  0.00    -0.387 OA
ATOM     38  H3  UNL     1     -39.605 -54.635  14.817  1.00  0.00     0.210 HD
ENDBRANCH   6  37
TORSDOF 6
ENDMDL
