MODEL 1
REMARK VINA RESULT: -9.743913477      0.000      0.000
REMARK  6 active torsions:
REMARK  status: ('A' for Active; 'I' for Inactive)
REMARK    1  A    between atoms: C3_4  and  O2_5 
REMARK    2  A    between atoms: O2_5  and  S1_6 
REMARK    3  A    between atoms: C5_11  and  O6_12 
REMARK    4  A    between atoms: O6_12  and  C6_13 
REMARK    5  A    between atoms: C7_17  and  O7_18 
REMARK    6  A    between atoms: C8_20  and  O8_21 
ROOT
HETATM    1  O1  UNL     1     -34.647 -58.935  15.293  1.00  0.00    -0.268 OA
HETATM    2  C1  UNL     1     -34.860 -57.841  14.703  1.00  0.00     0.250 C 
HETATM    3  C2  UNL     1     -34.130 -57.708  13.524  1.00  0.00     0.112 C 
HETATM    4  C3  UNL     1     -34.119 -56.640  12.639  1.00  0.00     0.100 C 
HETATM    5  C4  UNL     1     -34.798 -55.436  12.837  1.00  0.00     0.081 C 
HETATM    6  C5  UNL     1     -35.894 -55.197  13.645  1.00  0.00     0.141 C 
HETATM    7  C9  UNL     1     -36.187 -55.795  14.866  1.00  0.00     0.281 C 
HETATM    8  O9  UNL     1     -36.949 -55.155  15.658  1.00  0.00    -0.265 OA
HETATM    9  N4  UNL     1     -35.730 -56.990  15.274  1.00  0.00    -0.288 N 
ATOM     10  H4  UNL     1     -36.106 -57.305  16.169  1.00  0.00     0.172 HD
ENDROOT
BRANCH   6  11
HETATM   11  O6  UNL     1     -36.824 -54.280  13.245  1.00  0.00    -0.320 OA
BRANCH  11  12
HETATM   12  C6  UNL     1     -37.867 -54.464  12.324  1.00  0.00     0.271 C 
HETATM   13  N1  UNL     1     -37.506 -55.607  11.505  1.00  0.00    -0.094 NA
HETATM   14  N2  UNL     1     -38.601 -56.106  10.797  1.00  0.00    -0.035 NA
HETATM   15  N3  UNL     1     -39.513 -56.626  11.722  1.00  0.00    -0.095 NA
HETATM   16  C7  UNL     1     -40.168 -55.471  12.339  1.00  0.00     0.261 C 
HETATM   17  C8  UNL     1     -39.119 -54.743  13.138  1.00  0.00     0.210 C 
BRANCH  16  18
HETATM   18  O7  UNL     1     -40.764 -54.661  11.388  1.00  0.00    -0.376 OA
ATOM     19  H7  UNL     1     -41.248 -53.950  11.792  1.00  0.00     0.211 HD
ENDBRANCH  16  18
BRANCH  17  20
HETATM   20  O8  UNL     1     -39.636 -53.576  13.650  1.00  0.00    -0.388 OA
ATOM     21  H8  UNL     1     -39.442 -53.502  14.577  1.00  0.00     0.210 HD
ENDBRANCH  17  20
ENDBRANCH  11  12
ENDBRANCH   6  11
BRANCH   4  22
HETATM   22  O2  UNL     1     -33.399 -56.733  11.473  1.00  0.00    -0.214 OA
BRANCH  22  23
HETATM   23  S1  UNL     1     -34.162 -56.772   9.960  1.00  0.00     0.256 S 
HETATM   24  O3  UNL     1     -34.095 -55.405   9.372  1.00  0.00    -0.572 OA
HETATM   25  O4  UNL     1     -35.591 -57.231  10.058  1.00  0.00    -0.572 OA
HETATM   26  O5  UNL     1     -33.341 -57.862   8.988  1.00  0.00    -0.572 OA
ENDBRANCH  22  23
ENDBRANCH   4  22
TORSDOF 6
ENDMDL
MODEL 2
REMARK VINA RESULT: -9.696450854      3.026      5.833
REMARK  6 active torsions:
REMARK  status: ('A' for Active; 'I' for Inactive)
REMARK    1  A    between atoms: C3_4  and  O2_5 
REMARK    2  A    between atoms: O2_5  and  S1_6 
REMARK    3  A    between atoms: C5_11  and  O6_12 
REMARK    4  A    between atoms: O6_12  and  C6_13 
REMARK    5  A    between atoms: C7_17  and  O7_18 
REMARK    6  A    between atoms: C8_20  and  O8_21 
ROOT
HETATM    1  O1  UNL     1     -34.150 -55.534   9.847  1.00  0.00    -0.268 OA
HETATM    2  C1  UNL     1     -34.559 -56.109  10.893  1.00  0.00     0.250 C 
HETATM    3  C2  UNL     1     -35.903 -56.470  10.824  1.00  0.00     0.112 C 
HETATM    4  C3  UNL     1     -36.669 -57.106  11.790  1.00  0.00     0.100 C 
HETATM    5  C4  UNL     1     -36.226 -57.422  13.075  1.00  0.00     0.081 C 
HETATM    6  C5  UNL     1     -34.926 -57.581  13.515  1.00  0.00     0.141 C 
HETATM    7  C9  UNL     1     -33.799 -56.891  13.080  1.00  0.00     0.281 C 
HETATM    8  O9  UNL     1     -32.810 -56.832  13.877  1.00  0.00    -0.265 OA
HETATM    9  N4  UNL     1     -33.673 -56.284  11.889  1.00  0.00    -0.288 N 
ATOM     10  H4  UNL     1     -32.750 -55.888  11.710  1.00  0.00     0.172 HD
ENDROOT
BRANCH   6  11
HETATM   11  O6  UNL     1     -34.662 -58.507  14.486  1.00  0.00    -0.320 OA
BRANCH  11  12
HETATM   12  C6  UNL     1     -35.338 -58.688  15.702  1.00  0.00     0.271 C 
HETATM   13  N1  UNL     1     -35.037 -60.035  16.151  1.00  0.00    -0.094 NA
HETATM   14  N2  UNL     1     -35.353 -60.216  17.499  1.00  0.00    -0.035 NA
HETATM   15  N3  UNL     1     -34.498 -59.407  18.255  1.00  0.00    -0.095 NA
HETATM   16  C7  UNL     1     -34.995 -58.038  18.104  1.00  0.00     0.261 C 
HETATM   17  C8  UNL     1     -34.785 -57.649  16.663  1.00  0.00     0.210 C 
BRANCH  16  18
HETATM   18  O7  UNL     1     -36.320 -57.936  18.491  1.00  0.00    -0.376 OA
ATOM     19  H7  UNL     1     -36.513 -58.512  19.222  1.00  0.00     0.211 HD
ENDBRANCH  16  18
BRANCH  17  20
HETATM   20  O8  UNL     1     -35.341 -56.416  16.417  1.00  0.00    -0.388 OA
ATOM     21  H8  UNL     1     -35.705 -56.048  17.213  1.00  0.00     0.210 HD
ENDBRANCH  17  20
ENDBRANCH  11  12
ENDBRANCH   6  11
BRANCH   4  22
HETATM   22  O2  UNL     1     -37.962 -57.465  11.500  1.00  0.00    -0.214 OA
BRANCH  22  23
HETATM   23  S1  UNL     1     -39.258 -56.403  11.761  1.00  0.00     0.256 S 
HETATM   24  O3  UNL     1     -39.637 -56.481  13.200  1.00  0.00    -0.572 OA
HETATM   25  O4  UNL     1     -40.440 -56.727  10.890  1.00  0.00    -0.572 OA
HETATM   26  O5  UNL     1     -38.750 -54.854  11.378  1.00  0.00    -0.572 OA
ENDBRANCH  22  23
ENDBRANCH   4  22
TORSDOF 6
ENDMDL
MODEL 3
REMARK VINA RESULT: -9.573510190      2.287      5.224
REMARK  6 active torsions:
REMARK  status: ('A' for Active; 'I' for Inactive)
REMARK    1  A    between atoms: C3_4  and  O2_5 
REMARK    2  A    between atoms: O2_5  and  S1_6 
REMARK    3  A    between atoms: C5_11  and  O6_12 
REMARK    4  A    between atoms: O6_12  and  C6_13 
REMARK    5  A    between atoms: C7_17  and  O7_18 
REMARK    6  A    between atoms: C8_20  and  O8_21 
ROOT
HETATM    1  O1  UNL     1     -40.313 -55.784  11.205  1.00  0.00    -0.268 OA
HETATM    2  C1  UNL     1     -39.382 -56.177  11.959  1.00  0.00     0.250 C 
HETATM    3  C2  UNL     1     -38.299 -56.701  11.258  1.00  0.00     0.112 C 
HETATM    4  C3  UNL     1     -37.119 -57.224  11.768  1.00  0.00     0.100 C 
HETATM    5  C4  UNL     1     -36.850 -57.400  13.127  1.00  0.00     0.081 C 
HETATM    6  C5  UNL     1     -37.428 -56.753  14.203  1.00  0.00     0.141 C 
HETATM    7  C9  UNL     1     -38.744 -56.316  14.315  1.00  0.00     0.281 C 
HETATM    8  O9  UNL     1     -39.209 -56.168  15.490  1.00  0.00    -0.265 OA
HETATM    9  N4  UNL     1     -39.560 -56.039  13.285  1.00  0.00    -0.288 N 
ATOM     10  H4  UNL     1     -40.468 -55.660  13.554  1.00  0.00     0.172 HD
ENDROOT
BRANCH   6  11
HETATM   11  O6  UNL     1     -36.665 -56.488  15.305  1.00  0.00    -0.320 OA
BRANCH  11  12
HETATM   12  C6  UNL     1     -36.025 -57.412  16.145  1.00  0.00     0.271 C 
HETATM   13  N1  UNL     1     -34.599 -57.164  16.031  1.00  0.00    -0.094 NA
HETATM   14  N2  UNL     1     -33.882 -57.767  17.066  1.00  0.00    -0.035 NA
HETATM   15  N3  UNL     1     -34.242 -57.138  18.264  1.00  0.00    -0.095 NA
HETATM   16  C7  UNL     1     -35.572 -57.645  18.605  1.00  0.00     0.261 C 
HETATM   17  C8  UNL     1     -36.522 -57.133  17.554  1.00  0.00     0.210 C 
BRANCH  16  18
HETATM   18  O7  UNL     1     -35.579 -59.026  18.696  1.00  0.00    -0.376 OA
ATOM     19  H7  UNL     1     -35.547 -59.314  19.601  1.00  0.00     0.211 HD
ENDBRANCH  16  18
BRANCH  17  20
HETATM   20  O8  UNL     1     -37.774 -57.670  17.741  1.00  0.00    -0.388 OA
ATOM     21  H8  UNL     1     -37.712 -58.571  18.036  1.00  0.00     0.210 HD
ENDBRANCH  17  20
ENDBRANCH  11  12
ENDBRANCH   6  11
BRANCH   4  22
HETATM   22  O2  UNL     1     -36.121 -57.610  10.908  1.00  0.00    -0.214 OA
BRANCH  22  23
HETATM   23  S1  UNL     1     -34.808 -56.596  10.559  1.00  0.00     0.256 S 
HETATM   24  O3  UNL     1     -33.751 -56.839  11.579  1.00  0.00    -0.572 OA
HETATM   25  O4  UNL     1     -35.202 -55.144  10.549  1.00  0.00    -0.572 OA
HETATM   26  O5  UNL     1     -34.241 -56.982   9.031  1.00  0.00    -0.572 OA
ENDBRANCH  22  23
ENDBRANCH   4  22
TORSDOF 6
ENDMDL
MODEL 4
REMARK VINA RESULT: -9.547413352      3.335      5.734
REMARK  6 active torsions:
REMARK  status: ('A' for Active; 'I' for Inactive)
REMARK    1  A    between atoms: C3_4  and  O2_5 
REMARK    2  A    between atoms: O2_5  and  S1_6 
REMARK    3  A    between atoms: C5_11  and  O6_12 
REMARK    4  A    between atoms: O6_12  and  C6_13 
REMARK    5  A    between atoms: C7_17  and  O7_18 
REMARK    6  A    between atoms: C8_20  and  O8_21 
ROOT
HETATM    1  O1  UNL     1     -39.398 -56.152  17.863  1.00  0.00    -0.268 OA
HETATM    2  C1  UNL     1     -38.440 -56.218  17.046  1.00  0.00     0.250 C 
HETATM    3  C2  UNL     1     -37.211 -56.440  17.664  1.00  0.00     0.112 C 
HETATM    4  C3  UNL     1     -35.962 -56.559  17.072  1.00  0.00     0.100 C 
HETATM    5  C4  UNL     1     -35.708 -56.380  15.710  1.00  0.00     0.081 C 
HETATM    6  C5  UNL     1     -36.596 -56.481  14.656  1.00  0.00     0.141 C 
HETATM    7  C9  UNL     1     -37.944 -56.138  14.654  1.00  0.00     0.281 C 
HETATM    8  O9  UNL     1     -38.473 -55.867  13.529  1.00  0.00    -0.265 OA
HETATM    9  N4  UNL     1     -38.729 -56.071  15.741  1.00  0.00    -0.288 N 
ATOM     10  H4  UNL     1     -39.711 -55.875  15.544  1.00  0.00     0.172 HD
ENDROOT
BRANCH   6  11
HETATM   11  O6  UNL     1     -36.150 -56.966  13.459  1.00  0.00    -0.320 OA
BRANCH  11  12
HETATM   12  C6  UNL     1     -35.188 -56.398  12.610  1.00  0.00     0.271 C 
HETATM   13  N1  UNL     1     -34.021 -57.260  12.663  1.00  0.00    -0.094 NA
HETATM   14  N2  UNL     1     -33.139 -57.007  11.611  1.00  0.00    -0.035 NA
HETATM   15  N3  UNL     1     -33.775 -57.370  10.418  1.00  0.00    -0.095 NA
HETATM   16  C7  UNL     1     -34.747 -56.311  10.138  1.00  0.00     0.261 C 
HETATM   17  C8  UNL     1     -35.796 -56.379  11.217  1.00  0.00     0.210 C 
BRANCH  16  18
HETATM   18  O7  UNL     1     -34.137 -55.071  10.071  1.00  0.00    -0.376 OA
ATOM     19  H7  UNL     1     -33.227 -55.145   9.810  1.00  0.00     0.211 HD
ENDBRANCH  16  18
BRANCH  17  20
HETATM   20  O8  UNL     1     -36.680 -55.334  11.088  1.00  0.00    -0.388 OA
ATOM     21  H8  UNL     1     -37.440 -55.599  10.585  1.00  0.00     0.210 HD
ENDBRANCH  17  20
ENDBRANCH  11  12
ENDBRANCH   6  11
BRANCH   4  22
HETATM   22  O2  UNL     1     -34.872 -56.871  17.846  1.00  0.00    -0.214 OA
BRANCH  22  23
HETATM   23  S1  UNL     1     -34.589 -58.454  18.382  1.00  0.00     0.256 S 
HETATM   24  O3  UNL     1     -33.269 -58.480  19.073  1.00  0.00    -0.572 OA
HETATM   25  O4  UNL     1     -34.607 -59.447  17.251  1.00  0.00    -0.572 OA
HETATM   26  O5  UNL     1     -35.810 -58.872  19.449  1.00  0.00    -0.572 OA
ENDBRANCH  22  23
ENDBRANCH   4  22
TORSDOF 6
ENDMDL
MODEL 5
REMARK VINA RESULT: -9.499165830      2.282      5.373
REMARK  6 active torsions:
REMARK  status: ('A' for Active; 'I' for Inactive)
REMARK    1  A    between atoms: C3_4  and  O2_5 
REMARK    2  A    between atoms: O2_5  and  S1_6 
REMARK    3  A    between atoms: C5_11  and  O6_12 
REMARK    4  A    between atoms: O6_12  and  C6_13 
REMARK    5  A    between atoms: C7_17  and  O7_18 
REMARK    6  A    between atoms: C8_20  and  O8_21 
ROOT
HETATM    1  O1  UNL     1     -39.879 -54.291  11.948  1.00  0.00    -0.268 OA
HETATM    2  C1  UNL     1     -38.963 -54.782  12.663  1.00  0.00     0.250 C 
HETATM    3  C2  UNL     1     -37.716 -54.754  12.043  1.00  0.00     0.112 C 
HETATM    4  C3  UNL     1     -36.503 -55.214  12.537  1.00  0.00     0.100 C 
HETATM    5  C4  UNL     1     -36.343 -55.887  13.749  1.00  0.00     0.081 C 
HETATM    6  C5  UNL     1     -37.174 -55.869  14.853  1.00  0.00     0.141 C 
HETATM    7  C9  UNL     1     -38.561 -55.771  14.861  1.00  0.00     0.281 C 
HETATM    8  O9  UNL     1     -39.169 -56.217  15.886  1.00  0.00    -0.265 OA
HETATM    9  N4  UNL     1     -39.308 -55.246  13.876  1.00  0.00    -0.288 N 
ATOM     10  H4  UNL     1     -40.305 -55.190  14.085  1.00  0.00     0.172 HD
ENDROOT
BRANCH   6  11
HETATM   11  O6  UNL     1     -36.621 -55.952  16.100  1.00  0.00    -0.320 OA
BRANCH  11  12
HETATM   12  C6  UNL     1     -36.005 -57.066  16.691  1.00  0.00     0.271 C 
HETATM   13  N1  UNL     1     -34.575 -56.818  16.660  1.00  0.00    -0.094 NA
HETATM   14  N2  UNL     1     -33.880 -57.671  17.520  1.00  0.00    -0.035 NA
HETATM   15  N3  UNL     1     -34.252 -57.356  18.832  1.00  0.00    -0.095 NA
HETATM   16  C7  UNL     1     -35.593 -57.912  19.020  1.00  0.00     0.261 C 
HETATM   17  C8  UNL     1     -36.520 -57.140  18.118  1.00  0.00     0.210 C 
BRANCH  16  18
HETATM   18  O7  UNL     1     -35.616 -59.272  18.763  1.00  0.00    -0.376 OA
ATOM     19  H7  UNL     1     -35.027 -59.744  19.340  1.00  0.00     0.211 HD
ENDBRANCH  16  18
BRANCH  17  20
HETATM   20  O8  UNL     1     -37.781 -57.688  18.150  1.00  0.00    -0.388 OA
ATOM     21  H8  UNL     1     -37.753 -58.572  18.497  1.00  0.00     0.210 HD
ENDBRANCH  17  20
ENDBRANCH  11  12
ENDBRANCH   6  11
BRANCH   4  22
HETATM   22  O2  UNL     1     -35.356 -55.013  11.810  1.00  0.00    -0.214 OA
BRANCH  22  23
HETATM   23  S1  UNL     1     -34.639 -56.265  10.919  1.00  0.00     0.256 S 
HETATM   24  O3  UNL     1     -35.709 -57.226  10.529  1.00  0.00    -0.572 OA
HETATM   25  O4  UNL     1     -33.561 -56.968  11.696  1.00  0.00    -0.572 OA
HETATM   26  O5  UNL     1     -33.934 -55.597   9.554  1.00  0.00    -0.572 OA
ENDBRANCH  22  23
ENDBRANCH   4  22
TORSDOF 6
ENDMDL
