MODEL 1
REMARK VINA RESULT: -9.248102519      0.000      0.000
REMARK  8 active torsions:
REMARK  status: ('A' for Active; 'I' for Inactive)
REMARK    1  A    between atoms: N1_1  and  C1_4 
REMARK    2  A    between atoms: C2_7  and  C3_8 
REMARK    3  A    between atoms: C5_16  and  C6_17 
REMARK    4  A    between atoms: C6_17  and  O3_18 
REMARK    5  A    between atoms: C6_17  and  C7_20 
REMARK    6  A    between atoms: C7_20  and  O4_21 
REMARK    7  A    between atoms: C7_20  and  C8_23 
REMARK    8  A    between atoms: C9_27  and  O5_28 
ROOT
HETATM    1  C1  UNL     1     -33.926 -57.269  14.713  1.00  0.00     0.146 C 
HETATM    2  N2  UNL     1     -34.017 -58.265  15.646  1.00  0.00    -0.322 N 
ATOM      3  H2  UNL     1     -33.192 -58.853  15.757  1.00  0.00     0.169 HD
HETATM    4  C2  UNL     1     -35.065 -58.560  16.436  1.00  0.00     0.177 C 
HETATM    5  N4  UNL     1     -36.116 -57.748  16.673  1.00  0.00    -0.290 N 
ATOM      6  H4  UNL     1     -36.744 -58.065  17.411  1.00  0.00     0.172 HD
HETATM    7  C4  UNL     1     -36.471 -56.584  16.092  1.00  0.00     0.334 C 
HETATM    8  O2  UNL     1     -37.289 -55.909  16.704  1.00  0.00    -0.246 OA
HETATM    9  N5  UNL     1     -36.054 -56.050  14.927  1.00  0.00    -0.242 N 
HETATM   10  C5  UNL     1     -36.734 -55.125  14.213  1.00  0.00     0.093 A 
HETATM   11  C10 UNL     1     -35.884 -54.908  13.101  1.00  0.00     0.122 A 
HETATM   12  N7  UNL     1     -34.796 -55.653  13.170  1.00  0.00    -0.346 N 
ATOM     13  H7  UNL     1     -34.034 -55.678  12.493  1.00  0.00     0.167 HD
HETATM   14  C11 UNL     1     -34.883 -56.369  14.299  1.00  0.00     0.161 A 
ENDROOT
BRANCH  10  15
HETATM   15  C6  UNL     1     -38.022 -54.545  14.485  1.00  0.00     0.105 C 
BRANCH  15  16
HETATM   16  O3  UNL     1     -38.032 -53.143  14.674  1.00  0.00    -0.360 OA
ATOM     17  H3  UNL     1     -38.658 -52.820  15.312  1.00  0.00     0.217 HD
ENDBRANCH  15  16
BRANCH  15  18
HETATM   18  C7  UNL     1     -39.278 -55.067  13.937  1.00  0.00     0.233 C 
BRANCH  18  19
HETATM   19  O4  UNL     1     -39.885 -55.986  14.882  1.00  0.00    -0.384 OA
ATOM     20  H4  UNL     1     -40.234 -55.505  15.622  1.00  0.00     0.210 HD
ENDBRANCH  18  19
BRANCH  18  21
HETATM   21  C8  UNL     1     -39.298 -55.830  12.670  1.00  0.00     0.365 C 
HETATM   22  N6  UNL     1     -40.645 -56.096  12.187  1.00  0.00     0.004 N 
HETATM   23  C9  UNL     1     -39.942 -56.164  10.898  1.00  0.00     0.472 C 
ATOM     24  H62 UNL     1     -41.239 -56.842  12.547  1.00  0.00     0.286 HD
ATOM     25  H61 UNL     1     -41.441 -55.485  12.366  1.00  0.00     0.286 HD
HETATM   26  O6  UNL     1     -39.047 -55.198  11.464  1.00  0.00    -0.302 OA
BRANCH  23  27
HETATM   27  O5  UNL     1     -39.357 -57.375  10.640  1.00  0.00    -0.349 OA
ATOM     28  H5  UNL     1     -39.745 -57.848   9.913  1.00  0.00     0.214 HD
ENDBRANCH  23  27
ENDBRANCH  18  21
ENDBRANCH  15  18
ENDBRANCH  10  15
BRANCH   1  29
HETATM   29  N1  UNL     1     -32.780 -57.135  14.118  1.00  0.00    -0.382 N 
ATOM     30  H12 UNL     1     -31.977 -57.368  14.703  1.00  0.00     0.157 HD
ATOM     31  H11 UNL     1     -32.804 -56.819  13.149  1.00  0.00     0.157 HD
ENDBRANCH   1  29
BRANCH   4  32
HETATM   32  C3  UNL     1     -35.056 -59.874  17.086  1.00  0.00     0.299 C 
HETATM   33  N3  UNL     1     -34.664 -61.022  16.362  1.00  0.00    -0.054 NA
HETATM   34  O1  UNL     1     -35.390 -60.020  18.288  1.00  0.00    -0.268 OA
ENDBRANCH   4  32
TORSDOF 8
ENDMDL
MODEL 2
REMARK VINA RESULT: -8.993400448      2.540      6.374
REMARK  8 active torsions:
REMARK  status: ('A' for Active; 'I' for Inactive)
REMARK    1  A    between atoms: N1_1  and  C1_4 
REMARK    2  A    between atoms: C2_7  and  C3_8 
REMARK    3  A    between atoms: C5_16  and  C6_17 
REMARK    4  A    between atoms: C6_17  and  O3_18 
REMARK    5  A    between atoms: C6_17  and  C7_20 
REMARK    6  A    between atoms: C7_20  and  O4_21 
REMARK    7  A    between atoms: C7_20  and  C8_23 
REMARK    8  A    between atoms: C9_27  and  O5_28 
ROOT
HETATM    1  C1  UNL     1     -38.003 -55.184  14.252  1.00  0.00     0.146 C 
HETATM    2  N2  UNL     1     -38.339 -55.672  13.020  1.00  0.00    -0.322 N 
ATOM      3  H2  UNL     1     -39.026 -55.131  12.495  1.00  0.00     0.169 HD
HETATM    4  C2  UNL     1     -37.872 -56.780  12.417  1.00  0.00     0.177 C 
HETATM    5  N4  UNL     1     -36.763 -57.456  12.782  1.00  0.00    -0.290 N 
ATOM      6  H4  UNL     1     -36.470 -58.181  12.127  1.00  0.00     0.172 HD
HETATM    7  C4  UNL     1     -35.979 -57.330  13.872  1.00  0.00     0.334 C 
HETATM    8  O2  UNL     1     -34.876 -57.855  13.799  1.00  0.00    -0.246 OA
HETATM    9  N5  UNL     1     -36.235 -56.705  15.038  1.00  0.00    -0.242 N 
HETATM   10  C5  UNL     1     -35.608 -56.965  16.207  1.00  0.00     0.093 A 
HETATM   11  C10 UNL     1     -36.233 -56.060  17.100  1.00  0.00     0.122 A 
HETATM   12  N7  UNL     1     -37.151 -55.333  16.488  1.00  0.00    -0.346 N 
ATOM     13  H7  UNL     1     -37.737 -54.614  16.913  1.00  0.00     0.167 HD
HETATM   14  C11 UNL     1     -37.166 -55.719  15.206  1.00  0.00     0.161 A 
ENDROOT
BRANCH  10  15
HETATM   15  C6  UNL     1     -34.599 -57.950  16.489  1.00  0.00     0.105 C 
BRANCH  15  16
HETATM   16  O3  UNL     1     -33.261 -57.507  16.360  1.00  0.00    -0.360 OA
ATOM     17  H3  UNL     1     -32.894 -57.081  17.126  1.00  0.00     0.217 HD
ENDBRANCH  15  16
BRANCH  15  18
HETATM   18  C7  UNL     1     -34.763 -59.019  17.479  1.00  0.00     0.233 C 
BRANCH  18  19
HETATM   19  O4  UNL     1     -33.764 -58.886  18.522  1.00  0.00    -0.384 OA
ATOM     20  H4  UNL     1     -33.217 -59.661  18.546  1.00  0.00     0.210 HD
ENDBRANCH  18  19
BRANCH  18  21
HETATM   21  C8  UNL     1     -34.650 -60.442  17.089  1.00  0.00     0.365 C 
HETATM   22  N6  UNL     1     -35.866 -61.201  17.342  1.00  0.00     0.004 N 
HETATM   23  C9  UNL     1     -35.317 -62.036  16.265  1.00  0.00     0.472 C 
ATOM     24  H62 UNL     1     -36.128 -61.560  18.260  1.00  0.00     0.286 HD
ATOM     25  H61 UNL     1     -36.801 -60.794  17.323  1.00  0.00     0.286 HD
HETATM   26  O6  UNL     1     -34.755 -60.818  15.761  1.00  0.00    -0.302 OA
BRANCH  23  27
HETATM   27  O5  UNL     1     -34.382 -62.947  16.681  1.00  0.00    -0.349 OA
ATOM     28  H5  UNL     1     -33.655 -62.567  17.160  1.00  0.00     0.214 HD
ENDBRANCH  23  27
ENDBRANCH  18  21
ENDBRANCH  15  18
ENDBRANCH  10  15
BRANCH   1  29
HETATM   29  N1  UNL     1     -38.540 -54.052  14.594  1.00  0.00    -0.382 N 
ATOM     30  H12 UNL     1     -37.885 -53.270  14.615  1.00  0.00     0.157 HD
ATOM     31  H11 UNL     1     -39.538 -54.065  14.798  1.00  0.00     0.157 HD
ENDBRANCH   1  29
BRANCH   4  32
HETATM   32  C3  UNL     1     -38.636 -57.285  11.273  1.00  0.00     0.299 C 
HETATM   33  N3  UNL     1     -39.825 -56.636  10.871  1.00  0.00    -0.054 NA
HETATM   34  O1  UNL     1     -38.266 -58.294  10.623  1.00  0.00    -0.268 OA
ENDBRANCH   4  32
TORSDOF 8
ENDMDL
MODEL 3
REMARK VINA RESULT: -8.954848504      2.935      4.027
REMARK  8 active torsions:
REMARK  status: ('A' for Active; 'I' for Inactive)
REMARK    1  A    between atoms: N1_1  and  C1_4 
REMARK    2  A    between atoms: C2_7  and  C3_8 
REMARK    3  A    between atoms: C5_16  and  C6_17 
REMARK    4  A    between atoms: C6_17  and  O3_18 
REMARK    5  A    between atoms: C6_17  and  C7_20 
REMARK    6  A    between atoms: C7_20  and  O4_21 
REMARK    7  A    between atoms: C7_20  and  C8_23 
REMARK    8  A    between atoms: C9_27  and  O5_28 
ROOT
HETATM    1  C1  UNL     1     -34.582 -57.375  17.636  1.00  0.00     0.146 C 
HETATM    2  N2  UNL     1     -35.678 -57.275  18.449  1.00  0.00    -0.322 N 
ATOM      3  H2  UNL     1     -35.548 -57.569  19.416  1.00  0.00     0.169 HD
HETATM    4  C2  UNL     1     -36.907 -56.835  18.125  1.00  0.00     0.177 C 
HETATM    5  N4  UNL     1     -37.214 -56.127  17.018  1.00  0.00    -0.290 N 
ATOM      6  H4  UNL     1     -38.160 -55.745  17.004  1.00  0.00     0.172 HD
HETATM    7  C4  UNL     1     -36.474 -55.842  15.928  1.00  0.00     0.334 C 
HETATM    8  O2  UNL     1     -36.891 -54.931  15.223  1.00  0.00    -0.246 OA
HETATM    9  N5  UNL     1     -35.333 -56.416  15.497  1.00  0.00    -0.242 N 
HETATM   10  C5  UNL     1     -34.884 -56.380  14.223  1.00  0.00     0.093 A 
HETATM   11  C10 UNL     1     -33.677 -57.118  14.301  1.00  0.00     0.122 A 
HETATM   12  N7  UNL     1     -33.450 -57.546  15.529  1.00  0.00    -0.346 N 
ATOM     13  H7  UNL     1     -32.650 -58.098  15.842  1.00  0.00     0.167 HD
HETATM   14  C11 UNL     1     -34.469 -57.119  16.287  1.00  0.00     0.161 A 
ENDROOT
BRANCH  10  15
HETATM   15  C6  UNL     1     -35.500 -55.788  13.066  1.00  0.00     0.105 C 
BRANCH  15  16
HETATM   16  O3  UNL     1     -35.038 -54.496  12.722  1.00  0.00    -0.360 OA
ATOM     17  H3  UNL     1     -34.550 -54.042  13.399  1.00  0.00     0.217 HD
ENDBRANCH  15  16
BRANCH  15  18
HETATM   18  C7  UNL     1     -35.971 -56.563  11.913  1.00  0.00     0.233 C 
BRANCH  18  19
HETATM   19  O4  UNL     1     -36.429 -57.868  12.348  1.00  0.00    -0.384 OA
ATOM     20  H4  UNL     1     -35.703 -58.480  12.357  1.00  0.00     0.210 HD
ENDBRANCH  18  19
BRANCH  18  21
HETATM   21  C8  UNL     1     -35.063 -56.886  10.789  1.00  0.00     0.365 C 
HETATM   22  N6  UNL     1     -35.491 -56.303   9.527  1.00  0.00     0.004 N 
HETATM   23  C9  UNL     1     -34.056 -56.417   9.231  1.00  0.00     0.472 C 
ATOM     24  H62 UNL     1     -36.223 -56.700   8.938  1.00  0.00     0.286 HD
ATOM     25  H61 UNL     1     -36.016 -55.432   9.454  1.00  0.00     0.286 HD
HETATM   26  O6  UNL     1     -33.865 -56.209  10.636  1.00  0.00    -0.302 OA
BRANCH  23  27
HETATM   27  O5  UNL     1     -33.668 -57.657   8.797  1.00  0.00    -0.349 OA
ATOM     28  H5  UNL     1     -32.735 -57.741   8.642  1.00  0.00     0.214 HD
ENDBRANCH  23  27
ENDBRANCH  18  21
ENDBRANCH  15  18
ENDBRANCH  10  15
BRANCH   1  29
HETATM   29  N1  UNL     1     -33.479 -57.767  18.196  1.00  0.00    -0.382 N 
ATOM     30  H12 UNL     1     -33.475 -57.683  19.213  1.00  0.00     0.157 HD
ATOM     31  H11 UNL     1     -32.749 -58.111  17.573  1.00  0.00     0.157 HD
ENDBRANCH   1  29
BRANCH   4  32
HETATM   32  C3  UNL     1     -37.993 -57.156  19.055  1.00  0.00     0.299 C 
HETATM   33  N3  UNL     1     -37.716 -57.837  20.261  1.00  0.00    -0.054 NA
HETATM   34  O1  UNL     1     -39.185 -56.843  18.814  1.00  0.00    -0.268 OA
ENDBRANCH   4  32
TORSDOF 8
ENDMDL
MODEL 4
REMARK VINA RESULT: -8.939427019      2.008      3.143
REMARK  8 active torsions:
REMARK  status: ('A' for Active; 'I' for Inactive)
REMARK    1  A    between atoms: N1_1  and  C1_4 
REMARK    2  A    between atoms: C2_7  and  C3_8 
REMARK    3  A    between atoms: C5_16  and  C6_17 
REMARK    4  A    between atoms: C6_17  and  O3_18 
REMARK    5  A    between atoms: C6_17  and  C7_20 
REMARK    6  A    between atoms: C7_20  and  O4_21 
REMARK    7  A    between atoms: C7_20  and  C8_23 
REMARK    8  A    between atoms: C9_27  and  O5_28 
ROOT
HETATM    1  C1  UNL     1     -34.563 -57.239  16.618  1.00  0.00     0.146 C 
HETATM    2  N2  UNL     1     -35.601 -57.153  17.504  1.00  0.00    -0.322 N 
ATOM      3  H2  UNL     1     -35.421 -57.508  18.443  1.00  0.00     0.169 HD
HETATM    4  C2  UNL     1     -36.831 -56.656  17.285  1.00  0.00     0.177 C 
HETATM    5  N4  UNL     1     -37.182 -55.873  16.244  1.00  0.00    -0.290 N 
ATOM      6  H4  UNL     1     -38.113 -55.462  16.312  1.00  0.00     0.172 HD
HETATM    7  C4  UNL     1     -36.502 -55.547  15.126  1.00  0.00     0.334 C 
HETATM    8  O2  UNL     1     -36.929 -54.584  14.503  1.00  0.00    -0.246 OA
HETATM    9  N5  UNL     1     -35.411 -56.131  14.590  1.00  0.00    -0.242 N 
HETATM   10  C5  UNL     1     -35.042 -56.033  13.294  1.00  0.00     0.093 A 
HETATM   11  C10 UNL     1     -33.859 -56.812  13.251  1.00  0.00     0.122 A 
HETATM   12  N7  UNL     1     -33.571 -57.320  14.436  1.00  0.00    -0.346 N 
ATOM     13  H7  UNL     1     -32.773 -57.914  14.664  1.00  0.00     0.167 HD
HETATM   14  C11 UNL     1     -34.525 -56.906  15.281  1.00  0.00     0.161 A 
ENDROOT
BRANCH  10  15
HETATM   15  C6  UNL     1     -35.707 -55.354  12.215  1.00  0.00     0.105 C 
BRANCH  15  16
HETATM   16  O3  UNL     1     -34.956 -54.340  11.576  1.00  0.00    -0.360 OA
ATOM     17  H3  UNL     1     -35.264 -54.081  10.715  1.00  0.00     0.217 HD
ENDBRANCH  15  16
BRANCH  15  18
HETATM   18  C7  UNL     1     -36.683 -55.999  11.331  1.00  0.00     0.233 C 
BRANCH  18  19
HETATM   19  O4  UNL     1     -36.253 -55.881   9.950  1.00  0.00    -0.384 OA
ATOM     20  H4  UNL     1     -36.877 -56.313   9.379  1.00  0.00     0.210 HD
ENDBRANCH  18  19
BRANCH  18  21
HETATM   21  C8  UNL     1     -38.089 -55.539  11.282  1.00  0.00     0.365 C 
HETATM   22  N6  UNL     1     -38.840 -55.876  12.482  1.00  0.00     0.004 N 
HETATM   23  C9  UNL     1     -39.634 -54.715  12.056  1.00  0.00     0.472 C 
ATOM     24  H62 UNL     1     -39.236 -56.798  12.661  1.00  0.00     0.286 HD
ATOM     25  H61 UNL     1     -38.419 -55.965  13.407  1.00  0.00     0.286 HD
HETATM   26  O6  UNL     1     -38.403 -54.212  11.521  1.00  0.00    -0.302 OA
BRANCH  23  27
HETATM   27  O5  UNL     1     -40.576 -54.999  11.102  1.00  0.00    -0.349 OA
ATOM     28  H5  UNL     1     -41.216 -54.310  10.970  1.00  0.00     0.214 HD
ENDBRANCH  23  27
ENDBRANCH  18  21
ENDBRANCH  15  18
ENDBRANCH  10  15
BRANCH   1  29
HETATM   29  N1  UNL     1     -33.441 -57.698  17.082  1.00  0.00    -0.382 N 
ATOM     30  H12 UNL     1     -33.154 -58.588  16.674  1.00  0.00     0.157 HD
ATOM     31  H11 UNL     1     -32.975 -57.131  17.790  1.00  0.00     0.157 HD
ENDBRANCH   1  29
BRANCH   4  32
HETATM   32  C3  UNL     1     -37.868 -56.997  18.264  1.00  0.00     0.299 C 
HETATM   33  N3  UNL     1     -39.197 -56.557  18.072  1.00  0.00    -0.054 NA
HETATM   34  O1  UNL     1     -37.614 -57.679  19.287  1.00  0.00    -0.268 OA
ENDBRANCH   4  32
TORSDOF 8
ENDMDL
MODEL 5
REMARK VINA RESULT: -8.912114076      3.465      6.621
REMARK  8 active torsions:
REMARK  status: ('A' for Active; 'I' for Inactive)
REMARK    1  A    between atoms: N1_1  and  C1_4 
REMARK    2  A    between atoms: C2_7  and  C3_8 
REMARK    3  A    between atoms: C5_16  and  C6_17 
REMARK    4  A    between atoms: C6_17  and  O3_18 
REMARK    5  A    between atoms: C6_17  and  C7_20 
REMARK    6  A    between atoms: C7_20  and  O4_21 
REMARK    7  A    between atoms: C7_20  and  C8_23 
REMARK    8  A    between atoms: C9_27  and  O5_28 
ROOT
HETATM    1  C1  UNL     1     -35.827 -54.417  11.727  1.00  0.00     0.146 C 
HETATM    2  N2  UNL     1     -35.087 -54.828  10.653  1.00  0.00    -0.322 N 
ATOM      3  H2  UNL     1     -35.145 -54.245   9.818  1.00  0.00     0.169 HD
HETATM    4  C2  UNL     1     -34.291 -55.908  10.566  1.00  0.00     0.177 C 
HETATM    5  N4  UNL     1     -33.834 -56.625  11.614  1.00  0.00    -0.290 N 
ATOM      6  H4  UNL     1     -33.122 -57.318  11.380  1.00  0.00     0.172 HD
HETATM    7  C4  UNL     1     -34.165 -56.576  12.920  1.00  0.00     0.334 C 
HETATM    8  O2  UNL     1     -33.382 -57.117  13.690  1.00  0.00    -0.246 OA
HETATM    9  N5  UNL     1     -35.240 -56.014  13.506  1.00  0.00    -0.242 N 
HETATM   10  C5  UNL     1     -35.722 -56.351  14.723  1.00  0.00     0.093 A 
HETATM   11  C10 UNL     1     -36.834 -55.486  14.866  1.00  0.00     0.122 A 
HETATM   12  N7  UNL     1     -36.981 -54.708  13.808  1.00  0.00    -0.346 N 
ATOM     13  H7  UNL     1     -37.706 -54.003  13.670  1.00  0.00     0.167 HD
HETATM   14  C11 UNL     1     -35.999 -55.021  12.953  1.00  0.00     0.161 A 
ENDROOT
BRANCH  10  15
HETATM   15  C6  UNL     1     -35.256 -57.369  15.626  1.00  0.00     0.105 C 
BRANCH  15  16
HETATM   16  O3  UNL     1     -35.116 -58.662  15.069  1.00  0.00    -0.360 OA
ATOM     17  H3  UNL     1     -34.459 -58.747  14.389  1.00  0.00     0.217 HD
ENDBRANCH  15  16
BRANCH  15  18
HETATM   18  C7  UNL     1     -34.328 -57.109  16.732  1.00  0.00     0.233 C 
BRANCH  18  19
HETATM   19  O4  UNL     1     -33.027 -57.676  16.429  1.00  0.00    -0.384 OA
ATOM     20  H4  UNL     1     -32.725 -58.200  17.161  1.00  0.00     0.210 HD
ENDBRANCH  18  19
BRANCH  18  21
HETATM   21  C8  UNL     1     -34.604 -57.617  18.094  1.00  0.00     0.365 C 
HETATM   22  N6  UNL     1     -35.444 -56.722  18.876  1.00  0.00     0.004 N 
HETATM   23  C9  UNL     1     -35.770 -57.975  19.569  1.00  0.00     0.472 C 
ATOM     24  H62 UNL     1     -35.096 -55.888  19.349  1.00  0.00     0.286 HD
ATOM     25  H61 UNL     1     -36.143 -56.101  18.469  1.00  0.00     0.286 HD
HETATM   26  O6  UNL     1     -35.555 -58.602  18.298  1.00  0.00    -0.302 OA
BRANCH  23  27
HETATM   27  O5  UNL     1     -34.862 -58.341  20.527  1.00  0.00    -0.349 OA
ATOM     28  H5  UNL     1     -34.942 -57.861  21.343  1.00  0.00     0.214 HD
ENDBRANCH  23  27
ENDBRANCH  18  21
ENDBRANCH  15  18
ENDBRANCH  10  15
BRANCH   1  29
HETATM   29  N1  UNL     1     -36.469 -53.296  11.594  1.00  0.00    -0.382 N 
ATOM     30  H12 UNL     1     -37.421 -53.315  11.959  1.00  0.00     0.157 HD
ATOM     31  H11 UNL     1     -35.962 -52.531  11.149  1.00  0.00     0.157 HD
ENDBRANCH   1  29
BRANCH   4  32
HETATM   32  C3  UNL     1     -33.893 -56.333   9.221  1.00  0.00     0.299 C 
HETATM   33  N3  UNL     1     -33.640 -57.697   8.954  1.00  0.00    -0.054 NA
HETATM   34  O1  UNL     1     -33.766 -55.514   8.279  1.00  0.00    -0.268 OA
ENDBRANCH   4  32
TORSDOF 8
ENDMDL
