MODEL 1
REMARK VINA RESULT: -9.209809707      0.000      0.000
REMARK  8 active torsions:
REMARK  status: ('A' for Active; 'I' for Inactive)
REMARK    1  A    between atoms: C2_2  and  N1_3 
REMARK    2  A    between atoms: C3_10  and  O1_11 
REMARK    3  A    between atoms: O1_11  and  N3_12 
REMARK    4  A    between atoms: N3_12  and  N4_13 
REMARK    5  A    between atoms: N4_13  and  N5_15 
REMARK    6  A    between atoms: C5_20  and  N7_21 
REMARK    7  A    between atoms: C9_33  and  N11_34 
REMARK    8  A    between atoms: C10_38  and  O3_39 
ROOT
HETATM    1  N5  UNL     1     -34.221 -57.072  12.137  1.00  0.00    -0.260 N 
ATOM      2  H5  UNL     1     -33.960 -57.862  11.547  1.00  0.00     0.191 HD
HETATM    3  C4  UNL     1     -35.389 -56.560  11.959  1.00  0.00     0.130 C 
HETATM    4  N6  UNL     1     -36.330 -57.016  11.006  1.00  0.00    -0.333 N 
ATOM      5  H6  UNL     1     -36.051 -57.760  10.367  1.00  0.00     0.164 HD
HETATM    6  C5  UNL     1     -37.679 -56.477  10.893  1.00  0.00     0.393 C 
HETATM    7  N8  UNL     1     -38.026 -55.698  12.070  1.00  0.00    -0.295 N 
HETATM    8  C6  UNL     1     -39.128 -54.838  12.288  1.00  0.00     0.196 C 
HETATM    9  N9  UNL     1     -40.268 -54.611  11.448  1.00  0.00    -0.063 NA
HETATM   10  N10 UNL     1     -38.988 -54.229  13.414  1.00  0.00    -0.299 N 
ATOM     11  H10 UNL     1     -39.655 -53.555  13.792  1.00  0.00     0.171 HD
HETATM   12  C7  UNL     1     -37.783 -54.618  14.060  1.00  0.00     0.249 C 
HETATM   13  O2  UNL     1     -37.266 -54.148  15.110  1.00  0.00    -0.271 OA
HETATM   14  C8  UNL     1     -37.215 -55.708  13.270  1.00  0.00     0.221 C 
HETATM   15  C9  UNL     1     -35.782 -55.411  12.810  1.00  0.00     0.283 C 
ENDROOT
BRANCH   1  16
HETATM   16  N4  UNL     1     -33.299 -56.640  13.056  1.00  0.00    -0.147 N 
ATOM     17  H4  UNL     1     -32.624 -55.959  12.708  1.00  0.00     0.226 HD
BRANCH  16  18
HETATM   18  N3  UNL     1     -33.178 -56.930  14.148  1.00  0.00    -0.169 NA
BRANCH  18  19
HETATM   19  O1  UNL     1     -33.048 -57.247  15.342  1.00  0.00    -0.152 OA
BRANCH  19  20
HETATM   20  C3  UNL     1     -34.067 -57.301  16.323  1.00  0.00     0.403 C 
HETATM   21  N2  UNL     1     -33.888 -58.404  17.249  1.00  0.00    -0.006 N 
HETATM   22  C2  UNL     1     -35.300 -58.625  17.210  1.00  0.00     0.313 C 
ATOM     23  H22 UNL     1     -33.409 -58.261  18.139  1.00  0.00     0.283 HD
ATOM     24  H21 UNL     1     -33.239 -59.160  17.033  1.00  0.00     0.283 HD
HETATM   25  C1  UNL     1     -36.022 -57.824  18.263  1.00  0.00     0.082 C 
HETATM   26  C10 UNL     1     -35.342 -57.959  15.851  1.00  0.00     0.242 C 
BRANCH  22  27
HETATM   27  N1  UNL     1     -35.645 -60.039  17.189  1.00  0.00    -0.042 N 
ATOM     28  H13 UNL     1     -35.522 -60.449  18.116  1.00  0.00     0.277 HD
ATOM     29  H12 UNL     1     -36.652 -60.157  17.078  1.00  0.00     0.277 HD
ATOM     30  H11 UNL     1     -35.143 -60.584  16.489  1.00  0.00     0.277 HD
ENDBRANCH  22  27
BRANCH  26  31
HETATM   31  O3  UNL     1     -35.151 -58.806  14.779  1.00  0.00    -0.387 OA
ATOM     32  H3  UNL     1     -35.935 -59.240  14.465  1.00  0.00     0.210 HD
ENDBRANCH  26  31
ENDBRANCH  19  20
ENDBRANCH  18  19
ENDBRANCH  16  18
ENDBRANCH   1  16
BRANCH  15  33
HETATM   33  N11 UNL     1     -35.765 -54.175  12.038  1.00  0.00    -0.066 N 
ATOM     34 3H11 UNL     1     -34.923 -54.096  11.468  1.00  0.00     0.275 HD
ATOM     35 2H11 UNL     1     -36.456 -54.186  11.289  1.00  0.00     0.275 HD
ATOM     36 1H11 UNL     1     -35.884 -53.369  12.652  1.00  0.00     0.275 HD
ENDBRANCH  15  33
BRANCH   6  37
HETATM   37  N7  UNL     1     -38.575 -57.618  10.830  1.00  0.00    -0.040 N 
ATOM     38  H73 UNL     1     -38.651 -58.121  11.714  1.00  0.00     0.279 HD
ATOM     39  H72 UNL     1     -39.558 -57.357  10.747  1.00  0.00     0.279 HD
ATOM     40  H71 UNL     1     -38.246 -58.202  10.060  1.00  0.00     0.279 HD
ENDBRANCH   6  37
TORSDOF 8
ENDMDL
MODEL 2
REMARK VINA RESULT: -8.685285790      1.341      1.583
REMARK  8 active torsions:
REMARK  status: ('A' for Active; 'I' for Inactive)
REMARK    1  A    between atoms: C2_2  and  N1_3 
REMARK    2  A    between atoms: C3_10  and  O1_11 
REMARK    3  A    between atoms: O1_11  and  N3_12 
REMARK    4  A    between atoms: N3_12  and  N4_13 
REMARK    5  A    between atoms: N4_13  and  N5_15 
REMARK    6  A    between atoms: C5_20  and  N7_21 
REMARK    7  A    between atoms: C9_33  and  N11_34 
REMARK    8  A    between atoms: C10_38  and  O3_39 
ROOT
HETATM    1  N5  UNL     1     -35.164 -56.333  10.525  1.00  0.00    -0.260 N 
ATOM      2  H5  UNL     1     -35.110 -57.038   9.789  1.00  0.00     0.191 HD
HETATM    3  C4  UNL     1     -36.331 -55.878  10.823  1.00  0.00     0.130 C 
HETATM    4  N6  UNL     1     -37.537 -56.286  10.205  1.00  0.00    -0.333 N 
ATOM      5  H6  UNL     1     -37.483 -56.939   9.423  1.00  0.00     0.164 HD
HETATM    6  C5  UNL     1     -38.851 -55.822  10.629  1.00  0.00     0.393 C 
HETATM    7  N8  UNL     1     -38.781 -55.195  11.940  1.00  0.00    -0.295 N 
HETATM    8  C6  UNL     1     -39.755 -54.433  12.626  1.00  0.00     0.196 C 
HETATM    9  N9  UNL     1     -41.121 -54.189  12.264  1.00  0.00    -0.063 NA
HETATM   10  N10 UNL     1     -39.243 -53.940  13.700  1.00  0.00    -0.299 N 
ATOM     11  H10 UNL     1     -39.749 -53.353  14.363  1.00  0.00     0.171 HD
HETATM   12  C7  UNL     1     -37.881 -54.322  13.839  1.00  0.00     0.249 C 
HETATM   13  O2  UNL     1     -37.039 -53.935  14.696  1.00  0.00    -0.271 OA
HETATM   14  C8  UNL     1     -37.601 -55.284  12.776  1.00  0.00     0.221 C 
HETATM   15  C9  UNL     1     -36.426 -54.852  11.890  1.00  0.00     0.283 C 
ENDROOT
BRANCH   1  16
HETATM   16  N4  UNL     1     -33.989 -55.946  11.115  1.00  0.00    -0.147 N 
ATOM     17  H4  UNL     1     -33.480 -55.207  10.629  1.00  0.00     0.226 HD
BRANCH  16  18
HETATM   18  N3  UNL     1     -33.498 -56.328  12.067  1.00  0.00    -0.169 NA
BRANCH  18  19
HETATM   19  O1  UNL     1     -32.965 -56.744  13.108  1.00  0.00    -0.152 OA
BRANCH  19  20
HETATM   20  C3  UNL     1     -33.508 -56.709  14.415  1.00  0.00     0.403 C 
HETATM   21  N2  UNL     1     -33.117 -57.859  15.208  1.00  0.00    -0.006 N 
HETATM   22  C2  UNL     1     -34.445 -57.904  15.740  1.00  0.00     0.313 C 
ATOM     23  H22 UNL     1     -32.311 -57.808  15.832  1.00  0.00     0.283 HD
ATOM     24  H21 UNL     1     -32.709 -58.680  14.764  1.00  0.00     0.283 HD
HETATM   25  C1  UNL     1     -34.582 -57.060  16.981  1.00  0.00     0.082 C 
HETATM   26  C10 UNL     1     -34.938 -57.189  14.500  1.00  0.00     0.242 C 
BRANCH  22  27
HETATM   27  N1  UNL     1     -34.946 -59.263  15.879  1.00  0.00    -0.042 N 
ATOM     28  H13 UNL     1     -34.206 -59.937  15.680  1.00  0.00     0.277 HD
ATOM     29  H12 UNL     1     -35.120 -59.479  16.861  1.00  0.00     0.277 HD
ATOM     30  H11 UNL     1     -35.773 -59.466  15.318  1.00  0.00     0.277 HD
ENDBRANCH  22  27
BRANCH  26  31
HETATM   31  O3  UNL     1     -35.298 -58.012  13.453  1.00  0.00    -0.387 OA
ATOM     32  H3  UNL     1     -34.694 -58.019  12.720  1.00  0.00     0.210 HD
ENDBRANCH  26  31
ENDBRANCH  19  20
ENDBRANCH  18  19
ENDBRANCH  16  18
ENDBRANCH   1  16
BRANCH  15  33
HETATM   33  N11 UNL     1     -36.704 -53.542  11.316  1.00  0.00    -0.066 N 
ATOM     34 3H11 UNL     1     -37.687 -53.286  11.413  1.00  0.00     0.275 HD
ATOM     35 2H11 UNL     1     -36.296 -52.790  11.871  1.00  0.00     0.275 HD
ATOM     36 1H11 UNL     1     -36.397 -53.505  10.344  1.00  0.00     0.275 HD
ENDBRANCH  15  33
BRANCH   6  37
HETATM   37  N7  UNL     1     -39.689 -57.003  10.740  1.00  0.00    -0.040 N 
ATOM     38  H73 UNL     1     -39.203 -57.867  10.497  1.00  0.00     0.279 HD
ATOM     39  H72 UNL     1     -39.913 -57.250  11.705  1.00  0.00     0.279 HD
ATOM     40  H71 UNL     1     -40.514 -56.828  10.166  1.00  0.00     0.279 HD
ENDBRANCH   6  37
TORSDOF 8
ENDMDL
MODEL 3
REMARK VINA RESULT: -8.543528447      3.145      8.042
REMARK  8 active torsions:
REMARK  status: ('A' for Active; 'I' for Inactive)
REMARK    1  A    between atoms: C2_2  and  N1_3 
REMARK    2  A    between atoms: C3_10  and  O1_11 
REMARK    3  A    between atoms: O1_11  and  N3_12 
REMARK    4  A    between atoms: N3_12  and  N4_13 
REMARK    5  A    between atoms: N4_13  and  N5_15 
REMARK    6  A    between atoms: C5_20  and  N7_21 
REMARK    7  A    between atoms: C9_33  and  N11_34 
REMARK    8  A    between atoms: C10_38  and  O3_39 
ROOT
HETATM    1  N5  UNL     1     -35.334 -56.537  16.876  1.00  0.00    -0.260 N 
ATOM      2  H5  UNL     1     -34.764 -56.592  16.031  1.00  0.00     0.191 HD
HETATM    3  C4  UNL     1     -34.848 -57.047  17.954  1.00  0.00     0.130 C 
HETATM    4  N6  UNL     1     -33.583 -57.676  18.047  1.00  0.00    -0.333 N 
ATOM      5  H6  UNL     1     -33.038 -57.796  17.193  1.00  0.00     0.164 HD
HETATM    6  C5  UNL     1     -33.021 -58.159  19.301  1.00  0.00     0.393 C 
HETATM    7  N8  UNL     1     -33.742 -57.610  20.438  1.00  0.00    -0.295 N 
HETATM    8  C6  UNL     1     -33.674 -57.968  21.805  1.00  0.00     0.196 C 
HETATM    9  N9  UNL     1     -32.775 -58.881  22.449  1.00  0.00    -0.063 NA
HETATM   10  N10 UNL     1     -34.581 -57.335  22.465  1.00  0.00    -0.299 N 
ATOM     11  H10 UNL     1     -34.732 -57.426  23.470  1.00  0.00     0.171 HD
HETATM   12  C7  UNL     1     -35.343 -56.494  21.609  1.00  0.00     0.249 C 
HETATM   13  O2  UNL     1     -36.376 -55.823  21.883  1.00  0.00    -0.271 OA
HETATM   14  C8  UNL     1     -34.702 -56.534  20.297  1.00  0.00     0.221 C 
HETATM   15  C9  UNL     1     -35.666 -56.975  19.189  1.00  0.00     0.283 C 
ENDROOT
BRANCH   1  16
HETATM   16  N4  UNL     1     -36.558 -55.926  16.771  1.00  0.00    -0.147 N 
ATOM     17  H4  UNL     1     -37.178 -56.055  17.571  1.00  0.00     0.226 HD
BRANCH  16  18
HETATM   18  N3  UNL     1     -36.981 -55.297  15.925  1.00  0.00    -0.169 NA
BRANCH  18  19
HETATM   19  O1  UNL     1     -37.440 -54.610  14.998  1.00  0.00    -0.152 OA
BRANCH  19  20
HETATM   20  C3  UNL     1     -37.759 -55.049  13.691  1.00  0.00     0.403 C 
HETATM   21  N2  UNL     1     -38.493 -54.053  12.934  1.00  0.00    -0.006 N 
HETATM   22  C2  UNL     1     -39.310 -55.100  12.404  1.00  0.00     0.313 C 
ATOM     23  H22 UNL     1     -38.002 -53.412  12.309  1.00  0.00     0.283 HD
ATOM     24  H21 UNL     1     -38.916 -53.253  13.405  1.00  0.00     0.283 HD
HETATM   25  C1  UNL     1     -38.732 -55.676  11.137  1.00  0.00     0.082 C 
HETATM   26  C10 UNL     1     -38.978 -55.939  13.620  1.00  0.00     0.242 C 
BRANCH  22  27
HETATM   27  N1  UNL     1     -40.712 -54.723  12.308  1.00  0.00    -0.042 N 
ATOM     28  H13 UNL     1     -41.303 -55.554  12.279  1.00  0.00     0.277 HD
ATOM     29  H12 UNL     1     -41.030 -54.311  13.185  1.00  0.00     0.277 HD
ATOM     30  H11 UNL     1     -40.928 -54.106  11.525  1.00  0.00     0.277 HD
ENDBRANCH  22  27
BRANCH  26  31
HETATM   31  O3  UNL     1     -39.831 -55.777  14.693  1.00  0.00    -0.387 OA
ATOM     32  H3  UNL     1     -39.467 -56.015  15.536  1.00  0.00     0.210 HD
ENDBRANCH  26  31
ENDBRANCH  19  20
ENDBRANCH  18  19
ENDBRANCH  16  18
ENDBRANCH   1  16
BRANCH  15  33
HETATM   33  N11 UNL     1     -36.217 -58.283  19.514  1.00  0.00    -0.066 N 
ATOM     34 3H11 UNL     1     -36.782 -58.657  18.751  1.00  0.00     0.275 HD
ATOM     35 2H11 UNL     1     -35.496 -59.004  19.536  1.00  0.00     0.275 HD
ATOM     36 1H11 UNL     1     -36.740 -58.243  20.388  1.00  0.00     0.275 HD
ENDBRANCH  15  33
BRANCH   6  37
HETATM   37  N7  UNL     1     -31.655 -57.668  19.356  1.00  0.00    -0.040 N 
ATOM     38  H73 UNL     1     -31.534 -56.883  19.995  1.00  0.00     0.279 HD
ATOM     39  H72 UNL     1     -31.013 -58.311  19.821  1.00  0.00     0.279 HD
ATOM     40  H71 UNL     1     -31.386 -57.454  18.395  1.00  0.00     0.279 HD
ENDBRANCH   6  37
TORSDOF 8
ENDMDL
MODEL 4
REMARK VINA RESULT: -8.541876996      1.497      1.569
REMARK  8 active torsions:
REMARK  status: ('A' for Active; 'I' for Inactive)
REMARK    1  A    between atoms: C2_2  and  N1_3 
REMARK    2  A    between atoms: C3_10  and  O1_11 
REMARK    3  A    between atoms: O1_11  and  N3_12 
REMARK    4  A    between atoms: N3_12  and  N4_13 
REMARK    5  A    between atoms: N4_13  and  N5_15 
REMARK    6  A    between atoms: C5_20  and  N7_21 
REMARK    7  A    between atoms: C9_33  and  N11_34 
REMARK    8  A    between atoms: C10_38  and  O3_39 
ROOT
HETATM    1  N5  UNL     1     -34.308 -57.002  12.802  1.00  0.00    -0.260 N 
ATOM      2  H5  UNL     1     -33.752 -57.468  12.084  1.00  0.00     0.191 HD
HETATM    3  C4  UNL     1     -35.550 -56.786  12.541  1.00  0.00     0.130 C 
HETATM    4  N6  UNL     1     -36.194 -57.149  11.334  1.00  0.00    -0.333 N 
ATOM      5  H6  UNL     1     -35.629 -57.552  10.587  1.00  0.00     0.164 HD
HETATM    6  C5  UNL     1     -37.622 -56.976  11.106  1.00  0.00     0.393 C 
HETATM    7  N8  UNL     1     -38.321 -56.727  12.357  1.00  0.00    -0.295 N 
HETATM    8  C6  UNL     1     -39.652 -56.301  12.576  1.00  0.00     0.196 C 
HETATM    9  N9  UNL     1     -40.707 -56.129  11.620  1.00  0.00    -0.063 NA
HETATM   10  N10 UNL     1     -39.831 -56.063  13.828  1.00  0.00    -0.299 N 
ATOM     11  H10 UNL     1     -40.711 -55.743  14.235  1.00  0.00     0.171 HD
HETATM   12  C7  UNL     1     -38.643 -56.305  14.571  1.00  0.00     0.249 C 
HETATM   13  O2  UNL     1     -38.416 -56.071  15.789  1.00  0.00    -0.271 OA
HETATM   14  C8  UNL     1     -37.682 -56.901  13.645  1.00  0.00     0.221 C 
HETATM   15  C9  UNL     1     -36.371 -56.109  13.574  1.00  0.00     0.283 C 
ENDROOT
BRANCH   1  16
HETATM   16  N4  UNL     1     -33.672 -56.655  13.966  1.00  0.00    -0.147 N 
ATOM     17  H4  UNL     1     -33.202 -55.750  13.952  1.00  0.00     0.226 HD
BRANCH  16  18
HETATM   18  N3  UNL     1     -33.592 -57.229  14.944  1.00  0.00    -0.169 NA
BRANCH  18  19
HETATM   19  O1  UNL     1     -33.507 -57.858  16.011  1.00  0.00    -0.152 OA
BRANCH  19  20
HETATM   20  C3  UNL     1     -33.768 -57.366  17.312  1.00  0.00     0.403 C 
HETATM   21  N2  UNL     1     -33.906 -58.428  18.290  1.00  0.00    -0.006 N 
HETATM   22  C2  UNL     1     -34.984 -57.699  18.885  1.00  0.00     0.313 C 
ATOM     23  H22 UNL     1     -33.107 -58.722  18.853  1.00  0.00     0.283 HD
ATOM     24  H21 UNL     1     -34.036 -59.394  17.991  1.00  0.00     0.283 HD
HETATM   25  C1  UNL     1     -34.499 -56.747  19.947  1.00  0.00     0.082 C 
HETATM   26  C10 UNL     1     -35.215 -57.010  17.557  1.00  0.00     0.242 C 
BRANCH  22  27
HETATM   27  N1  UNL     1     -36.078 -58.561  19.304  1.00  0.00    -0.042 N 
ATOM     28  H13 UNL     1     -36.718 -58.728  18.527  1.00  0.00     0.277 HD
ATOM     29  H12 UNL     1     -35.742 -59.511  19.462  1.00  0.00     0.277 HD
ATOM     30  H11 UNL     1     -36.590 -58.224  20.120  1.00  0.00     0.277 HD
ENDBRANCH  22  27
BRANCH  26  31
HETATM   31  O3  UNL     1     -36.086 -57.658  16.705  1.00  0.00    -0.387 OA
ATOM     32  H3  UNL     1     -36.499 -58.433  17.065  1.00  0.00     0.210 HD
ENDBRANCH  26  31
ENDBRANCH  19  20
ENDBRANCH  18  19
ENDBRANCH  16  18
ENDBRANCH   1  16
BRANCH  15  33
HETATM   33  N11 UNL     1     -36.653 -54.734  13.182  1.00  0.00    -0.066 N 
ATOM     34 3H11 UNL     1     -35.810 -54.246  12.878  1.00  0.00     0.275 HD
ATOM     35 2H11 UNL     1     -37.179 -54.688  12.310  1.00  0.00     0.275 HD
ATOM     36 1H11 UNL     1     -37.127 -54.238  13.937  1.00  0.00     0.275 HD
ENDBRANCH  15  33
BRANCH   6  37
HETATM   37  N7  UNL     1     -38.108 -58.232  10.563  1.00  0.00    -0.040 N 
ATOM     38  H73 UNL     1     -39.076 -58.187  10.245  1.00  0.00     0.279 HD
ATOM     39  H72 UNL     1     -37.690 -58.472   9.663  1.00  0.00     0.279 HD
ATOM     40  H71 UNL     1     -37.951 -58.938  11.282  1.00  0.00     0.279 HD
ENDBRANCH   6  37
TORSDOF 8
ENDMDL
MODEL 5
REMARK VINA RESULT: -8.513566775      1.119      1.436
REMARK  8 active torsions:
REMARK  status: ('A' for Active; 'I' for Inactive)
REMARK    1  A    between atoms: C2_2  and  N1_3 
REMARK    2  A    between atoms: C3_10  and  O1_11 
REMARK    3  A    between atoms: O1_11  and  N3_12 
REMARK    4  A    between atoms: N3_12  and  N4_13 
REMARK    5  A    between atoms: N4_13  and  N5_15 
REMARK    6  A    between atoms: C5_20  and  N7_21 
REMARK    7  A    between atoms: C9_33  and  N11_34 
REMARK    8  A    between atoms: C10_38  and  O3_39 
ROOT
HETATM    1  N5  UNL     1     -34.055 -56.988  12.189  1.00  0.00    -0.260 N 
ATOM      2  H5  UNL     1     -33.764 -57.657  11.475  1.00  0.00     0.191 HD
HETATM    3  C4  UNL     1     -35.215 -56.445  12.053  1.00  0.00     0.130 C 
HETATM    4  N6  UNL     1     -36.108 -56.711  10.988  1.00  0.00    -0.333 N 
ATOM      5  H6  UNL     1     -35.796 -57.325  10.236  1.00  0.00     0.164 HD
HETATM    6  C5  UNL     1     -37.452 -56.153  10.913  1.00  0.00     0.393 C 
HETATM    7  N8  UNL     1     -37.857 -55.603  12.197  1.00  0.00    -0.295 N 
HETATM    8  C6  UNL     1     -38.971 -54.792  12.517  1.00  0.00     0.196 C 
HETATM    9  N9  UNL     1     -40.070 -54.407  11.681  1.00  0.00    -0.063 NA
HETATM   10  N10 UNL     1     -38.887 -54.403  13.742  1.00  0.00    -0.299 N 
ATOM     11  H10 UNL     1     -39.573 -53.807  14.206  1.00  0.00     0.171 HD
HETATM   12  C7  UNL     1     -37.713 -54.912  14.361  1.00  0.00     0.249 C 
HETATM   13  O2  UNL     1     -37.248 -54.647  15.503  1.00  0.00    -0.271 OA
HETATM   14  C8  UNL     1     -37.104 -55.840  13.411  1.00  0.00     0.221 C 
HETATM   15  C9  UNL     1     -35.652 -55.471  13.082  1.00  0.00     0.283 C 
ENDROOT
BRANCH   1  16
HETATM   16  N4  UNL     1     -33.179 -56.739  13.214  1.00  0.00    -0.147 N 
ATOM     17  H4  UNL     1     -32.345 -56.212  12.956  1.00  0.00     0.226 HD
BRANCH  16  18
HETATM   18  N3  UNL     1     -33.248 -57.033  14.310  1.00  0.00    -0.169 NA
BRANCH  18  19
HETATM   19  O1  UNL     1     -33.326 -57.356  15.506  1.00  0.00    -0.152 OA
BRANCH  19  20
HETATM   20  C3  UNL     1     -34.502 -57.672  16.227  1.00  0.00     0.403 C 
HETATM   21  N2  UNL     1     -35.145 -56.498  16.785  1.00  0.00    -0.006 N 
HETATM   22  C2  UNL     1     -35.417 -57.248  17.972  1.00  0.00     0.313 C 
ATOM     23  H22 UNL     1     -35.901 -56.032  16.282  1.00  0.00     0.283 HD
ATOM     24  H21 UNL     1     -34.646 -55.610  16.836  1.00  0.00     0.283 HD
HETATM   25  C1  UNL     1     -36.739 -57.965  17.892  1.00  0.00     0.082 C 
HETATM   26  C10 UNL     1     -34.250 -58.152  17.637  1.00  0.00     0.242 C 
BRANCH  22  27
HETATM   27  N1  UNL     1     -35.231 -56.464  19.184  1.00  0.00    -0.042 N 
ATOM     28  H13 UNL     1     -35.012 -55.495  18.951  1.00  0.00     0.277 HD
ATOM     29  H12 UNL     1     -36.123 -56.332  19.662  1.00  0.00     0.277 HD
ATOM     30  H11 UNL     1     -34.536 -56.842  19.827  1.00  0.00     0.277 HD
ENDBRANCH  22  27
BRANCH  26  31
HETATM   31  O3  UNL     1     -33.031 -57.745  18.139  1.00  0.00    -0.387 OA
ATOM     32  H3  UNL     1     -32.400 -57.466  17.487  1.00  0.00     0.210 HD
ENDBRANCH  26  31
ENDBRANCH  19  20
ENDBRANCH  18  19
ENDBRANCH  16  18
ENDBRANCH   1  16
BRANCH  15  33
HETATM   33  N11 UNL     1     -35.601 -54.113  12.555  1.00  0.00    -0.066 N 
ATOM     34 3H11 UNL     1     -36.269 -53.976  11.796  1.00  0.00     0.275 HD
ATOM     35 2H11 UNL     1     -35.981 -53.436  13.215  1.00  0.00     0.275 HD
ATOM     36 1H11 UNL     1     -34.651 -53.875  12.272  1.00  0.00     0.275 HD
ENDBRANCH  15  33
BRANCH   6  37
HETATM   37  N7  UNL     1     -38.340 -57.257  10.597  1.00  0.00    -0.040 N 
ATOM     38  H73 UNL     1     -38.520 -57.357   9.598  1.00  0.00     0.279 HD
ATOM     39  H72 UNL     1     -37.913 -58.173  10.741  1.00  0.00     0.279 HD
ATOM     40  H71 UNL     1     -39.186 -57.115  11.148  1.00  0.00     0.279 HD
ENDBRANCH   6  37
TORSDOF 8
ENDMDL
