MODEL 1
REMARK VINA RESULT: -8.201428265      0.000      0.000
REMARK  9 active torsions:
REMARK  status: ('A' for Active; 'I' for Inactive)
REMARK    1  A    between atoms: N1_1  and  N2_4 
REMARK       I    between atoms: N2_4  and  C1_6 
REMARK    2  A    between atoms: C1_6  and  C2_8 
REMARK    3  A    between atoms: N3_10  and  C4_11 
REMARK    4  A    between atoms: C5_13  and  C6_14 
REMARK    5  A    between atoms: C6_14  and  O3_15 
REMARK    6  A    between atoms: C8_18  and  N4_19 
REMARK    7  A    between atoms: C9_23  and  O4_24 
REMARK    8  A    between atoms: C9_23  and  C10_26 
REMARK    9  A    between atoms: N5_31  and  N6_32 
ROOT
HETATM    1  C4  UNL     1     -36.407 -55.565  13.201  1.00  0.00     0.280 C 
HETATM    2  O2  UNL     1     -35.163 -56.186  13.104  1.00  0.00    -0.355 OA
HETATM    3  C5  UNL     1     -34.689 -55.909  11.822  1.00  0.00     0.150 C 
HETATM    4  C7  UNL     1     -35.423 -56.838  10.892  1.00  0.00     0.071 C 
HETATM    5  C8  UNL     1     -36.869 -56.492  10.912  1.00  0.00     0.235 C 
HETATM    6  C9  UNL     1     -37.420 -56.132  12.246  1.00  0.00     0.218 C 
ENDROOT
BRANCH   1   7
HETATM    7  N3  UNL     1     -36.832 -55.687  14.578  1.00  0.00    -0.275 N 
HETATM    8  C3  UNL     1     -36.614 -56.756  15.365  1.00  0.00     0.136 A 
HETATM    9  C2  UNL     1     -37.172 -56.501  16.621  1.00  0.00     0.145 A 
HETATM   10  N5  UNL     1     -37.704 -55.270  16.520  1.00  0.00    -0.205 N 
HETATM   11  C11 UNL     1     -37.500 -54.771  15.280  1.00  0.00     0.350 A 
HETATM   12  O7  UNL     1     -37.902 -53.621  14.911  1.00  0.00    -0.244 OA
BRANCH   9  13
HETATM   13  C1  UNL     1     -37.161 -57.392  17.762  1.00  0.00     0.289 C 
HETATM   14  N2  UNL     1     -35.947 -57.937  18.236  1.00  0.00    -0.271 N 
ATOM     15  H2  UNL     1     -35.084 -57.687  17.753  1.00  0.00     0.189 HD
HETATM   16  O1  UNL     1     -38.234 -57.676  18.328  1.00  0.00    -0.264 OA
BRANCH  14  17
HETATM   17  N1  UNL     1     -35.867 -58.798  19.327  1.00  0.00    -0.342 N 
ATOM     18  H12 UNL     1     -36.735 -59.009  19.820  1.00  0.00     0.176 HD
ATOM     19  H11 UNL     1     -34.995 -59.218  19.648  1.00  0.00     0.176 HD
ENDBRANCH  14  17
ENDBRANCH   9  13
BRANCH  10  20
HETATM   20  N6  UNL     1     -38.361 -54.639  17.565  1.00  0.00    -0.334 N 
ATOM     21  H62 UNL     1     -37.963 -53.951  18.204  1.00  0.00     0.177 HD
ATOM     22  H61 UNL     1     -39.339 -54.814  17.797  1.00  0.00     0.177 HD
ENDBRANCH  10  20
ENDBRANCH   1   7
BRANCH   6  23
HETATM   23  O4  UNL     1     -38.059 -57.259  12.769  1.00  0.00    -0.373 OA
ATOM     24  H4  UNL     1     -38.891 -57.428  12.342  1.00  0.00     0.211 HD
ENDBRANCH   6  23
BRANCH   6  25
HETATM   25  C10 UNL     1     -38.469 -55.095  12.049  1.00  0.00     0.216 C 
HETATM   26  O5  UNL     1     -38.180 -54.011  11.459  1.00  0.00    -0.646 OA
HETATM   27  O6  UNL     1     -39.764 -55.251  12.477  1.00  0.00    -0.646 OA
ENDBRANCH   6  25
BRANCH   3  28
HETATM   28  C6  UNL     1     -33.192 -56.042  11.722  1.00  0.00     0.196 C 
BRANCH  28  29
HETATM   29  O3  UNL     1     -32.652 -54.874  12.297  1.00  0.00    -0.398 OA
ATOM     30  H3  UNL     1     -31.845 -54.695  11.829  1.00  0.00     0.209 HD
ENDBRANCH  28  29
ENDBRANCH   3  28
BRANCH   5  31
HETATM   31  N4  UNL     1     -37.614 -57.614  10.324  1.00  0.00    -0.071 N 
ATOM     32  H43 UNL     1     -37.053 -58.462  10.248  1.00  0.00     0.274 HD
ATOM     33  H42 UNL     1     -38.332 -57.980  10.949  1.00  0.00     0.274 HD
ATOM     34  H41 UNL     1     -37.991 -57.309   9.427  1.00  0.00     0.274 HD
ENDBRANCH   5  31
TORSDOF 9
ENDMDL
MODEL 2
REMARK VINA RESULT: -8.153264325      2.101      3.625
REMARK  9 active torsions:
REMARK  status: ('A' for Active; 'I' for Inactive)
REMARK    1  A    between atoms: N1_1  and  N2_4 
REMARK       I    between atoms: N2_4  and  C1_6 
REMARK    2  A    between atoms: C1_6  and  C2_8 
REMARK    3  A    between atoms: N3_10  and  C4_11 
REMARK    4  A    between atoms: C5_13  and  C6_14 
REMARK    5  A    between atoms: C6_14  and  O3_15 
REMARK    6  A    between atoms: C8_18  and  N4_19 
REMARK    7  A    between atoms: C9_23  and  O4_24 
REMARK    8  A    between atoms: C9_23  and  C10_26 
REMARK    9  A    between atoms: N5_31  and  N6_32 
ROOT
HETATM    1  C4  UNL     1     -35.659 -57.118  13.158  1.00  0.00     0.280 C 
HETATM    2  O2  UNL     1     -36.987 -57.281  12.765  1.00  0.00    -0.355 OA
HETATM    3  C5  UNL     1     -36.963 -57.469  11.383  1.00  0.00     0.150 C 
HETATM    4  C7  UNL     1     -36.765 -56.106  10.776  1.00  0.00     0.071 C 
HETATM    5  C8  UNL     1     -35.427 -55.593  11.174  1.00  0.00     0.235 C 
HETATM    6  C9  UNL     1     -35.024 -55.886  12.576  1.00  0.00     0.218 C 
ENDROOT
BRANCH   1   7
HETATM    7  N3  UNL     1     -35.647 -57.102  14.604  1.00  0.00    -0.275 N 
HETATM    8  C3  UNL     1     -34.854 -57.863  15.381  1.00  0.00     0.136 A 
HETATM    9  C2  UNL     1     -35.130 -57.565  16.718  1.00  0.00     0.145 A 
HETATM   10  N5  UNL     1     -36.090 -56.625  16.673  1.00  0.00    -0.205 N 
HETATM   11  C11 UNL     1     -36.407 -56.340  15.390  1.00  0.00     0.350 A 
HETATM   12  O7  UNL     1     -37.287 -55.482  15.058  1.00  0.00    -0.244 OA
BRANCH   9  13
HETATM   13  C1  UNL     1     -34.501 -58.161  17.878  1.00  0.00     0.289 C 
HETATM   14  N2  UNL     1     -33.188 -57.795  18.250  1.00  0.00    -0.271 N 
ATOM     15  H2  UNL     1     -32.699 -57.104  17.680  1.00  0.00     0.189 HD
HETATM   16  O1  UNL     1     -35.127 -59.002  18.552  1.00  0.00    -0.264 OA
BRANCH  14  17
HETATM   17  N1  UNL     1     -32.526 -58.327  19.352  1.00  0.00    -0.342 N 
ATOM     18  H12 UNL     1     -31.819 -57.742  19.799  1.00  0.00     0.176 HD
ATOM     19  H11 UNL     1     -32.712 -59.258  19.724  1.00  0.00     0.176 HD
ENDBRANCH  14  17
ENDBRANCH   9  13
BRANCH  10  20
HETATM   20  N6  UNL     1     -36.648 -56.054  17.806  1.00  0.00    -0.334 N 
ATOM     21  H62 UNL     1     -37.543 -56.296  18.230  1.00  0.00     0.177 HD
ATOM     22  H61 UNL     1     -36.195 -55.311  18.338  1.00  0.00     0.177 HD
ENDBRANCH  10  20
ENDBRANCH   1   7
BRANCH   6  23
HETATM   23  O4  UNL     1     -35.281 -54.750  13.347  1.00  0.00    -0.373 OA
ATOM     24  H4  UNL     1     -36.076 -54.307  13.076  1.00  0.00     0.211 HD
ENDBRANCH   6  23
BRANCH   6  25
HETATM   25  C10 UNL     1     -33.550 -56.097  12.599  1.00  0.00     0.216 C 
HETATM   26  O5  UNL     1     -32.775 -55.106  12.753  1.00  0.00    -0.646 OA
HETATM   27  O6  UNL     1     -32.970 -57.332  12.461  1.00  0.00    -0.646 OA
ENDBRANCH   6  25
BRANCH   3  28
HETATM   28  C6  UNL     1     -38.201 -58.162  10.878  1.00  0.00     0.196 C 
BRANCH  28  29
HETATM   29  O3  UNL     1     -39.208 -57.178  10.817  1.00  0.00    -0.398 OA
ATOM     30  H3  UNL     1     -40.035 -57.638  10.904  1.00  0.00     0.209 HD
ENDBRANCH  28  29
ENDBRANCH   3  28
BRANCH   5  31
HETATM   31  N4  UNL     1     -35.396 -54.148  10.912  1.00  0.00    -0.071 N 
ATOM     32  H43 UNL     1     -34.448 -53.779  10.855  1.00  0.00     0.274 HD
ATOM     33  H42 UNL     1     -35.693 -53.913   9.965  1.00  0.00     0.274 HD
ATOM     34  H41 UNL     1     -35.957 -53.684  11.627  1.00  0.00     0.274 HD
ENDBRANCH   5  31
TORSDOF 9
ENDMDL
MODEL 3
REMARK VINA RESULT: -8.096719924      2.028      2.298
REMARK  9 active torsions:
REMARK  status: ('A' for Active; 'I' for Inactive)
REMARK    1  A    between atoms: N1_1  and  N2_4 
REMARK       I    between atoms: N2_4  and  C1_6 
REMARK    2  A    between atoms: C1_6  and  C2_8 
REMARK    3  A    between atoms: N3_10  and  C4_11 
REMARK    4  A    between atoms: C5_13  and  C6_14 
REMARK    5  A    between atoms: C6_14  and  O3_15 
REMARK    6  A    between atoms: C8_18  and  N4_19 
REMARK    7  A    between atoms: C9_23  and  O4_24 
REMARK    8  A    between atoms: C9_23  and  C10_26 
REMARK    9  A    between atoms: N5_31  and  N6_32 
ROOT
HETATM    1  C4  UNL     1     -35.853 -56.120  13.814  1.00  0.00     0.280 C 
HETATM    2  O2  UNL     1     -34.708 -56.470  13.100  1.00  0.00    -0.355 OA
HETATM    3  C5  UNL     1     -34.626 -55.573  12.035  1.00  0.00     0.150 C 
HETATM    4  C7  UNL     1     -35.623 -56.043  11.011  1.00  0.00     0.071 C 
HETATM    5  C8  UNL     1     -36.990 -55.924  11.581  1.00  0.00     0.235 C 
HETATM    6  C9  UNL     1     -37.116 -56.296  13.017  1.00  0.00     0.218 C 
ENDROOT
BRANCH   1   7
HETATM    7  N3  UNL     1     -35.858 -56.920  15.019  1.00  0.00    -0.275 N 
HETATM    8  C3  UNL     1     -35.338 -58.156  15.133  1.00  0.00     0.136 A 
HETATM    9  C2  UNL     1     -35.535 -58.599  16.443  1.00  0.00     0.145 A 
HETATM   10  N5  UNL     1     -36.174 -57.588  17.059  1.00  0.00    -0.205 N 
HETATM   11  C11 UNL     1     -36.372 -56.565  16.197  1.00  0.00     0.350 A 
HETATM   12  O7  UNL     1     -36.955 -55.480  16.518  1.00  0.00    -0.244 OA
BRANCH   9  13
HETATM   13  C1  UNL     1     -35.127 -59.876  16.988  1.00  0.00     0.289 C 
HETATM   14  N2  UNL     1     -35.384 -61.073  16.282  1.00  0.00    -0.271 N 
ATOM     15  H2  UNL     1     -35.864 -61.010  15.383  1.00  0.00     0.189 HD
HETATM   16  O1  UNL     1     -34.543 -59.917  18.088  1.00  0.00    -0.264 OA
BRANCH  14  17
HETATM   17  N1  UNL     1     -35.019 -62.333  16.747  1.00  0.00    -0.342 N 
ATOM     18  H12 UNL     1     -34.928 -62.449  17.757  1.00  0.00     0.176 HD
ATOM     19  H11 UNL     1     -34.841 -63.129  16.135  1.00  0.00     0.176 HD
ENDBRANCH  14  17
ENDBRANCH   9  13
BRANCH  10  20
HETATM   20  N6  UNL     1     -36.556 -57.630  18.391  1.00  0.00    -0.334 N 
ATOM     21  H62 UNL     1     -36.681 -58.468  18.959  1.00  0.00     0.177 HD
ATOM     22  H61 UNL     1     -36.754 -56.795  18.942  1.00  0.00     0.177 HD
ENDBRANCH  10  20
ENDBRANCH   1   7
BRANCH   6  23
HETATM   23  O4  UNL     1     -37.601 -57.605  13.084  1.00  0.00    -0.373 OA
ATOM     24  H4  UNL     1     -36.995 -58.187  13.528  1.00  0.00     0.211 HD
ENDBRANCH   6  23
BRANCH   6  25
HETATM   25  C10 UNL     1     -38.152 -55.422  13.632  1.00  0.00     0.216 C 
HETATM   26  O5  UNL     1     -37.973 -54.167  13.675  1.00  0.00    -0.646 OA
HETATM   27  O6  UNL     1     -39.318 -55.908  14.168  1.00  0.00    -0.646 OA
ENDBRANCH   6  25
BRANCH   3  28
HETATM   28  C6  UNL     1     -33.228 -55.462  11.485  1.00  0.00     0.196 C 
BRANCH  28  29
HETATM   29  O3  UNL     1     -32.452 -54.857  12.495  1.00  0.00    -0.398 OA
ATOM     30  H3  UNL     1     -31.545 -55.042  12.281  1.00  0.00     0.209 HD
ENDBRANCH  28  29
ENDBRANCH   3  28
BRANCH   5  31
HETATM   31  N4  UNL     1     -37.902 -56.724  10.753  1.00  0.00    -0.071 N 
ATOM     32  H43 UNL     1     -38.637 -56.163  10.323  1.00  0.00     0.274 HD
ATOM     33  H42 UNL     1     -37.464 -57.058   9.895  1.00  0.00     0.274 HD
ATOM     34  H41 UNL     1     -38.270 -57.482  11.328  1.00  0.00     0.274 HD
ENDBRANCH   5  31
TORSDOF 9
ENDMDL
MODEL 4
REMARK VINA RESULT: -8.090620154      1.925      3.589
REMARK  9 active torsions:
REMARK  status: ('A' for Active; 'I' for Inactive)
REMARK    1  A    between atoms: N1_1  and  N2_4 
REMARK       I    between atoms: N2_4  and  C1_6 
REMARK    2  A    between atoms: C1_6  and  C2_8 
REMARK    3  A    between atoms: N3_10  and  C4_11 
REMARK    4  A    between atoms: C5_13  and  C6_14 
REMARK    5  A    between atoms: C6_14  and  O3_15 
REMARK    6  A    between atoms: C8_18  and  N4_19 
REMARK    7  A    between atoms: C9_23  and  O4_24 
REMARK    8  A    between atoms: C9_23  and  C10_26 
REMARK    9  A    between atoms: N5_31  and  N6_32 
ROOT
HETATM    1  C4  UNL     1     -36.671 -56.547  13.306  1.00  0.00     0.280 C 
HETATM    2  O2  UNL     1     -38.027 -56.252  13.176  1.00  0.00    -0.355 OA
HETATM    3  C5  UNL     1     -38.306 -56.298  11.810  1.00  0.00     0.150 C 
HETATM    4  C7  UNL     1     -37.790 -55.009  11.231  1.00  0.00     0.071 C 
HETATM    5  C8  UNL     1     -36.311 -54.975  11.377  1.00  0.00     0.235 C 
HETATM    6  C9  UNL     1     -35.785 -55.518  12.659  1.00  0.00     0.218 C 
ENDROOT
BRANCH   1   7
HETATM    7  N3  UNL     1     -36.402 -56.681  14.720  1.00  0.00    -0.275 N 
HETATM    8  C3  UNL     1     -35.598 -57.608  15.272  1.00  0.00     0.136 A 
HETATM    9  C2  UNL     1     -35.591 -57.418  16.656  1.00  0.00     0.145 A 
HETATM   10  N5  UNL     1     -36.405 -56.369  16.867  1.00  0.00    -0.205 N 
HETATM   11  C11 UNL     1     -36.901 -55.918  15.692  1.00  0.00     0.350 A 
HETATM   12  O7  UNL     1     -37.700 -54.931  15.600  1.00  0.00    -0.244 OA
BRANCH   9  13
HETATM   13  C1  UNL     1     -34.855 -58.201  17.626  1.00  0.00     0.289 C 
HETATM   14  N2  UNL     1     -33.573 -57.790  18.057  1.00  0.00    -0.271 N 
ATOM     15  H2  UNL     1     -33.184 -56.932  17.666  1.00  0.00     0.189 HD
HETATM   16  O1  UNL     1     -35.360 -59.244  18.083  1.00  0.00    -0.264 OA
BRANCH  14  17
HETATM   17  N1  UNL     1     -32.813 -58.495  18.986  1.00  0.00    -0.342 N 
ATOM     18  H12 UNL     1     -33.314 -59.109  19.629  1.00  0.00     0.176 HD
ATOM     19  H11 UNL     1     -31.798 -58.426  19.051  1.00  0.00     0.176 HD
ENDBRANCH  14  17
ENDBRANCH   9  13
BRANCH  10  20
HETATM   20  N6  UNL     1     -36.671 -55.855  18.126  1.00  0.00    -0.334 N 
ATOM     21  H62 UNL     1     -35.984 -55.526  18.804  1.00  0.00     0.177 HD
ATOM     22  H61 UNL     1     -37.614 -55.756  18.502  1.00  0.00     0.177 HD
ENDBRANCH  10  20
ENDBRANCH   1   7
BRANCH   6  23
HETATM   23  O4  UNL     1     -35.525 -54.441  13.511  1.00  0.00    -0.373 OA
ATOM     24  H4  UNL     1     -36.313 -53.955  13.723  1.00  0.00     0.211 HD
ENDBRANCH   6  23
BRANCH   6  25
HETATM   25  C10 UNL     1     -34.478 -56.173  12.382  1.00  0.00     0.216 C 
HETATM   26  O5  UNL     1     -34.412 -57.115  11.537  1.00  0.00    -0.646 OA
HETATM   27  O6  UNL     1     -33.311 -55.805  13.004  1.00  0.00    -0.646 OA
ENDBRANCH   6  25
BRANCH   3  28
HETATM   28  C6  UNL     1     -39.770 -56.522  11.531  1.00  0.00     0.196 C 
BRANCH  28  29
HETATM   29  O3  UNL     1     -40.261 -55.312  11.001  1.00  0.00    -0.398 OA
ATOM     30  H3  UNL     1     -41.173 -55.258  11.262  1.00  0.00     0.209 HD
ENDBRANCH  28  29
ENDBRANCH   3  28
BRANCH   5  31
HETATM   31  N4  UNL     1     -35.863 -53.592  11.173  1.00  0.00    -0.071 N 
ATOM     32  H43 UNL     1     -36.531 -53.037  10.638  1.00  0.00     0.274 HD
ATOM     33  H42 UNL     1     -35.883 -53.040  12.031  1.00  0.00     0.274 HD
ATOM     34  H41 UNL     1     -34.939 -53.617  10.743  1.00  0.00     0.274 HD
ENDBRANCH   5  31
TORSDOF 9
ENDMDL
MODEL 5
REMARK VINA RESULT: -8.023906915      1.884      3.954
REMARK  9 active torsions:
REMARK  status: ('A' for Active; 'I' for Inactive)
REMARK    1  A    between atoms: N1_1  and  N2_4 
REMARK       I    between atoms: N2_4  and  C1_6 
REMARK    2  A    between atoms: C1_6  and  C2_8 
REMARK    3  A    between atoms: N3_10  and  C4_11 
REMARK    4  A    between atoms: C5_13  and  C6_14 
REMARK    5  A    between atoms: C6_14  and  O3_15 
REMARK    6  A    between atoms: C8_18  and  N4_19 
REMARK    7  A    between atoms: C9_23  and  O4_24 
REMARK    8  A    between atoms: C9_23  and  C10_26 
REMARK    9  A    between atoms: N5_31  and  N6_32 
ROOT
HETATM    1  C4  UNL     1     -36.747 -56.728  13.109  1.00  0.00     0.280 C 
HETATM    2  O2  UNL     1     -38.101 -56.446  12.937  1.00  0.00    -0.355 OA
HETATM    3  C5  UNL     1     -38.305 -56.347  11.561  1.00  0.00     0.150 C 
HETATM    4  C7  UNL     1     -37.789 -54.992  11.155  1.00  0.00     0.071 C 
HETATM    5  C8  UNL     1     -36.322 -54.948  11.386  1.00  0.00     0.235 C 
HETATM    6  C9  UNL     1     -35.852 -55.618  12.629  1.00  0.00     0.218 C 
ENDROOT
BRANCH   1   7
HETATM    7  N3  UNL     1     -36.551 -57.011  14.513  1.00  0.00    -0.275 N 
HETATM    8  C3  UNL     1     -37.249 -56.458  15.522  1.00  0.00     0.136 A 
HETATM    9  C2  UNL     1     -36.773 -56.980  16.727  1.00  0.00     0.145 A 
HETATM   10  N5  UNL     1     -35.797 -57.834  16.374  1.00  0.00    -0.205 N 
HETATM   11  C11 UNL     1     -35.658 -57.857  15.029  1.00  0.00     0.350 A 
HETATM   12  O7  UNL     1     -34.804 -58.582  14.424  1.00  0.00    -0.244 OA
BRANCH   9  13
HETATM   13  C1  UNL     1     -37.250 -56.649  18.054  1.00  0.00     0.289 C 
HETATM   14  N2  UNL     1     -38.588 -56.913  18.422  1.00  0.00    -0.271 N 
ATOM     15  H2  UNL     1     -39.205 -57.340  17.730  1.00  0.00     0.189 HD
HETATM   16  O1  UNL     1     -36.470 -56.129  18.874  1.00  0.00    -0.264 OA
BRANCH  14  17
HETATM   17  N1  UNL     1     -39.110 -56.621  19.679  1.00  0.00    -0.342 N 
ATOM     18  H12 UNL     1     -39.224 -57.400  20.329  1.00  0.00     0.176 HD
ATOM     19  H11 UNL     1     -39.378 -55.682  19.972  1.00  0.00     0.176 HD
ENDBRANCH  14  17
ENDBRANCH   9  13
BRANCH  10  20
HETATM   20  N6  UNL     1     -35.062 -58.568  17.291  1.00  0.00    -0.334 N 
ATOM     21  H62 UNL     1     -35.042 -58.431  18.302  1.00  0.00     0.177 HD
ATOM     22  H61 UNL     1     -34.451 -59.341  17.027  1.00  0.00     0.177 HD
ENDBRANCH  10  20
ENDBRANCH   1   7
BRANCH   6  23
HETATM   23  O4  UNL     1     -35.664 -54.637  13.605  1.00  0.00    -0.373 OA
ATOM     24  H4  UNL     1     -36.476 -54.198  13.831  1.00  0.00     0.211 HD
ENDBRANCH   6  23
BRANCH   6  25
HETATM   25  C10 UNL     1     -34.516 -56.215  12.356  1.00  0.00     0.216 C 
HETATM   26  O5  UNL     1     -34.393 -57.099  11.456  1.00  0.00    -0.646 OA
HETATM   27  O6  UNL     1     -33.383 -55.853  13.039  1.00  0.00    -0.646 OA
ENDBRANCH   6  25
BRANCH   3  28
HETATM   28  C6  UNL     1     -39.745 -56.565  11.178  1.00  0.00     0.196 C 
BRANCH  28  29
HETATM   29  O3  UNL     1     -40.295 -55.286  10.958  1.00  0.00    -0.398 OA
ATOM     30  H3  UNL     1     -40.454 -55.221  10.023  1.00  0.00     0.209 HD
ENDBRANCH  28  29
ENDBRANCH   3  28
BRANCH   5  31
HETATM   31  N4  UNL     1     -35.897 -53.542  11.359  1.00  0.00    -0.071 N 
ATOM     32  H43 UNL     1     -36.472 -52.969  10.741  1.00  0.00     0.274 HD
ATOM     33  H42 UNL     1     -36.102 -53.052  12.230  1.00  0.00     0.274 HD
ATOM     34  H41 UNL     1     -34.907 -53.514  11.114  1.00  0.00     0.274 HD
ENDBRANCH   5  31
TORSDOF 9
ENDMDL
