MODEL 1
REMARK VINA RESULT: -8.879151177      0.000      0.000
REMARK  14 active torsions:
REMARK  status: ('A' for Active; 'I' for Inactive)
REMARK    1  A    between atoms: O1_2  and  C2_3 
REMARK    2  A    between atoms: C2_3  and  C3_4 
REMARK    3  A    between atoms: C3_4  and  C4_5 
REMARK    4  A    between atoms: C4_5  and  C6_7 
REMARK    5  A    between atoms: C7_8  and  C8_9 
REMARK    6  A    between atoms: C9_10  and  C10_11 
REMARK    7  A    between atoms: C11_12  and  C12_13 
REMARK    8  A    between atoms: C13_14  and  C15_16 
REMARK    9  A    between atoms: C16_17  and  C17_18 
REMARK   10  A    between atoms: C17_18  and  O2_19 
REMARK   11  A    between atoms: C24_28  and  C25_29 
REMARK   12  A    between atoms: C25_29  and  N2_30 
REMARK       I    between atoms: N2_30  and  C26_32 
REMARK   13  A    between atoms: C26_32  and  O5_34 
REMARK   14  A    between atoms: O5_34  and  C27_35 
ROOT
HETATM    1  C4  UNL     1     -51.120  -1.821  57.597  1.00  0.00    -0.018 C 
HETATM    2  C5  UNL     1     -51.157  -0.452  58.267  1.00  0.00     0.057 C 
ENDROOT
BRANCH   1   3
HETATM    3  C3  UNL     1     -52.091  -2.555  57.727  1.00  0.00    -0.111 C 
BRANCH   3   4
HETATM    4  C2  UNL     1     -53.259  -3.436  57.857  1.00  0.00     0.120 C 
HETATM    5  C22 UNL     1     -54.563  -2.640  57.871  1.00  0.00     0.077 C 
HETATM    6  C23 UNL     1     -55.312  -2.907  56.607  1.00  0.00     0.172 C 
HETATM    7  O3  UNL     1     -55.688  -4.264  56.602  1.00  0.00    -0.384 OA
HETATM    8  C24 UNL     1     -54.567  -5.042  56.384  1.00  0.00     0.143 C 
HETATM    9  C31 UNL     1     -53.295  -4.330  56.664  1.00  0.00     0.084 C 
BRANCH   4  10
HETATM   10  O1  UNL     1     -53.237  -4.149  59.049  1.00  0.00    -0.373 OA
HETATM   11  C1  UNL     1     -53.833  -3.514  60.101  1.00  0.00     0.204 C 
ENDBRANCH   4  10
BRANCH   8  12
HETATM   12  C25 UNL     1     -54.642  -6.359  57.133  1.00  0.00     0.157 C 
BRANCH  12  13
HETATM   13  N2  UNL     1     -55.397  -6.239  58.359  1.00  0.00    -0.334 N 
HETATM   14  C26 UNL     1     -55.237  -7.146  59.441  1.00  0.00     0.361 C 
HETATM   15  O4  UNL     1     -54.410  -8.091  59.336  1.00  0.00    -0.238 OA
ATOM     16  H2  UNL     1     -56.068  -5.476  58.451  1.00  0.00     0.164 HD
BRANCH  14  17
HETATM   17  O5  UNL     1     -55.935  -7.075  60.629  1.00  0.00    -0.294 OA
BRANCH  17  18
HETATM   18  C27 UNL     1     -56.909  -8.048  60.944  1.00  0.00     0.061 C 
HETATM   19  C28 UNL     1     -57.534  -8.647  59.705  1.00  0.00     0.046 C 
HETATM   20  C29 UNL     1     -58.005  -7.503  61.811  1.00  0.00     0.046 C 
HETATM   21  C30 UNL     1     -56.225  -9.159  61.701  1.00  0.00     0.046 C 
ENDBRANCH  17  18
ENDBRANCH  14  17
ENDBRANCH  12  13
ENDBRANCH   8  12
ENDBRANCH   3   4
ENDBRANCH   1   3
BRANCH   1  22
HETATM   22  C6  UNL     1     -49.902  -2.131  56.840  1.00  0.00     0.015 C 
HETATM   23  C7  UNL     1     -48.683  -2.151  57.144  1.00  0.00     0.001 C 
BRANCH  23  24
HETATM   24  C8  UNL     1     -47.964  -1.887  58.349  1.00  0.00     0.000 C 
HETATM   25  C9  UNL     1     -46.603  -1.987  58.315  1.00  0.00     0.000 C 
BRANCH  25  26
HETATM   26  C10 UNL     1     -45.788  -1.741  59.482  1.00  0.00     0.000 C 
HETATM   27  C11 UNL     1     -45.268  -2.701  60.220  1.00  0.00     0.001 C 
BRANCH  27  28
HETATM   28  C12 UNL     1     -45.446  -4.098  59.959  1.00  0.00     0.007 C 
HETATM   29  C13 UNL     1     -44.540  -5.048  60.122  1.00  0.00    -0.062 C 
HETATM   30  C14 UNL     1     -44.914  -6.467  59.791  1.00  0.00     0.048 C 
BRANCH  29  31
HETATM   31  C15 UNL     1     -43.213  -4.768  60.611  1.00  0.00     0.006 C 
HETATM   32  C16 UNL     1     -42.513  -3.716  60.196  1.00  0.00     0.015 C 
BRANCH  32  33
HETATM   33  C17 UNL     1     -41.146  -3.433  60.703  1.00  0.00     0.137 C 
HETATM   34  C19 UNL     1     -41.064  -3.911  62.138  1.00  0.00     0.317 C 
HETATM   35  N1  UNL     1     -41.344  -2.626  62.685  1.00  0.00     0.103 N 
HETATM   36  C20 UNL     1     -42.317  -1.730  62.137  1.00  0.00     0.312 A 
HETATM   37  C21 UNL     1     -41.112  -2.047  61.308  1.00  0.00     0.291 A 
BRANCH  33  38
HETATM   38  O2  UNL     1     -40.094  -3.750  59.888  1.00  0.00    -0.377 OA
HETATM   39  C18 UNL     1     -40.412  -4.762  59.018  1.00  0.00     0.203 C 
ENDBRANCH  33  38
ENDBRANCH  32  33
ENDBRANCH  29  31
ENDBRANCH  27  28
ENDBRANCH  25  26
ENDBRANCH  23  24
ENDBRANCH   1  22
TORSDOF 14
ENDMDL
MODEL 2
REMARK VINA RESULT: -8.730408432      1.655      2.451
REMARK  14 active torsions:
REMARK  status: ('A' for Active; 'I' for Inactive)
REMARK    1  A    between atoms: O1_2  and  C2_3 
REMARK    2  A    between atoms: C2_3  and  C3_4 
REMARK    3  A    between atoms: C3_4  and  C4_5 
REMARK    4  A    between atoms: C4_5  and  C6_7 
REMARK    5  A    between atoms: C7_8  and  C8_9 
REMARK    6  A    between atoms: C9_10  and  C10_11 
REMARK    7  A    between atoms: C11_12  and  C12_13 
REMARK    8  A    between atoms: C13_14  and  C15_16 
REMARK    9  A    between atoms: C16_17  and  C17_18 
REMARK   10  A    between atoms: C17_18  and  O2_19 
REMARK   11  A    between atoms: C24_28  and  C25_29 
REMARK   12  A    between atoms: C25_29  and  N2_30 
REMARK       I    between atoms: N2_30  and  C26_32 
REMARK   13  A    between atoms: C26_32  and  O5_34 
REMARK   14  A    between atoms: O5_34  and  C27_35 
ROOT
HETATM    1  C4  UNL     1     -51.037  -1.740  57.530  1.00  0.00    -0.018 C 
HETATM    2  C5  UNL     1     -51.055  -0.305  58.045  1.00  0.00     0.057 C 
ENDROOT
BRANCH   1   3
HETATM    3  C3  UNL     1     -52.020  -2.440  57.735  1.00  0.00    -0.111 C 
BRANCH   3   4
HETATM    4  C2  UNL     1     -53.199  -3.288  57.955  1.00  0.00     0.120 C 
HETATM    5  C22 UNL     1     -53.224  -3.856  59.374  1.00  0.00     0.077 C 
HETATM    6  C23 UNL     1     -54.340  -3.221  60.135  1.00  0.00     0.172 C 
HETATM    7  O3  UNL     1     -55.554  -3.616  59.539  1.00  0.00    -0.384 OA
HETATM    8  C24 UNL     1     -55.693  -2.967  58.327  1.00  0.00     0.143 C 
HETATM    9  C31 UNL     1     -54.414  -2.437  57.795  1.00  0.00     0.084 C 
BRANCH   4  10
HETATM   10  O1  UNL     1     -53.210  -4.387  57.106  1.00  0.00    -0.373 OA
HETATM   11  C1  UNL     1     -53.162  -4.078  55.776  1.00  0.00     0.204 C 
ENDBRANCH   4  10
BRANCH   8  12
HETATM   12  C25 UNL     1     -56.402  -3.835  57.304  1.00  0.00     0.157 C 
BRANCH  12  13
HETATM   13  N2  UNL     1     -56.307  -5.239  57.630  1.00  0.00    -0.334 N 
HETATM   14  C26 UNL     1     -56.352  -6.255  56.637  1.00  0.00     0.361 C 
HETATM   15  O4  UNL     1     -56.480  -5.927  55.426  1.00  0.00    -0.238 OA
ATOM     16  H2  UNL     1     -56.203  -5.511  58.608  1.00  0.00     0.164 HD
BRANCH  14  17
HETATM   17  O5  UNL     1     -56.269  -7.607  56.899  1.00  0.00    -0.294 OA
BRANCH  17  18
HETATM   18  C27 UNL     1     -55.022  -8.202  57.187  1.00  0.00     0.061 C 
HETATM   19  C28 UNL     1     -54.608  -7.986  58.625  1.00  0.00     0.046 C 
HETATM   20  C29 UNL     1     -53.924  -7.693  56.300  1.00  0.00     0.046 C 
HETATM   21  C30 UNL     1     -55.153  -9.687  56.961  1.00  0.00     0.046 C 
ENDBRANCH  17  18
ENDBRANCH  14  17
ENDBRANCH  12  13
ENDBRANCH   8  12
ENDBRANCH   3   4
ENDBRANCH   1   3
BRANCH   1  22
HETATM   22  C6  UNL     1     -49.822  -2.151  56.818  1.00  0.00     0.015 C 
HETATM   23  C7  UNL     1     -48.615  -2.242  57.159  1.00  0.00     0.001 C 
BRANCH  23  24
HETATM   24  C8  UNL     1     -47.915  -1.992  58.378  1.00  0.00     0.000 C 
HETATM   25  C9  UNL     1     -46.552  -2.053  58.354  1.00  0.00     0.000 C 
BRANCH  25  26
HETATM   26  C10 UNL     1     -45.754  -1.818  59.536  1.00  0.00     0.000 C 
HETATM   27  C11 UNL     1     -45.233  -2.785  60.264  1.00  0.00     0.001 C 
BRANCH  27  28
HETATM   28  C12 UNL     1     -45.392  -4.179  59.978  1.00  0.00     0.007 C 
HETATM   29  C13 UNL     1     -44.469  -5.117  60.113  1.00  0.00    -0.062 C 
HETATM   30  C14 UNL     1     -44.824  -6.535  59.758  1.00  0.00     0.048 C 
BRANCH  29  31
HETATM   31  C15 UNL     1     -43.141  -4.826  60.593  1.00  0.00     0.006 C 
HETATM   32  C16 UNL     1     -42.531  -3.673  60.332  1.00  0.00     0.015 C 
BRANCH  32  33
HETATM   33  C17 UNL     1     -41.162  -3.379  60.829  1.00  0.00     0.137 C 
HETATM   34  C19 UNL     1     -41.038  -3.934  62.233  1.00  0.00     0.317 C 
HETATM   35  N1  UNL     1     -41.344  -2.690  62.857  1.00  0.00     0.103 N 
HETATM   36  C20 UNL     1     -42.353  -1.794  62.378  1.00  0.00     0.312 A 
HETATM   37  C21 UNL     1     -41.156  -2.029  61.511  1.00  0.00     0.291 A 
BRANCH  33  38
HETATM   38  O2  UNL     1     -40.119  -3.618  59.978  1.00  0.00    -0.377 OA
HETATM   39  C18 UNL     1     -40.491  -3.477  58.664  1.00  0.00     0.203 C 
ENDBRANCH  33  38
ENDBRANCH  32  33
ENDBRANCH  29  31
ENDBRANCH  27  28
ENDBRANCH  25  26
ENDBRANCH  23  24
ENDBRANCH   1  22
TORSDOF 14
ENDMDL
MODEL 3
REMARK VINA RESULT: -8.697635802      2.316      3.235
REMARK  14 active torsions:
REMARK  status: ('A' for Active; 'I' for Inactive)
REMARK    1  A    between atoms: O1_2  and  C2_3 
REMARK    2  A    between atoms: C2_3  and  C3_4 
REMARK    3  A    between atoms: C3_4  and  C4_5 
REMARK    4  A    between atoms: C4_5  and  C6_7 
REMARK    5  A    between atoms: C7_8  and  C8_9 
REMARK    6  A    between atoms: C9_10  and  C10_11 
REMARK    7  A    between atoms: C11_12  and  C12_13 
REMARK    8  A    between atoms: C13_14  and  C15_16 
REMARK    9  A    between atoms: C16_17  and  C17_18 
REMARK   10  A    between atoms: C17_18  and  O2_19 
REMARK   11  A    between atoms: C24_28  and  C25_29 
REMARK   12  A    between atoms: C25_29  and  N2_30 
REMARK       I    between atoms: N2_30  and  C26_32 
REMARK   13  A    between atoms: C26_32  and  O5_34 
REMARK   14  A    between atoms: O5_34  and  C27_35 
ROOT
HETATM    1  C4  UNL     1     -51.366  -2.198  55.080  1.00  0.00    -0.018 C 
HETATM    2  C5  UNL     1     -51.863  -1.528  53.802  1.00  0.00     0.057 C 
ENDROOT
BRANCH   1   3
HETATM    3  C3  UNL     1     -52.035  -2.071  56.097  1.00  0.00    -0.111 C 
BRANCH   3   4
HETATM    4  C2  UNL     1     -52.857  -1.908  57.303  1.00  0.00     0.120 C 
HETATM    5  C22 UNL     1     -52.087  -1.198  58.415  1.00  0.00     0.077 C 
HETATM    6  C23 UNL     1     -52.667   0.163  58.620  1.00  0.00     0.172 C 
HETATM    7  O3  UNL     1     -53.983   0.007  59.099  1.00  0.00    -0.384 OA
HETATM    8  C24 UNL     1     -54.787  -0.443  58.070  1.00  0.00     0.143 C 
HETATM    9  C31 UNL     1     -54.025  -1.049  56.951  1.00  0.00     0.084 C 
BRANCH   4  10
HETATM   10  O1  UNL     1     -53.245  -3.132  57.832  1.00  0.00    -0.373 OA
HETATM   11  C1  UNL     1     -52.445  -3.596  58.837  1.00  0.00     0.204 C 
ENDBRANCH   4  10
BRANCH   8  12
HETATM   12  C25 UNL     1     -55.872  -1.377  58.572  1.00  0.00     0.157 C 
BRANCH  12  13
HETATM   13  N2  UNL     1     -55.541  -1.944  59.859  1.00  0.00    -0.334 N 
HETATM   14  C26 UNL     1     -55.739  -3.320  60.157  1.00  0.00     0.361 C 
HETATM   15  O4  UNL     1     -56.221  -4.078  59.272  1.00  0.00    -0.238 OA
ATOM     16  H2  UNL     1     -55.150  -1.336  60.579  1.00  0.00     0.164 HD
BRANCH  14  17
HETATM   17  O5  UNL     1     -55.441  -3.907  61.369  1.00  0.00    -0.294 OA
BRANCH  17  18
HETATM   18  C27 UNL     1     -56.476  -4.271  62.258  1.00  0.00     0.061 C 
HETATM   19  C28 UNL     1     -57.002  -5.661  61.979  1.00  0.00     0.046 C 
HETATM   20  C29 UNL     1     -57.630  -3.313  62.220  1.00  0.00     0.046 C 
HETATM   21  C30 UNL     1     -55.910  -4.263  63.657  1.00  0.00     0.046 C 
ENDBRANCH  17  18
ENDBRANCH  14  17
ENDBRANCH  12  13
ENDBRANCH   8  12
ENDBRANCH   3   4
ENDBRANCH   1   3
BRANCH   1  22
HETATM   22  C6  UNL     1     -50.113  -2.951  54.962  1.00  0.00     0.015 C 
HETATM   23  C7  UNL     1     -49.023  -2.909  55.589  1.00  0.00     0.001 C 
BRANCH  23  24
HETATM   24  C8  UNL     1     -48.544  -2.121  56.679  1.00  0.00     0.000 C 
HETATM   25  C9  UNL     1     -47.209  -2.167  56.958  1.00  0.00     0.000 C 
BRANCH  25  26
HETATM   26  C10 UNL     1     -46.627  -1.407  58.042  1.00  0.00     0.000 C 
HETATM   27  C11 UNL     1     -46.169  -1.956  59.149  1.00  0.00     0.001 C 
BRANCH  27  28
HETATM   28  C12 UNL     1     -46.191  -3.363  59.415  1.00  0.00     0.007 C 
HETATM   29  C13 UNL     1     -45.160  -4.107  59.782  1.00  0.00    -0.062 C 
HETATM   30  C14 UNL     1     -45.378  -5.577  60.015  1.00  0.00     0.048 C 
BRANCH  29  31
HETATM   31  C15 UNL     1     -43.842  -3.556  59.969  1.00  0.00     0.006 C 
HETATM   32  C16 UNL     1     -43.394  -3.182  61.165  1.00  0.00     0.015 C 
BRANCH  32  33
HETATM   33  C17 UNL     1     -42.034  -2.615  61.352  1.00  0.00     0.137 C 
HETATM   34  C19 UNL     1     -41.169  -3.062  60.192  1.00  0.00     0.317 C 
HETATM   35  N1  UNL     1     -40.617  -4.166  60.903  1.00  0.00     0.103 N 
HETATM   36  C20 UNL     1     -41.382  -5.008  61.773  1.00  0.00     0.312 A 
HETATM   37  C21 UNL     1     -41.197  -3.576  62.167  1.00  0.00     0.291 A 
BRANCH  33  38
HETATM   38  O2  UNL     1     -41.946  -1.298  61.714  1.00  0.00    -0.377 OA
HETATM   39  C18 UNL     1     -41.199  -1.133  62.853  1.00  0.00     0.203 C 
ENDBRANCH  33  38
ENDBRANCH  32  33
ENDBRANCH  29  31
ENDBRANCH  27  28
ENDBRANCH  25  26
ENDBRANCH  23  24
ENDBRANCH   1  22
TORSDOF 14
ENDMDL
MODEL 4
REMARK VINA RESULT: -8.681920568      1.050      1.336
REMARK  14 active torsions:
REMARK  status: ('A' for Active; 'I' for Inactive)
REMARK    1  A    between atoms: O1_2  and  C2_3 
REMARK    2  A    between atoms: C2_3  and  C3_4 
REMARK    3  A    between atoms: C3_4  and  C4_5 
REMARK    4  A    between atoms: C4_5  and  C6_7 
REMARK    5  A    between atoms: C7_8  and  C8_9 
REMARK    6  A    between atoms: C9_10  and  C10_11 
REMARK    7  A    between atoms: C11_12  and  C12_13 
REMARK    8  A    between atoms: C13_14  and  C15_16 
REMARK    9  A    between atoms: C16_17  and  C17_18 
REMARK   10  A    between atoms: C17_18  and  O2_19 
REMARK   11  A    between atoms: C24_28  and  C25_29 
REMARK   12  A    between atoms: C25_29  and  N2_30 
REMARK       I    between atoms: N2_30  and  C26_32 
REMARK   13  A    between atoms: C26_32  and  O5_34 
REMARK   14  A    between atoms: O5_34  and  C27_35 
ROOT
HETATM    1  C4  UNL     1     -51.041  -1.708  57.474  1.00  0.00    -0.018 C 
HETATM    2  C5  UNL     1     -50.886  -0.473  58.355  1.00  0.00     0.057 C 
ENDROOT
BRANCH   1   3
HETATM    3  C3  UNL     1     -52.147  -2.228  57.397  1.00  0.00    -0.111 C 
BRANCH   3   4
HETATM    4  C2  UNL     1     -53.482  -2.831  57.290  1.00  0.00     0.120 C 
HETATM    5  C22 UNL     1     -54.077  -2.633  55.896  1.00  0.00     0.077 C 
HETATM    6  C23 UNL     1     -54.133  -3.951  55.197  1.00  0.00     0.172 C 
HETATM    7  O3  UNL     1     -55.042  -4.773  55.892  1.00  0.00    -0.384 OA
HETATM    8  C24 UNL     1     -54.473  -5.162  57.089  1.00  0.00     0.143 C 
HETATM    9  C31 UNL     1     -53.342  -4.300  57.510  1.00  0.00     0.084 C 
BRANCH   4  10
HETATM   10  O1  UNL     1     -54.382  -2.249  58.173  1.00  0.00    -0.373 OA
HETATM   11  C1  UNL     1     -55.030  -1.151  57.682  1.00  0.00     0.204 C 
ENDBRANCH   4  10
BRANCH   8  12
HETATM   12  C25 UNL     1     -55.511  -5.292  58.188  1.00  0.00     0.157 C 
BRANCH  12  13
HETATM   13  N2  UNL     1     -55.175  -6.338  59.125  1.00  0.00    -0.334 N 
HETATM   14  C26 UNL     1     -56.115  -6.853  60.059  1.00  0.00     0.361 C 
HETATM   15  O4  UNL     1     -57.285  -6.383  60.076  1.00  0.00    -0.238 OA
ATOM     16  H2  UNL     1     -54.230  -6.722  59.117  1.00  0.00     0.164 HD
BRANCH  14  17
HETATM   17  O5  UNL     1     -55.842  -7.848  60.975  1.00  0.00    -0.294 OA
BRANCH  17  18
HETATM   18  C27 UNL     1     -55.798  -9.199  60.567  1.00  0.00     0.061 C 
HETATM   19  C28 UNL     1     -56.544  -9.427  59.272  1.00  0.00     0.046 C 
HETATM   20  C29 UNL     1     -56.355 -10.130  61.604  1.00  0.00     0.046 C 
HETATM   21  C30 UNL     1     -54.352  -9.567  60.340  1.00  0.00     0.046 C 
ENDBRANCH  17  18
ENDBRANCH  14  17
ENDBRANCH  12  13
ENDBRANCH   8  12
ENDBRANCH   3   4
ENDBRANCH   1   3
BRANCH   1  22
HETATM   22  C6  UNL     1     -49.828  -2.160  56.786  1.00  0.00     0.015 C 
HETATM   23  C7  UNL     1     -48.630  -2.288  57.148  1.00  0.00     0.001 C 
BRANCH  23  24
HETATM   24  C8  UNL     1     -47.944  -2.053  58.378  1.00  0.00     0.000 C 
HETATM   25  C9  UNL     1     -46.580  -2.009  58.347  1.00  0.00     0.000 C 
BRANCH  25  26
HETATM   26  C10 UNL     1     -45.795  -1.779  59.539  1.00  0.00     0.000 C 
HETATM   27  C11 UNL     1     -45.275  -2.749  60.264  1.00  0.00     0.001 C 
BRANCH  27  28
HETATM   28  C12 UNL     1     -45.424  -4.141  59.965  1.00  0.00     0.007 C 
HETATM   29  C13 UNL     1     -44.499  -5.077  60.105  1.00  0.00    -0.062 C 
HETATM   30  C14 UNL     1     -44.842  -6.493  59.735  1.00  0.00     0.048 C 
BRANCH  29  31
HETATM   31  C15 UNL     1     -43.179  -4.783  60.605  1.00  0.00     0.006 C 
HETATM   32  C16 UNL     1     -42.502  -3.702  60.228  1.00  0.00     0.015 C 
BRANCH  32  33
HETATM   33  C17 UNL     1     -41.143  -3.405  60.746  1.00  0.00     0.137 C 
HETATM   34  C19 UNL     1     -41.059  -3.908  62.173  1.00  0.00     0.317 C 
HETATM   35  N1  UNL     1     -41.364  -2.638  62.742  1.00  0.00     0.103 N 
HETATM   36  C20 UNL     1     -42.350  -1.749  62.205  1.00  0.00     0.312 A 
HETATM   37  C21 UNL     1     -41.136  -2.030  61.377  1.00  0.00     0.291 A 
BRANCH  33  38
HETATM   38  O2  UNL     1     -40.082  -3.688  59.930  1.00  0.00    -0.377 OA
HETATM   39  C18 UNL     1     -40.386  -4.673  59.024  1.00  0.00     0.203 C 
ENDBRANCH  33  38
ENDBRANCH  32  33
ENDBRANCH  29  31
ENDBRANCH  27  28
ENDBRANCH  25  26
ENDBRANCH  23  24
ENDBRANCH   1  22
TORSDOF 14
ENDMDL
MODEL 5
REMARK VINA RESULT: -8.646022305      1.979      2.476
REMARK  14 active torsions:
REMARK  status: ('A' for Active; 'I' for Inactive)
REMARK    1  A    between atoms: O1_2  and  C2_3 
REMARK    2  A    between atoms: C2_3  and  C3_4 
REMARK    3  A    between atoms: C3_4  and  C4_5 
REMARK    4  A    between atoms: C4_5  and  C6_7 
REMARK    5  A    between atoms: C7_8  and  C8_9 
REMARK    6  A    between atoms: C9_10  and  C10_11 
REMARK    7  A    between atoms: C11_12  and  C12_13 
REMARK    8  A    between atoms: C13_14  and  C15_16 
REMARK    9  A    between atoms: C16_17  and  C17_18 
REMARK   10  A    between atoms: C17_18  and  O2_19 
REMARK   11  A    between atoms: C24_28  and  C25_29 
REMARK   12  A    between atoms: C25_29  and  N2_30 
REMARK       I    between atoms: N2_30  and  C26_32 
REMARK   13  A    between atoms: C26_32  and  O5_34 
REMARK   14  A    between atoms: O5_34  and  C27_35 
ROOT
HETATM    1  C4  UNL     1     -50.975  -1.699  57.737  1.00  0.00    -0.018 C 
HETATM    2  C5  UNL     1     -50.765  -0.450  58.587  1.00  0.00     0.057 C 
ENDROOT
BRANCH   1   3
HETATM    3  C3  UNL     1     -52.086  -2.213  57.729  1.00  0.00    -0.111 C 
BRANCH   3   4
HETATM    4  C2  UNL     1     -53.430  -2.806  57.724  1.00  0.00     0.120 C 
HETATM    5  C22 UNL     1     -53.669  -3.644  56.468  1.00  0.00     0.077 C 
HETATM    6  C23 UNL     1     -53.737  -5.086  56.849  1.00  0.00     0.172 C 
HETATM    7  O3  UNL     1     -54.876  -5.269  57.658  1.00  0.00    -0.384 OA
HETATM    8  C24 UNL     1     -54.644  -4.705  58.898  1.00  0.00     0.143 C 
HETATM    9  C31 UNL     1     -53.533  -3.722  58.897  1.00  0.00     0.084 C 
BRANCH   4  10
HETATM   10  O1  UNL     1     -54.422  -1.834  57.725  1.00  0.00    -0.373 OA
HETATM   11  C1  UNL     1     -54.363  -0.963  58.777  1.00  0.00     0.204 C 
ENDBRANCH   4  10
BRANCH   8  12
HETATM   12  C25 UNL     1     -55.908  -4.114  59.492  1.00  0.00     0.157 C 
BRANCH  12  13
HETATM   13  N2  UNL     1     -55.755  -3.820  60.898  1.00  0.00    -0.334 N 
HETATM   14  C26 UNL     1     -56.092  -4.758  61.912  1.00  0.00     0.361 C 
HETATM   15  O4  UNL     1     -56.541  -5.889  61.579  1.00  0.00    -0.238 OA
ATOM     16  H2  UNL     1     -55.393  -2.907  61.174  1.00  0.00     0.164 HD
BRANCH  14  17
HETATM   17  O5  UNL     1     -55.967  -4.524  63.266  1.00  0.00    -0.294 OA
BRANCH  17  18
HETATM   18  C27 UNL     1     -57.075  -4.075  64.017  1.00  0.00     0.061 C 
HETATM   19  C28 UNL     1     -58.223  -3.643  63.134  1.00  0.00     0.046 C 
HETATM   20  C29 UNL     1     -56.726  -2.936  64.929  1.00  0.00     0.046 C 
HETATM   21  C30 UNL     1     -57.553  -5.224  64.870  1.00  0.00     0.046 C 
ENDBRANCH  17  18
ENDBRANCH  14  17
ENDBRANCH  12  13
ENDBRANCH   8  12
ENDBRANCH   3   4
ENDBRANCH   1   3
BRANCH   1  22
HETATM   22  C6  UNL     1     -49.804  -2.171  56.990  1.00  0.00     0.015 C 
HETATM   23  C7  UNL     1     -48.595  -2.329  57.298  1.00  0.00     0.001 C 
BRANCH  23  24
HETATM   24  C8  UNL     1     -47.849  -2.123  58.498  1.00  0.00     0.000 C 
HETATM   25  C9  UNL     1     -46.491  -2.031  58.396  1.00  0.00     0.000 C 
BRANCH  25  26
HETATM   26  C10 UNL     1     -45.649  -1.825  59.552  1.00  0.00     0.000 C 
HETATM   27  C11 UNL     1     -45.115  -2.811  60.246  1.00  0.00     0.001 C 
BRANCH  27  28
HETATM   28  C12 UNL     1     -45.302  -4.197  59.942  1.00  0.00     0.007 C 
HETATM   29  C13 UNL     1     -44.413  -5.163  60.110  1.00  0.00    -0.062 C 
HETATM   30  C14 UNL     1     -44.794  -6.568  59.729  1.00  0.00     0.048 C 
BRANCH  29  31
HETATM   31  C15 UNL     1     -43.100  -4.914  60.648  1.00  0.00     0.006 C 
HETATM   32  C16 UNL     1     -42.504  -3.730  60.542  1.00  0.00     0.015 C 
BRANCH  32  33
HETATM   33  C17 UNL     1     -41.150  -3.479  61.098  1.00  0.00     0.137 C 
HETATM   34  C19 UNL     1     -41.164  -3.852  62.567  1.00  0.00     0.317 C 
HETATM   35  N1  UNL     1     -41.400  -2.517  63.003  1.00  0.00     0.103 N 
HETATM   36  C20 UNL     1     -42.296  -1.616  62.341  1.00  0.00     0.312 A 
HETATM   37  C21 UNL     1     -41.070  -2.055  61.603  1.00  0.00     0.291 A 
BRANCH  33  38
HETATM   38  O2  UNL     1     -40.078  -3.909  60.364  1.00  0.00    -0.377 OA
HETATM   39  C18 UNL     1     -40.310  -3.803  59.016  1.00  0.00     0.203 C 
ENDBRANCH  33  38
ENDBRANCH  32  33
ENDBRANCH  29  31
ENDBRANCH  27  28
ENDBRANCH  25  26
ENDBRANCH  23  24
ENDBRANCH   1  22
TORSDOF 14
ENDMDL
