MODEL 1
REMARK VINA RESULT: -7.561785736      0.000      0.000
REMARK  12 active torsions:
REMARK  status: ('A' for Active; 'I' for Inactive)
REMARK    1  A    between atoms: C15_16  and  C17_18 
REMARK    2  A    between atoms: C17_18  and  O2_19 
REMARK    3  A    between atoms: O2_19  and  C18_20 
REMARK    4  A    between atoms: C18_20  and  C19_22 
REMARK    5  A    between atoms: C19_22  and  C20_23 
REMARK    6  A    between atoms: C20_23  and  C21_24 
REMARK    7  A    between atoms: C21_24  and  C22_25 
REMARK    8  A    between atoms: C22_25  and  C23_26 
REMARK    9  A    between atoms: C23_26  and  C24_27 
REMARK   10  A    between atoms: C24_27  and  C25_28 
REMARK   11  A    between atoms: C26_30  and  C28_32 
REMARK   12  A    between atoms: C28_32  and  O5_33 
ROOT
HETATM    1  C1  UNL     1     -59.318   1.533  56.789  1.00  0.00     0.024 C 
HETATM    2  C2  UNL     1     -58.327   2.063  57.803  1.00  0.00     0.021 C 
HETATM    3  C3  UNL     1     -58.173   1.193  59.001  1.00  0.00     0.018 C 
HETATM    4  C4  UNL     1     -57.208   0.047  58.903  1.00  0.00     0.007 C 
HETATM    5  C5  UNL     1     -56.268   0.243  57.706  1.00  0.00     0.002 C 
HETATM    6  C6  UNL     1     -55.949   1.686  57.787  1.00  0.00    -0.004 C 
HETATM    7  C7  UNL     1     -54.571   1.886  57.261  1.00  0.00     0.006 C 
HETATM    8  C8  UNL     1     -53.733   1.158  58.335  1.00  0.00     0.007 C 
HETATM    9  C9  UNL     1     -53.857  -0.366  58.162  1.00  0.00     0.009 C 
HETATM   10  C10 UNL     1     -55.155  -0.746  57.621  1.00  0.00    -0.018 C 
HETATM   11  C11 UNL     1     -55.779  -1.965  58.358  1.00  0.00     0.020 C 
HETATM   12  C12 UNL     1     -55.135  -1.241  56.213  1.00  0.00    -0.013 C 
HETATM   13  C13 UNL     1     -54.342  -2.145  55.676  1.00  0.00     0.048 C 
HETATM   14  C14 UNL     1     -53.294  -2.846  56.409  1.00  0.00     0.160 C 
HETATM   15  O1  UNL     1     -53.190  -4.081  56.214  1.00  0.00    -0.292 OA
HETATM   16  C15 UNL     1     -52.302  -2.270  57.385  1.00  0.00     0.052 C 
HETATM   17  C16 UNL     1     -52.130  -3.181  58.576  1.00  0.00     0.027 C 
HETATM   18  C26 UNL     1     -52.532  -0.832  57.715  1.00  0.00    -0.002 C 
HETATM   19  C27 UNL     1     -51.896  -0.043  56.597  1.00  0.00     0.019 C 
HETATM   20  C29 UNL     1     -57.036   2.475  57.155  1.00  0.00     0.006 C 
HETATM   21  C30 UNL     1     -56.869   3.959  57.311  1.00  0.00     0.013 C 
HETATM   22  C31 UNL     1     -58.280   4.457  57.488  1.00  0.00     0.079 C 
HETATM   23  C32 UNL     1     -58.898   3.370  58.264  1.00  0.00     0.135 C 
HETATM   24  O6  UNL     1     -59.740   3.547  59.138  1.00  0.00    -0.297 OA
ENDROOT
BRANCH  16  25
HETATM   25  C17 UNL     1     -51.024  -2.427  56.588  1.00  0.00     0.197 C 
BRANCH  25  26
HETATM   26  O2  UNL     1     -49.992  -2.751  57.567  1.00  0.00    -0.320 OA
BRANCH  26  27
HETATM   27  C18 UNL     1     -48.681  -2.358  57.309  1.00  0.00     0.258 C 
HETATM   28  O3  UNL     1     -48.250  -2.529  56.152  1.00  0.00    -0.265 OA
BRANCH  27  29
HETATM   29  C19 UNL     1     -47.817  -1.754  58.348  1.00  0.00     0.111 C 
BRANCH  29  30
HETATM   30  C20 UNL     1     -46.661  -2.614  58.738  1.00  0.00     0.010 C 
BRANCH  30  31
HETATM   31  C21 UNL     1     -45.378  -1.824  58.766  1.00  0.00     0.000 C 
BRANCH  31  32
HETATM   32  C22 UNL     1     -44.709  -1.852  60.119  1.00  0.00     0.000 C 
BRANCH  32  33
HETATM   33  C23 UNL     1     -43.308  -2.406  60.022  1.00  0.00     0.007 C 
BRANCH  33  34
HETATM   34  C24 UNL     1     -42.522  -1.994  61.243  1.00  0.00     0.069 C 
BRANCH  34  35
HETATM   35  C25 UNL     1     -41.091  -2.345  61.186  1.00  0.00     0.231 C 
HETATM   36  O4  UNL     1     -40.411  -2.627  62.153  1.00  0.00    -0.307 OA
ENDBRANCH  34  35
ENDBRANCH  33  34
ENDBRANCH  32  33
ENDBRANCH  31  32
ENDBRANCH  30  31
ENDBRANCH  29  30
ENDBRANCH  27  29
ENDBRANCH  26  27
ENDBRANCH  25  26
ENDBRANCH  16  25
BRANCH  18  37
HETATM   37  C28 UNL     1     -51.633  -0.567  58.951  1.00  0.00     0.175 C 
BRANCH  37  38
HETATM   38  O5  UNL     1     -50.465   0.064  58.726  1.00  0.00    -0.400 OA
ATOM     39  H5  UNL     1     -49.978   0.348  59.491  1.00  0.00     0.209 HD
ENDBRANCH  37  38
ENDBRANCH  18  37
TORSDOF 12
ENDMDL
MODEL 2
REMARK VINA RESULT: -7.538668180      2.917      3.936
REMARK  12 active torsions:
REMARK  status: ('A' for Active; 'I' for Inactive)
REMARK    1  A    between atoms: C15_16  and  C17_18 
REMARK    2  A    between atoms: C17_18  and  O2_19 
REMARK    3  A    between atoms: O2_19  and  C18_20 
REMARK    4  A    between atoms: C18_20  and  C19_22 
REMARK    5  A    between atoms: C19_22  and  C20_23 
REMARK    6  A    between atoms: C20_23  and  C21_24 
REMARK    7  A    between atoms: C21_24  and  C22_25 
REMARK    8  A    between atoms: C22_25  and  C23_26 
REMARK    9  A    between atoms: C23_26  and  C24_27 
REMARK   10  A    between atoms: C24_27  and  C25_28 
REMARK   11  A    between atoms: C26_30  and  C28_32 
REMARK   12  A    between atoms: C28_32  and  O5_33 
ROOT
HETATM    1  C1  UNL     1     -57.230  -3.327  52.232  1.00  0.00     0.024 C 
HETATM    2  C2  UNL     1     -57.506  -2.919  53.663  1.00  0.00     0.021 C 
HETATM    3  C3  UNL     1     -57.231  -3.993  54.656  1.00  0.00     0.018 C 
HETATM    4  C4  UNL     1     -55.818  -4.135  55.145  1.00  0.00     0.007 C 
HETATM    5  C5  UNL     1     -55.010  -2.873  54.815  1.00  0.00     0.002 C 
HETATM    6  C6  UNL     1     -55.970  -1.791  55.134  1.00  0.00    -0.004 C 
HETATM    7  C7  UNL     1     -55.195  -0.609  55.601  1.00  0.00     0.006 C 
HETATM    8  C8  UNL     1     -54.621  -1.136  56.934  1.00  0.00     0.007 C 
HETATM    9  C9  UNL     1     -53.463  -2.112  56.665  1.00  0.00     0.009 C 
HETATM   10  C10 UNL     1     -53.644  -2.834  55.412  1.00  0.00    -0.018 C 
HETATM   11  C11 UNL     1     -53.331  -4.352  55.545  1.00  0.00     0.020 C 
HETATM   12  C12 UNL     1     -52.713  -2.444  54.314  1.00  0.00    -0.013 C 
HETATM   13  C13 UNL     1     -51.403  -2.310  54.363  1.00  0.00     0.048 C 
HETATM   14  C14 UNL     1     -50.607  -2.529  55.564  1.00  0.00     0.160 C 
HETATM   15  O1  UNL     1     -49.539  -3.175  55.431  1.00  0.00    -0.292 OA
HETATM   16  C15 UNL     1     -50.903  -2.071  56.968  1.00  0.00     0.052 C 
HETATM   17  C16 UNL     1     -50.583  -3.157  57.966  1.00  0.00     0.027 C 
HETATM   18  C26 UNL     1     -52.242  -1.432  57.134  1.00  0.00    -0.002 C 
HETATM   19  C27 UNL     1     -52.074   0.002  56.697  1.00  0.00     0.019 C 
HETATM   20  C29 UNL     1     -56.892  -1.588  53.989  1.00  0.00     0.006 C 
HETATM   21  C30 UNL     1     -57.991  -0.605  54.271  1.00  0.00     0.013 C 
HETATM   22  C31 UNL     1     -59.176  -1.179  53.539  1.00  0.00     0.079 C 
HETATM   23  C32 UNL     1     -58.976  -2.627  53.711  1.00  0.00     0.135 C 
HETATM   24  O6  UNL     1     -59.890  -3.429  53.865  1.00  0.00    -0.297 OA
ENDROOT
BRANCH  16  25
HETATM   25  C17 UNL     1     -49.805  -1.043  57.149  1.00  0.00     0.197 C 
BRANCH  25  26
HETATM   26  O2  UNL     1     -48.985  -1.538  58.249  1.00  0.00    -0.320 OA
BRANCH  26  27
HETATM   27  C18 UNL     1     -47.624  -1.735  58.030  1.00  0.00     0.258 C 
HETATM   28  O3  UNL     1     -47.214  -1.635  56.857  1.00  0.00    -0.265 OA
BRANCH  27  29
HETATM   29  C19 UNL     1     -46.682  -2.047  59.129  1.00  0.00     0.111 C 
BRANCH  29  30
HETATM   30  C20 UNL     1     -45.247  -1.908  58.744  1.00  0.00     0.010 C 
BRANCH  30  31
HETATM   31  C21 UNL     1     -44.414  -1.433  59.904  1.00  0.00     0.000 C 
BRANCH  31  32
HETATM   32  C22 UNL     1     -43.281  -2.377  60.231  1.00  0.00     0.000 C 
BRANCH  32  33
HETATM   33  C23 UNL     1     -42.396  -1.811  61.317  1.00  0.00     0.007 C 
BRANCH  33  34
HETATM   34  C24 UNL     1     -41.410  -2.865  61.756  1.00  0.00     0.069 C 
BRANCH  34  35
HETATM   35  C25 UNL     1     -40.329  -3.120  60.787  1.00  0.00     0.231 C 
HETATM   36  O4  UNL     1     -39.162  -2.824  60.959  1.00  0.00    -0.307 OA
ENDBRANCH  34  35
ENDBRANCH  33  34
ENDBRANCH  32  33
ENDBRANCH  31  32
ENDBRANCH  30  31
ENDBRANCH  29  30
ENDBRANCH  27  29
ENDBRANCH  26  27
ENDBRANCH  25  26
ENDBRANCH  16  25
BRANCH  18  37
HETATM   37  C28 UNL     1     -52.452  -1.359  58.669  1.00  0.00     0.175 C 
BRANCH  37  38
HETATM   38  O5  UNL     1     -52.400  -0.135  59.230  1.00  0.00    -0.400 OA
ATOM     39  H5  UNL     1     -53.092   0.471  58.995  1.00  0.00     0.209 HD
ENDBRANCH  37  38
ENDBRANCH  18  37
TORSDOF 12
ENDMDL
MODEL 3
REMARK VINA RESULT: -7.394872484      1.966      3.025
REMARK  12 active torsions:
REMARK  status: ('A' for Active; 'I' for Inactive)
REMARK    1  A    between atoms: C15_16  and  C17_18 
REMARK    2  A    between atoms: C17_18  and  O2_19 
REMARK    3  A    between atoms: O2_19  and  C18_20 
REMARK    4  A    between atoms: C18_20  and  C19_22 
REMARK    5  A    between atoms: C19_22  and  C20_23 
REMARK    6  A    between atoms: C20_23  and  C21_24 
REMARK    7  A    between atoms: C21_24  and  C22_25 
REMARK    8  A    between atoms: C22_25  and  C23_26 
REMARK    9  A    between atoms: C23_26  and  C24_27 
REMARK   10  A    between atoms: C24_27  and  C25_28 
REMARK   11  A    between atoms: C26_30  and  C28_32 
REMARK   12  A    between atoms: C28_32  and  O5_33 
ROOT
HETATM    1  C1  UNL     1     -58.215   3.796  60.236  1.00  0.00     0.024 C 
HETATM    2  C2  UNL     1     -58.088   2.340  60.631  1.00  0.00     0.021 C 
HETATM    3  C3  UNL     1     -58.591   1.394  59.597  1.00  0.00     0.018 C 
HETATM    4  C4  UNL     1     -57.644   1.007  58.498  1.00  0.00     0.007 C 
HETATM    5  C5  UNL     1     -56.203   1.361  58.885  1.00  0.00     0.002 C 
HETATM    6  C6  UNL     1     -56.148   0.952  60.308  1.00  0.00    -0.004 C 
HETATM    7  C7  UNL     1     -54.759   0.511  60.609  1.00  0.00     0.006 C 
HETATM    8  C8  UNL     1     -54.657  -0.767  59.748  1.00  0.00     0.007 C 
HETATM    9  C9  UNL     1     -54.493  -0.396  58.264  1.00  0.00     0.009 C 
HETATM   10  C10 UNL     1     -55.163   0.857  57.942  1.00  0.00    -0.018 C 
HETATM   11  C11 UNL     1     -55.971   0.782  56.616  1.00  0.00     0.020 C 
HETATM   12  C12 UNL     1     -54.255   2.007  57.660  1.00  0.00    -0.013 C 
HETATM   13  C13 UNL     1     -53.209   2.045  56.861  1.00  0.00     0.048 C 
HETATM   14  C14 UNL     1     -52.739   0.906  56.080  1.00  0.00     0.160 C 
HETATM   15  O1  UNL     1     -52.411   1.127  54.889  1.00  0.00    -0.292 OA
HETATM   16  C15 UNL     1     -52.594  -0.526  56.526  1.00  0.00     0.052 C 
HETATM   17  C16 UNL     1     -53.072  -1.473  55.453  1.00  0.00     0.027 C 
HETATM   18  C26 UNL     1     -53.124  -0.797  57.895  1.00  0.00    -0.002 C 
HETATM   19  C27 UNL     1     -52.033  -0.383  58.852  1.00  0.00     0.019 C 
HETATM   20  C29 UNL     1     -56.718   2.027  61.158  1.00  0.00     0.006 C 
HETATM   21  C30 UNL     1     -56.833   1.647  62.606  1.00  0.00     0.013 C 
HETATM   22  C31 UNL     1     -58.113   2.309  63.045  1.00  0.00     0.079 C 
HETATM   23  C32 UNL     1     -58.955   2.186  61.844  1.00  0.00     0.135 C 
HETATM   24  O6  UNL     1     -60.164   1.989  61.875  1.00  0.00    -0.297 OA
ENDROOT
BRANCH  16  25
HETATM   25  C17 UNL     1     -51.085  -0.655  56.513  1.00  0.00     0.197 C 
BRANCH  25  26
HETATM   26  O2  UNL     1     -50.810  -1.955  55.912  1.00  0.00    -0.320 OA
BRANCH  26  27
HETATM   27  C18 UNL     1     -49.589  -2.569  56.179  1.00  0.00     0.258 C 
HETATM   28  O3  UNL     1     -49.053  -3.201  55.248  1.00  0.00    -0.265 OA
BRANCH  27  29
HETATM   29  C19 UNL     1     -48.934  -2.485  57.504  1.00  0.00     0.111 C 
BRANCH  29  30
HETATM   30  C20 UNL     1     -47.547  -1.934  57.450  1.00  0.00     0.010 C 
BRANCH  30  31
HETATM   31  C21 UNL     1     -46.784  -2.255  58.708  1.00  0.00     0.000 C 
BRANCH  31  32
HETATM   32  C22 UNL     1     -45.294  -2.072  58.546  1.00  0.00     0.000 C 
BRANCH  32  33
HETATM   33  C23 UNL     1     -44.695  -1.388  59.752  1.00  0.00     0.007 C 
BRANCH  33  34
HETATM   34  C24 UNL     1     -43.467  -2.144  60.196  1.00  0.00     0.069 C 
BRANCH  34  35
HETATM   35  C25 UNL     1     -43.622  -3.611  60.174  1.00  0.00     0.231 C 
HETATM   36  O4  UNL     1     -42.700  -4.402  60.186  1.00  0.00    -0.307 OA
ENDBRANCH  34  35
ENDBRANCH  33  34
ENDBRANCH  32  33
ENDBRANCH  31  32
ENDBRANCH  30  31
ENDBRANCH  29  30
ENDBRANCH  27  29
ENDBRANCH  26  27
ENDBRANCH  25  26
ENDBRANCH  16  25
BRANCH  18  37
HETATM   37  C28 UNL     1     -53.175  -2.344  57.994  1.00  0.00     0.175 C 
BRANCH  37  38
HETATM   38  O5  UNL     1     -52.137  -2.946  58.605  1.00  0.00    -0.400 OA
ATOM     39  H5  UNL     1     -52.343  -3.505  59.345  1.00  0.00     0.209 HD
ENDBRANCH  37  38
ENDBRANCH  18  37
TORSDOF 12
ENDMDL
MODEL 4
REMARK VINA RESULT: -7.336718907      2.069      3.814
REMARK  12 active torsions:
REMARK  status: ('A' for Active; 'I' for Inactive)
REMARK    1  A    between atoms: C15_16  and  C17_18 
REMARK    2  A    between atoms: C17_18  and  O2_19 
REMARK    3  A    between atoms: O2_19  and  C18_20 
REMARK    4  A    between atoms: C18_20  and  C19_22 
REMARK    5  A    between atoms: C19_22  and  C20_23 
REMARK    6  A    between atoms: C20_23  and  C21_24 
REMARK    7  A    between atoms: C21_24  and  C22_25 
REMARK    8  A    between atoms: C22_25  and  C23_26 
REMARK    9  A    between atoms: C23_26  and  C24_27 
REMARK   10  A    between atoms: C24_27  and  C25_28 
REMARK   11  A    between atoms: C26_30  and  C28_32 
REMARK   12  A    between atoms: C28_32  and  O5_33 
ROOT
HETATM    1  C1  UNL     1     -58.495   0.525  61.714  1.00  0.00     0.024 C 
HETATM    2  C2  UNL     1     -58.655  -0.744  60.905  1.00  0.00     0.021 C 
HETATM    3  C3  UNL     1     -58.713  -0.515  59.435  1.00  0.00     0.018 C 
HETATM    4  C4  UNL     1     -57.407  -0.409  58.701  1.00  0.00     0.007 C 
HETATM    5  C5  UNL     1     -56.265  -0.961  59.563  1.00  0.00     0.002 C 
HETATM    6  C6  UNL     1     -56.872  -2.176  60.153  1.00  0.00    -0.004 C 
HETATM    7  C7  UNL     1     -55.793  -3.181  60.356  1.00  0.00     0.006 C 
HETATM    8  C8  UNL     1     -55.409  -3.507  58.896  1.00  0.00     0.007 C 
HETATM    9  C9  UNL     1     -54.582  -2.358  58.295  1.00  0.00     0.009 C 
HETATM   10  C10 UNL     1     -54.952  -1.069  58.863  1.00  0.00    -0.018 C 
HETATM   11  C11 UNL     1     -55.095   0.043  57.785  1.00  0.00     0.020 C 
HETATM   12  C12 UNL     1     -53.937  -0.460  59.771  1.00  0.00    -0.013 C 
HETATM   13  C13 UNL     1     -52.645  -0.305  59.564  1.00  0.00     0.048 C 
HETATM   14  C14 UNL     1     -51.959  -0.728  58.349  1.00  0.00     0.160 C 
HETATM   15  O1  UNL     1     -51.124   0.070  57.858  1.00  0.00    -0.292 OA
HETATM   16  C15 UNL     1     -52.124  -2.021  57.595  1.00  0.00     0.052 C 
HETATM   17  C16 UNL     1     -52.143  -1.776  56.105  1.00  0.00     0.027 C 
HETATM   18  C26 UNL     1     -53.221  -2.894  58.108  1.00  0.00    -0.002 C 
HETATM   19  C27 UNL     1     -52.640  -3.646  59.280  1.00  0.00     0.019 C 
HETATM   20  C29 UNL     1     -57.684  -1.804  61.338  1.00  0.00     0.006 C 
HETATM   21  C30 UNL     1     -58.453  -2.954  61.923  1.00  0.00     0.013 C 
HETATM   22  C31 UNL     1     -59.746  -2.324  62.370  1.00  0.00     0.079 C 
HETATM   23  C32 UNL     1     -59.977  -1.313  61.325  1.00  0.00     0.135 C 
HETATM   24  O6  UNL     1     -61.086  -1.014  60.896  1.00  0.00    -0.297 OA
ENDROOT
BRANCH  16  25
HETATM   25  C17 UNL     1     -50.777  -2.659  57.865  1.00  0.00     0.197 C 
BRANCH  25  26
HETATM   26  O2  UNL     1     -49.966  -2.371  56.687  1.00  0.00    -0.320 OA
BRANCH  26  27
HETATM   27  C18 UNL     1     -48.589  -2.233  56.843  1.00  0.00     0.258 C 
HETATM   28  O3  UNL     1     -47.884  -2.357  55.823  1.00  0.00    -0.265 OA
BRANCH  27  29
HETATM   29  C19 UNL     1     -47.965  -1.946  58.155  1.00  0.00     0.111 C 
BRANCH  29  30
HETATM   30  C20 UNL     1     -46.478  -1.828  58.096  1.00  0.00     0.010 C 
BRANCH  30  31
HETATM   31  C21 UNL     1     -45.822  -2.661  59.164  1.00  0.00     0.000 C 
BRANCH  31  32
HETATM   32  C22 UNL     1     -44.736  -1.913  59.900  1.00  0.00     0.000 C 
BRANCH  32  33
HETATM   33  C23 UNL     1     -43.569  -2.818  60.217  1.00  0.00     0.007 C 
BRANCH  33  34
HETATM   34  C24 UNL     1     -42.657  -2.130  61.203  1.00  0.00     0.069 C 
BRANCH  34  35
HETATM   35  C25 UNL     1     -41.540  -2.967  61.676  1.00  0.00     0.231 C 
HETATM   36  O4  UNL     1     -40.525  -2.539  62.190  1.00  0.00    -0.307 OA
ENDBRANCH  34  35
ENDBRANCH  33  34
ENDBRANCH  32  33
ENDBRANCH  31  32
ENDBRANCH  30  31
ENDBRANCH  29  30
ENDBRANCH  27  29
ENDBRANCH  26  27
ENDBRANCH  25  26
ENDBRANCH  16  25
BRANCH  18  37
HETATM   37  C28 UNL     1     -53.416  -3.965  57.003  1.00  0.00     0.175 C 
BRANCH  37  38
HETATM   38  O5  UNL     1     -53.576  -5.237  57.416  1.00  0.00    -0.400 OA
ATOM     39  H5  UNL     1     -53.722  -5.890  56.741  1.00  0.00     0.209 HD
ENDBRANCH  37  38
ENDBRANCH  18  37
TORSDOF 12
ENDMDL
MODEL 5
REMARK VINA RESULT: -7.162704312      2.702      4.777
REMARK  12 active torsions:
REMARK  status: ('A' for Active; 'I' for Inactive)
REMARK    1  A    between atoms: C15_16  and  C17_18 
REMARK    2  A    between atoms: C17_18  and  O2_19 
REMARK    3  A    between atoms: O2_19  and  C18_20 
REMARK    4  A    between atoms: C18_20  and  C19_22 
REMARK    5  A    between atoms: C19_22  and  C20_23 
REMARK    6  A    between atoms: C20_23  and  C21_24 
REMARK    7  A    between atoms: C21_24  and  C22_25 
REMARK    8  A    between atoms: C22_25  and  C23_26 
REMARK    9  A    between atoms: C23_26  and  C24_27 
REMARK   10  A    between atoms: C24_27  and  C25_28 
REMARK   11  A    between atoms: C26_30  and  C28_32 
REMARK   12  A    between atoms: C28_32  and  O5_33 
ROOT
HETATM    1  C1  UNL     1     -57.179  -2.318  63.058  1.00  0.00     0.024 C 
HETATM    2  C2  UNL     1     -57.434  -3.218  61.867  1.00  0.00     0.021 C 
HETATM    3  C3  UNL     1     -58.070  -2.521  60.715  1.00  0.00     0.018 C 
HETATM    4  C4  UNL     1     -57.164  -1.795  59.763  1.00  0.00     0.007 C 
HETATM    5  C5  UNL     1     -55.713  -2.256  59.950  1.00  0.00     0.002 C 
HETATM    6  C6  UNL     1     -55.865  -3.720  60.112  1.00  0.00    -0.004 C 
HETATM    7  C7  UNL     1     -54.648  -4.376  59.558  1.00  0.00     0.006 C 
HETATM    8  C8  UNL     1     -54.792  -4.051  58.055  1.00  0.00     0.007 C 
HETATM    9  C9  UNL     1     -54.433  -2.578  57.793  1.00  0.00     0.009 C 
HETATM   10  C10 UNL     1     -54.756  -1.731  58.934  1.00  0.00    -0.018 C 
HETATM   11  C11 UNL     1     -55.457  -0.406  58.518  1.00  0.00     0.020 C 
HETATM   12  C12 UNL     1     -53.581  -1.208  59.690  1.00  0.00    -0.013 C 
HETATM   13  C13 UNL     1     -52.499  -0.624  59.216  1.00  0.00     0.048 C 
HETATM   14  C14 UNL     1     -52.259  -0.383  57.798  1.00  0.00     0.160 C 
HETATM   15  O1  UNL     1     -51.799   0.740  57.480  1.00  0.00    -0.292 OA
HETATM   16  C15 UNL     1     -52.495  -1.324  56.645  1.00  0.00     0.052 C 
HETATM   17  C16 UNL     1     -53.105  -0.595  55.473  1.00  0.00     0.027 C 
HETATM   18  C26 UNL     1     -53.176  -2.598  57.024  1.00  0.00    -0.002 C 
HETATM   19  C27 UNL     1     -52.092  -3.506  57.551  1.00  0.00     0.019 C 
HETATM   20  C29 UNL     1     -56.223  -4.033  61.518  1.00  0.00     0.006 C 
HETATM   21  C30 UNL     1     -56.534  -5.484  61.748  1.00  0.00     0.013 C 
HETATM   22  C31 UNL     1     -57.647  -5.450  62.763  1.00  0.00     0.079 C 
HETATM   23  C32 UNL     1     -58.401  -4.252  62.358  1.00  0.00     0.135 C 
HETATM   24  O6  UNL     1     -59.622  -4.158  62.426  1.00  0.00    -0.297 OA
ENDROOT
BRANCH  16  25
HETATM   25  C17 UNL     1     -51.064  -1.598  56.230  1.00  0.00     0.197 C 
BRANCH  25  26
HETATM   26  O2  UNL     1     -50.273  -1.469  57.449  1.00  0.00    -0.320 OA
BRANCH  26  27
HETATM   27  C18 UNL     1     -48.927  -1.823  57.412  1.00  0.00     0.258 C 
HETATM   28  O3  UNL     1     -48.495  -2.312  56.350  1.00  0.00    -0.265 OA
BRANCH  27  29
HETATM   29  C19 UNL     1     -48.026  -1.634  58.571  1.00  0.00     0.111 C 
BRANCH  29  30
HETATM   30  C20 UNL     1     -46.617  -2.048  58.306  1.00  0.00     0.010 C 
BRANCH  30  31
HETATM   31  C21 UNL     1     -45.815  -2.101  59.579  1.00  0.00     0.000 C 
BRANCH  31  32
HETATM   32  C22 UNL     1     -44.330  -2.214  59.327  1.00  0.00     0.000 C 
BRANCH  32  33
HETATM   33  C23 UNL     1     -43.536  -1.743  60.522  1.00  0.00     0.007 C 
BRANCH  33  34
HETATM   34  C24 UNL     1     -42.205  -2.452  60.548  1.00  0.00     0.069 C 
BRANCH  34  35
HETATM   35  C25 UNL     1     -41.430  -2.236  61.783  1.00  0.00     0.231 C 
HETATM   36  O4  UNL     1     -40.304  -2.652  61.975  1.00  0.00    -0.307 OA
ENDBRANCH  34  35
ENDBRANCH  33  34
ENDBRANCH  32  33
ENDBRANCH  31  32
ENDBRANCH  30  31
ENDBRANCH  29  30
ENDBRANCH  27  29
ENDBRANCH  26  27
ENDBRANCH  25  26
ENDBRANCH  16  25
BRANCH  18  37
HETATM   37  C28 UNL     1     -53.603  -3.228  55.673  1.00  0.00     0.175 C 
BRANCH  37  38
HETATM   38  O5  UNL     1     -52.836  -4.230  55.203  1.00  0.00    -0.400 OA
ATOM     39  H5  UNL     1     -53.289  -4.980  54.837  1.00  0.00     0.209 HD
ENDBRANCH  37  38
ENDBRANCH  18  37
TORSDOF 12
ENDMDL
