MODEL 1
REMARK VINA RESULT: -7.162581449      0.000      0.000
REMARK  13 active torsions:
REMARK  status: ('A' for Active; 'I' for Inactive)
REMARK    1  A    between atoms: C2_2  and  C3_3 
REMARK    2  A    between atoms: C2_2  and  C6_7 
REMARK    3  A    between atoms: C3_3  and  C5_5 
REMARK    4  A    between atoms: C7_9  and  O3_10 
REMARK    5  A    between atoms: C16_21  and  C17_22 
REMARK    6  A    between atoms: C17_22  and  C18_23 
REMARK    7  A    between atoms: C18_23  and  C19_24 
REMARK    8  A    between atoms: C20_25  and  C21_26 
REMARK    9  A    between atoms: C28_33  and  C29_34 
REMARK   10  A    between atoms: C29_34  and  C30_35 
REMARK   11  A    between atoms: C31_36  and  C32_37 
REMARK   12  A    between atoms: C32_37  and  C33_38 
REMARK   13  A    between atoms: C33_38  and  N1_39 
ROOT
HETATM    1  C6  UNL     1     -54.589  -3.687  58.608  1.00  0.00     0.162 C 
HETATM    2  O2  UNL     1     -54.335  -4.768  57.691  1.00  0.00    -0.350 OA
HETATM    3  C7  UNL     1     -54.686  -4.433  56.384  1.00  0.00     0.270 C 
HETATM    4  C9  UNL     1     -53.920  -3.237  55.901  1.00  0.00     0.102 C 
HETATM    5  C10 UNL     1     -53.487  -3.185  54.519  1.00  0.00     0.167 C 
HETATM    6  O4  UNL     1     -53.728  -4.270  53.688  1.00  0.00    -0.347 OA
HETATM    7  C11 UNL     1     -52.871  -4.163  52.604  1.00  0.00     0.158 C 
HETATM    8  C12 UNL     1     -53.343  -3.025  51.732  1.00  0.00     0.078 C 
HETATM    9  C13 UNL     1     -52.855  -5.485  51.887  1.00  0.00     0.078 C 
HETATM   10  O5  UNL     1     -51.680  -3.859  53.240  1.00  0.00    -0.348 OA
HETATM   11  C14 UNL     1     -52.054  -2.893  54.232  1.00  0.00     0.159 C 
HETATM   12  C15 UNL     1     -51.124  -3.004  55.363  1.00  0.00     0.074 C 
HETATM   13  C16 UNL     1     -51.691  -2.452  56.615  1.00  0.00    -0.045 C 
HETATM   14  C27 UNL     1     -52.917  -2.978  57.033  1.00  0.00    -0.054 C 
HETATM   15  C28 UNL     1     -53.792  -2.485  58.169  1.00  0.00     0.052 C 
ENDROOT
BRANCH  13  16
HETATM   16  C17 UNL     1     -51.066  -1.116  57.001  1.00  0.00     0.063 C 
BRANCH  16  17
HETATM   17  C18 UNL     1     -49.959  -1.187  57.631  1.00  0.00    -0.128 C 
BRANCH  17  18
HETATM   18  C19 UNL     1     -48.747  -1.270  58.332  1.00  0.00     0.056 C 
HETATM   19  C20 UNL     1     -47.847  -2.229  57.872  1.00  0.00     0.019 C 
BRANCH  19  20
HETATM   20  C21 UNL     1     -46.583  -2.358  58.563  1.00  0.00    -0.036 A 
HETATM   21  C22 UNL     1     -46.434  -3.491  59.329  1.00  0.00     0.011 A 
HETATM   22  C23 UNL     1     -45.291  -3.695  60.078  1.00  0.00     0.001 A 
HETATM   23  C24 UNL     1     -44.304  -2.785  60.093  1.00  0.00     0.000 A 
HETATM   24  C25 UNL     1     -44.397  -1.606  59.340  1.00  0.00     0.001 A 
HETATM   25  C26 UNL     1     -45.577  -1.452  58.587  1.00  0.00     0.011 A 
ENDBRANCH  19  20
ENDBRANCH  17  18
ENDBRANCH  16  17
ENDBRANCH  13  16
BRANCH  15  26
HETATM   26  C29 UNL     1     -52.929  -1.972  59.319  1.00  0.00     0.038 C 
BRANCH  26  27
HETATM   27  C30 UNL     1     -53.520  -0.932  60.125  1.00  0.00    -0.030 C 
HETATM   28  C31 UNL     1     -54.058   0.236  59.654  1.00  0.00    -0.029 C 
BRANCH  28  29
HETATM   29  C32 UNL     1     -54.128   0.508  58.217  1.00  0.00     0.054 C 
BRANCH  29  30
HETATM   30  C33 UNL     1     -53.782   1.963  57.995  1.00  0.00     0.233 C 
BRANCH  30  31
HETATM   31  N1  UNL     1     -52.583   2.100  57.222  1.00  0.00    -0.079 N 
ATOM     32  H13 UNL     1     -51.754   2.123  57.817  1.00  0.00     0.274 HD
ATOM     33  H12 UNL     1     -52.376   1.250  56.698  1.00  0.00     0.274 HD
ATOM     34  H11 UNL     1     -52.627   2.915  56.610  1.00  0.00     0.274 HD
ENDBRANCH  30  31
ENDBRANCH  29  30
ENDBRANCH  28  29
ENDBRANCH  26  27
ENDBRANCH  15  26
BRANCH   3  35
HETATM   35  O3  UNL     1     -54.424  -5.579  55.654  1.00  0.00    -0.365 OA
HETATM   36  C8  UNL     1     -54.089  -6.680  56.357  1.00  0.00     0.204 C 
ENDBRANCH   3  35
BRANCH   1  37
HETATM   37  C2  UNL     1     -56.012  -3.582  58.834  1.00  0.00    -0.050 C 
HETATM   38  C1  UNL     1     -56.737  -4.515  59.498  1.00  0.00     0.017 C 
BRANCH  37  39
HETATM   39  C3  UNL     1     -56.905  -2.366  58.568  1.00  0.00     0.073 C 
HETATM   40  C4  UNL     1     -58.216  -2.708  57.918  1.00  0.00     0.022 C 
BRANCH  39  41
HETATM   41  C5  UNL     1     -57.230  -1.743  59.918  1.00  0.00     0.239 C 
HETATM   42  O1  UNL     1     -57.484  -0.553  59.959  1.00  0.00    -0.306 OA
ENDBRANCH  39  41
ENDBRANCH  37  39
ENDBRANCH   1  37
TORSDOF 13
ENDMDL
MODEL 2
REMARK VINA RESULT: -7.125598593      1.694      2.082
REMARK  13 active torsions:
REMARK  status: ('A' for Active; 'I' for Inactive)
REMARK    1  A    between atoms: C2_2  and  C3_3 
REMARK    2  A    between atoms: C2_2  and  C6_7 
REMARK    3  A    between atoms: C3_3  and  C5_5 
REMARK    4  A    between atoms: C7_9  and  O3_10 
REMARK    5  A    between atoms: C16_21  and  C17_22 
REMARK    6  A    between atoms: C17_22  and  C18_23 
REMARK    7  A    between atoms: C18_23  and  C19_24 
REMARK    8  A    between atoms: C20_25  and  C21_26 
REMARK    9  A    between atoms: C28_33  and  C29_34 
REMARK   10  A    between atoms: C29_34  and  C30_35 
REMARK   11  A    between atoms: C31_36  and  C32_37 
REMARK   12  A    between atoms: C32_37  and  C33_38 
REMARK   13  A    between atoms: C33_38  and  N1_39 
ROOT
HETATM    1  C6  UNL     1     -53.994  -5.204  57.526  1.00  0.00     0.162 C 
HETATM    2  O2  UNL     1     -53.648  -5.635  56.196  1.00  0.00    -0.350 OA
HETATM    3  C7  UNL     1     -54.285  -4.870  55.219  1.00  0.00     0.270 C 
HETATM    4  C9  UNL     1     -53.920  -3.420  55.337  1.00  0.00     0.102 C 
HETATM    5  C10 UNL     1     -53.752  -2.632  54.133  1.00  0.00     0.167 C 
HETATM    6  O4  UNL     1     -53.863  -3.249  52.894  1.00  0.00    -0.347 OA
HETATM    7  C11 UNL     1     -53.253  -2.425  51.961  1.00  0.00     0.158 C 
HETATM    8  C12 UNL     1     -54.124  -1.211  51.754  1.00  0.00     0.078 C 
HETATM    9  C13 UNL     1     -53.043  -3.219  50.702  1.00  0.00     0.078 C 
HETATM   10  O5  UNL     1     -52.079  -2.106  52.622  1.00  0.00    -0.348 OA
HETATM   11  C14 UNL     1     -52.500  -1.841  53.966  1.00  0.00     0.159 C 
HETATM   12  C15 UNL     1     -51.394  -2.170  54.874  1.00  0.00     0.074 C 
HETATM   13  C16 UNL     1     -51.856  -2.427  56.257  1.00  0.00    -0.045 C 
HETATM   14  C27 UNL     1     -52.832  -3.414  56.419  1.00  0.00    -0.054 C 
HETATM   15  C28 UNL     1     -53.594  -3.759  57.683  1.00  0.00     0.052 C 
ENDROOT
BRANCH  13  16
HETATM   16  C17 UNL     1     -51.513  -1.287  57.210  1.00  0.00     0.063 C 
BRANCH  16  17
HETATM   17  C18 UNL     1     -50.322  -1.290  57.668  1.00  0.00    -0.128 C 
BRANCH  17  18
HETATM   18  C19 UNL     1     -49.013  -1.283  58.171  1.00  0.00     0.056 C 
HETATM   19  C20 UNL     1     -48.260  -2.427  57.916  1.00  0.00     0.019 C 
BRANCH  19  20
HETATM   20  C21 UNL     1     -46.904  -2.472  58.417  1.00  0.00    -0.036 A 
HETATM   21  C22 UNL     1     -45.984  -1.725  57.718  1.00  0.00     0.011 A 
HETATM   22  C23 UNL     1     -44.649  -1.734  58.071  1.00  0.00     0.001 A 
HETATM   23  C24 UNL     1     -44.209  -2.485  59.093  1.00  0.00     0.000 A 
HETATM   24  C25 UNL     1     -45.094  -3.274  59.841  1.00  0.00     0.001 A 
HETATM   25  C26 UNL     1     -46.445  -3.221  59.447  1.00  0.00     0.011 A 
ENDBRANCH  19  20
ENDBRANCH  17  18
ENDBRANCH  16  17
ENDBRANCH  13  16
BRANCH  15  26
HETATM   26  C29 UNL     1     -52.698  -3.588  58.907  1.00  0.00     0.038 C 
BRANCH  26  27
HETATM   27  C30 UNL     1     -53.374  -3.233  60.130  1.00  0.00    -0.030 C 
HETATM   28  C31 UNL     1     -54.059  -2.069  60.356  1.00  0.00    -0.029 C 
BRANCH  28  29
HETATM   29  C32 UNL     1     -54.212  -1.067  59.299  1.00  0.00     0.054 C 
BRANCH  29  30
HETATM   30  C33 UNL     1     -55.635  -0.556  59.335  1.00  0.00     0.233 C 
BRANCH  30  31
HETATM   31  N1  UNL     1     -56.433  -1.164  58.312  1.00  0.00    -0.079 N 
ATOM     32  H13 UNL     1     -56.597  -2.153  58.503  1.00  0.00     0.274 HD
ATOM     33  H12 UNL     1     -57.397  -0.836  58.345  1.00  0.00     0.274 HD
ATOM     34  H11 UNL     1     -56.021  -1.025  57.389  1.00  0.00     0.274 HD
ENDBRANCH  30  31
ENDBRANCH  29  30
ENDBRANCH  28  29
ENDBRANCH  26  27
ENDBRANCH  15  26
BRANCH   3  35
HETATM   35  O3  UNL     1     -53.883  -5.437  54.023  1.00  0.00    -0.365 OA
HETATM   36  C8  UNL     1     -53.177  -6.583  54.104  1.00  0.00     0.204 C 
ENDBRANCH   3  35
BRANCH   1  37
HETATM   37  C2  UNL     1     -55.342  -5.630  57.826  1.00  0.00    -0.050 C 
HETATM   38  C1  UNL     1     -55.670  -6.903  58.157  1.00  0.00     0.017 C 
BRANCH  37  39
HETATM   39  C3  UNL     1     -56.573  -4.739  58.023  1.00  0.00     0.073 C 
HETATM   40  C4  UNL     1     -57.817  -5.271  57.371  1.00  0.00     0.022 C 
BRANCH  39  41
HETATM   41  C5  UNL     1     -56.848  -4.681  59.519  1.00  0.00     0.239 C 
HETATM   42  O1  UNL     1     -57.210  -3.621  59.999  1.00  0.00    -0.306 OA
ENDBRANCH  39  41
ENDBRANCH  37  39
ENDBRANCH   1  37
TORSDOF 13
ENDMDL
MODEL 3
REMARK VINA RESULT: -7.039315551      2.649      4.570
REMARK  13 active torsions:
REMARK  status: ('A' for Active; 'I' for Inactive)
REMARK    1  A    between atoms: C2_2  and  C3_3 
REMARK    2  A    between atoms: C2_2  and  C6_7 
REMARK    3  A    between atoms: C3_3  and  C5_5 
REMARK    4  A    between atoms: C7_9  and  O3_10 
REMARK    5  A    between atoms: C16_21  and  C17_22 
REMARK    6  A    between atoms: C17_22  and  C18_23 
REMARK    7  A    between atoms: C18_23  and  C19_24 
REMARK    8  A    between atoms: C20_25  and  C21_26 
REMARK    9  A    between atoms: C28_33  and  C29_34 
REMARK   10  A    between atoms: C29_34  and  C30_35 
REMARK   11  A    between atoms: C31_36  and  C32_37 
REMARK   12  A    between atoms: C32_37  and  C33_38 
REMARK   13  A    between atoms: C33_38  and  N1_39 
ROOT
HETATM    1  C6  UNL     1     -54.965   0.986  57.363  1.00  0.00     0.162 C 
HETATM    2  O2  UNL     1     -55.478   0.114  58.389  1.00  0.00    -0.350 OA
HETATM    3  C7  UNL     1     -55.798  -1.147  57.887  1.00  0.00     0.270 C 
HETATM    4  C9  UNL     1     -54.599  -1.814  57.279  1.00  0.00     0.102 C 
HETATM    5  C10 UNL     1     -54.431  -3.245  57.435  1.00  0.00     0.167 C 
HETATM    6  O4  UNL     1     -55.342  -3.959  58.200  1.00  0.00    -0.347 OA
HETATM    7  C11 UNL     1     -54.746  -5.161  58.545  1.00  0.00     0.158 C 
HETATM    8  C12 UNL     1     -54.669  -6.027  57.311  1.00  0.00     0.078 C 
HETATM    9  C13 UNL     1     -55.553  -5.784  59.650  1.00  0.00     0.078 C 
HETATM   10  O5  UNL     1     -53.494  -4.727  58.945  1.00  0.00    -0.348 OA
HETATM   11  C14 UNL     1     -53.131  -3.758  57.954  1.00  0.00     0.159 C 
HETATM   12  C15 UNL     1     -52.239  -2.769  58.574  1.00  0.00     0.074 C 
HETATM   13  C16 UNL     1     -52.216  -1.487  57.834  1.00  0.00    -0.045 C 
HETATM   14  C27 UNL     1     -53.449  -0.861  57.627  1.00  0.00    -0.054 C 
HETATM   15  C28 UNL     1     -53.731   0.357  56.768  1.00  0.00     0.052 C 
ENDROOT
BRANCH  13  16
HETATM   16  C17 UNL     1     -50.922  -1.285  57.054  1.00  0.00     0.063 C 
BRANCH  16  17
HETATM   17  C18 UNL     1     -49.848  -1.367  57.737  1.00  0.00    -0.128 C 
BRANCH  17  18
HETATM   18  C19 UNL     1     -48.668  -1.446  58.492  1.00  0.00     0.056 C 
HETATM   19  C20 UNL     1     -47.763  -2.431  58.100  1.00  0.00     0.019 C 
BRANCH  19  20
HETATM   20  C21 UNL     1     -46.532  -2.556  58.848  1.00  0.00    -0.036 A 
HETATM   21  C22 UNL     1     -45.709  -1.454  58.833  1.00  0.00     0.011 A 
HETATM   22  C23 UNL     1     -44.482  -1.477  59.467  1.00  0.00     0.001 A 
HETATM   23  C24 UNL     1     -44.051  -2.581  60.099  1.00  0.00     0.000 A 
HETATM   24  C25 UNL     1     -44.839  -3.739  60.145  1.00  0.00     0.001 A 
HETATM   25  C26 UNL     1     -46.085  -3.660  59.493  1.00  0.00     0.011 A 
ENDBRANCH  19  20
ENDBRANCH  17  18
ENDBRANCH  16  17
ENDBRANCH  13  16
BRANCH  15  26
HETATM   26  C29 UNL     1     -52.558   1.331  56.828  1.00  0.00     0.038 C 
BRANCH  26  27
HETATM   27  C30 UNL     1     -52.901   2.727  56.712  1.00  0.00    -0.030 C 
HETATM   28  C31 UNL     1     -53.060   3.416  55.539  1.00  0.00    -0.029 C 
BRANCH  28  29
HETATM   29  C32 UNL     1     -52.941   2.741  54.246  1.00  0.00     0.054 C 
BRANCH  29  30
HETATM   30  C33 UNL     1     -52.909   3.795  53.163  1.00  0.00     0.233 C 
BRANCH  30  31
HETATM   31  N1  UNL     1     -54.154   3.855  52.456  1.00  0.00    -0.079 N 
ATOM     32  H13 UNL     1     -54.175   3.195  51.678  1.00  0.00     0.274 HD
ATOM     33  H12 UNL     1     -54.917   3.468  53.011  1.00  0.00     0.274 HD
ATOM     34  H11 UNL     1     -54.360   4.805  52.146  1.00  0.00     0.274 HD
ENDBRANCH  30  31
ENDBRANCH  29  30
ENDBRANCH  28  29
ENDBRANCH  26  27
ENDBRANCH  15  26
BRANCH   3  35
HETATM   35  O3  UNL     1     -56.308  -1.830  58.975  1.00  0.00    -0.365 OA
HETATM   36  C8  UNL     1     -56.476  -1.121  60.110  1.00  0.00     0.204 C 
ENDBRANCH   3  35
BRANCH   1  37
HETATM   37  C2  UNL     1     -56.054   1.410  56.514  1.00  0.00    -0.050 C 
HETATM   38  C1  UNL     1     -57.070   2.203  56.937  1.00  0.00     0.017 C 
BRANCH  37  39
HETATM   39  C3  UNL     1     -56.170   1.234  54.997  1.00  0.00     0.073 C 
HETATM   40  C4  UNL     1     -56.992   0.046  54.586  1.00  0.00     0.022 C 
BRANCH  39  41
HETATM   41  C5  UNL     1     -56.875   2.469  54.454  1.00  0.00     0.239 C 
HETATM   42  O1  UNL     1     -56.718   2.755  53.281  1.00  0.00    -0.306 OA
ENDBRANCH  39  41
ENDBRANCH  37  39
ENDBRANCH   1  37
TORSDOF 13
ENDMDL
MODEL 4
REMARK VINA RESULT: -7.015281998      3.003      6.461
REMARK  13 active torsions:
REMARK  status: ('A' for Active; 'I' for Inactive)
REMARK    1  A    between atoms: C2_2  and  C3_3 
REMARK    2  A    between atoms: C2_2  and  C6_7 
REMARK    3  A    between atoms: C3_3  and  C5_5 
REMARK    4  A    between atoms: C7_9  and  O3_10 
REMARK    5  A    between atoms: C16_21  and  C17_22 
REMARK    6  A    between atoms: C17_22  and  C18_23 
REMARK    7  A    between atoms: C18_23  and  C19_24 
REMARK    8  A    between atoms: C20_25  and  C21_26 
REMARK    9  A    between atoms: C28_33  and  C29_34 
REMARK   10  A    between atoms: C29_34  and  C30_35 
REMARK   11  A    between atoms: C31_36  and  C32_37 
REMARK   12  A    between atoms: C32_37  and  C33_38 
REMARK   13  A    between atoms: C33_38  and  N1_39 
ROOT
HETATM    1  C6  UNL     1     -52.173  -0.496  52.938  1.00  0.00     0.162 C 
HETATM    2  O2  UNL     1     -52.389   0.928  52.949  1.00  0.00    -0.350 OA
HETATM    3  C7  UNL     1     -53.668   1.256  53.397  1.00  0.00     0.270 C 
HETATM    4  C9  UNL     1     -53.908   0.749  54.788  1.00  0.00     0.102 C 
HETATM    5  C10 UNL     1     -54.687   1.551  55.710  1.00  0.00     0.167 C 
HETATM    6  O4  UNL     1     -55.137   2.802  55.312  1.00  0.00    -0.347 OA
HETATM    7  C11 UNL     1     -55.454   3.516  56.457  1.00  0.00     0.158 C 
HETATM    8  C12 UNL     1     -56.715   2.933  57.048  1.00  0.00     0.078 C 
HETATM    9  C13 UNL     1     -55.595   4.965  56.082  1.00  0.00     0.078 C 
HETATM   10  O5  UNL     1     -54.349   3.248  57.246  1.00  0.00    -0.348 OA
HETATM   11  C14 UNL     1     -54.118   1.847  57.055  1.00  0.00     0.159 C 
HETATM   12  C15 UNL     1     -52.683   1.584  57.230  1.00  0.00     0.074 C 
HETATM   13  C16 UNL     1     -52.256   0.327  56.573  1.00  0.00    -0.045 C 
HETATM   14  C27 UNL     1     -52.536   0.206  55.209  1.00  0.00    -0.054 C 
HETATM   15  C28 UNL     1     -52.364  -1.023  54.338  1.00  0.00     0.052 C 
ENDROOT
BRANCH  13  16
HETATM   16  C17 UNL     1     -51.977  -0.790  57.573  1.00  0.00     0.063 C 
BRANCH  16  17
HETATM   17  C18 UNL     1     -50.782  -0.848  58.015  1.00  0.00    -0.128 C 
BRANCH  17  18
HETATM   18  C19 UNL     1     -49.471  -0.919  58.509  1.00  0.00     0.056 C 
HETATM   19  C20 UNL     1     -48.585  -1.695  57.764  1.00  0.00     0.019 C 
BRANCH  19  20
HETATM   20  C21 UNL     1     -47.221  -1.805  58.232  1.00  0.00    -0.036 A 
HETATM   21  C22 UNL     1     -46.247  -1.674  57.270  1.00  0.00     0.011 A 
HETATM   22  C23 UNL     1     -44.911  -1.814  57.590  1.00  0.00     0.001 A 
HETATM   23  C24 UNL     1     -44.527  -2.101  58.845  1.00  0.00     0.000 A 
HETATM   24  C25 UNL     1     -45.471  -2.254  59.870  1.00  0.00     0.001 A 
HETATM   25  C26 UNL     1     -46.818  -2.090  59.493  1.00  0.00     0.011 A 
ENDBRANCH  19  20
ENDBRANCH  17  18
ENDBRANCH  16  17
ENDBRANCH  13  16
BRANCH  15  26
HETATM   26  C29 UNL     1     -51.137  -1.817  54.778  1.00  0.00     0.038 C 
BRANCH  26  27
HETATM   27  C30 UNL     1     -51.213  -3.243  54.579  1.00  0.00    -0.030 C 
HETATM   28  C31 UNL     1     -52.216  -4.060  55.028  1.00  0.00    -0.029 C 
BRANCH  28  29
HETATM   29  C32 UNL     1     -53.376  -3.512  55.734  1.00  0.00     0.054 C 
BRANCH  29  30
HETATM   30  C33 UNL     1     -53.828  -4.526  56.759  1.00  0.00     0.233 C 
BRANCH  30  31
HETATM   31  N1  UNL     1     -53.177  -4.319  58.019  1.00  0.00    -0.079 N 
ATOM     32  H13 UNL     1     -53.791  -3.851  58.686  1.00  0.00     0.274 HD
ATOM     33  H12 UNL     1     -53.042  -5.197  58.519  1.00  0.00     0.274 HD
ATOM     34  H11 UNL     1     -52.297  -3.815  57.904  1.00  0.00     0.274 HD
ENDBRANCH  30  31
ENDBRANCH  29  30
ENDBRANCH  28  29
ENDBRANCH  26  27
ENDBRANCH  15  26
BRANCH   3  35
HETATM   35  O3  UNL     1     -53.721   2.635  53.304  1.00  0.00    -0.365 OA
HETATM   36  C8  UNL     1     -53.100   3.195  52.245  1.00  0.00     0.204 C 
ENDBRANCH   3  35
BRANCH   1  37
HETATM   37  C2  UNL     1     -52.897  -1.076  51.831  1.00  0.00    -0.050 C 
HETATM   38  C1  UNL     1     -52.674  -0.747  50.534  1.00  0.00     0.017 C 
BRANCH  37  39
HETATM   39  C3  UNL     1     -53.863  -2.264  51.875  1.00  0.00     0.073 C 
HETATM   40  C4  UNL     1     -55.074  -2.093  51.003  1.00  0.00     0.022 C 
BRANCH  39  41
HETATM   41  C5  UNL     1     -53.107  -3.477  51.350  1.00  0.00     0.239 C 
HETATM   42  O1  UNL     1     -53.376  -4.570  51.813  1.00  0.00    -0.306 OA
ENDBRANCH  39  41
ENDBRANCH  37  39
ENDBRANCH   1  37
TORSDOF 13
ENDMDL
MODEL 5
REMARK VINA RESULT: -6.990634677      2.783      7.081
REMARK  13 active torsions:
REMARK  status: ('A' for Active; 'I' for Inactive)
REMARK    1  A    between atoms: C2_2  and  C3_3 
REMARK    2  A    between atoms: C2_2  and  C6_7 
REMARK    3  A    between atoms: C3_3  and  C5_5 
REMARK    4  A    between atoms: C7_9  and  O3_10 
REMARK    5  A    between atoms: C16_21  and  C17_22 
REMARK    6  A    between atoms: C17_22  and  C18_23 
REMARK    7  A    between atoms: C18_23  and  C19_24 
REMARK    8  A    between atoms: C20_25  and  C21_26 
REMARK    9  A    between atoms: C28_33  and  C29_34 
REMARK   10  A    between atoms: C29_34  and  C30_35 
REMARK   11  A    between atoms: C31_36  and  C32_37 
REMARK   12  A    between atoms: C32_37  and  C33_38 
REMARK   13  A    between atoms: C33_38  and  N1_39 
ROOT
HETATM    1  C6  UNL     1     -51.727  -2.442  54.635  1.00  0.00     0.162 C 
HETATM    2  O2  UNL     1     -51.983  -1.266  53.842  1.00  0.00    -0.350 OA
HETATM    3  C7  UNL     1     -53.295  -0.818  53.986  1.00  0.00     0.270 C 
HETATM    4  C9  UNL     1     -53.605  -0.480  55.414  1.00  0.00     0.102 C 
HETATM    5  C10 UNL     1     -54.460   0.653  55.705  1.00  0.00     0.167 C 
HETATM    6  O4  UNL     1     -54.919   1.445  54.661  1.00  0.00    -0.347 OA
HETATM    7  C11 UNL     1     -55.325   2.655  55.202  1.00  0.00     0.158 C 
HETATM    8  C12 UNL     1     -56.603   2.428  55.973  1.00  0.00     0.078 C 
HETATM    9  C13 UNL     1     -55.483   3.641  54.079  1.00  0.00     0.078 C 
HETATM   10  O5  UNL     1     -54.262   2.934  56.045  1.00  0.00    -0.348 OA
HETATM   11  C14 UNL     1     -53.981   1.678  56.675  1.00  0.00     0.159 C 
HETATM   12  C15 UNL     1     -52.553   1.638  57.017  1.00  0.00     0.074 C 
HETATM   13  C16 UNL     1     -52.053   0.255  57.188  1.00  0.00    -0.045 C 
HETATM   14  C27 UNL     1     -52.246  -0.619  56.114  1.00  0.00    -0.054 C 
HETATM   15  C28 UNL     1     -51.988  -2.113  56.083  1.00  0.00     0.052 C 
ENDROOT
BRANCH  13  16
HETATM   16  C17 UNL     1     -51.804  -0.101  58.650  1.00  0.00     0.063 C 
BRANCH  16  17
HETATM   17  C18 UNL     1     -52.675  -0.861  59.188  1.00  0.00    -0.128 C 
BRANCH  17  18
HETATM   18  C19 UNL     1     -53.635  -1.702  59.770  1.00  0.00     0.056 C 
HETATM   19  C20 UNL     1     -53.707  -2.992  59.248  1.00  0.00     0.019 C 
BRANCH  19  20
HETATM   20  C21 UNL     1     -54.683  -3.897  59.811  1.00  0.00    -0.036 A 
HETATM   21  C22 UNL     1     -55.151  -3.569  61.063  1.00  0.00     0.011 A 
HETATM   22  C23 UNL     1     -56.044  -4.389  61.724  1.00  0.00     0.001 A 
HETATM   23  C24 UNL     1     -56.467  -5.537  61.171  1.00  0.00     0.000 A 
HETATM   24  C25 UNL     1     -56.024  -5.933  59.902  1.00  0.00     0.001 A 
HETATM   25  C26 UNL     1     -55.123  -5.057  59.267  1.00  0.00     0.011 A 
ENDBRANCH  19  20
ENDBRANCH  17  18
ENDBRANCH  16  17
ENDBRANCH  13  16
BRANCH  15  26
HETATM   26  C29 UNL     1     -50.768  -2.458  56.933  1.00  0.00     0.038 C 
BRANCH  26  27
HETATM   27  C30 UNL     1     -49.498  -2.404  56.251  1.00  0.00    -0.030 C 
HETATM   28  C31 UNL     1     -48.294  -2.099  56.826  1.00  0.00    -0.029 C 
BRANCH  28  29
HETATM   29  C32 UNL     1     -48.189  -1.844  58.264  1.00  0.00     0.054 C 
BRANCH  29  30
HETATM   30  C33 UNL     1     -46.767  -2.129  58.692  1.00  0.00     0.233 C 
BRANCH  30  31
HETATM   31  N1  UNL     1     -45.826  -1.643  57.727  1.00  0.00    -0.079 N 
ATOM     32  H13 UNL     1     -44.998  -1.250  58.177  1.00  0.00     0.274 HD
ATOM     33  H12 UNL     1     -45.381  -2.408  57.221  1.00  0.00     0.274 HD
ATOM     34  H11 UNL     1     -46.258  -0.973  57.091  1.00  0.00     0.274 HD
ENDBRANCH  30  31
ENDBRANCH  29  30
ENDBRANCH  28  29
ENDBRANCH  26  27
ENDBRANCH  15  26
BRANCH   3  35
HETATM   35  O3  UNL     1     -53.380   0.271  53.138  1.00  0.00    -0.365 OA
HETATM   36  C8  UNL     1     -52.231   0.683  52.564  1.00  0.00     0.204 C 
ENDBRANCH   3  35
BRANCH   1  37
HETATM   37  C2  UNL     1     -52.366  -3.579  54.014  1.00  0.00    -0.050 C 
HETATM   38  C1  UNL     1     -52.278  -3.859  52.690  1.00  0.00     0.017 C 
BRANCH  37  39
HETATM   39  C3  UNL     1     -53.061  -4.750  54.717  1.00  0.00     0.073 C 
HETATM   40  C4  UNL     1     -54.469  -4.451  55.145  1.00  0.00     0.022 C 
BRANCH  39  41
HETATM   41  C5  UNL     1     -53.137  -5.893  53.715  1.00  0.00     0.239 C 
HETATM   42  O1  UNL     1     -52.928  -7.025  54.113  1.00  0.00    -0.306 OA
ENDBRANCH  39  41
ENDBRANCH  37  39
ENDBRANCH   1  37
TORSDOF 13
ENDMDL
