MODEL 1
REMARK VINA RESULT: -6.163152825      0.000      0.000
REMARK  11 active torsions:
REMARK  status: ('A' for Active; 'I' for Inactive)
REMARK    1  A    between atoms: O1_1  and  C1_3 
REMARK    2  A    between atoms: C1_3  and  C2_4 
REMARK    3  A    between atoms: C2_4  and  C3_5 
REMARK    4  A    between atoms: C5_8  and  C6_9 
REMARK    5  A    between atoms: C7_10  and  C8_11 
REMARK    6  A    between atoms: C8_11  and  C9_12 
REMARK    7  A    between atoms: C9_12  and  C10_13 
REMARK    8  A    between atoms: C10_13  and  C11_14 
REMARK    9  A    between atoms: C11_14  and  C12_15 
REMARK   10  A    between atoms: C12_15  and  N2_16 
REMARK   11  A    between atoms: N3_32  and  C26_33 
ROOT
HETATM    1  C6  UNL     1     -51.190  -2.010  56.640  1.00  0.00     0.004 A 
HETATM    2  C7  UNL     1     -51.285  -2.585  55.363  1.00  0.00    -0.004 A 
HETATM    3  S1  UNL     1     -49.672  -2.887  54.954  1.00  0.00    -0.093 SA
HETATM    4  C17 UNL     1     -48.905  -2.306  56.346  1.00  0.00     0.016 A 
HETATM    5  C18 UNL     1     -47.549  -2.261  56.725  1.00  0.00     0.019 A 
HETATM    6  C19 UNL     1     -47.194  -1.758  57.960  1.00  0.00     0.001 A 
HETATM    7  C20 UNL     1     -48.218  -1.326  58.751  1.00  0.00     0.001 A 
HETATM    8  C21 UNL     1     -49.530  -1.372  58.378  1.00  0.00     0.014 A 
HETATM    9  C22 UNL     1     -49.926  -1.878  57.124  1.00  0.00    -0.006 A 
ENDROOT
BRANCH   1  10
HETATM   10  C5  UNL     1     -52.448  -1.718  57.394  1.00  0.00     0.104 C 
HETATM   11  N1  UNL     1     -52.926  -2.605  58.313  1.00  0.00    -0.363 N 
HETATM   12  C4  UNL     1     -53.277  -3.946  58.113  1.00  0.00     0.115 C 
HETATM   13  C23 UNL     1     -53.536  -1.986  59.479  1.00  0.00     0.133 C 
HETATM   14  C3  UNL     1     -54.725  -4.273  58.187  1.00  0.00     0.029 C 
HETATM   15  N3  UNL     1     -55.614  -3.207  57.861  1.00  0.00    -0.358 N 
HETATM   16  C25 UNL     1     -55.929  -2.376  58.948  1.00  0.00     0.066 C 
HETATM   17  C24 UNL     1     -54.833  -1.340  59.195  1.00  0.00     0.065 C 
BRANCH  14  18
HETATM   18  C2  UNL     1     -55.182  -5.062  59.371  1.00  0.00     0.084 C 
BRANCH  18  19
HETATM   19  C1  UNL     1     -55.399  -6.526  59.152  1.00  0.00     0.170 C 
BRANCH  19  20
HETATM   20  O1  UNL     1     -54.310  -7.295  58.961  1.00  0.00    -0.400 OA
ATOM     21  H1  UNL     1     -54.053  -7.478  58.064  1.00  0.00     0.209 HD
ENDBRANCH  19  20
ENDBRANCH  18  19
ENDBRANCH  14  18
BRANCH  15  22
HETATM   22  C26 UNL     1     -56.605  -3.613  56.955  1.00  0.00     0.089 C 
HETATM   23  C27 UNL     1     -56.117  -4.151  55.644  1.00  0.00     0.026 C 
HETATM   24  C28 UNL     1     -56.050  -3.134  54.527  1.00  0.00     0.002 C 
HETATM   25  C29 UNL     1     -57.302  -2.313  54.382  1.00  0.00     0.000 C 
HETATM   26  C30 UNL     1     -57.429  -1.572  55.719  1.00  0.00     0.002 C 
HETATM   27  C31 UNL     1     -57.747  -2.668  56.711  1.00  0.00     0.026 C 
ENDBRANCH  15  22
ENDBRANCH   1  10
BRANCH   2  28
HETATM   28  C8  UNL     1     -52.543  -2.838  54.608  1.00  0.00     0.047 C 
BRANCH  28  29
HETATM   29  C9  UNL     1     -52.179  -3.104  53.170  1.00  0.00     0.005 C 
BRANCH  29  30
HETATM   30  C10 UNL     1     -52.787  -4.316  52.566  1.00  0.00     0.002 C 
BRANCH  30  31
HETATM   31  C11 UNL     1     -53.163  -5.362  53.572  1.00  0.00     0.030 C 
BRANCH  31  32
HETATM   32  C12 UNL     1     -54.272  -6.224  53.121  1.00  0.00     0.272 C 
BRANCH  32  33
HETATM   33  N2  UNL     1     -54.017  -7.646  53.428  1.00  0.00     0.092 N 
HETATM   34  C13 UNL     1     -55.179  -8.159  54.091  1.00  0.00     0.298 C 
HETATM   35  C14 UNL     1     -55.269  -7.856  55.558  1.00  0.00     0.198 C 
HETATM   36  O2  UNL     1     -54.144  -8.276  56.261  1.00  0.00    -0.388 OA
HETATM   37  C15 UNL     1     -53.182  -8.761  55.392  1.00  0.00     0.198 C 
HETATM   38  C16 UNL     1     -52.886  -7.725  54.346  1.00  0.00     0.298 C 
ENDBRANCH  32  33
ENDBRANCH  31  32
ENDBRANCH  30  31
ENDBRANCH  29  30
ENDBRANCH  28  29
ENDBRANCH   2  28
TORSDOF 11
ENDMDL
MODEL 2
REMARK VINA RESULT: -6.145644626      3.266      6.694
REMARK  11 active torsions:
REMARK  status: ('A' for Active; 'I' for Inactive)
REMARK    1  A    between atoms: O1_1  and  C1_3 
REMARK    2  A    between atoms: C1_3  and  C2_4 
REMARK    3  A    between atoms: C2_4  and  C3_5 
REMARK    4  A    between atoms: C5_8  and  C6_9 
REMARK    5  A    between atoms: C7_10  and  C8_11 
REMARK    6  A    between atoms: C8_11  and  C9_12 
REMARK    7  A    between atoms: C9_12  and  C10_13 
REMARK    8  A    between atoms: C10_13  and  C11_14 
REMARK    9  A    between atoms: C11_14  and  C12_15 
REMARK   10  A    between atoms: C12_15  and  N2_16 
REMARK   11  A    between atoms: N3_32  and  C26_33 
ROOT
HETATM    1  C6  UNL     1     -52.149  -2.076  56.309  1.00  0.00     0.004 A 
HETATM    2  C7  UNL     1     -50.752  -2.079  56.449  1.00  0.00    -0.004 A 
HETATM    3  S1  UNL     1     -50.223  -2.836  55.033  1.00  0.00    -0.093 SA
HETATM    4  C17 UNL     1     -51.714  -3.141  54.291  1.00  0.00     0.016 A 
HETATM    5  C18 UNL     1     -52.048  -3.728  53.055  1.00  0.00     0.019 A 
HETATM    6  C19 UNL     1     -53.370  -3.821  52.671  1.00  0.00     0.001 A 
HETATM    7  C20 UNL     1     -54.289  -3.320  53.546  1.00  0.00     0.001 A 
HETATM    8  C21 UNL     1     -53.958  -2.752  54.742  1.00  0.00     0.014 A 
HETATM    9  C22 UNL     1     -52.619  -2.643  55.165  1.00  0.00    -0.006 A 
ENDROOT
BRANCH   1  10
HETATM   10  C5  UNL     1     -52.975  -1.361  57.331  1.00  0.00     0.104 C 
HETATM   11  N1  UNL     1     -53.219  -1.928  58.546  1.00  0.00    -0.363 N 
HETATM   12  C4  UNL     1     -53.834  -3.159  58.813  1.00  0.00     0.115 C 
HETATM   13  C23 UNL     1     -53.246  -0.985  59.651  1.00  0.00     0.133 C 
HETATM   14  C3  UNL     1     -55.185  -3.108  59.430  1.00  0.00     0.029 C 
HETATM   15  N3  UNL     1     -55.943  -1.933  59.152  1.00  0.00    -0.358 N 
HETATM   16  C25 UNL     1     -55.695  -0.872  60.037  1.00  0.00     0.066 C 
HETATM   17  C24 UNL     1     -54.431  -0.105  59.649  1.00  0.00     0.065 C 
BRANCH  14  18
HETATM   18  C2  UNL     1     -55.296  -3.540  60.856  1.00  0.00     0.084 C 
BRANCH  18  19
HETATM   19  C1  UNL     1     -56.032  -4.818  61.108  1.00  0.00     0.170 C 
BRANCH  19  20
HETATM   20  O1  UNL     1     -56.033  -5.298  62.367  1.00  0.00    -0.400 OA
ATOM     21  H1  UNL     1     -55.200  -5.572  62.732  1.00  0.00     0.209 HD
ENDBRANCH  19  20
ENDBRANCH  18  19
ENDBRANCH  14  18
BRANCH  15  22
HETATM   22  C26 UNL     1     -57.251  -2.241  58.746  1.00  0.00     0.089 C 
HETATM   23  C27 UNL     1     -57.389  -3.378  57.780  1.00  0.00     0.026 C 
HETATM   24  C28 UNL     1     -57.442  -2.970  56.324  1.00  0.00     0.002 C 
HETATM   25  C29 UNL     1     -58.412  -1.855  56.044  1.00  0.00     0.000 C 
HETATM   26  C30 UNL     1     -57.885  -0.675  56.870  1.00  0.00     0.002 C 
HETATM   27  C31 UNL     1     -58.123  -1.101  58.301  1.00  0.00     0.026 C 
ENDBRANCH  15  22
ENDBRANCH   1  10
BRANCH   2  28
HETATM   28  C8  UNL     1     -49.986  -1.526  57.600  1.00  0.00     0.047 C 
BRANCH  28  29
HETATM   29  C9  UNL     1     -48.759  -2.377  57.795  1.00  0.00     0.005 C 
BRANCH  29  30
HETATM   30  C10 UNL     1     -47.607  -1.704  58.447  1.00  0.00     0.002 C 
BRANCH  30  31
HETATM   31  C11 UNL     1     -46.509  -2.645  58.842  1.00  0.00     0.030 C 
BRANCH  31  32
HETATM   32  C12 UNL     1     -45.361  -1.963  59.467  1.00  0.00     0.272 C 
BRANCH  32  33
HETATM   33  N2  UNL     1     -44.748  -2.786  60.529  1.00  0.00     0.092 N 
HETATM   34  C13 UNL     1     -43.432  -2.273  60.768  1.00  0.00     0.298 C 
HETATM   35  C14 UNL     1     -42.379  -2.732  59.801  1.00  0.00     0.198 C 
HETATM   36  O2  UNL     1     -42.299  -4.118  59.716  1.00  0.00    -0.388 OA
HETATM   37  C15 UNL     1     -43.301  -4.710  60.465  1.00  0.00     0.198 C 
HETATM   38  C16 UNL     1     -44.633  -4.156  60.042  1.00  0.00     0.298 C 
ENDBRANCH  32  33
ENDBRANCH  31  32
ENDBRANCH  30  31
ENDBRANCH  29  30
ENDBRANCH  28  29
ENDBRANCH   2  28
TORSDOF 11
ENDMDL
MODEL 3
REMARK VINA RESULT: -6.103201001      3.339      7.262
REMARK  11 active torsions:
REMARK  status: ('A' for Active; 'I' for Inactive)
REMARK    1  A    between atoms: O1_1  and  C1_3 
REMARK    2  A    between atoms: C1_3  and  C2_4 
REMARK    3  A    between atoms: C2_4  and  C3_5 
REMARK    4  A    between atoms: C5_8  and  C6_9 
REMARK    5  A    between atoms: C7_10  and  C8_11 
REMARK    6  A    between atoms: C8_11  and  C9_12 
REMARK    7  A    between atoms: C9_12  and  C10_13 
REMARK    8  A    between atoms: C10_13  and  C11_14 
REMARK    9  A    between atoms: C11_14  and  C12_15 
REMARK   10  A    between atoms: C12_15  and  N2_16 
REMARK   11  A    between atoms: N3_32  and  C26_33 
ROOT
HETATM    1  C6  UNL     1     -54.151  -4.950  56.689  1.00  0.00     0.004 A 
HETATM    2  C7  UNL     1     -54.830  -4.975  57.917  1.00  0.00    -0.004 A 
HETATM    3  S1  UNL     1     -55.025  -6.628  58.218  1.00  0.00    -0.093 SA
HETATM    4  C17 UNL     1     -54.275  -7.265  56.840  1.00  0.00     0.016 A 
HETATM    5  C18 UNL     1     -54.038  -8.589  56.426  1.00  0.00     0.019 A 
HETATM    6  C19 UNL     1     -53.357  -8.833  55.251  1.00  0.00     0.001 A 
HETATM    7  C20 UNL     1     -52.950  -7.734  54.552  1.00  0.00     0.001 A 
HETATM    8  C21 UNL     1     -53.184  -6.453  54.960  1.00  0.00     0.014 A 
HETATM    9  C22 UNL     1     -53.877  -6.170  56.153  1.00  0.00    -0.006 A 
ENDROOT
BRANCH   1  10
HETATM   10  C5  UNL     1     -53.682  -3.636  56.151  1.00  0.00     0.104 C 
HETATM   11  N1  UNL     1     -52.400  -3.220  56.355  1.00  0.00    -0.363 N 
HETATM   12  C4  UNL     1     -51.742  -3.031  57.577  1.00  0.00     0.115 C 
HETATM   13  C23 UNL     1     -51.822  -2.494  55.236  1.00  0.00     0.133 C 
HETATM   14  C3  UNL     1     -51.438  -1.626  57.959  1.00  0.00     0.029 C 
HETATM   15  N3  UNL     1     -52.310  -0.639  57.414  1.00  0.00    -0.358 N 
HETATM   16  C25 UNL     1     -51.933  -0.186  56.140  1.00  0.00     0.066 C 
HETATM   17  C24 UNL     1     -52.394  -1.147  55.045  1.00  0.00     0.065 C 
BRANCH  14  18
HETATM   18  C2  UNL     1     -50.003  -1.209  57.924  1.00  0.00     0.084 C 
BRANCH  18  19
HETATM   19  C1  UNL     1     -48.997  -2.303  57.753  1.00  0.00     0.170 C 
BRANCH  19  20
HETATM   20  O1  UNL     1     -48.446  -2.456  56.534  1.00  0.00    -0.400 OA
ATOM     21  H1  UNL     1     -48.157  -1.672  56.081  1.00  0.00     0.209 HD
ENDBRANCH  19  20
ENDBRANCH  18  19
ENDBRANCH  14  18
BRANCH  15  22
HETATM   22  C26 UNL     1     -52.757   0.260  58.394  1.00  0.00     0.089 C 
HETATM   23  C27 UNL     1     -53.660  -0.309  59.446  1.00  0.00     0.026 C 
HETATM   24  C28 UNL     1     -55.138  -0.148  59.169  1.00  0.00     0.002 C 
HETATM   25  C29 UNL     1     -55.528   1.249  58.769  1.00  0.00     0.000 C 
HETATM   26  C30 UNL     1     -54.750   1.507  57.473  1.00  0.00     0.002 C 
HETATM   27  C31 UNL     1     -53.309   1.577  57.925  1.00  0.00     0.026 C 
ENDBRANCH  15  22
ENDBRANCH   1  10
BRANCH   2  28
HETATM   28  C8  UNL     1     -55.248  -3.786  58.711  1.00  0.00     0.047 C 
BRANCH  28  29
HETATM   29  C9  UNL     1     -54.387  -3.723  59.945  1.00  0.00     0.005 C 
BRANCH  29  30
HETATM   30  C10 UNL     1     -55.116  -3.603  61.232  1.00  0.00     0.002 C 
BRANCH  30  31
HETATM   31  C11 UNL     1     -56.577  -3.922  61.125  1.00  0.00     0.030 C 
BRANCH  31  32
HETATM   32  C12 UNL     1     -57.425  -3.024  61.932  1.00  0.00     0.272 C 
BRANCH  32  33
HETATM   33  N2  UNL     1     -58.227  -3.772  62.920  1.00  0.00     0.092 N 
HETATM   34  C13 UNL     1     -57.773  -3.389  64.224  1.00  0.00     0.298 C 
HETATM   35  C14 UNL     1     -56.531  -4.084  64.701  1.00  0.00     0.198 C 
HETATM   36  O2  UNL     1     -56.649  -5.471  64.669  1.00  0.00    -0.388 OA
HETATM   37  C15 UNL     1     -57.849  -5.843  64.089  1.00  0.00     0.198 C 
HETATM   38  C16 UNL     1     -57.972  -5.197  62.738  1.00  0.00     0.298 C 
ENDBRANCH  32  33
ENDBRANCH  31  32
ENDBRANCH  30  31
ENDBRANCH  29  30
ENDBRANCH  28  29
ENDBRANCH   2  28
TORSDOF 11
ENDMDL
MODEL 4
REMARK VINA RESULT: -5.975519092      2.436      4.477
REMARK  11 active torsions:
REMARK  status: ('A' for Active; 'I' for Inactive)
REMARK    1  A    between atoms: O1_1  and  C1_3 
REMARK    2  A    between atoms: C1_3  and  C2_4 
REMARK    3  A    between atoms: C2_4  and  C3_5 
REMARK    4  A    between atoms: C5_8  and  C6_9 
REMARK    5  A    between atoms: C7_10  and  C8_11 
REMARK    6  A    between atoms: C8_11  and  C9_12 
REMARK    7  A    between atoms: C9_12  and  C10_13 
REMARK    8  A    between atoms: C10_13  and  C11_14 
REMARK    9  A    between atoms: C11_14  and  C12_15 
REMARK   10  A    between atoms: C12_15  and  N2_16 
REMARK   11  A    between atoms: N3_32  and  C26_33 
ROOT
HETATM    1  C6  UNL     1     -51.120  -2.040  56.572  1.00  0.00     0.004 A 
HETATM    2  C7  UNL     1     -51.166  -2.648  55.308  1.00  0.00    -0.004 A 
HETATM    3  S1  UNL     1     -49.538  -2.947  54.963  1.00  0.00    -0.093 SA
HETATM    4  C17 UNL     1     -48.824  -2.324  56.366  1.00  0.00     0.016 A 
HETATM    5  C18 UNL     1     -47.483  -2.258  56.790  1.00  0.00     0.019 A 
HETATM    6  C19 UNL     1     -47.175  -1.721  58.023  1.00  0.00     0.001 A 
HETATM    7  C20 UNL     1     -48.229  -1.277  58.767  1.00  0.00     0.001 A 
HETATM    8  C21 UNL     1     -49.527  -1.344  58.350  1.00  0.00     0.014 A 
HETATM    9  C22 UNL     1     -49.875  -1.885  57.097  1.00  0.00    -0.006 A 
ENDROOT
BRANCH   1  10
HETATM   10  C5  UNL     1     -52.406  -1.740  57.275  1.00  0.00     0.104 C 
HETATM   11  N1  UNL     1     -52.901  -2.598  58.210  1.00  0.00    -0.363 N 
HETATM   12  C4  UNL     1     -53.227  -3.952  58.049  1.00  0.00     0.115 C 
HETATM   13  C23 UNL     1     -53.558  -1.946  59.332  1.00  0.00     0.133 C 
HETATM   14  C3  UNL     1     -54.672  -4.298  58.090  1.00  0.00     0.029 C 
HETATM   15  N3  UNL     1     -55.564  -3.258  57.696  1.00  0.00    -0.358 N 
HETATM   16  C25 UNL     1     -55.926  -2.392  58.740  1.00  0.00     0.066 C 
HETATM   17  C24 UNL     1     -54.853  -1.331  58.983  1.00  0.00     0.065 C 
BRANCH  14  18
HETATM   18  C2  UNL     1     -55.156  -5.049  59.288  1.00  0.00     0.084 C 
BRANCH  18  19
HETATM   19  C1  UNL     1     -55.337  -6.524  59.119  1.00  0.00     0.170 C 
BRANCH  19  20
HETATM   20  O1  UNL     1     -54.253  -7.250  58.781  1.00  0.00    -0.400 OA
ATOM     21  H1  UNL     1     -53.530  -6.792  58.368  1.00  0.00     0.209 HD
ENDBRANCH  19  20
ENDBRANCH  18  19
ENDBRANCH  14  18
BRANCH  15  22
HETATM   22  C26 UNL     1     -56.519  -3.713  56.775  1.00  0.00     0.089 C 
HETATM   23  C27 UNL     1     -56.090  -4.838  55.882  1.00  0.00     0.026 C 
HETATM   24  C28 UNL     1     -55.553  -4.410  54.535  1.00  0.00     0.002 C 
HETATM   25  C29 UNL     1     -56.428  -3.414  53.825  1.00  0.00     0.000 C 
HETATM   26  C30 UNL     1     -56.455  -2.196  54.757  1.00  0.00     0.002 C 
HETATM   27  C31 UNL     1     -57.239  -2.677  55.957  1.00  0.00     0.026 C 
ENDBRANCH  15  22
ENDBRANCH   1  10
BRANCH   2  28
HETATM   28  C8  UNL     1     -52.395  -2.932  54.516  1.00  0.00     0.047 C 
BRANCH  28  29
HETATM   29  C9  UNL     1     -52.186  -2.398  53.123  1.00  0.00     0.005 C 
BRANCH  29  30
HETATM   30  C10 UNL     1     -52.141  -0.920  53.001  1.00  0.00     0.002 C 
BRANCH  30  31
HETATM   31  C11 UNL     1     -53.256  -0.224  53.723  1.00  0.00     0.030 C 
BRANCH  31  32
HETATM   32  C12 UNL     1     -52.784   0.846  54.621  1.00  0.00     0.272 C 
BRANCH  32  33
HETATM   33  N2  UNL     1     -53.883   1.746  55.023  1.00  0.00     0.092 N 
HETATM   34  C13 UNL     1     -53.316   2.790  55.824  1.00  0.00     0.298 C 
HETATM   35  C14 UNL     1     -53.075   2.436  57.263  1.00  0.00     0.198 C 
HETATM   36  O2  UNL     1     -54.223   1.972  57.898  1.00  0.00    -0.388 OA
HETATM   37  C15 UNL     1     -55.263   1.848  56.994  1.00  0.00     0.198 C 
HETATM   38  C16 UNL     1     -54.823   0.990  55.842  1.00  0.00     0.298 C 
ENDBRANCH  32  33
ENDBRANCH  31  32
ENDBRANCH  30  31
ENDBRANCH  29  30
ENDBRANCH  28  29
ENDBRANCH   2  28
TORSDOF 11
ENDMDL
MODEL 5
REMARK VINA RESULT: -5.969701995      3.481      6.896
REMARK  11 active torsions:
REMARK  status: ('A' for Active; 'I' for Inactive)
REMARK    1  A    between atoms: O1_1  and  C1_3 
REMARK    2  A    between atoms: C1_3  and  C2_4 
REMARK    3  A    between atoms: C2_4  and  C3_5 
REMARK    4  A    between atoms: C5_8  and  C6_9 
REMARK    5  A    between atoms: C7_10  and  C8_11 
REMARK    6  A    between atoms: C8_11  and  C9_12 
REMARK    7  A    between atoms: C9_12  and  C10_13 
REMARK    8  A    between atoms: C10_13  and  C11_14 
REMARK    9  A    between atoms: C11_14  and  C12_15 
REMARK   10  A    between atoms: C12_15  and  N2_16 
REMARK   11  A    between atoms: N3_32  and  C26_33 
ROOT
HETATM    1  C6  UNL     1     -51.708  -1.854  56.511  1.00  0.00     0.004 A 
HETATM    2  C7  UNL     1     -50.335  -2.063  56.716  1.00  0.00    -0.004 A 
HETATM    3  S1  UNL     1     -49.846  -2.846  55.299  1.00  0.00    -0.093 SA
HETATM    4  C17 UNL     1     -51.324  -2.908  54.477  1.00  0.00     0.016 A 
HETATM    5  C18 UNL     1     -51.674  -3.403  53.205  1.00  0.00     0.019 A 
HETATM    6  C19 UNL     1     -52.973  -3.292  52.755  1.00  0.00     0.001 A 
HETATM    7  C20 UNL     1     -53.855  -2.690  53.604  1.00  0.00     0.001 A 
HETATM    8  C21 UNL     1     -53.510  -2.213  54.835  1.00  0.00     0.014 A 
HETATM    9  C22 UNL     1     -52.193  -2.312  55.325  1.00  0.00    -0.006 A 
ENDROOT
BRANCH   1  10
HETATM   10  C5  UNL     1     -52.474  -1.058  57.518  1.00  0.00     0.104 C 
HETATM   11  N1  UNL     1     -53.170  -1.682  58.510  1.00  0.00    -0.363 N 
HETATM   12  C4  UNL     1     -54.195  -2.628  58.379  1.00  0.00     0.115 C 
HETATM   13  C23 UNL     1     -53.152  -0.981  59.784  1.00  0.00     0.133 C 
HETATM   14  C3  UNL     1     -55.563  -2.185  58.757  1.00  0.00     0.029 C 
HETATM   15  N3  UNL     1     -55.811  -0.787  58.636  1.00  0.00    -0.358 N 
HETATM   16  C25 UNL     1     -55.450  -0.044  59.772  1.00  0.00     0.066 C 
HETATM   17  C24 UNL     1     -53.952   0.259  59.789  1.00  0.00     0.065 C 
BRANCH  14  18
HETATM   18  C2  UNL     1     -56.143  -2.768  60.005  1.00  0.00     0.084 C 
BRANCH  18  19
HETATM   19  C1  UNL     1     -55.373  -3.883  60.639  1.00  0.00     0.170 C 
BRANCH  19  20
HETATM   20  O1  UNL     1     -55.398  -3.971  61.983  1.00  0.00    -0.400 OA
ATOM     21  H1  UNL     1     -55.373  -4.840  62.367  1.00  0.00     0.209 HD
ENDBRANCH  19  20
ENDBRANCH  18  19
ENDBRANCH  14  18
BRANCH  15  22
HETATM   22  C26 UNL     1     -57.012  -0.527  57.959  1.00  0.00     0.089 C 
HETATM   23  C27 UNL     1     -57.242  -1.313  56.703  1.00  0.00     0.026 C 
HETATM   24  C28 UNL     1     -56.817  -0.614  55.431  1.00  0.00     0.002 C 
HETATM   25  C29 UNL     1     -57.315   0.802  55.324  1.00  0.00     0.000 C 
HETATM   26  C30 UNL     1     -56.680   1.522  56.521  1.00  0.00     0.002 C 
HETATM   27  C31 UNL     1     -57.373   0.912  57.718  1.00  0.00     0.026 C 
ENDBRANCH  15  22
ENDBRANCH   1  10
BRANCH   2  28
HETATM   28  C8  UNL     1     -49.559  -1.663  57.922  1.00  0.00     0.047 C 
BRANCH  28  29
HETATM   29  C9  UNL     1     -48.288  -2.471  57.949  1.00  0.00     0.005 C 
BRANCH  29  30
HETATM   30  C10 UNL     1     -47.055  -1.719  58.292  1.00  0.00     0.002 C 
BRANCH  30  31
HETATM   31  C11 UNL     1     -45.928  -2.595  58.753  1.00  0.00     0.030 C 
BRANCH  31  32
HETATM   32  C12 UNL     1     -44.906  -1.862  59.523  1.00  0.00     0.272 C 
BRANCH  32  33
HETATM   33  N2  UNL     1     -44.326  -2.699  60.593  1.00  0.00     0.092 N 
HETATM   34  C13 UNL     1     -42.968  -2.280  60.780  1.00  0.00     0.298 C 
HETATM   35  C14 UNL     1     -41.981  -2.846  59.800  1.00  0.00     0.198 C 
HETATM   36  O2  UNL     1     -42.009  -4.236  59.757  1.00  0.00    -0.388 OA
HETATM   37  C15 UNL     1     -43.030  -4.728  60.550  1.00  0.00     0.198 C 
HETATM   38  C16 UNL     1     -44.328  -4.087  60.147  1.00  0.00     0.298 C 
ENDBRANCH  32  33
ENDBRANCH  31  32
ENDBRANCH  30  31
ENDBRANCH  29  30
ENDBRANCH  28  29
ENDBRANCH   2  28
TORSDOF 11
ENDMDL
