MODEL 1
REMARK VINA RESULT: -8.179374038      0.000      0.000
REMARK  12 active torsions:
REMARK  status: ('A' for Active; 'I' for Inactive)
REMARK    1  A    between atoms: C2_2  and  O1_3 
REMARK    2  A    between atoms: O1_3  and  C3_4 
REMARK    3  A    between atoms: C3_4  and  C4_5 
REMARK    4  A    between atoms: C4_5  and  C5_6 
REMARK    5  A    between atoms: C5_6  and  N1_7 
REMARK    6  A    between atoms: N1_7  and  C6_8 
REMARK    7  A    between atoms: N1_7  and  C31_36 
REMARK    8  A    between atoms: C6_8  and  C7_9 
REMARK    9  A    between atoms: C8_10  and  C10_12 
REMARK   10  A    between atoms: C11_13  and  C12_14 
REMARK   11  A    between atoms: C31_36  and  C32_37 
REMARK   12  A    between atoms: C32_37  and  O5_38 
ROOT
HETATM    1  C12 UNL     1     -52.126  -2.085  57.177  1.00  0.00    -0.014 C 
HETATM    2  C13 UNL     1     -52.458  -3.208  58.165  1.00  0.00     0.021 C 
HETATM    3  C14 UNL     1     -52.625  -2.581  55.816  1.00  0.00    -0.006 C 
HETATM    4  C15 UNL     1     -51.876  -3.758  55.290  1.00  0.00     0.011 C 
HETATM    5  C16 UNL     1     -54.077  -2.809  55.900  1.00  0.00     0.006 C 
HETATM    6  C17 UNL     1     -54.918  -1.738  56.466  1.00  0.00     0.017 C 
HETATM    7  C18 UNL     1     -54.308  -0.912  57.553  1.00  0.00     0.014 C 
HETATM    8  C19 UNL     1     -54.782  -1.461  58.893  1.00  0.00     0.023 C 
HETATM    9  C20 UNL     1     -54.910   0.437  57.496  1.00  0.00     0.067 C 
HETATM   10  C21 UNL     1     -54.335   1.577  57.216  1.00  0.00     0.025 C 
HETATM   11  C22 UNL     1     -55.048   2.894  57.191  1.00  0.00     0.126 C 
HETATM   12  C23 UNL     1     -56.474   2.796  57.484  1.00  0.00     0.165 C 
HETATM   13  O2  UNL     1     -57.129   3.771  57.742  1.00  0.00    -0.294 OA
HETATM   14  C24 UNL     1     -57.162   1.478  57.471  1.00  0.00     0.120 C 
HETATM   15  C25 UNL     1     -58.280   1.528  58.486  1.00  0.00     0.055 C 
HETATM   16  C26 UNL     1     -57.805   1.194  56.130  1.00  0.00     0.055 C 
HETATM   17  O3  UNL     1     -56.298   0.427  57.798  1.00  0.00    -0.336 OA
HETATM   18  C27 UNL     1     -52.911   1.533  56.905  1.00  0.00     0.159 C 
HETATM   19  O4  UNL     1     -52.185   2.544  57.052  1.00  0.00    -0.293 OA
HETATM   20  C28 UNL     1     -52.408   0.219  56.410  1.00  0.00     0.095 C 
HETATM   21  C29 UNL     1     -52.798  -0.811  57.466  1.00  0.00    -0.013 C 
HETATM   22  C30 UNL     1     -52.361  -0.225  58.787  1.00  0.00     0.018 C 
ENDROOT
BRANCH   1  23
HETATM   23  C11 UNL     1     -50.659  -2.054  57.163  1.00  0.00    -0.016 C 
HETATM   24  C10 UNL     1     -49.715  -2.491  57.927  1.00  0.00     0.003 C 
BRANCH  24  25
HETATM   25  C8  UNL     1     -48.273  -2.256  57.560  1.00  0.00    -0.061 C 
HETATM   26  C7  UNL     1     -47.383  -2.123  58.483  1.00  0.00     0.024 C 
HETATM   27  C9  UNL     1     -47.983  -2.210  56.125  1.00  0.00     0.048 C 
BRANCH  26  28
HETATM   28  C6  UNL     1     -45.926  -1.902  58.281  1.00  0.00     0.090 C 
BRANCH  28  29
HETATM   29  N1  UNL     1     -45.102  -2.423  59.283  1.00  0.00    -0.368 N 
BRANCH  29  30
HETATM   30  C5  UNL     1     -43.755  -2.197  59.375  1.00  0.00     0.065 C 
BRANCH  30  31
HETATM   31  C4  UNL     1     -43.097  -1.801  60.636  1.00  0.00     0.071 C 
BRANCH  31  32
HETATM   32  C3  UNL     1     -41.744  -2.357  60.863  1.00  0.00     0.172 C 
BRANCH  32  33
HETATM   33  O1  UNL     1     -41.675  -3.761  60.658  1.00  0.00    -0.391 OA
BRANCH  33  34
HETATM   34  C2  UNL     1     -41.519  -4.443  61.839  1.00  0.00     0.163 C 
HETATM   35  C1  UNL     1     -41.921  -5.901  61.550  1.00  0.00     0.033 C 
ENDBRANCH  33  34
ENDBRANCH  32  33
ENDBRANCH  31  32
ENDBRANCH  30  31
ENDBRANCH  29  30
BRANCH  29  36
HETATM   36  C31 UNL     1     -45.690  -3.420  60.140  1.00  0.00     0.153 C 
BRANCH  36  37
HETATM   37  C32 UNL     1     -45.001  -4.743  59.853  1.00  0.00     0.184 C 
BRANCH  37  38
HETATM   38  O5  UNL     1     -45.764  -5.832  60.276  1.00  0.00    -0.399 OA
ATOM     39  H5  UNL     1     -45.381  -6.660  60.008  1.00  0.00     0.209 HD
ENDBRANCH  37  38
ENDBRANCH  36  37
ENDBRANCH  29  36
ENDBRANCH  28  29
ENDBRANCH  26  28
ENDBRANCH  24  25
ENDBRANCH   1  23
TORSDOF 12
ENDMDL
MODEL 2
REMARK VINA RESULT: -8.145507288      1.578      2.031
REMARK  12 active torsions:
REMARK  status: ('A' for Active; 'I' for Inactive)
REMARK    1  A    between atoms: C2_2  and  O1_3 
REMARK    2  A    between atoms: O1_3  and  C3_4 
REMARK    3  A    between atoms: C3_4  and  C4_5 
REMARK    4  A    between atoms: C4_5  and  C5_6 
REMARK    5  A    between atoms: C5_6  and  N1_7 
REMARK    6  A    between atoms: N1_7  and  C6_8 
REMARK    7  A    between atoms: N1_7  and  C31_36 
REMARK    8  A    between atoms: C6_8  and  C7_9 
REMARK    9  A    between atoms: C8_10  and  C10_12 
REMARK   10  A    between atoms: C11_13  and  C12_14 
REMARK   11  A    between atoms: C31_36  and  C32_37 
REMARK   12  A    between atoms: C32_37  and  O5_38 
ROOT
HETATM    1  C12 UNL     1     -52.238  -1.138  57.869  1.00  0.00    -0.014 C 
HETATM    2  C13 UNL     1     -52.319  -0.629  59.313  1.00  0.00     0.021 C 
HETATM    3  C14 UNL     1     -53.046  -2.438  57.851  1.00  0.00    -0.006 C 
HETATM    4  C15 UNL     1     -52.440  -3.538  58.656  1.00  0.00     0.011 C 
HETATM    5  C16 UNL     1     -54.435  -2.136  58.235  1.00  0.00     0.006 C 
HETATM    6  C17 UNL     1     -55.121  -1.023  57.553  1.00  0.00     0.017 C 
HETATM    7  C18 UNL     1     -54.270   0.140  57.151  1.00  0.00     0.014 C 
HETATM    8  C19 UNL     1     -54.408   1.220  58.216  1.00  0.00     0.023 C 
HETATM    9  C20 UNL     1     -54.874   0.755  55.951  1.00  0.00     0.067 C 
HETATM   10  C21 UNL     1     -54.388   0.831  54.740  1.00  0.00     0.025 C 
HETATM   11  C22 UNL     1     -55.091   1.487  53.591  1.00  0.00     0.126 C 
HETATM   12  C23 UNL     1     -56.405   2.021  53.935  1.00  0.00     0.165 C 
HETATM   13  O2  UNL     1     -56.983   2.781  53.203  1.00  0.00    -0.294 OA
HETATM   14  C24 UNL     1     -57.071   1.637  55.207  1.00  0.00     0.120 C 
HETATM   15  C25 UNL     1     -57.913   2.807  55.661  1.00  0.00     0.055 C 
HETATM   16  C26 UNL     1     -58.015   0.469  55.016  1.00  0.00     0.055 C 
HETATM   17  O3  UNL     1     -56.149   1.323  56.213  1.00  0.00    -0.336 OA
HETATM   18  C27 UNL     1     -53.080   0.225  54.520  1.00  0.00     0.159 C 
HETATM   19  O4  UNL     1     -52.344   0.599  53.577  1.00  0.00    -0.293 OA
HETATM   20  C28 UNL     1     -52.705  -0.846  55.487  1.00  0.00     0.095 C 
HETATM   21  C29 UNL     1     -52.826  -0.228  56.876  1.00  0.00    -0.013 C 
HETATM   22  C30 UNL     1     -52.087   1.086  56.803  1.00  0.00     0.018 C 
ENDROOT
BRANCH   1  23
HETATM   23  C11 UNL     1     -50.818  -1.458  57.690  1.00  0.00    -0.016 C 
HETATM   24  C10 UNL     1     -49.719  -1.183  58.312  1.00  0.00     0.003 C 
BRANCH  24  25
HETATM   25  C8  UNL     1     -48.407  -1.720  57.804  1.00  0.00    -0.061 C 
HETATM   26  C7  UNL     1     -47.341  -1.608  58.519  1.00  0.00     0.024 C 
HETATM   27  C9  UNL     1     -48.451  -2.367  56.490  1.00  0.00     0.048 C 
BRANCH  26  28
HETATM   28  C6  UNL     1     -45.981  -2.097  58.164  1.00  0.00     0.090 C 
BRANCH  28  29
HETATM   29  N1  UNL     1     -45.182  -2.469  59.248  1.00  0.00    -0.368 N 
BRANCH  29  30
HETATM   30  C5  UNL     1     -43.871  -2.108  59.405  1.00  0.00     0.065 C 
BRANCH  30  31
HETATM   31  C4  UNL     1     -43.289  -1.769  60.719  1.00  0.00     0.071 C 
BRANCH  31  32
HETATM   32  C3  UNL     1     -41.906  -2.243  60.957  1.00  0.00     0.172 C 
BRANCH  32  33
HETATM   33  O1  UNL     1     -41.738  -3.629  60.698  1.00  0.00    -0.391 OA
BRANCH  33  34
HETATM   34  C2  UNL     1     -41.531  -4.344  61.851  1.00  0.00     0.163 C 
HETATM   35  C1  UNL     1     -41.927  -5.798  61.534  1.00  0.00     0.033 C 
ENDBRANCH  33  34
ENDBRANCH  32  33
ENDBRANCH  31  32
ENDBRANCH  30  31
ENDBRANCH  29  30
BRANCH  29  36
HETATM   36  C31 UNL     1     -45.731  -3.460  60.137  1.00  0.00     0.153 C 
BRANCH  36  37
HETATM   37  C32 UNL     1     -45.037  -4.779  59.847  1.00  0.00     0.184 C 
BRANCH  37  38
HETATM   38  O5  UNL     1     -45.810  -5.874  60.235  1.00  0.00    -0.399 OA
ATOM     39  H5  UNL     1     -46.484  -6.078  59.597  1.00  0.00     0.209 HD
ENDBRANCH  37  38
ENDBRANCH  36  37
ENDBRANCH  29  36
ENDBRANCH  28  29
ENDBRANCH  26  28
ENDBRANCH  24  25
ENDBRANCH   1  23
TORSDOF 12
ENDMDL
MODEL 3
REMARK VINA RESULT: -7.998715429      1.672      2.556
REMARK  12 active torsions:
REMARK  status: ('A' for Active; 'I' for Inactive)
REMARK    1  A    between atoms: C2_2  and  O1_3 
REMARK    2  A    between atoms: O1_3  and  C3_4 
REMARK    3  A    between atoms: C3_4  and  C4_5 
REMARK    4  A    between atoms: C4_5  and  C5_6 
REMARK    5  A    between atoms: C5_6  and  N1_7 
REMARK    6  A    between atoms: N1_7  and  C6_8 
REMARK    7  A    between atoms: N1_7  and  C31_36 
REMARK    8  A    between atoms: C6_8  and  C7_9 
REMARK    9  A    between atoms: C8_10  and  C10_12 
REMARK   10  A    between atoms: C11_13  and  C12_14 
REMARK   11  A    between atoms: C31_36  and  C32_37 
REMARK   12  A    between atoms: C32_37  and  O5_38 
ROOT
HETATM    1  C12 UNL     1     -52.322  -1.105  57.919  1.00  0.00    -0.014 C 
HETATM    2  C13 UNL     1     -52.410  -0.610  59.367  1.00  0.00     0.021 C 
HETATM    3  C14 UNL     1     -53.177  -2.376  57.872  1.00  0.00    -0.006 C 
HETATM    4  C15 UNL     1     -52.625  -3.505  58.675  1.00  0.00     0.011 C 
HETATM    5  C16 UNL     1     -54.561  -2.027  58.236  1.00  0.00     0.006 C 
HETATM    6  C17 UNL     1     -55.193  -0.883  57.554  1.00  0.00     0.017 C 
HETATM    7  C18 UNL     1     -54.294   0.253  57.181  1.00  0.00     0.014 C 
HETATM    8  C19 UNL     1     -54.411   1.326  58.256  1.00  0.00     0.023 C 
HETATM    9  C20 UNL     1     -54.853   0.903  55.977  1.00  0.00     0.067 C 
HETATM   10  C21 UNL     1     -54.343   0.974  54.776  1.00  0.00     0.025 C 
HETATM   11  C22 UNL     1     -55.002   1.669  53.623  1.00  0.00     0.126 C 
HETATM   12  C23 UNL     1     -56.302   2.246  53.950  1.00  0.00     0.165 C 
HETATM   13  O2  UNL     1     -56.838   3.034  53.217  1.00  0.00    -0.294 OA
HETATM   14  C24 UNL     1     -57.003   1.873  55.206  1.00  0.00     0.120 C 
HETATM   15  C25 UNL     1     -57.810   3.067  55.659  1.00  0.00     0.055 C 
HETATM   16  C26 UNL     1     -57.986   0.742  54.985  1.00  0.00     0.055 C 
HETATM   17  O3  UNL     1     -56.111   1.514  56.224  1.00  0.00    -0.336 OA
HETATM   18  C27 UNL     1     -53.054   0.324  54.572  1.00  0.00     0.159 C 
HETATM   19  O4  UNL     1     -52.289   0.680  53.646  1.00  0.00    -0.293 OA
HETATM   20  C28 UNL     1     -52.736  -0.771  55.533  1.00  0.00     0.095 C 
HETATM   21  C29 UNL     1     -52.859  -0.164  56.927  1.00  0.00    -0.013 C 
HETATM   22  C30 UNL     1     -52.072   1.123  56.882  1.00  0.00     0.018 C 
ENDROOT
BRANCH   1  23
HETATM   23  C11 UNL     1     -50.911  -1.475  57.761  1.00  0.00    -0.016 C 
HETATM   24  C10 UNL     1     -49.796  -1.136  58.316  1.00  0.00     0.003 C 
BRANCH  24  25
HETATM   25  C8  UNL     1     -48.503  -1.765  57.866  1.00  0.00    -0.061 C 
HETATM   26  C7  UNL     1     -47.471  -1.747  58.637  1.00  0.00     0.024 C 
HETATM   27  C9  UNL     1     -48.528  -2.386  56.538  1.00  0.00     0.048 C 
BRANCH  26  28
HETATM   28  C6  UNL     1     -46.136  -2.336  58.343  1.00  0.00     0.090 C 
BRANCH  28  29
HETATM   29  N1  UNL     1     -45.291  -2.473  59.447  1.00  0.00    -0.368 N 
BRANCH  29  30
HETATM   30  C5  UNL     1     -45.336  -3.514  60.334  1.00  0.00     0.065 C 
BRANCH  30  31
HETATM   31  C4  UNL     1     -45.446  -4.923  59.905  1.00  0.00     0.071 C 
BRANCH  31  32
HETATM   32  C3  UNL     1     -44.312  -5.802  60.270  1.00  0.00     0.172 C 
BRANCH  32  33
HETATM   33  O1  UNL     1     -43.048  -5.170  60.131  1.00  0.00    -0.391 OA
BRANCH  33  34
HETATM   34  C2  UNL     1     -42.038  -5.920  60.680  1.00  0.00     0.163 C 
HETATM   35  C1  UNL     1     -41.528  -5.129  61.900  1.00  0.00     0.033 C 
ENDBRANCH  33  34
ENDBRANCH  32  33
ENDBRANCH  31  32
ENDBRANCH  30  31
ENDBRANCH  29  30
BRANCH  29  36
HETATM   36  C31 UNL     1     -44.468  -1.336  59.767  1.00  0.00     0.153 C 
BRANCH  36  37
HETATM   37  C32 UNL     1     -43.403  -1.795  60.749  1.00  0.00     0.184 C 
BRANCH  37  38
HETATM   38  O5  UNL     1     -42.270  -2.287  60.100  1.00  0.00    -0.399 OA
ATOM     39  H5  UNL     1     -41.475  -2.110  60.590  1.00  0.00     0.209 HD
ENDBRANCH  37  38
ENDBRANCH  36  37
ENDBRANCH  29  36
ENDBRANCH  28  29
ENDBRANCH  26  28
ENDBRANCH  24  25
ENDBRANCH   1  23
TORSDOF 12
ENDMDL
MODEL 4
REMARK VINA RESULT: -7.845309759      0.703      1.524
REMARK  12 active torsions:
REMARK  status: ('A' for Active; 'I' for Inactive)
REMARK    1  A    between atoms: C2_2  and  O1_3 
REMARK    2  A    between atoms: O1_3  and  C3_4 
REMARK    3  A    between atoms: C3_4  and  C4_5 
REMARK    4  A    between atoms: C4_5  and  C5_6 
REMARK    5  A    between atoms: C5_6  and  N1_7 
REMARK    6  A    between atoms: N1_7  and  C6_8 
REMARK    7  A    between atoms: N1_7  and  C31_36 
REMARK    8  A    between atoms: C6_8  and  C7_9 
REMARK    9  A    between atoms: C8_10  and  C10_12 
REMARK   10  A    between atoms: C11_13  and  C12_14 
REMARK   11  A    between atoms: C31_36  and  C32_37 
REMARK   12  A    between atoms: C32_37  and  O5_38 
ROOT
HETATM    1  C12 UNL     1     -52.260  -2.166  57.196  1.00  0.00    -0.014 C 
HETATM    2  C13 UNL     1     -52.593  -3.301  58.171  1.00  0.00     0.021 C 
HETATM    3  C14 UNL     1     -52.772  -2.639  55.832  1.00  0.00    -0.006 C 
HETATM    4  C15 UNL     1     -52.036  -3.813  55.284  1.00  0.00     0.011 C 
HETATM    5  C16 UNL     1     -54.226  -2.857  55.924  1.00  0.00     0.006 C 
HETATM    6  C17 UNL     1     -55.055  -1.789  56.512  1.00  0.00     0.017 C 
HETATM    7  C18 UNL     1     -54.430  -0.983  57.606  1.00  0.00     0.014 C 
HETATM    8  C19 UNL     1     -54.899  -1.548  58.941  1.00  0.00     0.023 C 
HETATM    9  C20 UNL     1     -55.023   0.371  57.573  1.00  0.00     0.067 C 
HETATM   10  C21 UNL     1     -54.442   1.511  57.305  1.00  0.00     0.025 C 
HETATM   11  C22 UNL     1     -55.146   2.833  57.305  1.00  0.00     0.126 C 
HETATM   12  C23 UNL     1     -56.571   2.741  57.607  1.00  0.00     0.165 C 
HETATM   13  O2  UNL     1     -57.216   3.717  57.884  1.00  0.00    -0.294 OA
HETATM   14  C24 UNL     1     -57.267   1.428  57.580  1.00  0.00     0.120 C 
HETATM   15  C25 UNL     1     -58.377   1.471  58.605  1.00  0.00     0.055 C 
HETATM   16  C26 UNL     1     -57.923   1.169  56.240  1.00  0.00     0.055 C 
HETATM   17  O3  UNL     1     -56.408   0.366  57.885  1.00  0.00    -0.336 OA
HETATM   18  C27 UNL     1     -53.021   1.461  56.982  1.00  0.00     0.159 C 
HETATM   19  O4  UNL     1     -52.287   2.465  57.138  1.00  0.00    -0.293 OA
HETATM   20  C28 UNL     1     -52.531   0.151  56.465  1.00  0.00     0.095 C 
HETATM   21  C29 UNL     1     -52.921  -0.891  57.508  1.00  0.00    -0.013 C 
HETATM   22  C30 UNL     1     -52.469  -0.328  58.834  1.00  0.00     0.018 C 
ENDROOT
BRANCH   1  23
HETATM   23  C11 UNL     1     -50.793  -2.145  57.172  1.00  0.00    -0.016 C 
HETATM   24  C10 UNL     1     -49.846  -2.544  57.954  1.00  0.00     0.003 C 
BRANCH  24  25
HETATM   25  C8  UNL     1     -48.406  -2.339  57.565  1.00  0.00    -0.061 C 
HETATM   26  C7  UNL     1     -47.490  -2.300  58.471  1.00  0.00     0.024 C 
HETATM   27  C9  UNL     1     -48.148  -2.211  56.128  1.00  0.00     0.048 C 
BRANCH  26  28
HETATM   28  C6  UNL     1     -46.030  -2.121  58.246  1.00  0.00     0.090 C 
BRANCH  28  29
HETATM   29  N1  UNL     1     -45.223  -2.370  59.359  1.00  0.00    -0.368 N 
BRANCH  29  30
HETATM   30  C5  UNL     1     -45.386  -3.424  60.216  1.00  0.00     0.065 C 
BRANCH  30  31
HETATM   31  C4  UNL     1     -45.222  -4.829  59.793  1.00  0.00     0.071 C 
BRANCH  31  32
HETATM   32  C3  UNL     1     -44.046  -5.539  60.345  1.00  0.00     0.172 C 
BRANCH  32  33
HETATM   33  O1  UNL     1     -42.810  -5.026  59.869  1.00  0.00    -0.391 OA
BRANCH  33  34
HETATM   34  C2  UNL     1     -41.740  -5.734  60.357  1.00  0.00     0.163 C 
HETATM   35  C1  UNL     1     -41.636  -5.382  61.853  1.00  0.00     0.033 C 
ENDBRANCH  33  34
ENDBRANCH  32  33
ENDBRANCH  31  32
ENDBRANCH  30  31
ENDBRANCH  29  30
BRANCH  29  36
HETATM   36  C31 UNL     1     -44.297  -1.328  59.722  1.00  0.00     0.153 C 
BRANCH  36  37
HETATM   37  C32 UNL     1     -43.394  -1.871  60.817  1.00  0.00     0.184 C 
BRANCH  37  38
HETATM   38  O5  UNL     1     -42.129  -2.205  60.333  1.00  0.00    -0.399 OA
ATOM     39  H5  UNL     1     -41.616  -2.682  60.976  1.00  0.00     0.209 HD
ENDBRANCH  37  38
ENDBRANCH  36  37
ENDBRANCH  29  36
ENDBRANCH  28  29
ENDBRANCH  26  28
ENDBRANCH  24  25
ENDBRANCH   1  23
TORSDOF 12
ENDMDL
MODEL 5
REMARK VINA RESULT: -7.583743050      0.878      1.049
REMARK  12 active torsions:
REMARK  status: ('A' for Active; 'I' for Inactive)
REMARK    1  A    between atoms: C2_2  and  O1_3 
REMARK    2  A    between atoms: O1_3  and  C3_4 
REMARK    3  A    between atoms: C3_4  and  C4_5 
REMARK    4  A    between atoms: C4_5  and  C5_6 
REMARK    5  A    between atoms: C5_6  and  N1_7 
REMARK    6  A    between atoms: N1_7  and  C6_8 
REMARK    7  A    between atoms: N1_7  and  C31_36 
REMARK    8  A    between atoms: C6_8  and  C7_9 
REMARK    9  A    between atoms: C8_10  and  C10_12 
REMARK   10  A    between atoms: C11_13  and  C12_14 
REMARK   11  A    between atoms: C31_36  and  C32_37 
REMARK   12  A    between atoms: C32_37  and  O5_38 
ROOT
HETATM    1  C12 UNL     1     -52.064  -1.889  56.902  1.00  0.00    -0.014 C 
HETATM    2  C13 UNL     1     -52.403  -3.293  57.414  1.00  0.00     0.021 C 
HETATM    3  C14 UNL     1     -52.037  -2.009  55.375  1.00  0.00    -0.006 C 
HETATM    4  C15 UNL     1     -50.929  -2.860  54.855  1.00  0.00     0.011 C 
HETATM    5  C16 UNL     1     -53.367  -2.442  54.913  1.00  0.00     0.006 C 
HETATM    6  C17 UNL     1     -54.549  -1.716  55.412  1.00  0.00     0.017 C 
HETATM    7  C18 UNL     1     -54.467  -1.186  56.809  1.00  0.00     0.014 C 
HETATM    8  C19 UNL     1     -55.165  -2.174  57.735  1.00  0.00     0.023 C 
HETATM    9  C20 UNL     1     -55.313   0.024  56.889  1.00  0.00     0.067 C 
HETATM   10  C21 UNL     1     -54.950   1.261  57.106  1.00  0.00     0.025 C 
HETATM   11  C22 UNL     1     -55.902   2.416  57.172  1.00  0.00     0.126 C 
HETATM   12  C23 UNL     1     -57.294   2.045  56.940  1.00  0.00     0.165 C 
HETATM   13  O2  UNL     1     -58.194   2.800  57.198  1.00  0.00    -0.294 OA
HETATM   14  C24 UNL     1     -57.639   0.714  56.374  1.00  0.00     0.120 C 
HETATM   15  C25 UNL     1     -58.980   0.304  56.939  1.00  0.00     0.055 C 
HETATM   16  C26 UNL     1     -57.800   0.769  54.870  1.00  0.00     0.055 C 
HETATM   17  O3  UNL     1     -56.691  -0.262  56.700  1.00  0.00    -0.336 OA
HETATM   18  C27 UNL     1     -53.524   1.503  57.286  1.00  0.00     0.159 C 
HETATM   19  O4  UNL     1     -53.112   2.508  57.910  1.00  0.00    -0.293 OA
HETATM   20  C28 UNL     1     -52.624   0.480  56.678  1.00  0.00     0.095 C 
HETATM   21  C29 UNL     1     -53.056  -0.864  57.255  1.00  0.00    -0.013 C 
HETATM   22  C30 UNL     1     -53.148  -0.655  58.748  1.00  0.00     0.018 C 
ENDROOT
BRANCH   1  23
HETATM   23  C11 UNL     1     -50.698  -1.660  57.385  1.00  0.00    -0.016 C 
HETATM   24  C10 UNL     1     -49.702  -2.403  57.736  1.00  0.00     0.003 C 
BRANCH  24  25
HETATM   25  C8  UNL     1     -48.410  -1.774  58.188  1.00  0.00    -0.061 C 
HETATM   26  C7  UNL     1     -47.282  -2.254  57.791  1.00  0.00     0.024 C 
HETATM   27  C9  UNL     1     -48.545  -0.610  59.068  1.00  0.00     0.048 C 
BRANCH  26  28
HETATM   28  C6  UNL     1     -45.930  -1.738  58.136  1.00  0.00     0.090 C 
BRANCH  28  29
HETATM   29  N1  UNL     1     -45.234  -2.485  59.090  1.00  0.00    -0.368 N 
BRANCH  29  30
HETATM   30  C5  UNL     1     -43.887  -2.395  59.315  1.00  0.00     0.065 C 
BRANCH  30  31
HETATM   31  C4  UNL     1     -43.321  -1.808  60.545  1.00  0.00     0.071 C 
BRANCH  31  32
HETATM   32  C3  UNL     1     -41.988  -2.312  60.950  1.00  0.00     0.172 C 
BRANCH  32  33
HETATM   33  O1  UNL     1     -41.823  -3.703  60.718  1.00  0.00    -0.391 OA
BRANCH  33  34
HETATM   34  C2  UNL     1     -41.507  -4.380  61.870  1.00  0.00     0.163 C 
HETATM   35  C1  UNL     1     -41.881  -5.853  61.621  1.00  0.00     0.033 C 
ENDBRANCH  33  34
ENDBRANCH  32  33
ENDBRANCH  31  32
ENDBRANCH  30  31
ENDBRANCH  29  30
BRANCH  29  36
HETATM   36  C31 UNL     1     -45.964  -3.553  59.722  1.00  0.00     0.153 C 
BRANCH  36  37
HETATM   37  C32 UNL     1     -45.004  -4.711  59.931  1.00  0.00     0.184 C 
BRANCH  37  38
HETATM   38  O5  UNL     1     -45.674  -5.908  60.185  1.00  0.00    -0.399 OA
ATOM     39  H5  UNL     1     -46.090  -6.256  59.405  1.00  0.00     0.209 HD
ENDBRANCH  37  38
ENDBRANCH  36  37
ENDBRANCH  29  36
ENDBRANCH  28  29
ENDBRANCH  26  28
ENDBRANCH  24  25
ENDBRANCH   1  23
TORSDOF 12
ENDMDL
