MODEL 1
REMARK VINA RESULT: -5.638873037      0.000      0.000
REMARK  5 active torsions:
REMARK  status: ('A' for Active; 'I' for Inactive)
REMARK    1  A    between atoms: N1_1  and  C1_5 
REMARK    2  A    between atoms: C1_5  and  C2_6 
REMARK    3  A    between atoms: C2_6  and  C3_7 
REMARK    4  A    between atoms: C3_7  and  N2_8 
REMARK    5  A    between atoms: C6_11  and  N3_12 
ROOT
HETATM    1  N2  UNL     1       8.725  14.072  15.271  1.00  0.00    -0.391 N 
HETATM    2  C4  UNL     1       9.723  15.037  15.172  1.00  0.00     0.124 C 
HETATM    3  C5  UNL     1       8.941  16.313  14.788  1.00  0.00     0.046 C 
HETATM    4  C6  UNL     1       7.903  15.771  13.861  1.00  0.00     0.103 C 
HETATM    5  C8  UNL     1       7.610  14.399  14.425  1.00  0.00     0.147 C 
ENDROOT
BRANCH   1   6
HETATM    6  C3  UNL     1       8.995  12.710  15.474  1.00  0.00     0.060 C 
BRANCH   6   7
HETATM    7  C2  UNL     1       9.481  11.870  14.364  1.00  0.00     0.071 C 
BRANCH   7   8
HETATM    8  C1  UNL     1       9.379  10.399  14.454  1.00  0.00     0.234 C 
BRANCH   8   9
HETATM    9  N1  UNL     1       8.197  10.140  15.329  1.00  0.00    -0.079 N 
ATOM     10  H13 UNL     1       8.430  10.050  16.318  1.00  0.00     0.274 HD
ATOM     11  H12 UNL     1       7.573  10.941  15.426  1.00  0.00     0.274 HD
ATOM     12  H11 UNL     1       7.748   9.313  14.935  1.00  0.00     0.274 HD
ENDBRANCH   8   9
ENDBRANCH   7   8
ENDBRANCH   6   7
ENDBRANCH   1   6
BRANCH   4  13
HETATM   13  N3  UNL     1       8.397  15.676  12.525  1.00  0.00    -0.361 N 
HETATM   14  C7  UNL     1       7.747  16.216  11.555  1.00  0.00     0.197 C 
HETATM   15  N4  UNL     1       8.301  16.079  10.253  1.00  0.00    -0.067 NA
HETATM   16  N5  UNL     1       6.537  16.926  11.717  1.00  0.00    -0.067 NA
ATOM     17  H3  UNL     1       9.268  15.179  12.339  1.00  0.00     0.162 HD
ENDBRANCH   4  13
TORSDOF 5
ENDMDL
MODEL 2
REMARK VINA RESULT: -5.536612967      1.180      1.211
REMARK  5 active torsions:
REMARK  status: ('A' for Active; 'I' for Inactive)
REMARK    1  A    between atoms: N1_1  and  C1_5 
REMARK    2  A    between atoms: C1_5  and  C2_6 
REMARK    3  A    between atoms: C2_6  and  C3_7 
REMARK    4  A    between atoms: C3_7  and  N2_8 
REMARK    5  A    between atoms: C6_11  and  N3_12 
ROOT
HETATM    1  N2  UNL     1       8.537  13.050  15.257  1.00  0.00    -0.391 N 
HETATM    2  C4  UNL     1       9.633  13.906  15.338  1.00  0.00     0.124 C 
HETATM    3  C5  UNL     1       8.999  15.306  15.176  1.00  0.00     0.046 C 
HETATM    4  C6  UNL     1       7.936  15.047  14.159  1.00  0.00     0.103 C 
HETATM    5  C8  UNL     1       7.487  13.638  14.471  1.00  0.00     0.147 C 
ENDROOT
BRANCH   1   6
HETATM    6  C3  UNL     1       8.657  11.654  15.221  1.00  0.00     0.060 C 
BRANCH   6   7
HETATM    7  C2  UNL     1       9.473  10.999  14.181  1.00  0.00     0.071 C 
BRANCH   7   8
HETATM    8  C1  UNL     1       9.489   9.526  14.075  1.00  0.00     0.234 C 
BRANCH   8   9
HETATM    9  N1  UNL     1       9.540   9.238  12.611  1.00  0.00    -0.079 N 
ATOM     10  H13 UNL     1      10.331   9.672  12.134  1.00  0.00     0.274 HD
ATOM     11  H12 UNL     1       9.783   8.273  12.390  1.00  0.00     0.274 HD
ATOM     12  H11 UNL     1       8.632   9.527  12.249  1.00  0.00     0.274 HD
ENDBRANCH   8   9
ENDBRANCH   7   8
ENDBRANCH   6   7
ENDBRANCH   1   6
BRANCH   4  13
HETATM   13  N3  UNL     1       8.456  15.132  12.832  1.00  0.00    -0.361 N 
HETATM   14  C7  UNL     1       7.889  15.894  11.963  1.00  0.00     0.197 C 
HETATM   15  N4  UNL     1       8.463  15.926  10.663  1.00  0.00    -0.067 NA
HETATM   16  N5  UNL     1       6.751  16.685  12.233  1.00  0.00    -0.067 NA
ATOM     17  H3  UNL     1       9.278  14.588  12.571  1.00  0.00     0.162 HD
ENDBRANCH   4  13
TORSDOF 5
ENDMDL
MODEL 3
REMARK VINA RESULT: -4.809909678      6.780      8.021
REMARK  5 active torsions:
REMARK  status: ('A' for Active; 'I' for Inactive)
REMARK    1  A    between atoms: N1_1  and  C1_5 
REMARK    2  A    between atoms: C1_5  and  C2_6 
REMARK    3  A    between atoms: C2_6  and  C3_7 
REMARK    4  A    between atoms: C3_7  and  N2_8 
REMARK    5  A    between atoms: C6_11  and  N3_12 
ROOT
HETATM    1  N2  UNL     1      10.349  17.377  20.397  1.00  0.00    -0.391 N 
HETATM    2  C4  UNL     1      10.439  17.090  19.038  1.00  0.00     0.124 C 
HETATM    3  C5  UNL     1      11.963  17.054  18.786  1.00  0.00     0.046 C 
HETATM    4  C6  UNL     1      12.446  18.161  19.663  1.00  0.00     0.103 C 
HETATM    5  C8  UNL     1      11.500  18.115  20.841  1.00  0.00     0.147 C 
ENDROOT
BRANCH   1   6
HETATM    6  C3  UNL     1       9.133  17.638  21.046  1.00  0.00     0.060 C 
BRANCH   6   7
HETATM    7  C2  UNL     1       7.852  17.291  20.404  1.00  0.00     0.071 C 
BRANCH   7   8
HETATM    8  C1  UNL     1       7.182  16.018  20.735  1.00  0.00     0.234 C 
BRANCH   8   9
HETATM    9  N1  UNL     1       7.480  15.108  19.589  1.00  0.00    -0.079 N 
ATOM     10  H13 UNL     1       6.649  14.689  19.171  1.00  0.00     0.274 HD
ATOM     11  H12 UNL     1       7.802  15.593  18.752  1.00  0.00     0.274 HD
ATOM     12  H11 UNL     1       8.146  14.427  19.953  1.00  0.00     0.274 HD
ENDBRANCH   8   9
ENDBRANCH   7   8
ENDBRANCH   6   7
ENDBRANCH   1   6
BRANCH   4  13
HETATM   13  N3  UNL     1      12.369  19.422  18.998  1.00  0.00    -0.361 N 
HETATM   14  C7  UNL     1      13.368  19.853  18.311  1.00  0.00     0.197 C 
HETATM   15  N4  UNL     1      13.217  21.117  17.678  1.00  0.00    -0.067 NA
HETATM   16  N5  UNL     1      14.580  19.145  18.155  1.00  0.00    -0.067 NA
ATOM     17  H3  UNL     1      11.520  19.983  19.068  1.00  0.00     0.162 HD
ENDBRANCH   4  13
TORSDOF 5
ENDMDL
MODEL 4
REMARK VINA RESULT: -4.780458381      2.941      4.668
REMARK  5 active torsions:
REMARK  status: ('A' for Active; 'I' for Inactive)
REMARK    1  A    between atoms: N1_1  and  C1_5 
REMARK    2  A    between atoms: C1_5  and  C2_6 
REMARK    3  A    between atoms: C2_6  and  C3_7 
REMARK    4  A    between atoms: C3_7  and  N2_8 
REMARK    5  A    between atoms: C6_11  and  N3_12 
ROOT
HETATM    1  N2  UNL     1      10.043  15.684  16.335  1.00  0.00    -0.391 N 
HETATM    2  C4  UNL     1       9.072  14.687  16.323  1.00  0.00     0.124 C 
HETATM    3  C5  UNL     1       9.123  14.163  14.870  1.00  0.00     0.046 C 
HETATM    4  C6  UNL     1       9.352  15.420  14.098  1.00  0.00     0.103 C 
HETATM    5  C8  UNL     1      10.210  16.250  15.024  1.00  0.00     0.147 C 
ENDROOT
BRANCH   1   6
HETATM    6  C3  UNL     1      10.255  16.534  17.429  1.00  0.00     0.060 C 
BRANCH   6   7
HETATM    7  C2  UNL     1      11.599  16.672  18.022  1.00  0.00     0.071 C 
BRANCH   7   8
HETATM    8  C1  UNL     1      11.764  17.348  19.324  1.00  0.00     0.234 C 
BRANCH   8   9
HETATM    9  N1  UNL     1      12.172  18.745  18.992  1.00  0.00    -0.079 N 
ATOM     10  H13 UNL     1      12.601  19.245  19.771  1.00  0.00     0.274 HD
ATOM     11  H12 UNL     1      12.971  18.802  18.361  1.00  0.00     0.274 HD
ATOM     12  H11 UNL     1      11.329  19.192  18.630  1.00  0.00     0.274 HD
ENDBRANCH   8   9
ENDBRANCH   7   8
ENDBRANCH   6   7
ENDBRANCH   1   6
BRANCH   4  13
HETATM   13  N3  UNL     1       8.122  16.085  13.811  1.00  0.00    -0.361 N 
HETATM   14  C7  UNL     1       7.744  16.249  12.592  1.00  0.00     0.197 C 
HETATM   15  N4  UNL     1       6.508  16.921  12.386  1.00  0.00    -0.067 NA
HETATM   16  N5  UNL     1       8.479  15.801  11.473  1.00  0.00    -0.067 NA
ATOM     17  H3  UNL     1       7.541  16.431  14.575  1.00  0.00     0.162 HD
ENDBRANCH   4  13
TORSDOF 5
ENDMDL
MODEL 5
REMARK VINA RESULT: -4.740702716      2.774      3.715
REMARK  5 active torsions:
REMARK  status: ('A' for Active; 'I' for Inactive)
REMARK    1  A    between atoms: N1_1  and  C1_5 
REMARK    2  A    between atoms: C1_5  and  C2_6 
REMARK    3  A    between atoms: C2_6  and  C3_7 
REMARK    4  A    between atoms: C3_7  and  N2_8 
REMARK    5  A    between atoms: C6_11  and  N3_12 
ROOT
HETATM    1  N2  UNL     1       8.651  12.708  14.566  1.00  0.00    -0.391 N 
HETATM    2  C4  UNL     1       7.503  13.439  14.856  1.00  0.00     0.124 C 
HETATM    3  C5  UNL     1       7.864  14.865  14.383  1.00  0.00     0.046 C 
HETATM    4  C6  UNL     1       9.302  14.964  14.773  1.00  0.00     0.103 C 
HETATM    5  C8  UNL     1       9.814  13.554  14.587  1.00  0.00     0.147 C 
ENDROOT
BRANCH   1   6
HETATM    6  C3  UNL     1       8.827  11.372  14.953  1.00  0.00     0.060 C 
BRANCH   6   7
HETATM    7  C2  UNL     1       9.717  10.481  14.186  1.00  0.00     0.071 C 
BRANCH   7   8
HETATM    8  C1  UNL     1       9.297   9.097  13.889  1.00  0.00     0.234 C 
BRANCH   8   9
HETATM    9  N1  UNL     1       9.679   8.867  12.464  1.00  0.00    -0.079 N 
ATOM     10  H13 UNL     1       9.281   9.548  11.817  1.00  0.00     0.274 HD
ATOM     11  H12 UNL     1      10.658   9.071  12.263  1.00  0.00     0.274 HD
ATOM     12  H11 UNL     1       9.410   7.904  12.266  1.00  0.00     0.274 HD
ENDBRANCH   8   9
ENDBRANCH   7   8
ENDBRANCH   6   7
ENDBRANCH   1   6
BRANCH   4  13
HETATM   13  N3  UNL     1       9.445  15.381  16.131  1.00  0.00    -0.361 N 
HETATM   14  C7  UNL     1      10.208  16.375  16.425  1.00  0.00     0.197 C 
HETATM   15  N4  UNL     1      10.300  16.732  17.798  1.00  0.00    -0.067 NA
HETATM   16  N5  UNL     1      10.940  17.115  15.470  1.00  0.00    -0.067 NA
ATOM     17  H3  UNL     1       8.941  14.891  16.870  1.00  0.00     0.162 HD
ENDBRANCH   4  13
TORSDOF 5
ENDMDL
