MODEL 1
REMARK VINA RESULT: -6.331845876      0.000      0.000
REMARK  6 active torsions:
REMARK  status: ('A' for Active; 'I' for Inactive)
REMARK    1  A    between atoms: N1_2  and  N5_10 
REMARK    2  A    between atoms: N2_3  and  C2_5 
REMARK    3  A    between atoms: C2_5  and  N3_6 
REMARK    4  A    between atoms: N3_6  and  N4_7 
REMARK    5  A    between atoms: N5_10  and  C3_12 
REMARK    6  A    between atoms: N6_13  and  N7_15 
ROOT
HETATM    1  N5  UNL     1       9.014  16.655  14.484  1.00  0.00    -0.279 N 
ATOM      2  H5  UNL     1       8.354  17.413  14.658  1.00  0.00     0.189 HD
ENDROOT
BRANCH   1   3
HETATM    3  N1  UNL     1       8.578  15.388  14.091  1.00  0.00    -0.236 N 
HETATM    4  C1  UNL     1       8.830  14.288  14.991  1.00  0.00     0.200 C 
HETATM    5  N2  UNL     1       7.978  15.177  12.986  1.00  0.00    -0.267 N 
ATOM      6  H2  UNL     1       7.669  14.242  12.722  1.00  0.00     0.190 HD
BRANCH   5   7
HETATM    7  C2  UNL     1       7.752  16.293  12.132  1.00  0.00     0.318 C 
BRANCH   7   8
HETATM    8  N3  UNL     1       6.616  16.818  12.044  1.00  0.00    -0.327 NA
BRANCH   8   9
HETATM    9  N4  UNL     1       5.563  17.407  12.297  1.00  0.00    -0.279 N 
ATOM     10  H42 UNL     1       6.012  18.133  12.854  1.00  0.00     0.191 HD
ATOM     11  H41 UNL     1       4.580  17.679  12.343  1.00  0.00     0.191 HD
ENDBRANCH   8   9
ENDBRANCH   7   8
ENDBRANCH   5   7
ENDBRANCH   1   3
BRANCH   1  12
HETATM   12  C3  UNL     1      10.414  16.845  14.633  1.00  0.00     0.215 C 
HETATM   13  N6  UNL     1      11.157  16.679  13.591  1.00  0.00    -0.293 N 
ATOM     14  H6  UNL     1      10.755  16.420  12.690  1.00  0.00     0.187 HD
BRANCH  13  15
HETATM   15  N7  UNL     1      12.533  16.867  13.743  1.00  0.00    -0.275 N 
HETATM   16  C4  UNL     1      13.257  16.874  12.684  1.00  0.00     0.215 C 
HETATM   17  N8  UNL     1      14.653  17.066  12.839  1.00  0.00    -0.065 NA
HETATM   18  N9  UNL     1      12.705  16.700  11.395  1.00  0.00    -0.065 NA
ATOM     19  H7  UNL     1      12.948  16.996  14.666  1.00  0.00     0.189 HD
ENDBRANCH  13  15
ENDBRANCH   1  12
TORSDOF 6
ENDMDL
MODEL 2
REMARK VINA RESULT: -6.121894577      1.199      1.358
REMARK  6 active torsions:
REMARK  status: ('A' for Active; 'I' for Inactive)
REMARK    1  A    between atoms: N1_2  and  N5_10 
REMARK    2  A    between atoms: N2_3  and  C2_5 
REMARK    3  A    between atoms: C2_5  and  N3_6 
REMARK    4  A    between atoms: N3_6  and  N4_7 
REMARK    5  A    between atoms: N5_10  and  C3_12 
REMARK    6  A    between atoms: N6_13  and  N7_15 
ROOT
HETATM    1  N5  UNL     1       9.140  16.400  14.833  1.00  0.00    -0.279 N 
ATOM      2  H5  UNL     1       8.454  17.138  14.996  1.00  0.00     0.189 HD
ENDROOT
BRANCH   1   3
HETATM    3  N1  UNL     1       8.746  15.086  14.574  1.00  0.00    -0.236 N 
HETATM    4  C1  UNL     1       9.067  14.088  15.567  1.00  0.00     0.200 C 
HETATM    5  N2  UNL     1       8.125  14.747  13.513  1.00  0.00    -0.267 N 
ATOM      6  H2  UNL     1       7.848  13.780  13.349  1.00  0.00     0.190 HD
BRANCH   5   7
HETATM    7  C2  UNL     1       7.831  15.767  12.565  1.00  0.00     0.318 C 
BRANCH   7   8
HETATM    8  N3  UNL     1       8.598  15.987  11.597  1.00  0.00    -0.327 NA
BRANCH   8   9
HETATM    9  N4  UNL     1       9.273  16.537  10.724  1.00  0.00    -0.279 N 
ATOM     10  H42 UNL     1       9.562  17.309  11.326  1.00  0.00     0.191 HD
ATOM     11  H41 UNL     1       9.738  16.765   9.845  1.00  0.00     0.191 HD
ENDBRANCH   8   9
ENDBRANCH   7   8
ENDBRANCH   5   7
ENDBRANCH   1   3
BRANCH   1  12
HETATM   12  C3  UNL     1      10.535  16.669  14.858  1.00  0.00     0.215 C 
HETATM   13  N6  UNL     1      11.169  16.662  13.734  1.00  0.00    -0.293 N 
ATOM     14  H6  UNL     1      10.687  16.470  12.856  1.00  0.00     0.187 HD
BRANCH  13  15
HETATM   15  N7  UNL     1      12.540  16.927  13.765  1.00  0.00    -0.275 N 
HETATM   16  C4  UNL     1      13.179  16.912  12.653  1.00  0.00     0.215 C 
HETATM   17  N8  UNL     1      14.570  17.182  12.685  1.00  0.00    -0.065 NA
HETATM   18  N9  UNL     1      12.539  16.639  11.423  1.00  0.00    -0.065 NA
ATOM     19  H7  UNL     1      13.018  17.127  14.645  1.00  0.00     0.189 HD
ENDBRANCH  13  15
ENDBRANCH   1  12
TORSDOF 6
ENDMDL
MODEL 3
REMARK VINA RESULT: -6.016385693      2.627      3.624
REMARK  6 active torsions:
REMARK  status: ('A' for Active; 'I' for Inactive)
REMARK    1  A    between atoms: N1_2  and  N5_10 
REMARK    2  A    between atoms: N2_3  and  C2_5 
REMARK    3  A    between atoms: C2_5  and  N3_6 
REMARK    4  A    between atoms: N3_6  and  N4_7 
REMARK    5  A    between atoms: N5_10  and  C3_12 
REMARK    6  A    between atoms: N6_13  and  N7_15 
ROOT
HETATM    1  N5  UNL     1       8.871  16.576  14.452  1.00  0.00    -0.279 N 
ATOM      2  H5  UNL     1       8.352  17.436  14.267  1.00  0.00     0.189 HD
ENDROOT
BRANCH   1   3
HETATM    3  N1  UNL     1       8.400  15.336  14.016  1.00  0.00    -0.236 N 
HETATM    4  C1  UNL     1       8.571  14.210  14.903  1.00  0.00     0.200 C 
HETATM    5  N2  UNL     1       7.836  15.171  12.884  1.00  0.00    -0.267 N 
ATOM      6  H2  UNL     1       7.501  14.254  12.590  1.00  0.00     0.190 HD
BRANCH   5   7
HETATM    7  C2  UNL     1       7.691  16.311  12.046  1.00  0.00     0.318 C 
BRANCH   7   8
HETATM    8  N3  UNL     1       6.597  16.923  11.974  1.00  0.00    -0.327 NA
BRANCH   8   9
HETATM    9  N4  UNL     1       5.523  17.460  12.252  1.00  0.00    -0.279 N 
ATOM     10  H42 UNL     1       5.320  16.831  13.029  1.00  0.00     0.191 HD
ATOM     11  H41 UNL     1       4.709  18.075  12.256  1.00  0.00     0.191 HD
ENDBRANCH   8   9
ENDBRANCH   7   8
ENDBRANCH   5   7
ENDBRANCH   1   3
BRANCH   1  12
HETATM   12  C3  UNL     1      10.100  16.593  15.164  1.00  0.00     0.215 C 
HETATM   13  N6  UNL     1      10.060  16.863  16.425  1.00  0.00    -0.293 N 
ATOM     14  H6  UNL     1       9.177  17.060  16.897  1.00  0.00     0.187 HD
BRANCH  13  15
HETATM   15  N7  UNL     1      11.272  16.877  17.121  1.00  0.00    -0.275 N 
HETATM   16  C4  UNL     1      11.227  16.913  18.402  1.00  0.00     0.215 C 
HETATM   17  N8  UNL     1      12.456  16.927  19.107  1.00  0.00    -0.065 NA
HETATM   18  N9  UNL     1      10.005  16.939  19.111  1.00  0.00    -0.065 NA
ATOM     19  H7  UNL     1      12.164  16.859  16.625  1.00  0.00     0.189 HD
ENDBRANCH  13  15
ENDBRANCH   1  12
TORSDOF 6
ENDMDL
MODEL 4
REMARK VINA RESULT: -5.845425501      3.020      3.900
REMARK  6 active torsions:
REMARK  status: ('A' for Active; 'I' for Inactive)
REMARK    1  A    between atoms: N1_2  and  N5_10 
REMARK    2  A    between atoms: N2_3  and  C2_5 
REMARK    3  A    between atoms: C2_5  and  N3_6 
REMARK    4  A    between atoms: N3_6  and  N4_7 
REMARK    5  A    between atoms: N5_10  and  C3_12 
REMARK    6  A    between atoms: N6_13  and  N7_15 
ROOT
HETATM    1  N5  UNL     1       9.478  15.135  14.857  1.00  0.00    -0.279 N 
ATOM      2  H5  UNL     1      10.061  15.581  14.149  1.00  0.00     0.189 HD
ENDROOT
BRANCH   1   3
HETATM    3  N1  UNL     1       8.417  14.298  14.502  1.00  0.00    -0.236 N 
HETATM    4  C1  UNL     1       8.300  13.040  15.200  1.00  0.00     0.200 C 
HETATM    5  N2  UNL     1       7.569  14.604  13.601  1.00  0.00    -0.267 N 
ATOM      6  H2  UNL     1       6.803  13.975  13.361  1.00  0.00     0.190 HD
BRANCH   5   7
HETATM    7  C2  UNL     1       7.727  15.855  12.941  1.00  0.00     0.318 C 
BRANCH   7   8
HETATM    8  N3  UNL     1       8.284  15.926  11.819  1.00  0.00    -0.327 NA
BRANCH   8   9
HETATM    9  N4  UNL     1       8.653  16.299  10.703  1.00  0.00    -0.279 N 
ATOM     10  H42 UNL     1       7.966  17.051  10.643  1.00  0.00     0.191 HD
ATOM     11  H41 UNL     1       9.147  16.389   9.816  1.00  0.00     0.191 HD
ENDBRANCH   8   9
ENDBRANCH   7   8
ENDBRANCH   5   7
ENDBRANCH   1   3
BRANCH   1  12
HETATM   12  C3  UNL     1       9.710  15.338  16.244  1.00  0.00     0.215 C 
HETATM   13  N6  UNL     1       9.846  16.553  16.658  1.00  0.00    -0.293 N 
ATOM     14  H6  UNL     1       9.790  17.341  16.014  1.00  0.00     0.187 HD
BRANCH  13  15
HETATM   15  N7  UNL     1      10.073  16.747  18.023  1.00  0.00    -0.275 N 
HETATM   16  C4  UNL     1      11.242  17.130  18.387  1.00  0.00     0.215 C 
HETATM   17  N8  UNL     1      11.472  17.327  19.772  1.00  0.00    -0.065 NA
HETATM   18  N9  UNL     1      12.282  17.356  17.458  1.00  0.00    -0.065 NA
ATOM     19  H7  UNL     1       9.333  16.589  18.708  1.00  0.00     0.189 HD
ENDBRANCH  13  15
ENDBRANCH   1  12
TORSDOF 6
ENDMDL
MODEL 5
REMARK VINA RESULT: -5.740504333      1.869      2.235
REMARK  6 active torsions:
REMARK  status: ('A' for Active; 'I' for Inactive)
REMARK    1  A    between atoms: N1_2  and  N5_10 
REMARK    2  A    between atoms: N2_3  and  C2_5 
REMARK    3  A    between atoms: C2_5  and  N3_6 
REMARK    4  A    between atoms: N3_6  and  N4_7 
REMARK    5  A    between atoms: N5_10  and  C3_12 
REMARK    6  A    between atoms: N6_13  and  N7_15 
ROOT
HETATM    1  N5  UNL     1      10.071  15.985  14.109  1.00  0.00    -0.279 N 
ATOM      2  H5  UNL     1      10.312  15.940  13.118  1.00  0.00     0.189 HD
ENDROOT
BRANCH   1   3
HETATM    3  N1  UNL     1       8.978  15.283  14.622  1.00  0.00    -0.236 N 
HETATM    4  C1  UNL     1       9.217  14.409  15.745  1.00  0.00     0.200 C 
HETATM    5  N2  UNL     1       7.802  15.390  14.141  1.00  0.00    -0.267 N 
ATOM      6  H2  UNL     1       7.020  14.867  14.535  1.00  0.00     0.190 HD
BRANCH   5   7
HETATM    7  C2  UNL     1       7.617  16.265  13.034  1.00  0.00     0.318 C 
BRANCH   7   8
HETATM    8  N3  UNL     1       8.102  15.992  11.909  1.00  0.00    -0.327 NA
BRANCH   8   9
HETATM    9  N4  UNL     1       8.762  16.018  10.868  1.00  0.00    -0.279 N 
ATOM     10  H42 UNL     1       9.657  15.893  11.340  1.00  0.00     0.191 HD
ATOM     11  H41 UNL     1       9.043  16.075   9.889  1.00  0.00     0.191 HD
ENDBRANCH   8   9
ENDBRANCH   7   8
ENDBRANCH   5   7
ENDBRANCH   1   3
BRANCH   1  12
HETATM   12  C3  UNL     1      10.833  16.762  15.022  1.00  0.00     0.215 C 
HETATM   13  N6  UNL     1      11.760  17.518  14.539  1.00  0.00    -0.293 N 
ATOM     14  H6  UNL     1      11.942  17.559  13.536  1.00  0.00     0.187 HD
BRANCH  13  15
HETATM   15  N7  UNL     1      12.505  18.281  15.441  1.00  0.00    -0.275 N 
HETATM   16  C4  UNL     1      13.725  18.541  15.141  1.00  0.00     0.215 C 
HETATM   17  N8  UNL     1      14.481  19.315  16.057  1.00  0.00    -0.065 NA
HETATM   18  N9  UNL     1      14.318  18.084  13.943  1.00  0.00    -0.065 NA
ATOM     19  H7  UNL     1      12.093  18.620  16.311  1.00  0.00     0.189 HD
ENDBRANCH  13  15
ENDBRANCH   1  12
TORSDOF 6
ENDMDL
