MODEL 1
REMARK VINA RESULT: -4.810763342      0.000      0.000
REMARK  7 active torsions:
REMARK  status: ('A' for Active; 'I' for Inactive)
REMARK    1  A    between atoms: O1_1  and  C1_3 
REMARK    2  A    between atoms: C1_3  and  C2_4 
REMARK    3  A    between atoms: C2_4  and  N1_5 
REMARK    4  A    between atoms: N1_5  and  C3_6 
REMARK    5  A    between atoms: C3_6  and  C4_7 
REMARK    6  A    between atoms: C8_11  and  O2_12 
REMARK    7  A    between atoms: C9_14  and  O3_15 
ROOT
HETATM    1  N1  UNL     1       8.921  14.873  14.878  1.00  0.00    -0.034 N 
HETATM    2  C7  UNL     1       7.657  14.702  14.225  1.00  0.00     0.276 C 
HETATM    3  C8  UNL     1       7.975  15.780  13.212  1.00  0.00     0.201 C 
HETATM    4  C9  UNL     1       9.144  16.066  14.089  1.00  0.00     0.354 C 
ENDROOT
BRANCH   1   5
HETATM    5  C2  UNL     1       8.960  15.123  16.262  1.00  0.00     0.266 C 
BRANCH   5   6
HETATM    6  C1  UNL     1      10.224  15.704  16.806  1.00  0.00     0.192 C 
BRANCH   6   7
HETATM    7  O1  UNL     1       9.864  16.884  17.501  1.00  0.00    -0.399 OA
ATOM      8  H1  UNL     1      10.352  17.595  17.103  1.00  0.00     0.209 HD
ENDBRANCH   6   7
ENDBRANCH   5   6
ENDBRANCH   1   5
BRANCH   1   9
HETATM    9  C3  UNL     1       9.794  13.759  14.535  1.00  0.00     0.245 C 
BRANCH   9  10
HETATM   10  C4  UNL     1       9.048  12.449  14.486  1.00  0.00     0.012 A 
HETATM   11  C5  UNL     1       9.395  11.509  15.613  1.00  0.00     0.007 A 
HETATM   12  C6  UNL     1       9.794  11.199  14.218  1.00  0.00     0.007 A 
ENDBRANCH   9  10
ENDBRANCH   1   9
BRANCH   4  13
HETATM   13  O3  UNL     1       8.998  17.271  14.754  1.00  0.00    -0.367 OA
ATOM     14  H3  UNL     1       9.305  18.042  14.292  1.00  0.00     0.212 HD
ENDBRANCH   4  13
BRANCH   3  15
HETATM   15  O2  UNL     1       8.363  15.292  11.982  1.00  0.00    -0.389 OA
ATOM     16  H2  UNL     1       8.763  15.944  11.418  1.00  0.00     0.210 HD
ENDBRANCH   3  15
TORSDOF 7
ENDMDL
MODEL 2
REMARK VINA RESULT: -4.682250101      2.020      3.291
REMARK  7 active torsions:
REMARK  status: ('A' for Active; 'I' for Inactive)
REMARK    1  A    between atoms: O1_1  and  C1_3 
REMARK    2  A    between atoms: C1_3  and  C2_4 
REMARK    3  A    between atoms: C2_4  and  N1_5 
REMARK    4  A    between atoms: N1_5  and  C3_6 
REMARK    5  A    between atoms: C3_6  and  C4_7 
REMARK    6  A    between atoms: C8_11  and  O2_12 
REMARK    7  A    between atoms: C9_14  and  O3_15 
ROOT
HETATM    1  N1  UNL     1       8.754  13.707  14.458  1.00  0.00    -0.034 N 
HETATM    2  C7  UNL     1       9.328  14.456  15.536  1.00  0.00     0.276 C 
HETATM    3  C8  UNL     1       8.429  13.785  16.551  1.00  0.00     0.201 C 
HETATM    4  C9  UNL     1       7.722  13.239  15.359  1.00  0.00     0.354 C 
ENDROOT
BRANCH   1   5
HETATM    5  C2  UNL     1       8.232  14.385  13.341  1.00  0.00     0.266 C 
BRANCH   5   6
HETATM    6  C1  UNL     1       8.249  15.879  13.391  1.00  0.00     0.192 C 
BRANCH   6   7
HETATM    7  O1  UNL     1       6.948  16.287  13.769  1.00  0.00    -0.399 OA
ATOM      8  H1  UNL     1       6.561  16.705  13.008  1.00  0.00     0.209 HD
ENDBRANCH   6   7
ENDBRANCH   5   6
ENDBRANCH   1   5
BRANCH   1   9
HETATM    9  C3  UNL     1       9.691  12.675  14.037  1.00  0.00     0.245 C 
BRANCH   9  10
HETATM   10  C4  UNL     1       9.162  11.288  14.305  1.00  0.00     0.012 A 
HETATM   11  C5  UNL     1      10.127  10.403  15.054  1.00  0.00     0.007 A 
HETATM   12  C6  UNL     1       9.793  10.129  13.634  1.00  0.00     0.007 A 
ENDBRANCH   9  10
ENDBRANCH   1   9
BRANCH   4  13
HETATM   13  O3  UNL     1       6.473  13.814  15.203  1.00  0.00    -0.367 OA
ATOM     14  H3  UNL     1       6.415  14.522  14.572  1.00  0.00     0.212 HD
ENDBRANCH   4  13
BRANCH   3  15
HETATM   15  O2  UNL     1       9.052  12.791  17.277  1.00  0.00    -0.389 OA
ATOM     16  H2  UNL     1       9.505  13.106  18.050  1.00  0.00     0.210 HD
ENDBRANCH   3  15
TORSDOF 7
ENDMDL
MODEL 3
REMARK VINA RESULT: -4.544332691      7.779      9.101
REMARK  7 active torsions:
REMARK  status: ('A' for Active; 'I' for Inactive)
REMARK    1  A    between atoms: O1_1  and  C1_3 
REMARK    2  A    between atoms: C1_3  and  C2_4 
REMARK    3  A    between atoms: C2_4  and  N1_5 
REMARK    4  A    between atoms: N1_5  and  C3_6 
REMARK    5  A    between atoms: C3_6  and  C4_7 
REMARK    6  A    between atoms: C8_11  and  O2_12 
REMARK    7  A    between atoms: C9_14  and  O3_15 
ROOT
HETATM    1  N1  UNL     1      14.055  17.478  20.728  1.00  0.00    -0.034 N 
HETATM    2  C7  UNL     1      14.627  16.308  20.131  1.00  0.00     0.276 C 
HETATM    3  C8  UNL     1      15.796  16.326  21.092  1.00  0.00     0.201 C 
HETATM    4  C9  UNL     1      15.274  17.663  21.486  1.00  0.00     0.354 C 
ENDROOT
BRANCH   1   5
HETATM    5  C2  UNL     1      13.744  18.588  19.921  1.00  0.00     0.266 C 
BRANCH   5   6
HETATM    6  C1  UNL     1      13.989  18.445  18.454  1.00  0.00     0.192 C 
BRANCH   6   7
HETATM    7  O1  UNL     1      15.186  19.144  18.172  1.00  0.00    -0.399 OA
ATOM      8  H1  UNL     1      15.820  18.876  18.828  1.00  0.00     0.209 HD
ENDBRANCH   6   7
ENDBRANCH   5   6
ENDBRANCH   1   5
BRANCH   1   9
HETATM    9  C3  UNL     1      12.904  17.093  21.534  1.00  0.00     0.245 C 
BRANCH   9  10
HETATM   10  C4  UNL     1      11.831  18.152  21.530  1.00  0.00     0.012 A 
HETATM   11  C5  UNL     1      10.901  18.080  22.716  1.00  0.00     0.007 A 
HETATM   12  C6  UNL     1      10.417  17.752  21.352  1.00  0.00     0.007 A 
ENDBRANCH   9  10
ENDBRANCH   1   9
BRANCH   4  13
HETATM   13  O3  UNL     1      16.108  18.680  21.056  1.00  0.00    -0.367 OA
ATOM     14  H3  UNL     1      16.982  18.419  20.789  1.00  0.00     0.212 HD
ENDBRANCH   4  13
BRANCH   3  15
HETATM   15  O2  UNL     1      15.687  15.410  22.119  1.00  0.00    -0.389 OA
ATOM     16  H2  UNL     1      16.520  15.161  22.501  1.00  0.00     0.210 HD
ENDBRANCH   3  15
TORSDOF 7
ENDMDL
MODEL 4
REMARK VINA RESULT: -4.446815517      5.207      7.346
REMARK  7 active torsions:
REMARK  status: ('A' for Active; 'I' for Inactive)
REMARK    1  A    between atoms: O1_1  and  C1_3 
REMARK    2  A    between atoms: C1_3  and  C2_4 
REMARK    3  A    between atoms: C2_4  and  N1_5 
REMARK    4  A    between atoms: N1_5  and  C3_6 
REMARK    5  A    between atoms: C3_6  and  C4_7 
REMARK    6  A    between atoms: C8_11  and  O2_12 
REMARK    7  A    between atoms: C9_14  and  O3_15 
ROOT
HETATM    1  N1  UNL     1      13.647  17.909  18.491  1.00  0.00    -0.034 N 
HETATM    2  C7  UNL     1      13.787  18.226  17.101  1.00  0.00     0.276 C 
HETATM    3  C8  UNL     1      13.967  19.698  17.400  1.00  0.00     0.201 C 
HETATM    4  C9  UNL     1      13.566  19.325  18.784  1.00  0.00     0.354 C 
ENDROOT
BRANCH   1   5
HETATM    5  C2  UNL     1      12.516  17.198  18.932  1.00  0.00     0.266 C 
BRANCH   5   6
HETATM    6  C1  UNL     1      11.610  16.651  17.876  1.00  0.00     0.192 C 
BRANCH   6   7
HETATM    7  O1  UNL     1      10.287  16.934  18.290  1.00  0.00    -0.399 OA
ATOM      8  H1  UNL     1       9.868  17.392  17.570  1.00  0.00     0.209 HD
ENDBRANCH   6   7
ENDBRANCH   5   6
ENDBRANCH   1   5
BRANCH   1   9
HETATM    9  C3  UNL     1      14.868  17.272  18.964  1.00  0.00     0.245 C 
BRANCH   9  10
HETATM   10  C4  UNL     1      14.586  16.197  19.984  1.00  0.00     0.012 A 
HETATM   11  C5  UNL     1      15.333  16.380  21.282  1.00  0.00     0.007 A 
HETATM   12  C6  UNL     1      15.667  15.260  20.367  1.00  0.00     0.007 A 
ENDBRANCH   9  10
ENDBRANCH   1   9
BRANCH   4  13
HETATM   13  O3  UNL     1      12.307  19.810  19.096  1.00  0.00    -0.367 OA
ATOM     14  H3  UNL     1      11.938  19.513  19.920  1.00  0.00     0.212 HD
ENDBRANCH   4  13
BRANCH   3  15
HETATM   15  O2  UNL     1      15.279  20.122  17.343  1.00  0.00    -0.389 OA
ATOM     16  H2  UNL     1      15.873  19.606  17.876  1.00  0.00     0.210 HD
ENDBRANCH   3  15
TORSDOF 7
ENDMDL
MODEL 5
REMARK VINA RESULT: -4.444875455      7.203      8.433
REMARK  7 active torsions:
REMARK  status: ('A' for Active; 'I' for Inactive)
REMARK    1  A    between atoms: O1_1  and  C1_3 
REMARK    2  A    between atoms: C1_3  and  C2_4 
REMARK    3  A    between atoms: C2_4  and  N1_5 
REMARK    4  A    between atoms: N1_5  and  C3_6 
REMARK    5  A    between atoms: C3_6  and  C4_7 
REMARK    6  A    between atoms: C8_11  and  O2_12 
REMARK    7  A    between atoms: C9_14  and  O3_15 
ROOT
HETATM    1  N1  UNL     1      13.366  18.682  20.573  1.00  0.00    -0.034 N 
HETATM    2  C7  UNL     1      12.884  19.717  19.708  1.00  0.00     0.276 C 
HETATM    3  C8  UNL     1      13.654  19.162  18.529  1.00  0.00     0.201 C 
HETATM    4  C9  UNL     1      14.298  18.281  19.541  1.00  0.00     0.354 C 
ENDROOT
BRANCH   1   5
HETATM    5  C2  UNL     1      14.005  19.025  21.779  1.00  0.00     0.266 C 
BRANCH   5   6
HETATM    6  C1  UNL     1      14.315  17.906  22.719  1.00  0.00     0.192 C 
BRANCH   6   7
HETATM    7  O1  UNL     1      15.722  17.751  22.717  1.00  0.00    -0.399 OA
ATOM      8  H1  UNL     1      15.908  16.958  22.229  1.00  0.00     0.209 HD
ENDBRANCH   6   7
ENDBRANCH   5   6
ENDBRANCH   1   5
BRANCH   1   9
HETATM    9  C3  UNL     1      12.297  17.723  20.816  1.00  0.00     0.245 C 
BRANCH   9  10
HETATM   10  C4  UNL     1      10.997  18.401  21.168  1.00  0.00     0.012 A 
HETATM   11  C5  UNL     1      10.301  17.801  22.364  1.00  0.00     0.007 A 
HETATM   12  C6  UNL     1       9.725  17.661  21.004  1.00  0.00     0.007 A 
ENDBRANCH   9  10
ENDBRANCH   1   9
BRANCH   4  13
HETATM   13  O3  UNL     1      15.621  18.630  19.749  1.00  0.00    -0.367 OA
ATOM     14  H3  UNL     1      15.770  19.438  20.228  1.00  0.00     0.212 HD
ENDBRANCH   4  13
BRANCH   3  15
HETATM   15  O2  UNL     1      12.876  18.444  17.644  1.00  0.00    -0.389 OA
ATOM     16  H2  UNL     1      12.277  18.979  17.137  1.00  0.00     0.210 HD
ENDBRANCH   3  15
TORSDOF 7
ENDMDL
