MODEL 1
REMARK VINA RESULT: -9.988092637      0.000      0.000
REMARK  3 active torsions:
REMARK  status: ('A' for Active; 'I' for Inactive)
REMARK    1  A    between atoms: C9_13  and  C10_14 
REMARK    2  A    between atoms: C10_14  and  N2_15 
REMARK       I    between atoms: N2_15  and  C11_17 
REMARK    3  A    between atoms: C11_17  and  C12_19 
ROOT
HETATM    1  C12 UNL     1     -89.624  -1.691   4.303  1.00  0.00     0.103 A 
HETATM    2  C13 UNL     1     -90.776  -1.172   3.769  1.00  0.00     0.061 A 
HETATM    3  C14 UNL     1     -91.100   0.151   4.108  1.00  0.00     0.061 A 
HETATM    4 CL1  UNL     1     -92.562   0.850   3.448  1.00  0.00    -0.082 Cl
HETATM    5  C15 UNL     1     -90.267   0.861   4.943  1.00  0.00     0.093 A 
HETATM    6 CL2  UNL     1     -90.709   2.518   5.343  1.00  0.00    -0.079 Cl
HETATM    7  C16 UNL     1     -89.111   0.307   5.464  1.00  0.00     0.138 A 
HETATM    8  C17 UNL     1     -88.266   1.088   6.339  1.00  0.00     0.119 C 
HETATM    9  N3  UNL     1     -87.575   1.728   7.026  1.00  0.00    -0.190 NA
HETATM   10  N4  UNL     1     -88.826  -0.945   5.130  1.00  0.00    -0.342 N 
ATOM     11  H4  UNL     1     -87.978  -1.369   5.503  1.00  0.00     0.167 HD
ENDROOT
BRANCH   1  12
HETATM   12  C11 UNL     1     -89.233  -3.054   3.993  1.00  0.00     0.268 C 
HETATM   13  N2  UNL     1     -88.024  -3.635   4.411  1.00  0.00    -0.353 N 
ATOM     14  H2  UNL     1     -87.392  -3.053   4.961  1.00  0.00     0.162 HD
HETATM   15  O2  UNL     1     -90.049  -3.752   3.297  1.00  0.00    -0.266 OA
BRANCH  13  16
HETATM   16  C10 UNL     1     -87.603  -4.980   4.130  1.00  0.00     0.159 C 
BRANCH  16  17
HETATM   17  C9  UNL     1     -87.076  -5.143   2.763  1.00  0.00     0.168 C 
HETATM   18  C2  UNL     1     -87.220  -6.480   2.179  1.00  0.00    -0.056 C 
HETATM   19  C1  UNL     1     -87.937  -7.483   2.579  1.00  0.00     0.017 C 
HETATM   20  C3  UNL     1     -86.335  -6.448   0.990  1.00  0.00     0.074 C 
HETATM   21  C4  UNL     1     -85.297  -5.442   1.450  1.00  0.00     0.068 C 
HETATM   22  C5  UNL     1     -83.921  -6.029   1.473  1.00  0.00     0.066 C 
HETATM   23  C8  UNL     1     -85.275  -4.205   0.593  1.00  0.00     0.066 C 
HETATM   24  O1  UNL     1     -85.662  -5.034   2.740  1.00  0.00    -0.368 OA
HETATM   25  C6  UNL     1     -83.444  -6.313   0.069  1.00  0.00     0.235 C 
HETATM   26  N1  UNL     1     -83.269  -5.017  -0.578  1.00  0.00    -0.075 N 
HETATM   27  C7  UNL     1     -84.532  -4.364  -0.686  1.00  0.00     0.235 C 
ATOM     28  H12 UNL     1     -82.576  -4.439  -0.102  1.00  0.00     0.277 HD
ATOM     29  H11 UNL     1     -82.797  -5.097  -1.479  1.00  0.00     0.277 HD
ENDBRANCH  16  17
ENDBRANCH  13  16
ENDBRANCH   1  12
TORSDOF 3
ENDMDL
MODEL 2
REMARK VINA RESULT: -9.694389763      4.502      6.038
REMARK  3 active torsions:
REMARK  status: ('A' for Active; 'I' for Inactive)
REMARK    1  A    between atoms: C9_13  and  C10_14 
REMARK    2  A    between atoms: C10_14  and  N2_15 
REMARK       I    between atoms: N2_15  and  C11_17 
REMARK    3  A    between atoms: C11_17  and  C12_19 
ROOT
HETATM    1  C12 UNL     1     -89.856  -1.451   3.905  1.00  0.00     0.103 A 
HETATM    2  C13 UNL     1     -90.844  -0.501   3.924  1.00  0.00     0.061 A 
HETATM    3  C14 UNL     1     -90.627   0.633   4.725  1.00  0.00     0.061 A 
HETATM    4 CL1  UNL     1     -91.863   1.869   4.777  1.00  0.00    -0.082 Cl
HETATM    5  C15 UNL     1     -89.456   0.743   5.442  1.00  0.00     0.093 A 
HETATM    6 CL2  UNL     1     -89.224   2.179   6.433  1.00  0.00    -0.079 Cl
HETATM    7  C16 UNL     1     -88.480  -0.237   5.399  1.00  0.00     0.138 A 
HETATM    8  C17 UNL     1     -87.266  -0.081   6.169  1.00  0.00     0.119 C 
HETATM    9  N3  UNL     1     -86.280   0.058   6.775  1.00  0.00    -0.190 NA
HETATM   10  N4  UNL     1     -88.708  -1.297   4.636  1.00  0.00    -0.342 N 
ATOM     11  H4  UNL     1     -87.998  -2.028   4.591  1.00  0.00     0.167 HD
ENDROOT
BRANCH   1  12
HETATM   12  C11 UNL     1     -90.019  -2.647   3.098  1.00  0.00     0.268 C 
HETATM   13  N2  UNL     1     -90.114  -2.639   1.697  1.00  0.00    -0.353 N 
ATOM     14  H2  UNL     1     -90.069  -1.732   1.231  1.00  0.00     0.162 HD
HETATM   15  O2  UNL     1     -90.076  -3.766   3.717  1.00  0.00    -0.266 OA
BRANCH  13  16
HETATM   16  C10 UNL     1     -90.271  -3.799   0.863  1.00  0.00     0.159 C 
BRANCH  16  17
HETATM   17  C9  UNL     1     -91.666  -4.266   0.785  1.00  0.00     0.168 C 
HETATM   18  C2  UNL     1     -91.866  -5.710   0.942  1.00  0.00    -0.056 C 
HETATM   19  C1  UNL     1     -91.040  -6.616   1.364  1.00  0.00     0.017 C 
HETATM   20  C3  UNL     1     -93.262  -5.929   0.495  1.00  0.00     0.074 C 
HETATM   21  C4  UNL     1     -93.409  -4.797  -0.503  1.00  0.00     0.068 C 
HETATM   22  C5  UNL     1     -93.730  -5.299  -1.876  1.00  0.00     0.066 C 
HETATM   23  C8  UNL     1     -94.467  -3.805  -0.097  1.00  0.00     0.066 C 
HETATM   24  O1  UNL     1     -92.192  -4.104  -0.523  1.00  0.00    -0.368 OA
HETATM   25  C6  UNL     1     -95.117  -5.894  -1.911  1.00  0.00     0.235 C 
HETATM   26  N1  UNL     1     -96.047  -4.788  -1.709  1.00  0.00    -0.075 N 
HETATM   27  C7  UNL     1     -95.857  -4.239  -0.406  1.00  0.00     0.235 C 
ATOM     28  H12 UNL     1     -95.970  -4.082  -2.440  1.00  0.00     0.277 HD
ATOM     29  H11 UNL     1     -97.015  -5.064  -1.873  1.00  0.00     0.277 HD
ENDBRANCH  16  17
ENDBRANCH  13  16
ENDBRANCH   1  12
TORSDOF 3
ENDMDL
MODEL 3
REMARK VINA RESULT: -9.575134583      1.537      1.768
REMARK  3 active torsions:
REMARK  status: ('A' for Active; 'I' for Inactive)
REMARK    1  A    between atoms: C9_13  and  C10_14 
REMARK    2  A    between atoms: C10_14  and  N2_15 
REMARK       I    between atoms: N2_15  and  C11_17 
REMARK    3  A    between atoms: C11_17  and  C12_19 
ROOT
HETATM    1  C12 UNL     1     -89.106  -3.079   4.080  1.00  0.00     0.103 A 
HETATM    2  C13 UNL     1     -90.203  -2.368   3.667  1.00  0.00     0.061 A 
HETATM    3  C14 UNL     1     -90.298  -1.032   4.090  1.00  0.00     0.061 A 
HETATM    4 CL1  UNL     1     -91.683  -0.090   3.585  1.00  0.00    -0.082 Cl
HETATM    5  C15 UNL     1     -89.306  -0.500   4.883  1.00  0.00     0.093 A 
HETATM    6 CL2  UNL     1     -89.462   1.178   5.391  1.00  0.00    -0.079 Cl
HETATM    7  C16 UNL     1     -88.211  -1.247   5.281  1.00  0.00     0.138 A 
HETATM    8  C17 UNL     1     -87.194  -0.648   6.116  1.00  0.00     0.119 C 
HETATM    9  N3  UNL     1     -86.365  -0.157   6.772  1.00  0.00    -0.190 NA
HETATM   10  N4  UNL     1     -88.145  -2.506   4.870  1.00  0.00    -0.342 N 
ATOM     11  H4  UNL     1     -87.344  -3.071   5.152  1.00  0.00     0.167 HD
ENDROOT
BRANCH   1  12
HETATM   12  C11 UNL     1     -88.949  -4.465   3.678  1.00  0.00     0.268 C 
HETATM   13  N2  UNL     1     -89.201  -4.936   2.379  1.00  0.00    -0.353 N 
ATOM     14  H2  UNL     1     -89.515  -4.255   1.688  1.00  0.00     0.162 HD
HETATM   15  O2  UNL     1     -88.558  -5.292   4.574  1.00  0.00    -0.266 OA
BRANCH  13  16
HETATM   16  C10 UNL     1     -89.053  -6.297   1.941  1.00  0.00     0.159 C 
BRANCH  16  17
HETATM   17  C9  UNL     1     -87.938  -6.477   0.994  1.00  0.00     0.168 C 
HETATM   18  C2  UNL     1     -87.325  -7.808   0.976  1.00  0.00    -0.056 C 
HETATM   19  C1  UNL     1     -87.749  -8.920   1.492  1.00  0.00     0.017 C 
HETATM   20  C3  UNL     1     -86.067  -7.613   0.218  1.00  0.00     0.074 C 
HETATM   21  C4  UNL     1     -85.776  -6.160   0.543  1.00  0.00     0.068 C 
HETATM   22  C5  UNL     1     -84.458  -5.993   1.229  1.00  0.00     0.066 C 
HETATM   23  C8  UNL     1     -85.793  -5.282  -0.680  1.00  0.00     0.066 C 
HETATM   24  O1  UNL     1     -86.808  -5.710   1.377  1.00  0.00    -0.368 OA
HETATM   25  C6  UNL     1     -83.324  -6.308   0.282  1.00  0.00     0.235 C 
HETATM   26  N1  UNL     1     -83.332  -5.261  -0.734  1.00  0.00    -0.075 N 
HETATM   27  C7  UNL     1     -84.542  -5.337  -1.485  1.00  0.00     0.235 C 
ATOM     28  H12 UNL     1     -83.184  -4.335  -0.334  1.00  0.00     0.277 HD
ATOM     29  H11 UNL     1     -82.505  -5.296  -1.330  1.00  0.00     0.277 HD
ENDBRANCH  16  17
ENDBRANCH  13  16
ENDBRANCH   1  12
TORSDOF 3
ENDMDL
MODEL 4
REMARK VINA RESULT: -9.557453737      3.356      4.302
REMARK  3 active torsions:
REMARK  status: ('A' for Active; 'I' for Inactive)
REMARK    1  A    between atoms: C9_13  and  C10_14 
REMARK    2  A    between atoms: C10_14  and  N2_15 
REMARK       I    between atoms: N2_15  and  C11_17 
REMARK    3  A    between atoms: C11_17  and  C12_19 
ROOT
HETATM    1  C12 UNL     1     -90.304  -0.954   3.815  1.00  0.00     0.103 A 
HETATM    2  C13 UNL     1     -91.128   0.109   4.085  1.00  0.00     0.061 A 
HETATM    3  C14 UNL     1     -90.696   1.025   5.057  1.00  0.00     0.061 A 
HETATM    4 CL1  UNL     1     -91.719   2.394   5.430  1.00  0.00    -0.082 Cl
HETATM    5  C15 UNL     1     -89.487   0.827   5.686  1.00  0.00     0.093 A 
HETATM    6 CL2  UNL     1     -88.982   1.999   6.898  1.00  0.00    -0.079 Cl
HETATM    7  C16 UNL     1     -88.680  -0.257   5.390  1.00  0.00     0.138 A 
HETATM    8  C17 UNL     1     -87.419  -0.427   6.076  1.00  0.00     0.119 C 
HETATM    9  N3  UNL     1     -86.394  -0.551   6.616  1.00  0.00    -0.190 NA
HETATM   10  N4  UNL     1     -89.110  -1.109   4.468  1.00  0.00    -0.342 N 
ATOM     11  H4  UNL     1     -88.527  -1.913   4.236  1.00  0.00     0.167 HD
ENDROOT
BRANCH   1  12
HETATM   12  C11 UNL     1     -90.693  -1.938   2.822  1.00  0.00     0.268 C 
HETATM   13  N2  UNL     1     -91.584  -2.994   3.074  1.00  0.00    -0.353 N 
ATOM     14  H2  UNL     1     -91.970  -3.064   4.016  1.00  0.00     0.162 HD
HETATM   15  O2  UNL     1     -90.186  -1.820   1.653  1.00  0.00    -0.266 OA
BRANCH  13  16
HETATM   16  C10 UNL     1     -91.998  -3.984   2.118  1.00  0.00     0.159 C 
BRANCH  16  17
HETATM   17  C9  UNL     1     -91.416  -5.312   2.378  1.00  0.00     0.168 C 
HETATM   18  C2  UNL     1     -92.233  -6.220   3.188  1.00  0.00    -0.056 C 
HETATM   19  C1  UNL     1     -93.483  -6.130   3.522  1.00  0.00     0.017 C 
HETATM   20  C3  UNL     1     -91.297  -7.306   3.564  1.00  0.00     0.074 C 
HETATM   21  C4  UNL     1     -89.985  -6.545   3.568  1.00  0.00     0.068 C 
HETATM   22  C5  UNL     1     -89.319  -6.584   4.906  1.00  0.00     0.066 C 
HETATM   23  C8  UNL     1     -89.018  -7.062   2.536  1.00  0.00     0.066 C 
HETATM   24  O1  UNL     1     -90.277  -5.219   3.220  1.00  0.00    -0.368 OA
HETATM   25  C6  UNL     1     -88.840  -7.982   5.218  1.00  0.00     0.235 C 
HETATM   26  N1  UNL     1     -87.765  -8.271   4.276  1.00  0.00    -0.075 N 
HETATM   27  C7  UNL     1     -88.288  -8.291   2.949  1.00  0.00     0.235 C 
ATOM     28  H12 UNL     1     -86.983  -7.623   4.372  1.00  0.00     0.277 HD
ATOM     29  H11 UNL     1     -87.270  -9.132   4.508  1.00  0.00     0.277 HD
ENDBRANCH  16  17
ENDBRANCH  13  16
ENDBRANCH   1  12
TORSDOF 3
ENDMDL
MODEL 5
REMARK VINA RESULT: -9.551258379      1.361      2.222
REMARK  3 active torsions:
REMARK  status: ('A' for Active; 'I' for Inactive)
REMARK    1  A    between atoms: C9_13  and  C10_14 
REMARK    2  A    between atoms: C10_14  and  N2_15 
REMARK       I    between atoms: N2_15  and  C11_17 
REMARK    3  A    between atoms: C11_17  and  C12_19 
ROOT
HETATM    1  C12 UNL     1     -89.476  -1.579   4.416  1.00  0.00     0.103 A 
HETATM    2  C13 UNL     1     -88.606  -0.839   5.175  1.00  0.00     0.061 A 
HETATM    3  C14 UNL     1     -88.980   0.481   5.474  1.00  0.00     0.061 A 
HETATM    4 CL1  UNL     1     -87.897   1.459   6.439  1.00  0.00    -0.082 Cl
HETATM    5  C15 UNL     1     -90.179   0.969   5.006  1.00  0.00     0.093 A 
HETATM    6 CL2  UNL     1     -90.611   2.629   5.404  1.00  0.00    -0.079 Cl
HETATM    7  C16 UNL     1     -91.034   0.193   4.243  1.00  0.00     0.138 A 
HETATM    8  C17 UNL     1     -92.284   0.747   3.771  1.00  0.00     0.119 C 
HETATM    9  N3  UNL     1     -93.300   1.189   3.410  1.00  0.00    -0.190 NA
HETATM   10  N4  UNL     1     -90.659  -1.050   3.974  1.00  0.00    -0.342 N 
ATOM     11  H4  UNL     1     -91.278  -1.636   3.414  1.00  0.00     0.167 HD
ENDROOT
BRANCH   1  12
HETATM   12  C11 UNL     1     -89.148  -2.950   4.071  1.00  0.00     0.268 C 
HETATM   13  N2  UNL     1     -87.977  -3.604   4.489  1.00  0.00    -0.353 N 
ATOM     14  H2  UNL     1     -87.325  -3.071   5.065  1.00  0.00     0.162 HD
HETATM   15  O2  UNL     1     -89.987  -3.586   3.343  1.00  0.00    -0.266 OA
BRANCH  13  16
HETATM   16  C10 UNL     1     -87.619  -4.960   4.173  1.00  0.00     0.159 C 
BRANCH  16  17
HETATM   17  C9  UNL     1     -87.112  -5.114   2.797  1.00  0.00     0.168 C 
HETATM   18  C2  UNL     1     -87.276  -6.443   2.203  1.00  0.00    -0.056 C 
HETATM   19  C1  UNL     1     -87.997  -7.444   2.602  1.00  0.00     0.017 C 
HETATM   20  C3  UNL     1     -86.407  -6.408   1.002  1.00  0.00     0.074 C 
HETATM   21  C4  UNL     1     -85.353  -5.417   1.458  1.00  0.00     0.068 C 
HETATM   22  C5  UNL     1     -83.983  -6.017   1.457  1.00  0.00     0.066 C 
HETATM   23  C8  UNL     1     -85.331  -4.171   0.613  1.00  0.00     0.066 C 
HETATM   24  O1  UNL     1     -85.697  -5.018   2.757  1.00  0.00    -0.368 OA
HETATM   25  C6  UNL     1     -83.526  -6.291   0.044  1.00  0.00     0.235 C 
HETATM   26  N1  UNL     1     -83.347  -4.991  -0.592  1.00  0.00    -0.075 N 
HETATM   27  C7  UNL     1     -84.606  -4.325  -0.678  1.00  0.00     0.235 C 
ATOM     28  H12 UNL     1     -82.643  -4.424  -0.120  1.00  0.00     0.277 HD
ATOM     29  H11 UNL     1     -82.888  -5.066  -1.500  1.00  0.00     0.277 HD
ENDBRANCH  16  17
ENDBRANCH  13  16
ENDBRANCH   1  12
TORSDOF 3
ENDMDL
