MODEL 1
REMARK VINA RESULT: -9.383307622      0.000      0.000
REMARK  11 active torsions:
REMARK  status: ('A' for Active; 'I' for Inactive)
REMARK    1  A    between atoms: C2_2  and  N1_5 
REMARK    2  A    between atoms: C4_6  and  C5_7 
REMARK    3  A    between atoms: C5_7  and  C6_8 
REMARK    4  A    between atoms: C8_11  and  C9_12 
REMARK    5  A    between atoms: C17_27  and  S1_28 
REMARK    6  A    between atoms: S1_28  and  C18_29 
REMARK    7  A    between atoms: C18_29  and  C19_30 
REMARK    8  A    between atoms: C19_30  and  O3_31 
REMARK    9  A    between atoms: C19_30  and  N5_33 
REMARK   10  A    between atoms: N5_33  and  C20_35 
REMARK   11  A    between atoms: C20_35  and  C21_36 
ROOT
HETATM    1  N1  UNL     1      25.736 -31.015  -7.480  1.00  0.00    -0.274 N 
HETATM    2  C4  UNL     1      27.075 -30.921  -7.608  1.00  0.00     0.129 A 
HETATM    3  N3  UNL     1      27.389 -29.724  -7.007  1.00  0.00    -0.283 N 
ATOM      4  H3  UNL     1      28.332 -29.345  -6.924  1.00  0.00     0.188 HD
HETATM    5  N4  UNL     1      26.300 -29.135  -6.554  1.00  0.00    -0.278 N 
ATOM      6  H4  UNL     1      26.267 -28.238  -6.071  1.00  0.00     0.189 HD
HETATM    7  C17 UNL     1      25.276 -29.886  -6.826  1.00  0.00     0.166 A 
ENDROOT
BRANCH   2   8
HETATM    8  C5  UNL     1      28.032 -31.754  -8.308  1.00  0.00     0.081 C 
BRANCH   8   9
HETATM    9  C6  UNL     1      28.673 -32.858  -7.644  1.00  0.00     0.060 A 
HETATM   10  C7  UNL     1      28.239 -33.748  -6.705  1.00  0.00     0.173 A 
HETATM   11  O1  UNL     1      29.268 -34.479  -6.315  1.00  0.00    -0.304 OA
HETATM   12  C8  UNL     1      30.359 -34.127  -6.942  1.00  0.00     0.161 A 
HETATM   13  N2  UNL     1      30.031 -33.158  -7.749  1.00  0.00    -0.336 N 
ATOM     14  H2  UNL     1      30.680 -32.683  -8.375  1.00  0.00     0.168 HD
BRANCH  12  15
HETATM   15  C9  UNL     1      31.693 -34.788  -6.692  1.00  0.00     0.152 A 
HETATM   16  C10 UNL     1      32.744 -33.979  -6.162  1.00  0.00     0.050 C 
HETATM   17  C11 UNL     1      34.193 -34.042  -6.424  1.00  0.00     0.015 C 
HETATM   18  C12 UNL     1      34.710 -33.550  -7.799  1.00  0.00     0.080 C 
HETATM   19  C13 UNL     1      33.885 -34.111  -8.782  1.00  0.00    -0.183 C 
HETATM   20  C14 UNL     1      33.056 -34.611  -9.802  1.00  0.00     0.082 C 
HETATM   21  C15 UNL     1      31.851 -35.361  -9.129  1.00  0.00     0.046 C 
HETATM   22  C16 UNL     1      32.131 -35.799  -7.759  1.00  0.00     0.167 A 
HETATM   23  O2  UNL     1      31.374 -36.089  -6.702  1.00  0.00    -0.360 OA
ENDBRANCH  12  15
ENDBRANCH   8   9
ENDBRANCH   2   8
BRANCH   1  24
HETATM   24  C2  UNL     1      24.897 -32.079  -7.935  1.00  0.00     0.177 C 
HETATM   25  C1  UNL     1      23.661 -31.608  -8.696  1.00  0.00     0.076 C 
HETATM   26  C3  UNL     1      24.547 -33.082  -6.856  1.00  0.00     0.076 C 
HETATM   27  F1  UNL     1      25.618 -32.820  -8.890  1.00  0.00    -0.220 F 
ENDBRANCH   1  24
BRANCH   7  28
HETATM   28  S1  UNL     1      23.509 -29.595  -6.528  1.00  0.00    -0.084 SA
BRANCH  28  29
HETATM   29  C18 UNL     1      23.074 -30.325  -4.956  1.00  0.00     0.166 C 
BRANCH  29  30
HETATM   30  C19 UNL     1      24.083 -30.501  -3.921  1.00  0.00     0.121 C 
BRANCH  30  31
HETATM   31  O3  UNL     1      24.599 -29.470  -3.316  1.00  0.00    -0.349 OA
ATOM     32  H3  UNL     1      24.235 -28.602  -3.443  1.00  0.00     0.219 HD
ENDBRANCH  30  31
BRANCH  30  33
HETATM   33  N5  UNL     1      24.609 -31.737  -3.444  1.00  0.00    -0.371 N 
ATOM     34  H5  UNL     1      23.978 -32.406  -3.002  1.00  0.00     0.161 HD
BRANCH  33  35
HETATM   35  C20 UNL     1      26.025 -32.074  -3.570  1.00  0.00     0.153 C 
BRANCH  35  36
HETATM   36  C21 UNL     1      26.288 -33.548  -3.503  1.00  0.00     0.139 C 
HETATM   37  C22 UNL     1      27.721 -33.884  -3.137  1.00  0.00     0.035 C 
HETATM   38  C23 UNL     1      27.676 -34.105  -1.643  1.00  0.00     0.029 C 
HETATM   39  C24 UNL     1      26.219 -34.085  -1.334  1.00  0.00     0.168 C 
HETATM   40  O4  UNL     1      25.502 -34.077  -2.490  1.00  0.00    -0.384 OA
ENDBRANCH  35  36
ENDBRANCH  33  35
ENDBRANCH  30  33
ENDBRANCH  29  30
ENDBRANCH  28  29
ENDBRANCH   7  28
TORSDOF 11
ENDMDL
MODEL 2
REMARK VINA RESULT: -9.301246606      5.076     10.257
REMARK  11 active torsions:
REMARK  status: ('A' for Active; 'I' for Inactive)
REMARK    1  A    between atoms: C2_2  and  N1_5 
REMARK    2  A    between atoms: C4_6  and  C5_7 
REMARK    3  A    between atoms: C5_7  and  C6_8 
REMARK    4  A    between atoms: C8_11  and  C9_12 
REMARK    5  A    between atoms: C17_27  and  S1_28 
REMARK    6  A    between atoms: S1_28  and  C18_29 
REMARK    7  A    between atoms: C18_29  and  C19_30 
REMARK    8  A    between atoms: C19_30  and  O3_31 
REMARK    9  A    between atoms: C19_30  and  N5_33 
REMARK   10  A    between atoms: N5_33  and  C20_35 
REMARK   11  A    between atoms: C20_35  and  C21_36 
ROOT
HETATM    1  N1  UNL     1      33.117 -34.494  -7.949  1.00  0.00    -0.274 N 
HETATM    2  C4  UNL     1      32.834 -34.664  -6.643  1.00  0.00     0.129 A 
HETATM    3  N3  UNL     1      33.869 -34.036  -5.988  1.00  0.00    -0.283 N 
ATOM      4  H3  UNL     1      33.962 -33.973  -4.975  1.00  0.00     0.188 HD
HETATM    5  N4  UNL     1      34.722 -33.527  -6.855  1.00  0.00    -0.278 N 
ATOM      6  H4  UNL     1      35.571 -33.014  -6.621  1.00  0.00     0.189 HD
HETATM    7  C17 UNL     1      34.302 -33.788  -8.056  1.00  0.00     0.166 A 
ENDROOT
BRANCH   2   8
HETATM    8  C5  UNL     1      31.795 -35.424  -5.977  1.00  0.00     0.081 C 
BRANCH   8   9
HETATM    9  C6  UNL     1      30.684 -34.759  -5.349  1.00  0.00     0.060 A 
HETATM   10  C7  UNL     1      30.374 -34.507  -4.045  1.00  0.00     0.173 A 
HETATM   11  O1  UNL     1      29.160 -33.990  -3.995  1.00  0.00    -0.304 OA
HETATM   12  C8  UNL     1      28.645 -33.882  -5.191  1.00  0.00     0.161 A 
HETATM   13  N2  UNL     1      29.539 -34.333  -6.025  1.00  0.00    -0.336 N 
ATOM     14  H2  UNL     1      29.419 -34.369  -7.037  1.00  0.00     0.168 HD
BRANCH  12  15
HETATM   15  C9  UNL     1      27.263 -33.329  -5.438  1.00  0.00     0.152 A 
HETATM   16  C10 UNL     1      26.401 -34.063  -6.308  1.00  0.00     0.050 C 
HETATM   17  C11 UNL     1      25.389 -33.565  -7.257  1.00  0.00     0.015 C 
HETATM   18  C12 UNL     1      25.879 -32.885  -8.559  1.00  0.00     0.080 C 
HETATM   19  C13 UNL     1      26.884 -31.977  -8.205  1.00  0.00    -0.183 C 
HETATM   20  C14 UNL     1      27.933 -31.088  -7.906  1.00  0.00     0.082 C 
HETATM   21  C15 UNL     1      28.282 -31.240  -6.382  1.00  0.00     0.046 C 
HETATM   22  C16 UNL     1      27.187 -31.804  -5.588  1.00  0.00     0.167 A 
HETATM   23  O2  UNL     1      27.119 -32.458  -4.430  1.00  0.00    -0.360 OA
ENDBRANCH  12  15
ENDBRANCH   8   9
ENDBRANCH   2   8
BRANCH   1  24
HETATM   24  C2  UNL     1      32.351 -34.953  -9.066  1.00  0.00     0.177 C 
HETATM   25  C1  UNL     1      31.372 -33.917  -9.610  1.00  0.00     0.076 C 
HETATM   26  C3  UNL     1      31.686 -36.294  -8.838  1.00  0.00     0.076 C 
HETATM   27  F1  UNL     1      33.237 -35.171 -10.137  1.00  0.00    -0.220 F 
ENDBRANCH   1  24
BRANCH   7  28
HETATM   28  S1  UNL     1      35.067 -33.419  -9.660  1.00  0.00    -0.084 SA
BRANCH  28  29
HETATM   29  C18 UNL     1      36.690 -32.733  -9.367  1.00  0.00     0.166 C 
BRANCH  29  30
HETATM   30  C19 UNL     1      37.358 -31.953 -10.398  1.00  0.00     0.121 C 
BRANCH  30  31
HETATM   31  O3  UNL     1      36.929 -31.973 -11.627  1.00  0.00    -0.349 OA
ATOM     32  H3  UNL     1      36.856 -31.169 -12.128  1.00  0.00     0.219 HD
ENDBRANCH  30  31
BRANCH  30  33
HETATM   33  N5  UNL     1      38.491 -31.104 -10.227  1.00  0.00    -0.371 N 
ATOM     34  H5  UNL     1      39.024 -30.818 -11.048  1.00  0.00     0.161 HD
BRANCH  33  35
HETATM   35  C20 UNL     1      38.911 -30.633  -8.909  1.00  0.00     0.153 C 
BRANCH  35  36
HETATM   36  C21 UNL     1      40.285 -30.035  -8.907  1.00  0.00     0.139 C 
HETATM   37  C22 UNL     1      40.618 -29.296 -10.189  1.00  0.00     0.035 C 
HETATM   38  C23 UNL     1      40.291 -27.854  -9.877  1.00  0.00     0.029 C 
HETATM   39  C24 UNL     1      40.012 -27.872  -8.414  1.00  0.00     0.168 C 
HETATM   40  O4  UNL     1      40.338 -29.087  -7.897  1.00  0.00    -0.384 OA
ENDBRANCH  35  36
ENDBRANCH  33  35
ENDBRANCH  30  33
ENDBRANCH  29  30
ENDBRANCH  28  29
ENDBRANCH   7  28
TORSDOF 11
ENDMDL
MODEL 3
REMARK VINA RESULT: -9.241311963      1.373      1.906
REMARK  11 active torsions:
REMARK  status: ('A' for Active; 'I' for Inactive)
REMARK    1  A    between atoms: C2_2  and  N1_5 
REMARK    2  A    between atoms: C4_6  and  C5_7 
REMARK    3  A    between atoms: C5_7  and  C6_8 
REMARK    4  A    between atoms: C8_11  and  C9_12 
REMARK    5  A    between atoms: C17_27  and  S1_28 
REMARK    6  A    between atoms: S1_28  and  C18_29 
REMARK    7  A    between atoms: C18_29  and  C19_30 
REMARK    8  A    between atoms: C19_30  and  O3_31 
REMARK    9  A    between atoms: C19_30  and  N5_33 
REMARK   10  A    between atoms: N5_33  and  C20_35 
REMARK   11  A    between atoms: C20_35  and  C21_36 
ROOT
HETATM    1  N1  UNL     1      25.172 -31.299  -7.309  1.00  0.00    -0.274 N 
HETATM    2  C4  UNL     1      25.899 -32.367  -7.693  1.00  0.00     0.129 A 
HETATM    3  N3  UNL     1      25.154 -33.448  -7.280  1.00  0.00    -0.283 N 
ATOM      4  H3  UNL     1      25.419 -34.423  -7.419  1.00  0.00     0.188 HD
HETATM    5  N4  UNL     1      24.052 -33.047  -6.679  1.00  0.00    -0.278 N 
ATOM      6  H4  UNL     1      23.335 -33.655  -6.284  1.00  0.00     0.189 HD
HETATM    7  C17 UNL     1      24.028 -31.748  -6.674  1.00  0.00     0.166 A 
ENDROOT
BRANCH   2   8
HETATM    8  C5  UNL     1      27.220 -32.468  -8.281  1.00  0.00     0.081 C 
BRANCH   8   9
HETATM    9  C6  UNL     1      28.381 -32.662  -7.453  1.00  0.00     0.060 A 
HETATM   10  C7  UNL     1      28.994 -31.875  -6.523  1.00  0.00     0.173 A 
HETATM   11  O1  UNL     1      30.118 -32.462  -6.154  1.00  0.00    -0.304 OA
HETATM   12  C8  UNL     1      30.287 -33.594  -6.784  1.00  0.00     0.161 A 
HETATM   13  N2  UNL     1      29.257 -33.742  -7.569  1.00  0.00    -0.336 N 
ATOM     14  H2  UNL     1      29.111 -34.541  -8.185  1.00  0.00     0.168 HD
BRANCH  12  15
HETATM   15  C9  UNL     1      31.491 -34.478  -6.567  1.00  0.00     0.152 A 
HETATM   16  C10 UNL     1      32.656 -33.881  -5.998  1.00  0.00     0.050 C 
HETATM   17  C11 UNL     1      34.077 -34.170  -6.262  1.00  0.00     0.015 C 
HETATM   18  C12 UNL     1      34.680 -33.704  -7.610  1.00  0.00     0.080 C 
HETATM   19  C13 UNL     1      33.782 -34.072  -8.620  1.00  0.00    -0.183 C 
HETATM   20  C14 UNL     1      32.890 -34.377  -9.664  1.00  0.00     0.082 C 
HETATM   21  C15 UNL     1      31.572 -34.950  -9.029  1.00  0.00     0.046 C 
HETATM   22  C16 UNL     1      31.765 -35.494  -7.683  1.00  0.00     0.167 A 
HETATM   23  O2  UNL     1      30.961 -35.706  -6.641  1.00  0.00    -0.360 OA
ENDBRANCH  12  15
ENDBRANCH   8   9
ENDBRANCH   2   8
BRANCH   1  24
HETATM   24  C2  UNL     1      25.495 -29.920  -7.503  1.00  0.00     0.177 C 
HETATM   25  C1  UNL     1      25.699 -29.533  -8.965  1.00  0.00     0.076 C 
HETATM   26  C3  UNL     1      26.629 -29.431  -6.627  1.00  0.00     0.076 C 
HETATM   27  F1  UNL     1      24.382 -29.155  -7.106  1.00  0.00    -0.220 F 
ENDBRANCH   1  24
BRANCH   7  28
HETATM   28  S1  UNL     1      22.820 -30.610  -5.939  1.00  0.00    -0.084 SA
BRANCH  28  29
HETATM   29  C18 UNL     1      22.985 -30.682  -4.162  1.00  0.00     0.166 C 
BRANCH  29  30
HETATM   30  C19 UNL     1      24.302 -30.764  -3.547  1.00  0.00     0.121 C 
BRANCH  30  31
HETATM   31  O3  UNL     1      25.003 -29.688  -3.335  1.00  0.00    -0.349 OA
ATOM     32  H3  UNL     1      25.760 -29.490  -3.874  1.00  0.00     0.219 HD
ENDBRANCH  30  31
BRANCH  30  33
HETATM   33  N5  UNL     1      24.967 -31.947  -3.108  1.00  0.00    -0.371 N 
ATOM     34  H5  UNL     1      24.528 -32.525  -2.392  1.00  0.00     0.161 HD
BRANCH  33  35
HETATM   35  C20 UNL     1      26.259 -32.355  -3.655  1.00  0.00     0.153 C 
BRANCH  35  36
HETATM   36  C21 UNL     1      26.581 -33.796  -3.394  1.00  0.00     0.139 C 
HETATM   37  C22 UNL     1      27.752 -34.305  -4.212  1.00  0.00     0.035 C 
HETATM   38  C23 UNL     1      28.937 -34.159  -3.286  1.00  0.00     0.029 C 
HETATM   39  C24 UNL     1      28.315 -33.790  -1.984  1.00  0.00     0.168 C 
HETATM   40  O4  UNL     1      26.963 -33.915  -2.067  1.00  0.00    -0.384 OA
ENDBRANCH  35  36
ENDBRANCH  33  35
ENDBRANCH  30  33
ENDBRANCH  29  30
ENDBRANCH  28  29
ENDBRANCH   7  28
TORSDOF 11
ENDMDL
MODEL 4
REMARK VINA RESULT: -9.210409867      1.617      2.030
REMARK  11 active torsions:
REMARK  status: ('A' for Active; 'I' for Inactive)
REMARK    1  A    between atoms: C2_2  and  N1_5 
REMARK    2  A    between atoms: C4_6  and  C5_7 
REMARK    3  A    between atoms: C5_7  and  C6_8 
REMARK    4  A    between atoms: C8_11  and  C9_12 
REMARK    5  A    between atoms: C17_27  and  S1_28 
REMARK    6  A    between atoms: S1_28  and  C18_29 
REMARK    7  A    between atoms: C18_29  and  C19_30 
REMARK    8  A    between atoms: C19_30  and  O3_31 
REMARK    9  A    between atoms: C19_30  and  N5_33 
REMARK   10  A    between atoms: N5_33  and  C20_35 
REMARK   11  A    between atoms: C20_35  and  C21_36 
ROOT
HETATM    1  N1  UNL     1      25.727 -30.763  -6.600  1.00  0.00    -0.274 N 
HETATM    2  C4  UNL     1      26.888 -30.891  -5.928  1.00  0.00     0.129 A 
HETATM    3  N3  UNL     1      26.561 -30.593  -4.626  1.00  0.00    -0.283 N 
ATOM      4  H3  UNL     1      27.216 -30.600  -3.845  1.00  0.00     0.188 HD
HETATM    5  N4  UNL     1      25.280 -30.297  -4.529  1.00  0.00    -0.278 N 
ATOM      6  H4  UNL     1      24.792 -30.041  -3.670  1.00  0.00     0.189 HD
HETATM    7  C17 UNL     1      24.741 -30.386  -5.707  1.00  0.00     0.166 A 
ENDROOT
BRANCH   2   8
HETATM    8  C5  UNL     1      28.240 -31.144  -6.388  1.00  0.00     0.081 C 
BRANCH   8   9
HETATM    9  C6  UNL     1      28.857 -32.428  -6.188  1.00  0.00     0.060 A 
HETATM   10  C7  UNL     1      28.425 -33.579  -5.598  1.00  0.00     0.173 A 
HETATM   11  O1  UNL     1      29.435 -34.428  -5.547  1.00  0.00    -0.304 OA
HETATM   12  C8  UNL     1      30.514 -33.909  -6.070  1.00  0.00     0.161 A 
HETATM   13  N2  UNL     1      30.195 -32.709  -6.467  1.00  0.00    -0.336 N 
ATOM     14  H2  UNL     1      30.838 -32.062  -6.922  1.00  0.00     0.168 HD
BRANCH  12  15
HETATM   15  C9  UNL     1      31.826 -34.651  -6.141  1.00  0.00     0.152 A 
HETATM   16  C10 UNL     1      33.025 -33.892  -5.991  1.00  0.00     0.050 C 
HETATM   17  C11 UNL     1      34.338 -34.082  -6.634  1.00  0.00     0.015 C 
HETATM   18  C12 UNL     1      34.475 -33.722  -8.134  1.00  0.00     0.080 C 
HETATM   19  C13 UNL     1      33.379 -34.281  -8.802  1.00  0.00    -0.183 C 
HETATM   20  C14 UNL     1      32.271 -34.782  -9.510  1.00  0.00     0.082 C 
HETATM   21  C15 UNL     1      31.263 -35.393  -8.470  1.00  0.00     0.046 C 
HETATM   22  C16 UNL     1      31.891 -35.761  -7.199  1.00  0.00     0.167 A 
HETATM   23  O2  UNL     1      31.446 -35.922  -5.954  1.00  0.00    -0.360 OA
ENDBRANCH  12  15
ENDBRANCH   8   9
ENDBRANCH   2   8
BRANCH   1  24
HETATM   24  C2  UNL     1      25.511 -30.967  -7.998  1.00  0.00     0.177 C 
HETATM   25  C1  UNL     1      25.827 -32.384  -8.470  1.00  0.00     0.076 C 
HETATM   26  C3  UNL     1      26.165 -29.921  -8.876  1.00  0.00     0.076 C 
HETATM   27  F1  UNL     1      24.133 -30.831  -8.247  1.00  0.00    -0.220 F 
ENDBRANCH   1  24
BRANCH   7  28
HETATM   28  S1  UNL     1      23.040 -30.034  -6.237  1.00  0.00    -0.084 SA
BRANCH  28  29
HETATM   29  C18 UNL     1      22.007 -31.414  -5.769  1.00  0.00     0.166 C 
BRANCH  29  30
HETATM   30  C19 UNL     1      22.470 -32.382  -4.785  1.00  0.00     0.121 C 
BRANCH  30  31
HETATM   31  O3  UNL     1      23.116 -33.448  -5.158  1.00  0.00    -0.349 OA
ATOM     32  H3  UNL     1      22.723 -34.065  -5.764  1.00  0.00     0.219 HD
ENDBRANCH  30  31
BRANCH  30  33
HETATM   33  N5  UNL     1      22.306 -32.306  -3.371  1.00  0.00    -0.371 N 
ATOM     34  H5  UNL     1      21.726 -31.564  -2.979  1.00  0.00     0.161 HD
BRANCH  33  35
HETATM   35  C20 UNL     1      22.943 -33.261  -2.467  1.00  0.00     0.153 C 
BRANCH  35  36
HETATM   36  C21 UNL     1      24.184 -32.723  -1.821  1.00  0.00     0.139 C 
HETATM   37  C22 UNL     1      24.748 -33.639  -0.751  1.00  0.00     0.035 C 
HETATM   38  C23 UNL     1      25.805 -34.440  -1.475  1.00  0.00     0.029 C 
HETATM   39  C24 UNL     1      25.893 -33.774  -2.805  1.00  0.00     0.168 C 
HETATM   40  O4  UNL     1      25.166 -32.625  -2.795  1.00  0.00    -0.384 OA
ENDBRANCH  35  36
ENDBRANCH  33  35
ENDBRANCH  30  33
ENDBRANCH  29  30
ENDBRANCH  28  29
ENDBRANCH   7  28
TORSDOF 11
ENDMDL
MODEL 5
REMARK VINA RESULT: -9.115366870      4.171     10.204
REMARK  11 active torsions:
REMARK  status: ('A' for Active; 'I' for Inactive)
REMARK    1  A    between atoms: C2_2  and  N1_5 
REMARK    2  A    between atoms: C4_6  and  C5_7 
REMARK    3  A    between atoms: C5_7  and  C6_8 
REMARK    4  A    between atoms: C8_11  and  C9_12 
REMARK    5  A    between atoms: C17_27  and  S1_28 
REMARK    6  A    between atoms: S1_28  and  C18_29 
REMARK    7  A    between atoms: C18_29  and  C19_30 
REMARK    8  A    between atoms: C19_30  and  O3_31 
REMARK    9  A    between atoms: C19_30  and  N5_33 
REMARK   10  A    between atoms: N5_33  and  C20_35 
REMARK   11  A    between atoms: C20_35  and  C21_36 
ROOT
HETATM    1  N1  UNL     1      31.159 -34.140  -7.320  1.00  0.00    -0.274 N 
HETATM    2  C4  UNL     1      30.022 -33.438  -7.146  1.00  0.00     0.129 A 
HETATM    3  N3  UNL     1      29.666 -33.049  -8.417  1.00  0.00    -0.283 N 
ATOM      4  H3  UNL     1      28.839 -32.498  -8.646  1.00  0.00     0.188 HD
HETATM    5  N4  UNL     1      30.544 -33.488  -9.296  1.00  0.00    -0.278 N 
ATOM      6  H4  UNL     1      30.506 -33.332 -10.303  1.00  0.00     0.189 HD
HETATM    7  C17 UNL     1      31.467 -34.152  -8.668  1.00  0.00     0.166 A 
ENDROOT
BRANCH   2   8
HETATM    8  C5  UNL     1      29.328 -33.017  -5.945  1.00  0.00     0.081 C 
BRANCH   8   9
HETATM    9  C6  UNL     1      27.901 -32.828  -5.946  1.00  0.00     0.060 A 
HETATM   10  C7  UNL     1      26.854 -33.700  -5.893  1.00  0.00     0.173 A 
HETATM   11  O1  UNL     1      25.735 -33.022  -6.073  1.00  0.00    -0.304 OA
HETATM   12  C8  UNL     1      25.979 -31.749  -6.242  1.00  0.00     0.161 A 
HETATM   13  N2  UNL     1      27.271 -31.603  -6.166  1.00  0.00    -0.336 N 
ATOM     14  H2  UNL     1      27.758 -30.712  -6.256  1.00  0.00     0.168 HD
BRANCH  12  15
HETATM   15  C9  UNL     1      24.887 -30.733  -6.476  1.00  0.00     0.152 A 
HETATM   16  C10 UNL     1      23.578 -31.047  -6.001  1.00  0.00     0.050 C 
HETATM   17  C11 UNL     1      22.267 -30.711  -6.586  1.00  0.00     0.015 C 
HETATM   18  C12 UNL     1      21.822 -31.465  -7.863  1.00  0.00     0.080 C 
HETATM   19  C13 UNL     1      22.905 -31.465  -8.750  1.00  0.00    -0.183 C 
HETATM   20  C14 UNL     1      23.981 -31.534  -9.655  1.00  0.00     0.082 C 
HETATM   21  C15 UNL     1      25.251 -30.935  -8.950  1.00  0.00     0.046 C 
HETATM   22  C16 UNL     1      24.929 -30.033  -7.841  1.00  0.00     0.167 A 
HETATM   23  O2  UNL     1      25.584 -29.624  -6.755  1.00  0.00    -0.360 OA
ENDBRANCH  12  15
ENDBRANCH   8   9
ENDBRANCH   2   8
BRANCH   1  24
HETATM   24  C2  UNL     1      31.945 -34.776  -6.310  1.00  0.00     0.177 C 
HETATM   25  C1  UNL     1      31.231 -34.912  -4.968  1.00  0.00     0.076 C 
HETATM   26  C3  UNL     1      33.330 -34.186  -6.155  1.00  0.00     0.076 C 
HETATM   27  F1  UNL     1      32.166 -36.107  -6.708  1.00  0.00    -0.220 F 
ENDBRANCH   1  24
BRANCH   7  28
HETATM   28  S1  UNL     1      32.975 -34.935  -9.308  1.00  0.00    -0.084 SA
BRANCH  28  29
HETATM   29  C18 UNL     1      33.846 -33.743 -10.316  1.00  0.00     0.166 C 
BRANCH  29  30
HETATM   30  C19 UNL     1      35.150 -33.243  -9.905  1.00  0.00     0.121 C 
BRANCH  30  31
HETATM   31  O3  UNL     1      35.472 -33.187  -8.646  1.00  0.00    -0.349 OA
ATOM     32  H3  UNL     1      35.576 -33.983  -8.137  1.00  0.00     0.219 HD
ENDBRANCH  30  31
BRANCH  30  33
HETATM   33  N5  UNL     1      36.194 -32.783 -10.760  1.00  0.00    -0.371 N 
ATOM     34  H5  UNL     1      36.034 -32.753 -11.766  1.00  0.00     0.161 HD
BRANCH  33  35
HETATM   35  C20 UNL     1      37.488 -32.352 -10.235  1.00  0.00     0.153 C 
BRANCH  35  36
HETATM   36  C21 UNL     1      38.042 -31.153 -10.944  1.00  0.00     0.139 C 
HETATM   37  C22 UNL     1      39.218 -30.522 -10.223  1.00  0.00     0.035 C 
HETATM   38  C23 UNL     1      40.428 -31.132 -10.891  1.00  0.00     0.029 C 
HETATM   39  C24 UNL     1      39.849 -31.874 -12.046  1.00  0.00     0.168 C 
HETATM   40  O4  UNL     1      38.529 -31.571 -12.173  1.00  0.00    -0.384 OA
ENDBRANCH  35  36
ENDBRANCH  33  35
ENDBRANCH  30  33
ENDBRANCH  29  30
ENDBRANCH  28  29
ENDBRANCH   7  28
TORSDOF 11
ENDMDL
