MODEL 1
REMARK VINA RESULT: -9.466337522      0.000      0.000
REMARK  9 active torsions:
REMARK  status: ('A' for Active; 'I' for Inactive)
REMARK    1  A    between atoms: O1_2  and  C2_3 
REMARK    2  A    between atoms: C2_3  and  C3_5 
REMARK    3  A    between atoms: C3_5  and  O3_6 
REMARK    4  A    between atoms: C3_5  and  S1_8 
REMARK    5  A    between atoms: S1_8  and  C5_9 
REMARK    6  A    between atoms: C6_10  and  O4_11 
REMARK    7  A    between atoms: C8_13  and  O5_14 
REMARK    8  A    between atoms: O5_14  and  C9_15 
REMARK    9  A    between atoms: C19_26  and  O7_27 
ROOT
HETATM    1  C5  UNL     1      27.121 -33.645  -3.693  1.00  0.00     0.018 C 
HETATM    2  C6  UNL     1      28.359 -33.579  -4.114  1.00  0.00     0.089 C 
HETATM    3  C8  UNL     1      28.733 -33.188  -5.533  1.00  0.00     0.198 C 
HETATM    4  C14 UNL     1      27.596 -33.017  -6.433  1.00  0.00     0.053 C 
HETATM    5  C15 UNL     1      27.072 -31.670  -6.692  1.00  0.00    -0.001 A 
HETATM    6  C16 UNL     1      26.276 -31.061  -5.773  1.00  0.00    -0.047 A 
HETATM    7  C17 UNL     1      25.895 -29.775  -6.093  1.00  0.00     0.011 A 
HETATM    8  C18 UNL     1      26.330 -29.198  -7.296  1.00  0.00     0.040 A 
HETATM    9  C19 UNL     1      27.144 -29.907  -8.180  1.00  0.00     0.099 A 
HETATM   10  C20 UNL     1      27.536 -31.210  -7.867  1.00  0.00     0.110 A 
HETATM   11  O8  UNL     1      28.293 -32.230  -8.446  1.00  0.00    -0.341 OA
HETATM   12  C21 UNL     1      27.769 -33.460  -7.869  1.00  0.00     0.145 C 
HETATM   13  C22 UNL     1      26.310 -33.553  -8.325  1.00  0.00     0.034 C 
HETATM   14  C23 UNL     1      25.490 -33.841  -7.091  1.00  0.00     0.009 C 
HETATM   15  C24 UNL     1      26.438 -33.881  -5.970  1.00  0.00     0.013 C 
HETATM   16  C25 UNL     1      25.998 -33.305  -4.685  1.00  0.00     0.037 C 
HETATM   17  C26 UNL     1      25.790 -31.807  -4.592  1.00  0.00     0.049 C 
ENDROOT
BRANCH   1  18
HETATM   18  S1  UNL     1      26.616 -34.103  -2.107  1.00  0.00    -0.089 SA
BRANCH  18  19
HETATM   19  C3  UNL     1      24.960 -34.115  -1.587  1.00  0.00     0.286 C 
BRANCH  19  20
HETATM   20  C2  UNL     1      24.741 -34.691  -0.216  1.00  0.00     0.298 C 
HETATM   21  O2  UNL     1      25.539 -34.520   0.704  1.00  0.00    -0.261 OA
BRANCH  20  22
HETATM   22  O1  UNL     1      23.606 -35.460   0.091  1.00  0.00    -0.324 OA
HETATM   23  C1  UNL     1      23.709 -36.812   0.479  1.00  0.00     0.213 C 
ENDBRANCH  20  22
ENDBRANCH  19  20
BRANCH  19  24
HETATM   24  O3  UNL     1      24.508 -32.778  -1.497  1.00  0.00    -0.370 OA
HETATM   25  C4  UNL     1      23.235 -32.723  -2.038  1.00  0.00     0.204 C 
ENDBRANCH  19  24
ENDBRANCH  18  19
ENDBRANCH   1  18
BRANCH   2  26
HETATM   26  O4  UNL     1      29.415 -33.867  -3.298  1.00  0.00    -0.356 OA
HETATM   27  C7  UNL     1      29.798 -35.076  -2.726  1.00  0.00     0.209 C 
ENDBRANCH   2  26
BRANCH   3  28
HETATM   28  O5  UNL     1      29.520 -34.238  -6.092  1.00  0.00    -0.348 OA
BRANCH  28  29
HETATM   29  C9  UNL     1      30.573 -33.869  -6.846  1.00  0.00     0.260 C 
HETATM   30  C10 UNL     1      31.310 -34.984  -7.585  1.00  0.00     0.061 C 
HETATM   31  C11 UNL     1      32.748 -34.497  -7.759  1.00  0.00     0.007 C 
HETATM   32  C12 UNL     1      33.437 -34.483  -6.391  1.00  0.00     0.026 C 
HETATM   33  C13 UNL     1      32.309 -34.239  -5.388  1.00  0.00     0.171 C 
HETATM   34  O6  UNL     1      31.505 -33.249  -5.962  1.00  0.00    -0.361 OA
ENDBRANCH  28  29
ENDBRANCH   3  28
BRANCH   9  35
HETATM   35  O7  UNL     1      27.586 -29.363  -9.373  1.00  0.00    -0.358 OA
ATOM     36  H7  UNL     1      27.237 -29.634 -10.214  1.00  0.00     0.217 HD
ENDBRANCH   9  35
TORSDOF 9
ENDMDL
MODEL 2
REMARK VINA RESULT: -9.315825067      1.092      1.866
REMARK  9 active torsions:
REMARK  status: ('A' for Active; 'I' for Inactive)
REMARK    1  A    between atoms: O1_2  and  C2_3 
REMARK    2  A    between atoms: C2_3  and  C3_5 
REMARK    3  A    between atoms: C3_5  and  O3_6 
REMARK    4  A    between atoms: C3_5  and  S1_8 
REMARK    5  A    between atoms: S1_8  and  C5_9 
REMARK    6  A    between atoms: C6_10  and  O4_11 
REMARK    7  A    between atoms: C8_13  and  O5_14 
REMARK    8  A    between atoms: O5_14  and  C9_15 
REMARK    9  A    between atoms: C19_26  and  O7_27 
ROOT
HETATM    1  C5  UNL     1      26.387 -33.579  -3.696  1.00  0.00     0.018 C 
HETATM    2  C6  UNL     1      27.675 -33.617  -3.922  1.00  0.00     0.089 C 
HETATM    3  C8  UNL     1      28.292 -33.278  -5.269  1.00  0.00     0.198 C 
HETATM    4  C14 UNL     1      27.322 -33.032  -6.333  1.00  0.00     0.053 C 
HETATM    5  C15 UNL     1      26.955 -31.652  -6.672  1.00  0.00    -0.001 A 
HETATM    6  C16 UNL     1      26.079 -30.967  -5.888  1.00  0.00    -0.047 A 
HETATM    7  C17 UNL     1      25.856 -29.660  -6.266  1.00  0.00     0.011 A 
HETATM    8  C18 UNL     1      26.515 -29.138  -7.390  1.00  0.00     0.040 A 
HETATM    9  C19 UNL     1      27.394 -29.922  -8.137  1.00  0.00     0.099 A 
HETATM   10  C20 UNL     1      27.627 -31.247  -7.764  1.00  0.00     0.110 A 
HETATM   11  O8  UNL     1      28.380 -32.333  -8.217  1.00  0.00    -0.341 OA
HETATM   12  C21 UNL     1      27.677 -33.509  -7.724  1.00  0.00     0.145 C 
HETATM   13  C22 UNL     1      26.301 -33.492  -8.398  1.00  0.00     0.034 C 
HETATM   14  C23 UNL     1      25.283 -33.696  -7.304  1.00  0.00     0.009 C 
HETATM   15  C24 UNL     1      26.042 -33.794  -6.050  1.00  0.00     0.013 C 
HETATM   16  C25 UNL     1      25.459 -33.166  -4.849  1.00  0.00     0.037 C 
HETATM   17  C26 UNL     1      25.361 -31.655  -4.794  1.00  0.00     0.049 C 
ENDROOT
BRANCH   1  18
HETATM   18  S1  UNL     1      25.610 -33.972  -2.205  1.00  0.00    -0.089 SA
BRANCH  18  19
HETATM   19  C3  UNL     1      24.377 -32.995  -1.472  1.00  0.00     0.286 C 
BRANCH  19  20
HETATM   20  C2  UNL     1      22.978 -33.326  -1.910  1.00  0.00     0.298 C 
HETATM   21  O2  UNL     1      22.242 -34.066  -1.260  1.00  0.00    -0.261 OA
BRANCH  20  22
HETATM   22  O1  UNL     1      22.430 -32.803  -3.094  1.00  0.00    -0.324 OA
HETATM   23  C1  UNL     1      21.894 -33.639  -4.095  1.00  0.00     0.213 C 
ENDBRANCH  20  22
ENDBRANCH  19  20
BRANCH  19  24
HETATM   24  O3  UNL     1      24.387 -33.231  -0.078  1.00  0.00    -0.370 OA
HETATM   25  C4  UNL     1      25.446 -34.077   0.202  1.00  0.00     0.204 C 
ENDBRANCH  19  24
ENDBRANCH  18  19
ENDBRANCH   1  18
BRANCH   2  26
HETATM   26  O4  UNL     1      28.568 -33.976  -2.953  1.00  0.00    -0.356 OA
HETATM   27  C7  UNL     1      28.735 -35.192  -2.299  1.00  0.00     0.209 C 
ENDBRANCH   2  26
BRANCH   3  28
HETATM   28  O5  UNL     1      29.067 -34.396  -5.697  1.00  0.00    -0.348 OA
BRANCH  28  29
HETATM   29  C9  UNL     1      30.382 -34.367  -5.404  1.00  0.00     0.260 C 
HETATM   30  C10 UNL     1      31.202 -33.252  -6.048  1.00  0.00     0.061 C 
HETATM   31  C11 UNL     1      32.628 -33.789  -6.163  1.00  0.00     0.007 C 
HETATM   32  C12 UNL     1      32.661 -34.892  -7.226  1.00  0.00     0.026 C 
HETATM   33  C13 UNL     1      31.257 -35.499  -7.201  1.00  0.00     0.171 C 
HETATM   34  O6  UNL     1      30.921 -35.611  -5.848  1.00  0.00    -0.361 OA
ENDBRANCH  28  29
ENDBRANCH   3  28
BRANCH   9  35
HETATM   35  O7  UNL     1      28.055 -29.432  -9.249  1.00  0.00    -0.358 OA
ATOM     36  H7  UNL     1      28.108 -29.920 -10.063  1.00  0.00     0.217 HD
ENDBRANCH   9  35
TORSDOF 9
ENDMDL
MODEL 3
REMARK VINA RESULT: -9.243693445      2.213      6.817
REMARK  9 active torsions:
REMARK  status: ('A' for Active; 'I' for Inactive)
REMARK    1  A    between atoms: O1_2  and  C2_3 
REMARK    2  A    between atoms: C2_3  and  C3_5 
REMARK    3  A    between atoms: C3_5  and  O3_6 
REMARK    4  A    between atoms: C3_5  and  S1_8 
REMARK    5  A    between atoms: S1_8  and  C5_9 
REMARK    6  A    between atoms: C6_10  and  O4_11 
REMARK    7  A    between atoms: C8_13  and  O5_14 
REMARK    8  A    between atoms: O5_14  and  C9_15 
REMARK    9  A    between atoms: C19_26  and  O7_27 
ROOT
HETATM    1  C5  UNL     1      29.330 -33.703  -5.399  1.00  0.00     0.018 C 
HETATM    2  C6  UNL     1      28.387 -34.182  -4.628  1.00  0.00     0.089 C 
HETATM    3  C8  UNL     1      26.978 -33.615  -4.588  1.00  0.00     0.198 C 
HETATM    4  C14 UNL     1      26.791 -32.406  -5.384  1.00  0.00     0.053 C 
HETATM    5  C15 UNL     1      26.217 -32.508  -6.731  1.00  0.00    -0.001 A 
HETATM    6  C16 UNL     1      26.989 -32.922  -7.772  1.00  0.00    -0.047 A 
HETATM    7  C17 UNL     1      26.329 -33.039  -8.977  1.00  0.00     0.011 A 
HETATM    8  C18 UNL     1      24.961 -32.736  -9.055  1.00  0.00     0.040 A 
HETATM    9  C19 UNL     1      24.253 -32.313  -7.931  1.00  0.00     0.099 A 
HETATM   10  C20 UNL     1      24.911 -32.189  -6.704  1.00  0.00     0.110 A 
HETATM   11  O8  UNL     1      24.601 -31.803  -5.399  1.00  0.00    -0.341 OA
HETATM   12  C21 UNL     1      25.863 -31.345  -4.834  1.00  0.00     0.145 C 
HETATM   13  C22 UNL     1      26.283 -30.130  -5.667  1.00  0.00     0.034 C 
HETATM   14  C23 UNL     1      27.723 -30.351  -6.058  1.00  0.00     0.009 C 
HETATM   15  C24 UNL     1      28.104 -31.655  -5.498  1.00  0.00     0.013 C 
HETATM   16  C25 UNL     1      28.987 -32.514  -6.310  1.00  0.00     0.037 C 
HETATM   17  C26 UNL     1      28.445 -33.106  -7.595  1.00  0.00     0.049 C 
ENDROOT
BRANCH   1  18
HETATM   18  S1  UNL     1      30.956 -34.275  -5.483  1.00  0.00    -0.089 SA
BRANCH  18  19
HETATM   19  C3  UNL     1      31.610 -35.129  -6.845  1.00  0.00     0.286 C 
BRANCH  19  20
HETATM   20  C2  UNL     1      32.914 -34.584  -7.354  1.00  0.00     0.298 C 
HETATM   21  O2  UNL     1      33.825 -34.243  -6.601  1.00  0.00    -0.261 OA
BRANCH  20  22
HETATM   22  O1  UNL     1      33.167 -34.434  -8.729  1.00  0.00    -0.324 OA
HETATM   23  C1  UNL     1      32.119 -34.339  -9.669  1.00  0.00     0.213 C 
ENDBRANCH  20  22
ENDBRANCH  19  20
BRANCH  19  24
HETATM   24  O3  UNL     1      31.900 -36.455  -6.446  1.00  0.00    -0.370 OA
HETATM   25  C4  UNL     1      31.497 -37.302  -7.464  1.00  0.00     0.204 C 
ENDBRANCH  19  24
ENDBRANCH  18  19
ENDBRANCH   1  18
BRANCH   2  26
HETATM   26  O4  UNL     1      28.609 -35.235  -3.787  1.00  0.00    -0.356 OA
HETATM   27  C7  UNL     1      29.286 -35.282  -2.573  1.00  0.00     0.209 C 
ENDBRANCH   2  26
BRANCH   3  28
HETATM   28  O5  UNL     1      26.684 -33.247  -3.242  1.00  0.00    -0.348 OA
BRANCH  28  29
HETATM   29  C9  UNL     1      25.590 -33.805  -2.687  1.00  0.00     0.260 C 
HETATM   30  C10 UNL     1      24.666 -32.871  -1.910  1.00  0.00     0.061 C 
HETATM   31  C11 UNL     1      23.971 -33.740  -0.863  1.00  0.00     0.007 C 
HETATM   32  C12 UNL     1      24.996 -34.162   0.195  1.00  0.00     0.026 C 
HETATM   33  C13 UNL     1      26.332 -34.195  -0.549  1.00  0.00     0.171 C 
HETATM   34  O6  UNL     1      26.061 -34.800  -1.780  1.00  0.00    -0.361 OA
ENDBRANCH  28  29
ENDBRANCH   3  28
BRANCH   9  35
HETATM   35  O7  UNL     1      22.905 -32.006  -7.980  1.00  0.00    -0.358 OA
ATOM     36  H7  UNL     1      22.343 -32.064  -7.216  1.00  0.00     0.217 HD
ENDBRANCH   9  35
TORSDOF 9
ENDMDL
MODEL 4
REMARK VINA RESULT: -9.091428672      1.008      1.319
REMARK  9 active torsions:
REMARK  status: ('A' for Active; 'I' for Inactive)
REMARK    1  A    between atoms: O1_2  and  C2_3 
REMARK    2  A    between atoms: C2_3  and  C3_5 
REMARK    3  A    between atoms: C3_5  and  O3_6 
REMARK    4  A    between atoms: C3_5  and  S1_8 
REMARK    5  A    between atoms: S1_8  and  C5_9 
REMARK    6  A    between atoms: C6_10  and  O4_11 
REMARK    7  A    between atoms: C8_13  and  O5_14 
REMARK    8  A    between atoms: O5_14  and  C9_15 
REMARK    9  A    between atoms: C19_26  and  O7_27 
ROOT
HETATM    1  C5  UNL     1      26.232 -33.405  -3.572  1.00  0.00     0.018 C 
HETATM    2  C6  UNL     1      27.525 -33.437  -3.772  1.00  0.00     0.089 C 
HETATM    3  C8  UNL     1      28.164 -33.151  -5.120  1.00  0.00     0.198 C 
HETATM    4  C14 UNL     1      27.213 -32.963  -6.212  1.00  0.00     0.053 C 
HETATM    5  C15 UNL     1      26.837 -31.603  -6.619  1.00  0.00    -0.001 A 
HETATM    6  C16 UNL     1      25.939 -30.895  -5.882  1.00  0.00    -0.047 A 
HETATM    7  C17 UNL     1      25.709 -29.609  -6.322  1.00  0.00     0.011 A 
HETATM    8  C18 UNL     1      26.384 -29.129  -7.455  1.00  0.00     0.040 A 
HETATM    9  C19 UNL     1      27.286 -29.934  -8.149  1.00  0.00     0.099 A 
HETATM   10  C20 UNL     1      27.527 -31.239  -7.714  1.00  0.00     0.110 A 
HETATM   11  O8  UNL     1      28.300 -32.334  -8.104  1.00  0.00    -0.341 OA
HETATM   12  C21 UNL     1      27.600 -33.496  -7.574  1.00  0.00     0.145 C 
HETATM   13  C22 UNL     1      26.238 -33.525  -8.274  1.00  0.00     0.034 C 
HETATM   14  C23 UNL     1      25.201 -33.693  -7.191  1.00  0.00     0.009 C 
HETATM   15  C24 UNL     1      25.936 -33.727  -5.920  1.00  0.00     0.013 C 
HETATM   16  C25 UNL     1      25.323 -33.053  -4.760  1.00  0.00     0.037 C 
HETATM   17  C26 UNL     1      25.207 -31.543  -4.773  1.00  0.00     0.049 C 
ENDROOT
BRANCH   1  18
HETATM   18  S1  UNL     1      25.431 -33.741  -2.080  1.00  0.00    -0.089 SA
BRANCH  18  19
HETATM   19  C3  UNL     1      23.763 -33.371  -1.776  1.00  0.00     0.286 C 
BRANCH  19  20
HETATM   20  C2  UNL     1      23.176 -34.075  -0.585  1.00  0.00     0.298 C 
HETATM   21  O2  UNL     1      22.062 -34.596  -0.611  1.00  0.00    -0.261 OA
BRANCH  20  22
HETATM   22  O1  UNL     1      23.873 -34.177   0.632  1.00  0.00    -0.324 OA
HETATM   23  C1  UNL     1      23.779 -35.325   1.445  1.00  0.00     0.213 C 
ENDBRANCH  20  22
ENDBRANCH  19  20
BRANCH  19  24
HETATM   24  O3  UNL     1      23.657 -31.993  -1.473  1.00  0.00    -0.370 OA
HETATM   25  C4  UNL     1      22.585 -31.483  -2.184  1.00  0.00     0.204 C 
ENDBRANCH  19  24
ENDBRANCH  18  19
ENDBRANCH   1  18
BRANCH   2  26
HETATM   26  O4  UNL     1      28.402 -33.743  -2.771  1.00  0.00    -0.356 OA
HETATM   27  C7  UNL     1      28.671 -34.963  -2.160  1.00  0.00     0.209 C 
ENDBRANCH   2  26
BRANCH   3  28
HETATM   28  O5  UNL     1      28.960 -34.277  -5.484  1.00  0.00    -0.348 OA
BRANCH  28  29
HETATM   29  C9  UNL     1      30.284 -34.183  -5.247  1.00  0.00     0.260 C 
HETATM   30  C10 UNL     1      31.071 -33.226  -6.139  1.00  0.00     0.061 C 
HETATM   31  C11 UNL     1      32.498 -33.770  -6.187  1.00  0.00     0.007 C 
HETATM   32  C12 UNL     1      32.507 -35.073  -6.994  1.00  0.00     0.026 C 
HETATM   33  C13 UNL     1      31.111 -35.665  -6.795  1.00  0.00     0.171 C 
HETATM   34  O6  UNL     1      30.821 -35.491  -5.439  1.00  0.00    -0.361 OA
ENDBRANCH  28  29
ENDBRANCH   3  28
BRANCH   9  35
HETATM   35  O7  UNL     1      27.964 -29.486  -9.270  1.00  0.00    -0.358 OA
ATOM     36  H7  UNL     1      27.621 -28.797  -9.827  1.00  0.00     0.217 HD
ENDBRANCH   9  35
TORSDOF 9
ENDMDL
MODEL 5
REMARK VINA RESULT: -8.898822606      2.323      6.894
REMARK  9 active torsions:
REMARK  status: ('A' for Active; 'I' for Inactive)
REMARK    1  A    between atoms: O1_2  and  C2_3 
REMARK    2  A    between atoms: C2_3  and  C3_5 
REMARK    3  A    between atoms: C3_5  and  O3_6 
REMARK    4  A    between atoms: C3_5  and  S1_8 
REMARK    5  A    between atoms: S1_8  and  C5_9 
REMARK    6  A    between atoms: C6_10  and  O4_11 
REMARK    7  A    between atoms: C8_13  and  O5_14 
REMARK    8  A    between atoms: O5_14  and  C9_15 
REMARK    9  A    between atoms: C19_26  and  O7_27 
ROOT
HETATM    1  C5  UNL     1      29.106 -33.094  -6.008  1.00  0.00     0.018 C 
HETATM    2  C6  UNL     1      28.333 -33.737  -5.170  1.00  0.00     0.089 C 
HETATM    3  C8  UNL     1      26.884 -33.356  -4.917  1.00  0.00     0.198 C 
HETATM    4  C14 UNL     1      26.455 -32.131  -5.586  1.00  0.00     0.053 C 
HETATM    5  C15 UNL     1      25.729 -32.218  -6.858  1.00  0.00    -0.001 A 
HETATM    6  C16 UNL     1      26.404 -32.463  -8.014  1.00  0.00    -0.047 A 
HETATM    7  C17 UNL     1      25.613 -32.584  -9.136  1.00  0.00     0.011 A 
HETATM    8  C18 UNL     1      24.221 -32.452  -9.026  1.00  0.00     0.040 A 
HETATM    9  C19 UNL     1      23.618 -32.196  -7.795  1.00  0.00     0.099 A 
HETATM   10  C20 UNL     1      24.409 -32.069  -6.650  1.00  0.00     0.110 A 
HETATM   11  O8  UNL     1      24.227 -31.810  -5.290  1.00  0.00    -0.341 OA
HETATM   12  C21 UNL     1      25.488 -31.234  -4.845  1.00  0.00     0.145 C 
HETATM   13  C22 UNL     1      25.652 -29.924  -5.622  1.00  0.00     0.034 C 
HETATM   14  C23 UNL     1      27.046 -29.936  -6.199  1.00  0.00     0.009 C 
HETATM   15  C24 UNL     1      27.646 -31.215  -5.795  1.00  0.00     0.013 C 
HETATM   16  C25 UNL     1      28.512 -31.901  -6.773  1.00  0.00     0.037 C 
HETATM   17  C26 UNL     1      27.882 -32.472  -8.027  1.00  0.00     0.049 C 
ENDROOT
BRANCH   1  18
HETATM   18  S1  UNL     1      30.764 -33.449  -6.331  1.00  0.00    -0.089 SA
BRANCH  18  19
HETATM   19  C3  UNL     1      31.292 -34.784  -7.308  1.00  0.00     0.286 C 
BRANCH  19  20
HETATM   20  C2  UNL     1      31.644 -34.419  -8.722  1.00  0.00     0.298 C 
HETATM   21  O2  UNL     1      30.963 -33.643  -9.391  1.00  0.00    -0.261 OA
BRANCH  20  22
HETATM   22  O1  UNL     1      32.777 -34.949  -9.363  1.00  0.00    -0.324 OA
HETATM   23  C1  UNL     1      33.766 -34.116  -9.927  1.00  0.00     0.213 C 
ENDBRANCH  20  22
ENDBRANCH  19  20
BRANCH  19  24
HETATM   24  O3  UNL     1      32.489 -35.297  -6.756  1.00  0.00    -0.370 OA
HETATM   25  C4  UNL     1      32.920 -34.414  -5.781  1.00  0.00     0.204 C 
ENDBRANCH  19  24
ENDBRANCH  18  19
ENDBRANCH   1  18
BRANCH   2  26
HETATM   26  O4  UNL     1      28.783 -34.806  -4.449  1.00  0.00    -0.356 OA
HETATM   27  C7  UNL     1      29.637 -34.848  -3.352  1.00  0.00     0.209 C 
ENDBRANCH   2  26
BRANCH   3  28
HETATM   28  O5  UNL     1      26.725 -33.116  -3.520  1.00  0.00    -0.348 OA
BRANCH  28  29
HETATM   29  C9  UNL     1      25.772 -33.830  -2.889  1.00  0.00     0.260 C 
HETATM   30  C10 UNL     1      24.821 -33.052  -1.983  1.00  0.00     0.061 C 
HETATM   31  C11 UNL     1      24.352 -34.039  -0.915  1.00  0.00     0.007 C 
HETATM   32  C12 UNL     1      25.526 -34.359   0.018  1.00  0.00     0.026 C 
HETATM   33  C13 UNL     1      26.772 -34.192  -0.853  1.00  0.00     0.171 C 
HETATM   34  O6  UNL     1      26.455 -34.785  -2.078  1.00  0.00    -0.361 OA
ENDBRANCH  28  29
ENDBRANCH   3  28
BRANCH   9  35
HETATM   35  O7  UNL     1      22.248 -32.059  -7.658  1.00  0.00    -0.358 OA
ATOM     36  H7  UNL     1      21.675 -32.806  -7.530  1.00  0.00     0.217 HD
ENDBRANCH   9  35
TORSDOF 9
ENDMDL
