MODEL 1
REMARK VINA RESULT: -9.879170294      0.000      0.000
REMARK  10 active torsions:
REMARK  status: ('A' for Active; 'I' for Inactive)
REMARK    1  A    between atoms: C2_2  and  O2_4 
REMARK    2  A    between atoms: O2_4  and  C3_5 
REMARK    3  A    between atoms: C3_5  and  C4_6 
REMARK    4  A    between atoms: C6_8  and  C7_9 
REMARK    5  A    between atoms: C7_9  and  C8_10 
REMARK    6  A    between atoms: C8_10  and  C9_11 
REMARK    7  A    between atoms: C13_15  and  C14_16 
REMARK    8  A    between atoms: C20_26  and  O5_27 
REMARK    9  A    between atoms: O5_27  and  C21_28 
REMARK   10  A    between atoms: C21_28  and  C22_30 
ROOT
HETATM    1  C9  UNL     1      29.872 -33.883  -5.214  1.00  0.00    -0.038 C 
HETATM    2  C10 UNL     1      30.075 -33.792  -3.722  1.00  0.00     0.015 C 
HETATM    3  C11 UNL     1      30.070 -32.583  -5.943  1.00  0.00     0.010 C 
HETATM    4  C12 UNL     1      29.033 -32.412  -7.059  1.00  0.00     0.011 C 
HETATM    5  C13 UNL     1      27.740 -32.026  -6.342  1.00  0.00     0.060 C 
HETATM    6  C20 UNL     1      27.627 -32.899  -5.160  1.00  0.00     0.144 C 
HETATM    7  C26 UNL     1      28.367 -34.201  -5.377  1.00  0.00     0.020 C 
HETATM    8  C27 UNL     1      27.972 -35.277  -4.396  1.00  0.00     0.013 C 
ENDROOT
BRANCH   1   9
HETATM    9  C8  UNL     1      30.704 -34.945  -5.848  1.00  0.00     0.013 C 
BRANCH   9  10
HETATM   10  C7  UNL     1      32.047 -35.052  -5.122  1.00  0.00     0.028 C 
BRANCH  10  11
HETATM   11  C6  UNL     1      33.124 -34.404  -5.903  1.00  0.00    -0.022 C 
HETATM   12  C4  UNL     1      33.335 -34.460  -7.175  1.00  0.00    -0.064 C 
HETATM   13  C5  UNL     1      34.514 -33.706  -7.763  1.00  0.00     0.045 C 
BRANCH  12  14
HETATM   14  C3  UNL     1      32.523 -35.206  -8.140  1.00  0.00     0.212 C 
BRANCH  14  15
HETATM   15  O2  UNL     1      32.913 -34.933  -9.483  1.00  0.00    -0.318 OA
BRANCH  15  16
HETATM   16  C2  UNL     1      32.289 -33.931 -10.202  1.00  0.00     0.255 C 
HETATM   17  C1  UNL     1      30.828 -33.647 -10.058  1.00  0.00     0.126 C 
HETATM   18  O1  UNL     1      33.015 -33.256 -10.997  1.00  0.00    -0.266 OA
ENDBRANCH  15  16
ENDBRANCH  14  15
ENDBRANCH  12  14
ENDBRANCH  10  11
ENDBRANCH   9  10
ENDBRANCH   1   9
BRANCH   6  19
HETATM   19  O5  UNL     1      26.338 -33.096  -4.634  1.00  0.00    -0.310 OA
BRANCH  19  20
HETATM   20  C21 UNL     1      25.876 -32.564  -3.441  1.00  0.00     0.317 C 
HETATM   21  O6  UNL     1      25.747 -31.319  -3.336  1.00  0.00    -0.257 OA
BRANCH  20  22
HETATM   22  C22 UNL     1      25.526 -33.377  -2.287  1.00  0.00     0.149 A 
HETATM   23  C23 UNL     1      26.437 -34.081  -1.541  1.00  0.00     0.045 A 
HETATM   24  C24 UNL     1      25.758 -34.724  -0.544  1.00  0.00     0.027 A 
HETATM   25  C25 UNL     1      24.442 -34.396  -0.706  1.00  0.00     0.143 A 
HETATM   26  O7  UNL     1      24.352 -33.594  -1.754  1.00  0.00    -0.317 OA
ENDBRANCH  20  22
ENDBRANCH  19  20
ENDBRANCH   6  19
BRANCH   5  27
HETATM   27  C14 UNL     1      26.613 -31.928  -7.288  1.00  0.00     0.155 C 
HETATM   28  C15 UNL     1      26.725 -33.005  -8.372  1.00  0.00     0.058 C 
HETATM   29  O3  UNL     1      25.450 -32.315  -6.576  1.00  0.00    -0.261 OA
HETATM   30  N1  UNL     1      24.750 -31.303  -6.089  1.00  0.00    -0.270 N 
HETATM   31  C16 UNL     1      24.514 -30.052  -6.717  1.00  0.00     0.032 C 
ATOM     32  H1  UNL     1      24.337 -31.436  -5.166  1.00  0.00     0.194 HD
HETATM   33  C17 UNL     1      23.383 -29.160  -6.317  1.00  0.00     0.070 C 
HETATM   34  C18 UNL     1      25.357 -29.713  -7.684  1.00  0.00     0.080 C 
HETATM   35  C19 UNL     1      26.422 -30.661  -7.989  1.00  0.00     0.188 C 
HETATM   36  O4  UNL     1      27.204 -30.339  -8.917  1.00  0.00    -0.290 OA
ENDBRANCH   5  27
TORSDOF 10
ENDMDL
MODEL 2
REMARK VINA RESULT: -9.764606836      2.072      4.629
REMARK  10 active torsions:
REMARK  status: ('A' for Active; 'I' for Inactive)
REMARK    1  A    between atoms: C2_2  and  O2_4 
REMARK    2  A    between atoms: O2_4  and  C3_5 
REMARK    3  A    between atoms: C3_5  and  C4_6 
REMARK    4  A    between atoms: C6_8  and  C7_9 
REMARK    5  A    between atoms: C7_9  and  C8_10 
REMARK    6  A    between atoms: C8_10  and  C9_11 
REMARK    7  A    between atoms: C13_15  and  C14_16 
REMARK    8  A    between atoms: C20_26  and  O5_27 
REMARK    9  A    between atoms: O5_27  and  C21_28 
REMARK   10  A    between atoms: C21_28  and  C22_30 
ROOT
HETATM    1  C9  UNL     1      28.219 -32.884  -6.640  1.00  0.00    -0.038 C 
HETATM    2  C10 UNL     1      28.301 -33.010  -8.141  1.00  0.00     0.015 C 
HETATM    3  C11 UNL     1      27.547 -34.044  -5.960  1.00  0.00     0.010 C 
HETATM    4  C12 UNL     1      26.652 -33.568  -4.810  1.00  0.00     0.011 C 
HETATM    5  C13 UNL     1      25.404 -33.003  -5.487  1.00  0.00     0.060 C 
HETATM    6  C20 UNL     1      25.864 -32.202  -6.636  1.00  0.00     0.144 C 
HETATM    7  C26 UNL     1      27.268 -31.686  -6.408  1.00  0.00     0.020 C 
HETATM    8  C27 UNL     1      27.643 -30.560  -7.339  1.00  0.00     0.013 C 
ENDROOT
BRANCH   1   9
HETATM    9  C8  UNL     1      29.545 -32.632  -6.007  1.00  0.00     0.013 C 
BRANCH   9  10
HETATM   10  C7  UNL     1      30.227 -33.964  -5.687  1.00  0.00     0.028 C 
BRANCH  10  11
HETATM   11  C6  UNL     1      31.694 -33.858  -5.850  1.00  0.00    -0.022 C 
HETATM   12  C4  UNL     1      32.440 -34.396  -6.754  1.00  0.00    -0.064 C 
HETATM   13  C5  UNL     1      33.937 -34.146  -6.724  1.00  0.00     0.045 C 
BRANCH  12  14
HETATM   14  C3  UNL     1      31.970 -35.254  -7.845  1.00  0.00     0.212 C 
BRANCH  14  15
HETATM   15  O2  UNL     1      32.768 -35.109  -9.016  1.00  0.00    -0.318 OA
BRANCH  15  16
HETATM   16  C2  UNL     1      32.448 -34.160  -9.967  1.00  0.00     0.255 C 
HETATM   17  C1  UNL     1      31.040 -33.706 -10.189  1.00  0.00     0.126 C 
HETATM   18  O1  UNL     1      33.407 -33.684 -10.651  1.00  0.00    -0.266 OA
ENDBRANCH  15  16
ENDBRANCH  14  15
ENDBRANCH  12  14
ENDBRANCH  10  11
ENDBRANCH   9  10
ENDBRANCH   1   9
BRANCH   6  19
HETATM   19  O5  UNL     1      24.994 -31.202  -7.105  1.00  0.00    -0.310 OA
BRANCH  19  20
HETATM   20  C21 UNL     1      24.596 -31.047  -8.422  1.00  0.00     0.317 C 
HETATM   21  O6  UNL     1      25.420 -30.611  -9.263  1.00  0.00    -0.257 OA
BRANCH  20  22
HETATM   22  C22 UNL     1      23.258 -31.368  -8.895  1.00  0.00     0.149 A 
HETATM   23  C23 UNL     1      22.917 -31.475 -10.219  1.00  0.00     0.045 A 
HETATM   24  C24 UNL     1      21.588 -31.786 -10.288  1.00  0.00     0.027 A 
HETATM   25  C25 UNL     1      21.146 -31.861  -8.998  1.00  0.00     0.143 A 
HETATM   26  O7  UNL     1      22.172 -31.606  -8.204  1.00  0.00    -0.317 OA
ENDBRANCH  20  22
ENDBRANCH  19  20
ENDBRANCH   6  19
BRANCH   5  27
HETATM   27  C14 UNL     1      24.486 -32.405  -4.500  1.00  0.00     0.155 C 
HETATM   28  C15 UNL     1      24.529 -33.186  -3.182  1.00  0.00     0.058 C 
HETATM   29  O3  UNL     1      25.038 -31.148  -4.142  1.00  0.00    -0.261 OA
HETATM   30  N1  UNL     1      24.528 -30.123  -4.805  1.00  0.00    -0.270 N 
HETATM   31  C16 UNL     1      23.171 -29.943  -5.181  1.00  0.00     0.032 C 
ATOM     32  H1  UNL     1      25.178 -29.385  -5.073  1.00  0.00     0.194 HD
HETATM   33  C17 UNL     1      22.610 -28.600  -5.520  1.00  0.00     0.070 C 
HETATM   34  C18 UNL     1      22.422 -31.038  -5.215  1.00  0.00     0.080 C 
HETATM   35  C19 UNL     1      23.076 -32.292  -4.863  1.00  0.00     0.188 C 
HETATM   36  O4  UNL     1      22.354 -33.319  -4.883  1.00  0.00    -0.290 OA
ENDBRANCH   5  27
TORSDOF 10
ENDMDL
MODEL 3
REMARK VINA RESULT: -9.737403727      2.244      4.877
REMARK  10 active torsions:
REMARK  status: ('A' for Active; 'I' for Inactive)
REMARK    1  A    between atoms: C2_2  and  O2_4 
REMARK    2  A    between atoms: O2_4  and  C3_5 
REMARK    3  A    between atoms: C3_5  and  C4_6 
REMARK    4  A    between atoms: C6_8  and  C7_9 
REMARK    5  A    between atoms: C7_9  and  C8_10 
REMARK    6  A    between atoms: C8_10  and  C9_11 
REMARK    7  A    between atoms: C13_15  and  C14_16 
REMARK    8  A    between atoms: C20_26  and  O5_27 
REMARK    9  A    between atoms: O5_27  and  C21_28 
REMARK   10  A    between atoms: C21_28  and  C22_30 
ROOT
HETATM    1  C9  UNL     1      28.320 -32.664  -6.600  1.00  0.00    -0.038 C 
HETATM    2  C10 UNL     1      28.430 -32.730  -8.103  1.00  0.00     0.015 C 
HETATM    3  C11 UNL     1      27.613 -33.837  -5.982  1.00  0.00     0.010 C 
HETATM    4  C12 UNL     1      26.703 -33.392  -4.831  1.00  0.00     0.011 C 
HETATM    5  C13 UNL     1      25.479 -32.776  -5.510  1.00  0.00     0.060 C 
HETATM    6  C20 UNL     1      25.978 -31.938  -6.615  1.00  0.00     0.144 C 
HETATM    7  C26 UNL     1      27.385 -31.458  -6.338  1.00  0.00     0.020 C 
HETATM    8  C27 UNL     1      27.799 -30.302  -7.215  1.00  0.00     0.013 C 
ENDROOT
BRANCH   1   9
HETATM    9  C8  UNL     1      29.636 -32.462  -5.931  1.00  0.00     0.013 C 
BRANCH   9  10
HETATM   10  C7  UNL     1      30.265 -33.819  -5.607  1.00  0.00     0.028 C 
BRANCH  10  11
HETATM   11  C6  UNL     1      31.724 -33.797  -5.852  1.00  0.00    -0.022 C 
HETATM   12  C4  UNL     1      32.388 -34.382  -6.790  1.00  0.00    -0.064 C 
HETATM   13  C5  UNL     1      33.895 -34.216  -6.846  1.00  0.00     0.045 C 
BRANCH  12  14
HETATM   14  C3  UNL     1      31.811 -35.222  -7.843  1.00  0.00     0.212 C 
BRANCH  14  15
HETATM   15  O2  UNL     1      32.654 -35.289  -8.990  1.00  0.00    -0.318 OA
BRANCH  15  16
HETATM   16  C2  UNL     1      32.649 -34.267  -9.921  1.00  0.00     0.255 C 
HETATM   17  C1  UNL     1      33.912 -33.623 -10.395  1.00  0.00     0.126 C 
HETATM   18  O1  UNL     1      31.517 -33.893 -10.360  1.00  0.00    -0.266 OA
ENDBRANCH  15  16
ENDBRANCH  14  15
ENDBRANCH  12  14
ENDBRANCH  10  11
ENDBRANCH   9  10
ENDBRANCH   1   9
BRANCH   6  19
HETATM   19  O5  UNL     1      25.135 -30.904  -7.060  1.00  0.00    -0.310 OA
BRANCH  19  20
HETATM   20  C21 UNL     1      24.563 -30.830  -8.319  1.00  0.00     0.317 C 
HETATM   21  O6  UNL     1      25.259 -30.437  -9.286  1.00  0.00    -0.257 OA
BRANCH  20  22
HETATM   22  C22 UNL     1      23.178 -31.191  -8.588  1.00  0.00     0.149 A 
HETATM   23  C23 UNL     1      22.716 -31.593  -9.815  1.00  0.00     0.045 A 
HETATM   24  C24 UNL     1      21.378 -31.848  -9.698  1.00  0.00     0.027 A 
HETATM   25  C25 UNL     1      21.054 -31.594  -8.395  1.00  0.00     0.143 A 
HETATM   26  O7  UNL     1      22.155 -31.206  -7.774  1.00  0.00    -0.317 OA
ENDBRANCH  20  22
ENDBRANCH  19  20
ENDBRANCH   6  19
BRANCH   5  27
HETATM   27  C14 UNL     1      24.552 -32.202  -4.518  1.00  0.00     0.155 C 
HETATM   28  C15 UNL     1      25.035 -30.819  -4.065  1.00  0.00     0.058 C 
HETATM   29  O3  UNL     1      23.350 -31.906  -5.210  1.00  0.00    -0.261 OA
HETATM   30  N1  UNL     1      22.420 -32.841  -5.108  1.00  0.00    -0.270 N 
HETATM   31  C16 UNL     1      22.114 -33.613  -3.957  1.00  0.00     0.032 C 
ATOM     32  H1  UNL     1      21.866 -33.027  -5.943  1.00  0.00     0.194 HD
HETATM   33  C17 UNL     1      20.801 -34.309  -3.790  1.00  0.00     0.070 C 
HETATM   34  C18 UNL     1      23.061 -33.685  -3.030  1.00  0.00     0.080 C 
HETATM   35  C19 UNL     1      24.299 -32.966  -3.299  1.00  0.00     0.188 C 
HETATM   36  O4  UNL     1      25.182 -33.027  -2.409  1.00  0.00    -0.290 OA
ENDBRANCH   5  27
TORSDOF 10
ENDMDL
MODEL 4
REMARK VINA RESULT: -9.682339731      1.434      1.716
REMARK  10 active torsions:
REMARK  status: ('A' for Active; 'I' for Inactive)
REMARK    1  A    between atoms: C2_2  and  O2_4 
REMARK    2  A    between atoms: O2_4  and  C3_5 
REMARK    3  A    between atoms: C3_5  and  C4_6 
REMARK    4  A    between atoms: C6_8  and  C7_9 
REMARK    5  A    between atoms: C7_9  and  C8_10 
REMARK    6  A    between atoms: C8_10  and  C9_11 
REMARK    7  A    between atoms: C13_15  and  C14_16 
REMARK    8  A    between atoms: C20_26  and  O5_27 
REMARK    9  A    between atoms: O5_27  and  C21_28 
REMARK   10  A    between atoms: C21_28  and  C22_30 
ROOT
HETATM    1  C9  UNL     1      29.177 -33.587  -5.489  1.00  0.00    -0.038 C 
HETATM    2  C10 UNL     1      29.173 -33.627  -3.981  1.00  0.00     0.015 C 
HETATM    3  C11 UNL     1      29.767 -32.332  -6.070  1.00  0.00     0.010 C 
HETATM    4  C12 UNL     1      28.971 -31.862  -7.293  1.00  0.00     0.011 C 
HETATM    5  C13 UNL     1      27.706 -31.223  -6.720  1.00  0.00     0.060 C 
HETATM    6  C20 UNL     1      27.227 -32.108  -5.643  1.00  0.00     0.144 C 
HETATM    7  C26 UNL     1      27.679 -33.534  -5.874  1.00  0.00     0.020 C 
HETATM    8  C27 UNL     1      26.913 -34.538  -5.050  1.00  0.00     0.013 C 
ENDROOT
BRANCH   1   9
HETATM    9  C8  UNL     1      29.833 -34.778  -6.098  1.00  0.00     0.013 C 
BRANCH   9  10
HETATM   10  C7  UNL     1      31.002 -35.230  -5.220  1.00  0.00     0.028 C 
BRANCH  10  11
HETATM   11  C6  UNL     1      32.271 -34.620  -5.674  1.00  0.00    -0.022 C 
HETATM   12  C4  UNL     1      32.801 -34.656  -6.850  1.00  0.00    -0.064 C 
HETATM   13  C5  UNL     1      34.124 -33.950  -7.087  1.00  0.00     0.045 C 
BRANCH  12  14
HETATM   14  C3  UNL     1      32.234 -35.333  -8.018  1.00  0.00     0.212 C 
BRANCH  14  15
HETATM   15  O2  UNL     1      32.878 -34.938  -9.226  1.00  0.00    -0.318 OA
BRANCH  15  16
HETATM   16  C2  UNL     1      32.296 -33.995 -10.052  1.00  0.00     0.255 C 
HETATM   17  C1  UNL     1      30.844 -33.653  -9.962  1.00  0.00     0.126 C 
HETATM   18  O1  UNL     1      33.054 -33.426 -10.899  1.00  0.00    -0.266 OA
ENDBRANCH  15  16
ENDBRANCH  14  15
ENDBRANCH  12  14
ENDBRANCH  10  11
ENDBRANCH   9  10
ENDBRANCH   1   9
BRANCH   6  19
HETATM   19  O5  UNL     1      25.864 -32.025  -5.309  1.00  0.00    -0.310 OA
BRANCH  19  20
HETATM   20  C21 UNL     1      25.365 -31.488  -4.134  1.00  0.00     0.317 C 
HETATM   21  O6  UNL     1      25.814 -30.390  -3.724  1.00  0.00    -0.257 OA
BRANCH  20  22
HETATM   22  C22 UNL     1      24.333 -32.134  -3.337  1.00  0.00     0.149 A 
HETATM   23  C23 UNL     1      23.411 -33.014  -3.844  1.00  0.00     0.045 A 
HETATM   24  C24 UNL     1      22.605 -33.419  -2.816  1.00  0.00     0.027 A 
HETATM   25  C25 UNL     1      23.057 -32.772  -1.701  1.00  0.00     0.143 A 
HETATM   26  O7  UNL     1      24.084 -32.020  -2.058  1.00  0.00    -0.317 OA
ENDBRANCH  20  22
ENDBRANCH  19  20
ENDBRANCH   6  19
BRANCH   5  27
HETATM   27  C14 UNL     1      26.782 -30.812  -7.794  1.00  0.00     0.155 C 
HETATM   28  C15 UNL     1      27.554 -30.173  -8.953  1.00  0.00     0.058 C 
HETATM   29  O3  UNL     1      26.274 -32.005  -8.370  1.00  0.00    -0.261 OA
HETATM   30  N1  UNL     1      25.097 -32.377  -7.896  1.00  0.00    -0.270 N 
HETATM   31  C16 UNL     1      24.011 -31.528  -7.553  1.00  0.00     0.032 C 
ATOM     32  H1  UNL     1      24.953 -33.378  -7.764  1.00  0.00     0.194 HD
HETATM   33  C17 UNL     1      22.607 -32.032  -7.454  1.00  0.00     0.070 C 
HETATM   34  C18 UNL     1      24.311 -30.256  -7.324  1.00  0.00     0.080 C 
HETATM   35  C19 UNL     1      25.713 -29.879  -7.452  1.00  0.00     0.188 C 
HETATM   36  O4  UNL     1      25.983 -28.670  -7.248  1.00  0.00    -0.290 OA
ENDBRANCH   5  27
TORSDOF 10
ENDMDL
MODEL 5
REMARK VINA RESULT: -9.634458149      2.757      6.157
REMARK  10 active torsions:
REMARK  status: ('A' for Active; 'I' for Inactive)
REMARK    1  A    between atoms: C2_2  and  O2_4 
REMARK    2  A    between atoms: O2_4  and  C3_5 
REMARK    3  A    between atoms: C3_5  and  C4_6 
REMARK    4  A    between atoms: C6_8  and  C7_9 
REMARK    5  A    between atoms: C7_9  and  C8_10 
REMARK    6  A    between atoms: C8_10  and  C9_11 
REMARK    7  A    between atoms: C13_15  and  C14_16 
REMARK    8  A    between atoms: C20_26  and  O5_27 
REMARK    9  A    between atoms: O5_27  and  C21_28 
REMARK   10  A    between atoms: C21_28  and  C22_30 
ROOT
HETATM    1  C9  UNL     1      26.748 -33.132  -7.720  1.00  0.00    -0.038 C 
HETATM    2  C10 UNL     1      26.025 -33.416  -9.013  1.00  0.00     0.015 C 
HETATM    3  C11 UNL     1      26.548 -34.178  -6.660  1.00  0.00     0.010 C 
HETATM    4  C12 UNL     1      26.391 -33.539  -5.275  1.00  0.00     0.011 C 
HETATM    5  C13 UNL     1      24.968 -32.982  -5.255  1.00  0.00     0.060 C 
HETATM    6  C20 UNL     1      24.744 -32.330  -6.557  1.00  0.00     0.144 C 
HETATM    7  C26 UNL     1      26.051 -31.867  -7.163  1.00  0.00     0.020 C 
HETATM    8  C27 UNL     1      25.865 -30.865  -8.275  1.00  0.00     0.013 C 
ENDROOT
BRANCH   1   9
HETATM    9  C8  UNL     1      28.205 -32.885  -7.913  1.00  0.00     0.013 C 
BRANCH   9  10
HETATM   10  C7  UNL     1      28.822 -32.386  -6.604  1.00  0.00     0.028 C 
BRANCH  10  11
HETATM   11  C6  UNL     1      30.208 -32.881  -6.451  1.00  0.00    -0.022 C 
HETATM   12  C4  UNL     1      30.633 -33.865  -5.734  1.00  0.00    -0.064 C 
HETATM   13  C5  UNL     1      32.115 -34.194  -5.732  1.00  0.00     0.045 C 
BRANCH  12  14
HETATM   14  C3  UNL     1      29.799 -34.724  -4.890  1.00  0.00     0.212 C 
BRANCH  14  15
HETATM   15  O2  UNL     1      29.439 -34.082  -3.670  1.00  0.00    -0.318 OA
BRANCH  15  16
HETATM   16  C2  UNL     1      29.585 -34.740  -2.464  1.00  0.00     0.255 C 
HETATM   17  C1  UNL     1      28.520 -35.638  -1.919  1.00  0.00     0.126 C 
HETATM   18  O1  UNL     1      30.670 -34.550  -1.832  1.00  0.00    -0.266 OA
ENDBRANCH  15  16
ENDBRANCH  14  15
ENDBRANCH  12  14
ENDBRANCH  10  11
ENDBRANCH   9  10
ENDBRANCH   1   9
BRANCH   6  19
HETATM   19  O5  UNL     1      23.747 -31.339  -6.611  1.00  0.00    -0.310 OA
BRANCH  19  20
HETATM   20  C21 UNL     1      22.499 -31.497  -7.190  1.00  0.00     0.317 C 
HETATM   21  O6  UNL     1      21.488 -31.589  -6.451  1.00  0.00    -0.257 OA
BRANCH  20  22
HETATM   22  C22 UNL     1      22.290 -31.563  -8.629  1.00  0.00     0.149 A 
HETATM   23  C23 UNL     1      21.072 -31.791  -9.216  1.00  0.00     0.045 A 
HETATM   24  C24 UNL     1      21.250 -31.786 -10.571  1.00  0.00     0.027 A 
HETATM   25  C25 UNL     1      22.580 -31.554 -10.780  1.00  0.00     0.143 A 
HETATM   26  O7  UNL     1      23.158 -31.428  -9.597  1.00  0.00    -0.317 OA
ENDBRANCH  20  22
ENDBRANCH  19  20
ENDBRANCH   6  19
BRANCH   5  27
HETATM   27  C14 UNL     1      24.703 -32.238  -4.009  1.00  0.00     0.155 C 
HETATM   28  C15 UNL     1      25.687 -31.072  -3.860  1.00  0.00     0.058 C 
HETATM   29  O3  UNL     1      23.458 -31.582  -4.185  1.00  0.00    -0.261 OA
HETATM   30  N1  UNL     1      22.426 -32.232  -3.674  1.00  0.00    -0.270 N 
HETATM   31  C16 UNL     1      22.398 -32.960  -2.456  1.00  0.00     0.032 C 
ATOM     32  H1  UNL     1      21.559 -32.207  -4.211  1.00  0.00     0.194 HD
HETATM   33  C17 UNL     1      21.121 -33.279  -1.747  1.00  0.00     0.070 C 
HETATM   34  C18 UNL     1      23.574 -33.345  -1.976  1.00  0.00     0.080 C 
HETATM   35  C19 UNL     1      24.752 -32.977  -2.751  1.00  0.00     0.188 C 
HETATM   36  O4  UNL     1      25.859 -33.333  -2.281  1.00  0.00    -0.290 OA
ENDBRANCH   5  27
TORSDOF 10
ENDMDL
