MODEL 1
REMARK VINA RESULT: -6.932401644      0.000      0.000
REMARK  9 active torsions:
REMARK  status: ('A' for Active; 'I' for Inactive)
REMARK    1  A    between atoms: C2_2  and  C4_4 
REMARK    2  A    between atoms: C4_4  and  N1_5 
REMARK    3  A    between atoms: C4_4  and  C21_30 
REMARK       I    between atoms: N1_5  and  C5_7 
REMARK    4  A    between atoms: C5_7  and  C6_9 
REMARK    5  A    between atoms: C6_9  and  N2_11 
REMARK    6  A    between atoms: C6_9  and  C15_24 
REMARK       I    between atoms: N2_11  and  C8_13 
REMARK    7  A    between atoms: C8_13  and  C9_15 
REMARK    8  A    between atoms: C21_30  and  O3_31 
REMARK    9  A    between atoms: C21_30  and  N4_33 
ROOT
HETATM    1  C6  UNL     1       8.002  -4.238 -12.369  1.00  0.00     0.114 C 
HETATM    2  C7  UNL     1       6.887  -5.178 -12.824  1.00  0.00     0.049 C 
ENDROOT
BRANCH   1   3
HETATM    3  C5  UNL     1       9.159  -4.960 -11.881  1.00  0.00     0.250 C 
HETATM    4  N1  UNL     1      10.462  -4.456 -11.674  1.00  0.00    -0.324 N 
ATOM      5  H1  UNL     1      10.661  -3.478 -11.882  1.00  0.00     0.169 HD
HETATM    6  O1  UNL     1       9.008  -6.207 -11.588  1.00  0.00    -0.270 OA
BRANCH   4   7
HETATM    7  C4  UNL     1      11.555  -5.333 -11.156  1.00  0.00     0.066 C 
BRANCH   7   8
HETATM    8  C2  UNL     1      11.181  -6.126  -9.992  1.00  0.00     0.032 C 
HETATM    9  C1  UNL     1      11.047  -5.109  -8.814  1.00  0.00     0.016 C 
HETATM   10  C3  UNL     1      12.407  -6.938  -9.538  1.00  0.00     0.016 C 
ENDBRANCH   7   8
BRANCH   7  11
HETATM   11  C21 UNL     1      12.243  -5.892 -12.307  1.00  0.00     0.162 C 
BRANCH  11  12
HETATM   12  O3  UNL     1      11.469  -6.819 -12.878  1.00  0.00    -0.345 OA
ATOM     13  H3  UNL     1      12.018  -7.483 -13.281  1.00  0.00     0.219 HD
ENDBRANCH  11  12
BRANCH  11  14
HETATM   14  N4  UNL     1      13.443  -5.750 -12.968  1.00  0.00    -0.352 N 
HETATM   15  C22 UNL     1      14.411  -6.704 -13.419  1.00  0.00     0.082 C 
HETATM   16  C23 UNL     1      14.735  -6.515 -14.904  1.00  0.00     0.032 C 
HETATM   17  C24 UNL     1      15.717  -6.426 -12.697  1.00  0.00     0.025 C 
HETATM   18  C25 UNL     1      16.243  -5.067 -12.991  1.00  0.00     0.004 C 
HETATM   19  C26 UNL     1      15.243  -4.126 -13.573  1.00  0.00     0.025 C 
HETATM   20  C27 UNL     1      13.833  -4.342 -13.250  1.00  0.00     0.082 C 
HETATM   21  C28 UNL     1      12.937  -3.696 -14.256  1.00  0.00     0.032 C 
ENDBRANCH  11  14
ENDBRANCH   7  11
ENDBRANCH   4   7
ENDBRANCH   1   3
BRANCH   1  22
HETATM   22  N2  UNL     1       8.429  -3.347 -13.458  1.00  0.00    -0.341 N 
HETATM   23  C8  UNL     1       9.193  -3.755 -14.564  1.00  0.00     0.249 C 
HETATM   24  O2  UNL     1       9.569  -4.960 -14.683  1.00  0.00    -0.271 OA
ATOM     25  H2  UNL     1       8.151  -2.367 -13.407  1.00  0.00     0.163 HD
BRANCH  23  26
HETATM   26  C9  UNL     1       9.552  -2.750 -15.598  1.00  0.00     0.281 C 
HETATM   27  N3  UNL     1       9.008  -1.435 -15.274  1.00  0.00    -0.058 N 
HETATM   28  C10 UNL     1       8.421  -0.879 -16.450  1.00  0.00     0.187 C 
ATOM     29  H32 UNL     1       8.356  -1.465 -14.489  1.00  0.00     0.278 HD
ATOM     30  H31 UNL     1       9.703  -0.817 -14.856  1.00  0.00     0.278 HD
HETATM   31  C11 UNL     1       7.043  -1.496 -16.575  1.00  0.00     0.033 C 
HETATM   32  C14 UNL     1       9.144  -1.642 -17.576  1.00  0.00     0.040 C 
HETATM   33  C12 UNL     1       7.412  -2.963 -16.759  1.00  0.00     0.009 C 
HETATM   34  C13 UNL     1       8.891  -3.028 -16.933  1.00  0.00     0.028 C 
ENDBRANCH  23  26
ENDBRANCH   1  22
BRANCH   1  35
HETATM   35  C15 UNL     1       7.366  -3.346 -11.339  1.00  0.00     0.023 C 
HETATM   36  C16 UNL     1       8.295  -3.014 -10.224  1.00  0.00     0.007 C 
HETATM   37  C17 UNL     1       7.605  -2.187  -9.144  1.00  0.00     0.000 C 
HETATM   38  C18 UNL     1       6.863  -1.024  -9.730  1.00  0.00     0.000 C 
HETATM   39  C19 UNL     1       5.986  -1.415 -10.906  1.00  0.00     0.000 C 
HETATM   40  C20 UNL     1       6.945  -1.995 -11.943  1.00  0.00     0.007 C 
ENDBRANCH   1  35
TORSDOF 9
ENDMDL
MODEL 2
REMARK VINA RESULT: -6.931907134      1.305      1.533
REMARK  9 active torsions:
REMARK  status: ('A' for Active; 'I' for Inactive)
REMARK    1  A    between atoms: C2_2  and  C4_4 
REMARK    2  A    between atoms: C4_4  and  N1_5 
REMARK    3  A    between atoms: C4_4  and  C21_30 
REMARK       I    between atoms: N1_5  and  C5_7 
REMARK    4  A    between atoms: C5_7  and  C6_9 
REMARK    5  A    between atoms: C6_9  and  N2_11 
REMARK    6  A    between atoms: C6_9  and  C15_24 
REMARK       I    between atoms: N2_11  and  C8_13 
REMARK    7  A    between atoms: C8_13  and  C9_15 
REMARK    8  A    between atoms: C21_30  and  O3_31 
REMARK    9  A    between atoms: C21_30  and  N4_33 
ROOT
HETATM    1  C6  UNL     1       8.698  -4.663 -12.090  1.00  0.00     0.114 C 
HETATM    2  C7  UNL     1       7.769  -5.800 -12.513  1.00  0.00     0.049 C 
ENDROOT
BRANCH   1   3
HETATM    3  C5  UNL     1       9.917  -5.153 -11.480  1.00  0.00     0.250 C 
HETATM    4  N1  UNL     1      10.129  -6.410 -10.872  1.00  0.00    -0.324 N 
ATOM      5  H1  UNL     1       9.363  -7.082 -10.829  1.00  0.00     0.169 HD
HETATM    6  O1  UNL     1      10.946  -4.375 -11.485  1.00  0.00    -0.270 OA
BRANCH   4   7
HETATM    7  C4  UNL     1      11.456  -6.772 -10.289  1.00  0.00     0.066 C 
BRANCH   7   8
HETATM    8  C2  UNL     1      11.405  -7.152  -8.883  1.00  0.00     0.032 C 
HETATM    9  C1  UNL     1      11.253  -5.815  -8.090  1.00  0.00     0.016 C 
HETATM   10  C3  UNL     1      12.813  -7.592  -8.444  1.00  0.00     0.016 C 
ENDBRANCH   7   8
BRANCH   7  11
HETATM   11  C21 UNL     1      12.173  -7.540 -11.292  1.00  0.00     0.162 C 
BRANCH  11  12
HETATM   12  O3  UNL     1      11.347  -8.437 -11.837  1.00  0.00    -0.345 OA
ATOM     13  H3  UNL     1      11.734  -9.303 -11.771  1.00  0.00     0.219 HD
ENDBRANCH  11  12
BRANCH  11  14
HETATM   14  N4  UNL     1      13.438  -7.616 -11.832  1.00  0.00    -0.352 N 
HETATM   15  C22 UNL     1      14.387  -8.684 -11.912  1.00  0.00     0.082 C 
HETATM   16  C23 UNL     1      14.864  -8.906 -13.350  1.00  0.00     0.032 C 
HETATM   17  C24 UNL     1      15.632  -8.264 -11.150  1.00  0.00     0.025 C 
HETATM   18  C25 UNL     1      16.262  -7.048 -11.728  1.00  0.00     0.004 C 
HETATM   19  C26 UNL     1      15.379  -6.266 -12.641  1.00  0.00     0.025 C 
HETATM   20  C27 UNL     1      13.935  -6.345 -12.428  1.00  0.00     0.082 C 
HETATM   21  C28 UNL     1      13.179  -5.962 -13.658  1.00  0.00     0.032 C 
ENDBRANCH  11  14
ENDBRANCH   7  11
ENDBRANCH   4   7
ENDBRANCH   1   3
BRANCH   1  22
HETATM   22  N2  UNL     1       9.056  -3.811 -13.234  1.00  0.00    -0.341 N 
HETATM   23  C8  UNL     1       9.554  -4.292 -14.457  1.00  0.00     0.249 C 
HETATM   24  O2  UNL     1       9.728  -5.534 -14.644  1.00  0.00    -0.271 OA
ATOM     25  H2  UNL     1       8.934  -2.803 -13.133  1.00  0.00     0.163 HD
BRANCH  23  26
HETATM   26  C9  UNL     1       9.871  -3.319 -15.535  1.00  0.00     0.281 C 
HETATM   27  N3  UNL     1       9.448  -1.969 -15.175  1.00  0.00    -0.058 N 
HETATM   28  C10 UNL     1       8.783  -1.383 -16.293  1.00  0.00     0.187 C 
ATOM     29  H32 UNL     1       8.878  -1.952 -14.328  1.00  0.00     0.278 HD
ATOM     30  H31 UNL     1      10.221  -1.396 -14.837  1.00  0.00     0.278 HD
HETATM   31  C11 UNL     1       7.362  -1.910 -16.271  1.00  0.00     0.033 C 
HETATM   32  C14 UNL     1       9.338  -2.199 -17.476  1.00  0.00     0.040 C 
HETATM   33  C12 UNL     1       7.615  -3.398 -16.473  1.00  0.00     0.009 C 
HETATM   34  C13 UNL     1       9.062  -3.561 -16.793  1.00  0.00     0.028 C 
ENDBRANCH  23  26
ENDBRANCH   1  22
BRANCH   1  35
HETATM   35  C15 UNL     1       7.872  -3.798 -11.181  1.00  0.00     0.023 C 
HETATM   36  C16 UNL     1       8.645  -3.304 -10.009  1.00  0.00     0.007 C 
HETATM   37  C17 UNL     1       7.766  -2.507  -9.050  1.00  0.00     0.000 C 
HETATM   38  C18 UNL     1       6.963  -1.468  -9.774  1.00  0.00     0.000 C 
HETATM   39  C19 UNL     1       6.254  -2.016 -10.998  1.00  0.00     0.000 C 
HETATM   40  C20 UNL     1       7.367  -2.536 -11.905  1.00  0.00     0.007 C 
ENDBRANCH   1  35
TORSDOF 9
ENDMDL
MODEL 3
REMARK VINA RESULT: -6.882503122      2.030      2.977
REMARK  9 active torsions:
REMARK  status: ('A' for Active; 'I' for Inactive)
REMARK    1  A    between atoms: C2_2  and  C4_4 
REMARK    2  A    between atoms: C4_4  and  N1_5 
REMARK    3  A    between atoms: C4_4  and  C21_30 
REMARK       I    between atoms: N1_5  and  C5_7 
REMARK    4  A    between atoms: C5_7  and  C6_9 
REMARK    5  A    between atoms: C6_9  and  N2_11 
REMARK    6  A    between atoms: C6_9  and  C15_24 
REMARK       I    between atoms: N2_11  and  C8_13 
REMARK    7  A    between atoms: C8_13  and  C9_15 
REMARK    8  A    between atoms: C21_30  and  O3_31 
REMARK    9  A    between atoms: C21_30  and  N4_33 
ROOT
HETATM    1  C6  UNL     1       9.097  -4.623 -12.085  1.00  0.00     0.114 C 
HETATM    2  C7  UNL     1       7.918  -5.594 -12.094  1.00  0.00     0.049 C 
ENDROOT
BRANCH   1   3
HETATM    3  C5  UNL     1      10.267  -5.193 -11.449  1.00  0.00     0.250 C 
HETATM    4  N1  UNL     1      10.435  -6.517 -10.986  1.00  0.00    -0.324 N 
ATOM      5  H1  UNL     1       9.670  -7.184 -11.085  1.00  0.00     0.169 HD
HETATM    6  O1  UNL     1      11.291  -4.426 -11.279  1.00  0.00    -0.270 OA
BRANCH   4   7
HETATM    7  C4  UNL     1      11.715  -6.956 -10.353  1.00  0.00     0.066 C 
BRANCH   7   8
HETATM    8  C2  UNL     1      11.586  -7.341  -8.954  1.00  0.00     0.032 C 
HETATM    9  C1  UNL     1      11.372  -6.008  -8.167  1.00  0.00     0.016 C 
HETATM   10  C3  UNL     1      12.970  -7.766  -8.433  1.00  0.00     0.016 C 
ENDBRANCH   7   8
BRANCH   7  11
HETATM   11  C21 UNL     1      12.428  -7.757 -11.332  1.00  0.00     0.162 C 
BRANCH  11  12
HETATM   12  O3  UNL     1      11.548  -8.372 -12.127  1.00  0.00    -0.345 OA
ATOM     13  H3  UNL     1      12.001  -8.725 -12.885  1.00  0.00     0.219 HD
ENDBRANCH  11  12
BRANCH  11  14
HETATM   14  N4  UNL     1      13.727  -8.067 -11.672  1.00  0.00    -0.352 N 
HETATM   15  C22 UNL     1      14.360  -9.302 -12.024  1.00  0.00     0.082 C 
HETATM   16  C23 UNL     1      15.117  -9.186 -13.351  1.00  0.00     0.032 C 
HETATM   17  C24 UNL     1      15.432  -9.593 -10.988  1.00  0.00     0.025 C 
HETATM   18  C25 UNL     1      16.477  -8.537 -10.950  1.00  0.00     0.004 C 
HETATM   19  C26 UNL     1      16.088  -7.254 -11.602  1.00  0.00     0.025 C 
HETATM   20  C27 UNL     1      14.667  -6.913 -11.646  1.00  0.00     0.082 C 
HETATM   21  C28 UNL     1      14.376  -5.921 -12.724  1.00  0.00     0.032 C 
ENDBRANCH  11  14
ENDBRANCH   7  11
ENDBRANCH   4   7
ENDBRANCH   1   3
BRANCH   1  22
HETATM   22  N2  UNL     1       9.459  -4.207 -13.448  1.00  0.00    -0.341 N 
HETATM   23  C8  UNL     1      10.086  -5.038 -14.391  1.00  0.00     0.249 C 
HETATM   24  O2  UNL     1      10.383  -6.237 -14.104  1.00  0.00    -0.271 OA
ATOM     25  H2  UNL     1       9.240  -3.251 -13.727  1.00  0.00     0.163 HD
BRANCH  23  26
HETATM   26  C9  UNL     1      10.391  -4.492 -15.739  1.00  0.00     0.281 C 
HETATM   27  N3  UNL     1      11.220  -5.413 -16.511  1.00  0.00    -0.058 N 
HETATM   28  C10 UNL     1      12.269  -4.673 -17.134  1.00  0.00     0.187 C 
ATOM     29  H32 UNL     1      11.570  -6.189 -15.948  1.00  0.00     0.278 HD
ATOM     30  H31 UNL     1      10.677  -5.958 -17.181  1.00  0.00     0.278 HD
HETATM   31  C11 UNL     1      13.342  -4.481 -16.081  1.00  0.00     0.033 C 
HETATM   32  C14 UNL     1      11.692  -3.245 -17.174  1.00  0.00     0.040 C 
HETATM   33  C12 UNL     1      12.581  -3.644 -15.061  1.00  0.00     0.009 C 
HETATM   34  C13 UNL     1      11.280  -3.266 -15.682  1.00  0.00     0.028 C 
ENDBRANCH  23  26
ENDBRANCH   1  22
BRANCH   1  35
HETATM   35  C15 UNL     1       8.580  -3.386 -11.405  1.00  0.00     0.023 C 
HETATM   36  C16 UNL     1       7.196  -3.039 -11.832  1.00  0.00     0.007 C 
HETATM   37  C17 UNL     1       6.725  -1.731 -11.204  1.00  0.00     0.000 C 
HETATM   38  C18 UNL     1       6.965  -1.712  -9.724  1.00  0.00     0.000 C 
HETATM   39  C19 UNL     1       8.372  -2.141  -9.349  1.00  0.00     0.000 C 
HETATM   40  C20 UNL     1       8.510  -3.566  -9.879  1.00  0.00     0.007 C 
ENDBRANCH   1  35
TORSDOF 9
ENDMDL
MODEL 4
REMARK VINA RESULT: -6.871714324      1.675      2.237
REMARK  9 active torsions:
REMARK  status: ('A' for Active; 'I' for Inactive)
REMARK    1  A    between atoms: C2_2  and  C4_4 
REMARK    2  A    between atoms: C4_4  and  N1_5 
REMARK    3  A    between atoms: C4_4  and  C21_30 
REMARK       I    between atoms: N1_5  and  C5_7 
REMARK    4  A    between atoms: C5_7  and  C6_9 
REMARK    5  A    between atoms: C6_9  and  N2_11 
REMARK    6  A    between atoms: C6_9  and  C15_24 
REMARK       I    between atoms: N2_11  and  C8_13 
REMARK    7  A    between atoms: C8_13  and  C9_15 
REMARK    8  A    between atoms: C21_30  and  O3_31 
REMARK    9  A    between atoms: C21_30  and  N4_33 
ROOT
HETATM    1  C6  UNL     1       9.338  -4.497 -12.178  1.00  0.00     0.114 C 
HETATM    2  C7  UNL     1       8.207  -5.510 -12.345  1.00  0.00     0.049 C 
ENDROOT
BRANCH   1   3
HETATM    3  C5  UNL     1      10.482  -5.067 -11.496  1.00  0.00     0.250 C 
HETATM    4  N1  UNL     1      10.652  -6.402 -11.068  1.00  0.00    -0.324 N 
ATOM      5  H1  UNL     1       9.907  -7.079 -11.232  1.00  0.00     0.169 HD
HETATM    6  O1  UNL     1      11.480  -4.288 -11.245  1.00  0.00    -0.270 OA
BRANCH   4   7
HETATM    7  C4  UNL     1      11.903  -6.839 -10.379  1.00  0.00     0.066 C 
BRANCH   7   8
HETATM    8  C2  UNL     1      11.696  -7.324  -9.021  1.00  0.00     0.032 C 
HETATM    9  C1  UNL     1      11.320  -6.066  -8.175  1.00  0.00     0.016 C 
HETATM   10  C3  UNL     1      13.065  -7.682  -8.415  1.00  0.00     0.016 C 
ENDBRANCH   7   8
BRANCH   7  11
HETATM   11  C21 UNL     1      12.711  -7.545 -11.358  1.00  0.00     0.162 C 
BRANCH  11  12
HETATM   12  O3  UNL     1      11.911  -8.187 -12.213  1.00  0.00    -0.345 OA
ATOM     13  H3  UNL     1      12.373  -8.328 -13.031  1.00  0.00     0.219 HD
ENDBRANCH  11  12
BRANCH  11  14
HETATM   14  N4  UNL     1      14.041  -7.746 -11.654  1.00  0.00    -0.352 N 
HETATM   15  C22 UNL     1      14.896  -8.886 -11.517  1.00  0.00     0.082 C 
HETATM   16  C23 UNL     1      15.602  -9.220 -12.834  1.00  0.00     0.032 C 
HETATM   17  C24 UNL     1      16.014  -8.523 -10.556  1.00  0.00     0.025 C 
HETATM   18  C25 UNL     1      16.838  -7.392 -11.056  1.00  0.00     0.004 C 
HETATM   19  C26 UNL     1      16.204  -6.594 -12.145  1.00  0.00     0.025 C 
HETATM   20  C27 UNL     1      14.743  -6.550 -12.197  1.00  0.00     0.082 C 
HETATM   21  C28 UNL     1      14.257  -6.177 -13.559  1.00  0.00     0.032 C 
ENDBRANCH  11  14
ENDBRANCH   7  11
ENDBRANCH   4   7
ENDBRANCH   1   3
BRANCH   1  22
HETATM   22  N2  UNL     1       9.780  -3.970 -13.477  1.00  0.00    -0.341 N 
HETATM   23  C8  UNL     1      10.477  -4.716 -14.442  1.00  0.00     0.249 C 
HETATM   24  O2  UNL     1      10.771  -5.932 -14.233  1.00  0.00    -0.271 OA
ATOM     25  H2  UNL     1       9.567  -2.995 -13.692  1.00  0.00     0.163 HD
BRANCH  23  26
HETATM   26  C9  UNL     1      10.860  -4.060 -15.719  1.00  0.00     0.281 C 
HETATM   27  N3  UNL     1      10.277  -2.726 -15.827  1.00  0.00    -0.058 N 
HETATM   28  C10 UNL     1       9.730  -2.570 -17.136  1.00  0.00     0.187 C 
ATOM     29  H32 UNL     1       9.592  -2.539 -15.093  1.00  0.00     0.278 HD
ATOM     30  H31 UNL     1      10.941  -1.989 -15.592  1.00  0.00     0.278 HD
HETATM   31  C11 UNL     1       8.371  -3.239 -17.117  1.00  0.00     0.033 C 
HETATM   32  C14 UNL     1      10.517  -3.613 -17.952  1.00  0.00     0.040 C 
HETATM   33  C12 UNL     1       8.777  -4.681 -16.836  1.00  0.00     0.009 C 
HETATM   34  C13 UNL     1      10.263  -4.748 -16.929  1.00  0.00     0.028 C 
ENDBRANCH  23  26
ENDBRANCH   1  22
BRANCH   1  35
HETATM   35  C15 UNL     1       8.720  -3.334 -11.455  1.00  0.00     0.023 C 
HETATM   36  C16 UNL     1       7.353  -3.017 -11.953  1.00  0.00     0.007 C 
HETATM   37  C17 UNL     1       6.780  -1.777 -11.274  1.00  0.00     0.000 C 
HETATM   38  C18 UNL     1       6.919  -1.852  -9.782  1.00  0.00     0.000 C 
HETATM   39  C19 UNL     1       8.315  -2.247  -9.339  1.00  0.00     0.000 C 
HETATM   40  C20 UNL     1       8.555  -3.624  -9.952  1.00  0.00     0.007 C 
ENDBRANCH   1  35
TORSDOF 9
ENDMDL
MODEL 5
REMARK VINA RESULT: -6.870253878      3.823      8.408
REMARK  9 active torsions:
REMARK  status: ('A' for Active; 'I' for Inactive)
REMARK    1  A    between atoms: C2_2  and  C4_4 
REMARK    2  A    between atoms: C4_4  and  N1_5 
REMARK    3  A    between atoms: C4_4  and  C21_30 
REMARK       I    between atoms: N1_5  and  C5_7 
REMARK    4  A    between atoms: C5_7  and  C6_9 
REMARK    5  A    between atoms: C6_9  and  N2_11 
REMARK    6  A    between atoms: C6_9  and  C15_24 
REMARK       I    between atoms: N2_11  and  C8_13 
REMARK    7  A    between atoms: C8_13  and  C9_15 
REMARK    8  A    between atoms: C21_30  and  O3_31 
REMARK    9  A    between atoms: C21_30  and  N4_33 
ROOT
HETATM    1  C6  UNL     1       7.848  -4.550 -12.119  1.00  0.00     0.114 C 
HETATM    2  C7  UNL     1       8.519  -3.734 -13.222  1.00  0.00     0.049 C 
ENDROOT
BRANCH   1   3
HETATM    3  C5  UNL     1       6.837  -5.445 -12.642  1.00  0.00     0.250 C 
HETATM    4  N1  UNL     1       6.213  -6.521 -11.974  1.00  0.00    -0.324 N 
ATOM      5  H1  UNL     1       6.474  -6.734 -11.011  1.00  0.00     0.169 HD
HETATM    6  O1  UNL     1       6.438  -5.257 -13.855  1.00  0.00    -0.270 OA
BRANCH   4   7
HETATM    7  C4  UNL     1       5.175  -7.354 -12.653  1.00  0.00     0.066 C 
BRANCH   7   8
HETATM    8  C2  UNL     1       5.647  -8.667 -13.073  1.00  0.00     0.032 C 
HETATM    9  C1  UNL     1       6.959  -8.924 -12.263  1.00  0.00     0.016 C 
HETATM   10  C3  UNL     1       6.207  -8.553 -14.503  1.00  0.00     0.016 C 
ENDBRANCH   7   8
BRANCH   7  11
HETATM   11  C21 UNL     1       3.925  -7.153 -11.942  1.00  0.00     0.162 C 
BRANCH  11  12
HETATM   12  O3  UNL     1       4.122  -6.301 -10.932  1.00  0.00    -0.345 OA
ATOM     13  H3  UNL     1       3.507  -6.493 -10.234  1.00  0.00     0.219 HD
ENDBRANCH  11  12
BRANCH  11  14
HETATM   14  N4  UNL     1       2.617  -7.580 -12.002  1.00  0.00    -0.352 N 
HETATM   15  C22 UNL     1       1.573  -7.349 -12.953  1.00  0.00     0.082 C 
HETATM   16  C23 UNL     1       0.956  -8.664 -13.441  1.00  0.00     0.032 C 
HETATM   17  C24 UNL     1       0.440  -6.629 -12.242  1.00  0.00     0.025 C 
HETATM   18  C25 UNL     1      -0.125  -7.433 -11.128  1.00  0.00     0.004 C 
HETATM   19  C26 UNL     1       0.742  -8.557 -10.670  1.00  0.00     0.025 C 
HETATM   20  C27 UNL     1       2.187  -8.422 -10.852  1.00  0.00     0.082 C 
HETATM   21  C28 UNL     1       2.865  -9.753 -10.839  1.00  0.00     0.032 C 
ENDBRANCH  11  14
ENDBRANCH   7  11
ENDBRANCH   4   7
ENDBRANCH   1   3
BRANCH   1  22
HETATM   22  N2  UNL     1       8.832  -5.341 -11.365  1.00  0.00    -0.341 N 
HETATM   23  C8  UNL     1       9.750  -6.231 -11.948  1.00  0.00     0.249 C 
HETATM   24  O2  UNL     1       9.779  -6.403 -13.204  1.00  0.00    -0.271 OA
ATOM     25  H2  UNL     1       8.848  -5.238 -10.351  1.00  0.00     0.163 HD
BRANCH  23  26
HETATM   26  C9  UNL     1      10.695  -6.965 -11.068  1.00  0.00     0.281 C 
HETATM   27  N3  UNL     1      10.125  -7.186  -9.742  1.00  0.00    -0.058 N 
HETATM   28  C10 UNL     1      11.112  -6.871  -8.761  1.00  0.00     0.187 C 
ATOM     29  H32 UNL     1       9.256  -6.672  -9.601  1.00  0.00     0.278 HD
ATOM     30  H31 UNL     1       9.752  -8.129  -9.630  1.00  0.00     0.278 HD
HETATM   31  C11 UNL     1      11.088  -5.365  -8.597  1.00  0.00     0.033 C 
HETATM   32  C14 UNL     1      12.427  -7.020  -9.550  1.00  0.00     0.040 C 
HETATM   33  C12 UNL     1      11.512  -4.928  -9.994  1.00  0.00     0.009 C 
HETATM   34  C13 UNL     1      11.929  -6.153 -10.733  1.00  0.00     0.028 C 
ENDBRANCH  23  26
ENDBRANCH   1  22
BRANCH   1  35
HETATM   35  C15 UNL     1       7.314  -3.533 -11.149  1.00  0.00     0.023 C 
HETATM   36  C16 UNL     1       8.305  -3.177 -10.096  1.00  0.00     0.007 C 
HETATM   37  C17 UNL     1       7.714  -2.217  -9.069  1.00  0.00     0.000 C 
HETATM   38  C18 UNL     1       7.031  -1.056  -9.729  1.00  0.00     0.000 C 
HETATM   39  C19 UNL     1       6.086  -1.480 -10.838  1.00  0.00     0.000 C 
HETATM   40  C20 UNL     1       6.963  -2.210 -11.852  1.00  0.00     0.007 C 
ENDBRANCH   1  35
TORSDOF 9
ENDMDL
