MODEL 1
REMARK VINA RESULT: -6.318479547      0.000      0.000
REMARK  9 active torsions:
REMARK  status: ('A' for Active; 'I' for Inactive)
REMARK    1  A    between atoms: C2_2  and  C3_3 
REMARK    2  A    between atoms: C3_3  and  C4_4 
REMARK    3  A    between atoms: C6_6  and  O1_7 
REMARK    4  A    between atoms: C7_11  and  C8_12 
REMARK    5  A    between atoms: C8_12  and  C9_13 
REMARK    6  A    between atoms: C12_16  and  O2_17 
REMARK    7  A    between atoms: C13_21  and  C14_22 
REMARK    8  A    between atoms: C25_36  and  C26_37 
REMARK    9  A    between atoms: C26_37  and  O3_38 
ROOT
HETATM    1  C4  UNL     1       7.948  -3.638 -12.152  1.00  0.00     0.119 A 
HETATM    2  C5  UNL     1       7.903  -4.939 -12.735  1.00  0.00     0.185 A 
HETATM    3  C6  UNL     1       8.568  -5.461 -13.939  1.00  0.00     0.141 C 
HETATM    4  N1  UNL     1       9.647  -5.118 -14.701  1.00  0.00    -0.339 N 
ATOM      5  H1  UNL     1      10.294  -5.907 -14.725  1.00  0.00     0.167 HD
HETATM    6  C7  UNL     1      10.191  -4.068 -15.466  1.00  0.00     0.062 C 
HETATM    7  C12 UNL     1      11.674  -3.964 -15.486  1.00  0.00     0.163 C 
HETATM    8  N2  UNL     1      12.747  -4.733 -15.144  1.00  0.00    -0.339 N 
ATOM      9  H2  UNL     1      13.048  -5.245 -15.973  1.00  0.00     0.168 HD
HETATM   10  C13 UNL     1      13.618  -5.095 -14.057  1.00  0.00     0.015 C 
HETATM   11  C18 UNL     1      13.426  -6.500 -13.582  1.00  0.00     0.098 C 
HETATM   12  C19 UNL     1      13.851  -6.898 -12.250  1.00  0.00    -0.023 A 
HETATM   13  C20 UNL     1      15.198  -7.325 -12.210  1.00  0.00     0.052 A 
HETATM   14  C21 UNL     1      15.806  -7.787 -11.091  1.00  0.00     0.117 A 
HETATM   15  F1  UNL     1      17.126  -8.180 -11.143  1.00  0.00    -0.206 F 
HETATM   16  C22 UNL     1      15.094  -7.852  -9.927  1.00  0.00     0.044 A 
HETATM   17  C23 UNL     1      13.792  -7.449  -9.935  1.00  0.00     0.033 A 
HETATM   18  C24 UNL     1      13.121  -6.958 -11.082  1.00  0.00     0.035 A 
HETATM   19  N3  UNL     1      11.768  -6.603 -10.878  1.00  0.00    -0.374 N 
ATOM     20  H3  UNL     1      11.194  -7.336 -10.462  1.00  0.00     0.160 HD
HETATM   21  C25 UNL     1      11.070  -5.389 -11.156  1.00  0.00     0.198 C 
HETATM   22  C27 UNL     1       9.596  -5.517 -10.855  1.00  0.00     0.245 C 
HETATM   23  O4  UNL     1       9.374  -6.338  -9.959  1.00  0.00    -0.271 OA
HETATM   24  N4  UNL     1       8.729  -4.714 -11.608  1.00  0.00    -0.329 N 
ENDROOT
BRANCH   6  25
HETATM   25  C8  UNL     1       9.511  -2.797 -15.734  1.00  0.00     0.065 C 
BRANCH  25  26
HETATM   26  C9  UNL     1       8.019  -2.784 -15.857  1.00  0.00    -0.017 C 
HETATM   27  C10 UNL     1       7.448  -1.417 -15.460  1.00  0.00     0.010 C 
HETATM   28  C11 UNL     1       7.365  -3.330 -17.046  1.00  0.00     0.010 C 
ENDBRANCH  25  26
ENDBRANCH   6  25
BRANCH   7  29
HETATM   29  O2  UNL     1      11.978  -2.776 -15.992  1.00  0.00    -0.345 OA
ATOM     30  H2  UNL     1      12.923  -2.693 -15.966  1.00  0.00     0.219 HD
ENDBRANCH   7  29
BRANCH   3  31
HETATM   31  O1  UNL     1       7.937  -6.540 -14.370  1.00  0.00    -0.348 OA
ATOM     32  H1  UNL     1       7.811  -7.150 -13.653  1.00  0.00     0.219 HD
ENDBRANCH   3  31
BRANCH  10  33
HETATM   33  C14 UNL     1      14.991  -4.562 -14.185  1.00  0.00     0.027 C 
HETATM   34  C15 UNL     1      15.974  -4.876 -15.180  1.00  0.00    -0.086 C 
HETATM   35  C16 UNL     1      15.598  -4.533 -16.634  1.00  0.00     0.043 C 
HETATM   36  C17 UNL     1      16.693  -6.165 -15.262  1.00  0.00     0.043 C 
ENDBRANCH  10  33
BRANCH   1  37
HETATM   37  C3  UNL     1       6.856  -3.123 -11.271  1.00  0.00     0.028 C 
BRANCH  37  38
HETATM   38  C2  UNL     1       6.592  -1.664 -11.425  1.00  0.00    -0.002 C 
HETATM   39  C1  UNL     1       6.246  -1.068 -10.100  1.00  0.00     0.005 C 
ENDBRANCH  37  38
ENDBRANCH   1  37
BRANCH  21  40
HETATM   40  C26 UNL     1      11.500  -4.288 -10.154  1.00  0.00     0.198 C 
BRANCH  40  41
HETATM   41  O3  UNL     1      11.344  -4.836  -8.885  1.00  0.00    -0.398 OA
ATOM     42  H3  UNL     1      11.309  -4.103  -8.282  1.00  0.00     0.209 HD
ENDBRANCH  40  41
ENDBRANCH  21  40
TORSDOF 9
ENDMDL
MODEL 2
REMARK VINA RESULT: -6.244095692      1.558      1.820
REMARK  9 active torsions:
REMARK  status: ('A' for Active; 'I' for Inactive)
REMARK    1  A    between atoms: C2_2  and  C3_3 
REMARK    2  A    between atoms: C3_3  and  C4_4 
REMARK    3  A    between atoms: C6_6  and  O1_7 
REMARK    4  A    between atoms: C7_11  and  C8_12 
REMARK    5  A    between atoms: C8_12  and  C9_13 
REMARK    6  A    between atoms: C12_16  and  O2_17 
REMARK    7  A    between atoms: C13_21  and  C14_22 
REMARK    8  A    between atoms: C25_36  and  C26_37 
REMARK    9  A    between atoms: C26_37  and  O3_38 
ROOT
HETATM    1  C4  UNL     1       8.501  -3.661 -11.343  1.00  0.00     0.119 A 
HETATM    2  C5  UNL     1       7.954  -4.686 -12.169  1.00  0.00     0.185 A 
HETATM    3  C6  UNL     1       8.261  -5.043 -13.564  1.00  0.00     0.141 C 
HETATM    4  N1  UNL     1       9.299  -4.849 -14.430  1.00  0.00    -0.339 N 
ATOM      5  H1  UNL     1       9.634  -5.759 -14.747  1.00  0.00     0.167 HD
HETATM    6  C7  UNL     1      10.073  -3.845 -15.043  1.00  0.00     0.062 C 
HETATM    7  C12 UNL     1      11.491  -4.187 -15.329  1.00  0.00     0.163 C 
HETATM    8  N2  UNL     1      12.275  -5.303 -15.374  1.00  0.00    -0.339 N 
ATOM      9  H2  UNL     1      12.288  -5.642 -16.336  1.00  0.00     0.168 HD
HETATM   10  C13 UNL     1      13.090  -6.184 -14.580  1.00  0.00     0.015 C 
HETATM   11  C18 UNL     1      12.492  -7.540 -14.388  1.00  0.00     0.098 C 
HETATM   12  C19 UNL     1      12.907  -8.385 -13.281  1.00  0.00    -0.023 A 
HETATM   13  C20 UNL     1      14.027  -9.189 -13.595  1.00  0.00     0.052 A 
HETATM   14  C21 UNL     1      14.567 -10.090 -12.741  1.00  0.00     0.117 A 
HETATM   15  F1  UNL     1      15.662 -10.831 -13.131  1.00  0.00    -0.206 F 
HETATM   16  C22 UNL     1      14.012 -10.246 -11.502  1.00  0.00     0.044 A 
HETATM   17  C23 UNL     1      12.931  -9.486 -11.170  1.00  0.00     0.033 A 
HETATM   18  C24 UNL     1      12.338  -8.532 -12.033  1.00  0.00     0.035 A 
HETATM   19  N3  UNL     1      11.217  -7.857 -11.499  1.00  0.00    -0.374 N 
ATOM     20  H3  UNL     1      10.481  -8.468 -11.146  1.00  0.00     0.160 HD
HETATM   21  C25 UNL     1      10.943  -6.461 -11.370  1.00  0.00     0.198 C 
HETATM   22  C27 UNL     1       9.557  -6.219 -10.823  1.00  0.00     0.245 C 
HETATM   23  O4  UNL     1       9.175  -7.143 -10.097  1.00  0.00    -0.271 OA
HETATM   24  N4  UNL     1       8.930  -5.025 -11.204  1.00  0.00    -0.329 N 
ENDROOT
BRANCH   6  25
HETATM   25  C8  UNL     1       9.835  -2.406 -14.896  1.00  0.00     0.065 C 
BRANCH  25  26
HETATM   26  C9  UNL     1       8.504  -1.846 -15.290  1.00  0.00    -0.017 C 
HETATM   27  C10 UNL     1       7.752  -1.307 -14.067  1.00  0.00     0.010 C 
HETATM   28  C11 UNL     1       8.383  -0.959 -16.447  1.00  0.00     0.010 C 
ENDBRANCH  25  26
ENDBRANCH   6  25
BRANCH   7  29
HETATM   29  O2  UNL     1      12.118  -3.054 -15.618  1.00  0.00    -0.345 OA
ATOM     30  H2  UNL     1      12.118  -2.966 -16.564  1.00  0.00     0.219 HD
ENDBRANCH   7  29
BRANCH   3  31
HETATM   31  O1  UNL     1       7.259  -5.730 -14.084  1.00  0.00    -0.348 OA
ATOM     32  H1  UNL     1       7.130  -6.535 -13.597  1.00  0.00     0.219 HD
ENDBRANCH   3  31
BRANCH  10  33
HETATM   33  C14 UNL     1      14.538  -6.070 -14.856  1.00  0.00     0.027 C 
HETATM   34  C15 UNL     1      15.555  -5.486 -14.030  1.00  0.00    -0.086 C 
HETATM   35  C16 UNL     1      15.768  -6.145 -12.654  1.00  0.00     0.043 C 
HETATM   36  C17 UNL     1      15.701  -4.036 -13.790  1.00  0.00     0.043 C 
ENDBRANCH  10  33
BRANCH   1  37
HETATM   37  C3  UNL     1       7.755  -3.097 -10.177  1.00  0.00     0.028 C 
BRANCH  37  38
HETATM   38  C2  UNL     1       6.410  -2.555 -10.524  1.00  0.00    -0.002 C 
HETATM   39  C1  UNL     1       6.329  -1.114 -10.144  1.00  0.00     0.005 C 
ENDBRANCH  37  38
ENDBRANCH   1  37
BRANCH  21  40
HETATM   40  C26 UNL     1      11.830  -5.846 -10.259  1.00  0.00     0.198 C 
BRANCH  40  41
HETATM   41  O3  UNL     1      11.674  -6.660  -9.143  1.00  0.00    -0.398 OA
ATOM     42  H3  UNL     1      12.488  -6.603  -8.657  1.00  0.00     0.209 HD
ENDBRANCH  40  41
ENDBRANCH  21  40
TORSDOF 9
ENDMDL
MODEL 3
REMARK VINA RESULT: -6.153723931      3.260      8.553
REMARK  9 active torsions:
REMARK  status: ('A' for Active; 'I' for Inactive)
REMARK    1  A    between atoms: C2_2  and  C3_3 
REMARK    2  A    between atoms: C3_3  and  C4_4 
REMARK    3  A    between atoms: C6_6  and  O1_7 
REMARK    4  A    between atoms: C7_11  and  C8_12 
REMARK    5  A    between atoms: C8_12  and  C9_13 
REMARK    6  A    between atoms: C12_16  and  O2_17 
REMARK    7  A    between atoms: C13_21  and  C14_22 
REMARK    8  A    between atoms: C25_36  and  C26_37 
REMARK    9  A    between atoms: C26_37  and  O3_38 
ROOT
HETATM    1  C4  UNL     1      17.185  -6.428 -13.265  1.00  0.00     0.119 A 
HETATM    2  C5  UNL     1      16.453  -7.187 -14.225  1.00  0.00     0.185 A 
HETATM    3  C6  UNL     1      15.381  -8.177 -14.033  1.00  0.00     0.141 C 
HETATM    4  N1  UNL     1      14.484  -8.486 -13.051  1.00  0.00    -0.339 N 
ATOM      5  H1  UNL     1      13.542  -8.421 -13.438  1.00  0.00     0.167 HD
HETATM    6  C7  UNL     1      14.389  -8.863 -11.697  1.00  0.00     0.062 C 
HETATM    7  C12 UNL     1      13.188  -8.386 -10.962  1.00  0.00     0.163 C 
HETATM    8  N2  UNL     1      11.974  -7.838 -11.253  1.00  0.00    -0.339 N 
ATOM      9  H2  UNL     1      11.293  -8.594 -11.319  1.00  0.00     0.168 HD
HETATM   10  C13 UNL     1      11.288  -6.597 -11.503  1.00  0.00     0.015 C 
HETATM   11  C18 UNL     1      10.850  -6.433 -12.923  1.00  0.00     0.098 C 
HETATM   12  C19 UNL     1      10.573  -5.114 -13.467  1.00  0.00    -0.023 A 
HETATM   13  C20 UNL     1       9.235  -4.706 -13.260  1.00  0.00     0.052 A 
HETATM   14  C21 UNL     1       8.728  -3.537 -13.717  1.00  0.00     0.117 A 
HETATM   15  F1  UNL     1       7.409  -3.218 -13.467  1.00  0.00    -0.206 F 
HETATM   16  C22 UNL     1       9.538  -2.690 -14.419  1.00  0.00     0.044 A 
HETATM   17  C23 UNL     1      10.833  -3.056 -14.635  1.00  0.00     0.033 A 
HETATM   18  C24 UNL     1      11.402  -4.269 -14.173  1.00  0.00     0.035 A 
HETATM   19  N3  UNL     1      12.760  -4.460 -14.514  1.00  0.00    -0.374 N 
ATOM     20  H3  UNL     1      12.965  -4.371 -15.509  1.00  0.00     0.160 HD
HETATM   21  C25 UNL     1      13.894  -4.758 -13.699  1.00  0.00     0.198 C 
HETATM   22  C27 UNL     1      15.134  -4.974 -14.533  1.00  0.00     0.245 C 
HETATM   23  O4  UNL     1      15.100  -4.336 -15.590  1.00  0.00    -0.271 OA
HETATM   24  N4  UNL     1      16.105  -5.833 -14.004  1.00  0.00    -0.329 N 
ENDROOT
BRANCH   6  25
HETATM   25  C8  UNL     1      15.538  -9.137 -10.830  1.00  0.00     0.065 C 
BRANCH  25  26
HETATM   26  C9  UNL     1      16.470 -10.252 -11.188  1.00  0.00    -0.017 C 
HETATM   27  C10 UNL     1      17.691 -10.266 -10.260  1.00  0.00     0.010 C 
HETATM   28  C11 UNL     1      15.957 -11.597 -11.444  1.00  0.00     0.010 C 
ENDBRANCH  25  26
ENDBRANCH   6  25
BRANCH   7  29
HETATM   29  O2  UNL     1      13.418  -8.576  -9.670  1.00  0.00    -0.345 OA
ATOM     30  H2  UNL     1      13.797  -9.442  -9.576  1.00  0.00     0.219 HD
ENDBRANCH   7  29
BRANCH   3  31
HETATM   31  O1  UNL     1      15.285  -8.950 -15.101  1.00  0.00    -0.348 OA
ATOM     32  H1  UNL     1      14.371  -9.086 -15.321  1.00  0.00     0.219 HD
ENDBRANCH   3  31
BRANCH  10  33
HETATM   33  C14 UNL     1      10.371  -6.191 -10.417  1.00  0.00     0.027 C 
HETATM   34  C15 UNL     1      10.679  -5.455  -9.226  1.00  0.00    -0.086 C 
HETATM   35  C16 UNL     1      11.223  -4.029  -9.434  1.00  0.00     0.043 C 
HETATM   36  C17 UNL     1      11.449  -5.998  -8.087  1.00  0.00     0.043 C 
ENDBRANCH  10  33
BRANCH   1  37
HETATM   37  C3  UNL     1      18.544  -5.879 -13.554  1.00  0.00     0.028 C 
BRANCH  37  38
HETATM   38  C2  UNL     1      19.472  -5.915 -12.387  1.00  0.00    -0.002 C 
HETATM   39  C1  UNL     1      19.004  -6.930 -11.398  1.00  0.00     0.005 C 
ENDBRANCH  37  38
ENDBRANCH   1  37
BRANCH  21  40
HETATM   40  C26 UNL     1      14.289  -3.514 -12.865  1.00  0.00     0.198 C 
BRANCH  40  41
HETATM   41  O3  UNL     1      15.620  -3.249 -13.170  1.00  0.00    -0.398 OA
ATOM     42  H3  UNL     1      16.045  -3.046 -12.345  1.00  0.00     0.209 HD
ENDBRANCH  40  41
ENDBRANCH  21  40
TORSDOF 9
ENDMDL
MODEL 4
REMARK VINA RESULT: -6.004881068      2.753      7.138
REMARK  9 active torsions:
REMARK  status: ('A' for Active; 'I' for Inactive)
REMARK    1  A    between atoms: C2_2  and  C3_3 
REMARK    2  A    between atoms: C3_3  and  C4_4 
REMARK    3  A    between atoms: C6_6  and  O1_7 
REMARK    4  A    between atoms: C7_11  and  C8_12 
REMARK    5  A    between atoms: C8_12  and  C9_13 
REMARK    6  A    between atoms: C12_16  and  O2_17 
REMARK    7  A    between atoms: C13_21  and  C14_22 
REMARK    8  A    between atoms: C25_36  and  C26_37 
REMARK    9  A    between atoms: C26_37  and  O3_38 
ROOT
HETATM    1  C4  UNL     1      13.530  -7.150 -12.646  1.00  0.00     0.119 A 
HETATM    2  C5  UNL     1      13.960  -5.808 -12.428  1.00  0.00     0.185 A 
HETATM    3  C6  UNL     1      13.845  -4.624 -13.295  1.00  0.00     0.141 C 
HETATM    4  N1  UNL     1      13.069  -4.243 -14.351  1.00  0.00    -0.339 N 
ATOM      5  H1  UNL     1      12.591  -3.375 -14.107  1.00  0.00     0.167 HD
HETATM    6  C7  UNL     1      12.691  -4.614 -15.656  1.00  0.00     0.062 C 
HETATM    7  C12 UNL     1      11.313  -4.245 -16.074  1.00  0.00     0.163 C 
HETATM    8  N2  UNL     1      10.306  -3.433 -15.641  1.00  0.00    -0.339 N 
ATOM      9  H2  UNL     1      10.395  -2.537 -16.121  1.00  0.00     0.168 HD
HETATM   10  C13 UNL     1       9.167  -3.359 -14.765  1.00  0.00     0.015 C 
HETATM   11  C18 UNL     1       9.373  -2.453 -13.594  1.00  0.00     0.098 C 
HETATM   12  C19 UNL     1       8.564  -2.594 -12.395  1.00  0.00    -0.023 A 
HETATM   13  C20 UNL     1       7.364  -1.849 -12.453  1.00  0.00     0.052 A 
HETATM   14  C21 UNL     1       6.470  -1.785 -11.438  1.00  0.00     0.117 A 
HETATM   15  F1  UNL     1       5.322  -1.034 -11.582  1.00  0.00    -0.206 F 
HETATM   16  C22 UNL     1       6.725  -2.472 -10.284  1.00  0.00     0.044 A 
HETATM   17  C23 UNL     1       7.875  -3.199 -10.198  1.00  0.00     0.033 A 
HETATM   18  C24 UNL     1       8.833  -3.292 -11.237  1.00  0.00     0.035 A 
HETATM   19  N3  UNL     1       9.962  -4.090 -10.940  1.00  0.00    -0.374 N 
ATOM     20  H3  UNL     1      10.447  -3.835 -10.080  1.00  0.00     0.160 HD
HETATM   21  C25 UNL     1      10.535  -5.193 -11.642  1.00  0.00     0.198 C 
HETATM   22  C27 UNL     1      11.809  -5.665 -10.983  1.00  0.00     0.245 C 
HETATM   23  O4  UNL     1      11.812  -5.449  -9.767  1.00  0.00    -0.271 OA
HETATM   24  N4  UNL     1      12.765  -6.259 -11.818  1.00  0.00    -0.329 N 
ENDROOT
BRANCH   6  25
HETATM   25  C8  UNL     1      13.237  -5.763 -16.383  1.00  0.00     0.065 C 
BRANCH  25  26
HETATM   26  C9  UNL     1      14.684  -5.760 -16.768  1.00  0.00    -0.017 C 
HETATM   27  C10 UNL     1      15.113  -4.378 -17.277  1.00  0.00     0.010 C 
HETATM   28  C11 UNL     1      15.688  -6.361 -15.892  1.00  0.00     0.010 C 
ENDBRANCH  25  26
ENDBRANCH   6  25
BRANCH   7  29
HETATM   29  O2  UNL     1      11.045  -4.922 -17.183  1.00  0.00    -0.345 OA
ATOM     30  H2  UNL     1      10.238  -5.400 -17.032  1.00  0.00     0.219 HD
ENDBRANCH   7  29
BRANCH   3  31
HETATM   31  O1  UNL     1      14.732  -3.713 -12.933  1.00  0.00    -0.348 OA
ATOM     32  H1  UNL     1      14.320  -2.859 -12.890  1.00  0.00     0.219 HD
ENDBRANCH   3  31
BRANCH  10  33
HETATM   33  C14 UNL     1       7.869  -3.335 -15.472  1.00  0.00     0.027 C 
HETATM   34  C15 UNL     1       7.407  -2.389 -16.445  1.00  0.00    -0.086 C 
HETATM   35  C16 UNL     1       8.229  -2.300 -17.745  1.00  0.00     0.043 C 
HETATM   36  C17 UNL     1       7.024  -0.995 -16.136  1.00  0.00     0.043 C 
ENDBRANCH  10  33
BRANCH   1  37
HETATM   37  C3  UNL     1      14.155  -8.310 -11.940  1.00  0.00     0.028 C 
BRANCH  37  38
HETATM   38  C2  UNL     1      15.579  -8.089 -11.557  1.00  0.00    -0.002 C 
HETATM   39  C1  UNL     1      15.677  -7.837 -10.089  1.00  0.00     0.005 C 
ENDBRANCH  37  38
ENDBRANCH   1  37
BRANCH  21  40
HETATM   40  C26 UNL     1       9.628  -6.441 -11.501  1.00  0.00     0.198 C 
BRANCH  40  41
HETATM   41  O3  UNL     1       9.253  -6.499 -10.163  1.00  0.00    -0.398 OA
ATOM     42  H3  UNL     1       8.314  -6.356 -10.145  1.00  0.00     0.209 HD
ENDBRANCH  40  41
ENDBRANCH  21  40
TORSDOF 9
ENDMDL
MODEL 5
REMARK VINA RESULT: -5.859104566      2.905      7.293
REMARK  9 active torsions:
REMARK  status: ('A' for Active; 'I' for Inactive)
REMARK    1  A    between atoms: C2_2  and  C3_3 
REMARK    2  A    between atoms: C3_3  and  C4_4 
REMARK    3  A    between atoms: C6_6  and  O1_7 
REMARK    4  A    between atoms: C7_11  and  C8_12 
REMARK    5  A    between atoms: C8_12  and  C9_13 
REMARK    6  A    between atoms: C12_16  and  O2_17 
REMARK    7  A    between atoms: C13_21  and  C14_22 
REMARK    8  A    between atoms: C25_36  and  C26_37 
REMARK    9  A    between atoms: C26_37  and  O3_38 
ROOT
HETATM    1  C4  UNL     1      13.300  -7.888 -11.720  1.00  0.00     0.119 A 
HETATM    2  C5  UNL     1      13.801  -6.560 -11.861  1.00  0.00     0.185 A 
HETATM    3  C6  UNL     1      13.629  -5.594 -12.958  1.00  0.00     0.141 C 
HETATM    4  N1  UNL     1      12.748  -5.409 -13.985  1.00  0.00    -0.339 N 
ATOM      5  H1  UNL     1      12.334  -4.481 -13.896  1.00  0.00     0.167 HD
HETATM    6  C7  UNL     1      12.206  -6.037 -15.123  1.00  0.00     0.062 C 
HETATM    7  C12 UNL     1      10.802  -5.686 -15.465  1.00  0.00     0.163 C 
HETATM    8  N2  UNL     1       9.884  -4.736 -15.124  1.00  0.00    -0.339 N 
ATOM      9  H2  UNL     1       9.948  -3.977 -15.802  1.00  0.00     0.168 HD
HETATM   10  C13 UNL     1       8.859  -4.398 -14.172  1.00  0.00     0.015 C 
HETATM   11  C18 UNL     1       9.234  -3.269 -13.267  1.00  0.00     0.098 C 
HETATM   12  C19 UNL     1       8.568  -3.090 -11.988  1.00  0.00    -0.023 A 
HETATM   13  C20 UNL     1       7.397  -2.303 -12.087  1.00  0.00     0.052 A 
HETATM   14  C21 UNL     1       6.632  -1.960 -11.023  1.00  0.00     0.117 A 
HETATM   15  F1  UNL     1       5.504  -1.190 -11.212  1.00  0.00    -0.206 F 
HETATM   16  C22 UNL     1       6.996  -2.387  -9.778  1.00  0.00     0.044 A 
HETATM   17  C23 UNL     1       8.120  -3.147  -9.651  1.00  0.00     0.033 A 
HETATM   18  C24 UNL     1       8.946  -3.528 -10.737  1.00  0.00     0.035 A 
HETATM   19  N3  UNL     1      10.071  -4.309 -10.387  1.00  0.00    -0.374 N 
ATOM     20  H3  UNL     1      10.664  -3.900  -9.665  1.00  0.00     0.160 HD
HETATM   21  C25 UNL     1      10.518  -5.574 -10.877  1.00  0.00     0.198 C 
HETATM   22  C27 UNL     1      11.842  -5.966 -10.267  1.00  0.00     0.245 C 
HETATM   23  O4  UNL     1      11.996  -5.485  -9.139  1.00  0.00    -0.271 OA
HETATM   24  N4  UNL     1      12.671  -6.788 -11.041  1.00  0.00    -0.329 N 
ENDROOT
BRANCH   6  25
HETATM   25  C8  UNL     1      12.620  -7.351 -15.623  1.00  0.00     0.065 C 
BRANCH  25  26
HETATM   26  C9  UNL     1      14.025  -7.536 -16.105  1.00  0.00    -0.017 C 
HETATM   27  C10 UNL     1      14.499  -6.311 -16.896  1.00  0.00     0.010 C 
HETATM   28  C11 UNL     1      15.060  -8.045 -15.205  1.00  0.00     0.010 C 
ENDBRANCH  25  26
ENDBRANCH   6  25
BRANCH   7  29
HETATM   29  O2  UNL     1      10.381  -6.574 -16.355  1.00  0.00    -0.345 OA
ATOM     30  H2  UNL     1       9.558  -6.253 -16.705  1.00  0.00     0.219 HD
ENDBRANCH   7  29
BRANCH   3  31
HETATM   31  O1  UNL     1      14.585  -4.682 -12.910  1.00  0.00    -0.348 OA
ATOM     32  H1  UNL     1      14.756  -4.346 -13.781  1.00  0.00     0.219 HD
ENDBRANCH   3  31
BRANCH  10  33
HETATM   33  C14 UNL     1       7.489  -4.452 -14.724  1.00  0.00     0.027 C 
HETATM   34  C15 UNL     1       6.529  -5.512 -14.613  1.00  0.00    -0.086 C 
HETATM   35  C16 UNL     1       6.075  -5.865 -13.184  1.00  0.00     0.043 C 
HETATM   36  C17 UNL     1       6.636  -6.808 -15.315  1.00  0.00     0.043 C 
ENDBRANCH  10  33
BRANCH   1  37
HETATM   37  C3  UNL     1      13.961  -8.898 -10.839  1.00  0.00     0.028 C 
BRANCH  37  38
HETATM   38  C2  UNL     1      15.330  -9.285 -11.284  1.00  0.00    -0.002 C 
HETATM   39  C1  UNL     1      16.352  -8.574 -10.459  1.00  0.00     0.005 C 
ENDBRANCH  37  38
ENDBRANCH   1  37
BRANCH  21  40
HETATM   40  C26 UNL     1       9.588  -6.700 -10.359  1.00  0.00     0.198 C 
BRANCH  40  41
HETATM   41  O3  UNL     1       8.505  -6.740 -11.230  1.00  0.00    -0.398 OA
ATOM     42  H3  UNL     1       7.774  -7.081 -10.728  1.00  0.00     0.209 HD
ENDBRANCH  40  41
ENDBRANCH  21  40
TORSDOF 9
ENDMDL
