MODEL 1
REMARK VINA RESULT: -7.362300467      0.000      0.000
REMARK  7 active torsions:
REMARK  status: ('A' for Active; 'I' for Inactive)
REMARK    1  A    between atoms: C2_2  and  C3_3 
REMARK    2  A    between atoms: C5_5  and  N1_6 
REMARK       I    between atoms: N1_6  and  C6_8 
REMARK       I    between atoms: C6_8  and  N2_10 
REMARK    3  A    between atoms: N2_10  and  C7_12 
REMARK    4  A    between atoms: C7_12  and  C8_13 
REMARK    5  A    between atoms: C9_14  and  C10_15 
REMARK    6  A    between atoms: C14_20  and  S1_21 
REMARK    7  A    between atoms: S1_21  and  N3_24 
ROOT
HETATM    1  C3  UNL     1       8.160  -2.945 -11.951  1.00  0.00    -0.033 A 
HETATM    2  C4  UNL     1       7.535  -1.994 -12.784  1.00  0.00     0.038 A 
HETATM    3  C5  UNL     1       8.032  -1.616 -13.994  1.00  0.00     0.037 A 
HETATM    4  C11 UNL     1       9.231  -2.245 -14.370  1.00  0.00     0.038 A 
HETATM    5  C12 UNL     1       9.844  -3.174 -13.558  1.00  0.00    -0.036 A 
HETATM    6  C13 UNL     1      11.126  -3.804 -13.995  1.00  0.00     0.050 C 
HETATM    7  C14 UNL     1       9.318  -3.541 -12.334  1.00  0.00     0.092 A 
ENDROOT
BRANCH   7   8
HETATM    8  S1  UNL     1      10.153  -4.710 -11.372  1.00  0.00     0.277 S 
HETATM    9  O2  UNL     1      10.298  -4.247  -9.928  1.00  0.00    -0.200 OA
HETATM   10  O3  UNL     1       9.307  -5.975 -11.241  1.00  0.00    -0.200 OA
BRANCH   8  11
HETATM   11  N3  UNL     1      11.654  -5.165 -11.985  1.00  0.00    -0.112 N 
HETATM   12  C15 UNL     1      12.435  -5.985 -11.413  1.00  0.00     0.692 A 
HETATM   13  N4  UNL     1      13.646  -6.297 -11.990  1.00  0.00    -0.195 N 
HETATM   14  N5  UNL     1      12.119  -6.570 -10.247  1.00  0.00    -0.195 N 
HETATM   15  C16 UNL     1      14.487  -7.148 -11.424  1.00  0.00     0.024 A 
ATOM     16  H4  UNL     1      13.901  -5.861 -12.876  1.00  0.00     0.184 HD
HETATM   17  C17 UNL     1      15.817  -7.501 -12.038  1.00  0.00     0.068 C 
HETATM   18  C18 UNL     1      14.146  -7.738 -10.226  1.00  0.00     0.050 A 
HETATM   19  C19 UNL     1      12.943  -7.453  -9.616  1.00  0.00     0.024 A 
HETATM   20  C20 UNL     1      12.535  -8.066  -8.326  1.00  0.00     0.068 C 
ATOM     21  H5  UNL     1      11.223  -6.344  -9.815  1.00  0.00     0.184 HD
ATOM     22  H3  UNL     1      11.955  -4.756 -12.869  1.00  0.00     0.197 HD
ENDBRANCH   8  11
ENDBRANCH   7   8
BRANCH   1  23
HETATM   23  C2  UNL     1       7.542  -3.288 -10.647  1.00  0.00     0.036 C 
HETATM   24  C1  UNL     1       7.260  -2.057  -9.813  1.00  0.00     0.010 C 
ENDBRANCH   1  23
BRANCH   3  25
HETATM   25  N1  UNL     1       7.454  -0.679 -14.888  1.00  0.00    -0.309 N 
HETATM   26  C6  UNL     1       6.994  -0.915 -16.177  1.00  0.00     0.320 C 
HETATM   27  O1  UNL     1       7.043  -2.019 -16.731  1.00  0.00    -0.247 OA
HETATM   28  N2  UNL     1       6.420   0.148 -16.961  1.00  0.00    -0.339 N 
ATOM     29  H2  UNL     1       6.358   1.078 -16.548  1.00  0.00     0.164 HD
ATOM     30  H1  UNL     1       7.365   0.278 -14.545  1.00  0.00     0.170 HD
BRANCH  28  31
HETATM   31  C7  UNL     1       5.931  -0.042 -18.299  1.00  0.00     0.151 C 
BRANCH  31  32
HETATM   32  C8  UNL     1       6.927   0.404 -19.289  1.00  0.00    -0.010 C 
HETATM   33  C9  UNL     1       7.712   1.439 -19.026  1.00  0.00    -0.018 C 
BRANCH  33  34
HETATM   34  C10 UNL     1       8.738   1.949 -19.970  1.00  0.00     0.112 C 
HETATM   35 BR1  UNL     1      10.485   1.535 -19.249  1.00  0.00    -0.092 Br
ENDBRANCH  33  34
ENDBRANCH  31  32
ENDBRANCH  28  31
ENDBRANCH   3  25
TORSDOF 7
ENDMDL
MODEL 2
REMARK VINA RESULT: -7.105955154      5.088     11.262
REMARK  7 active torsions:
REMARK  status: ('A' for Active; 'I' for Inactive)
REMARK    1  A    between atoms: C2_2  and  C3_3 
REMARK    2  A    between atoms: C5_5  and  N1_6 
REMARK       I    between atoms: N1_6  and  C6_8 
REMARK       I    between atoms: C6_8  and  N2_10 
REMARK    3  A    between atoms: N2_10  and  C7_12 
REMARK    4  A    between atoms: C7_12  and  C8_13 
REMARK    5  A    between atoms: C9_14  and  C10_15 
REMARK    6  A    between atoms: C14_20  and  S1_21 
REMARK    7  A    between atoms: S1_21  and  N3_24 
ROOT
HETATM    1  C3  UNL     1      13.087  -6.259 -11.633  1.00  0.00    -0.033 A 
HETATM    2  C4  UNL     1      14.289  -6.983 -11.495  1.00  0.00     0.038 A 
HETATM    3  C5  UNL     1      14.608  -7.699 -10.382  1.00  0.00     0.037 A 
HETATM    4  C11 UNL     1      13.647  -7.673  -9.358  1.00  0.00     0.038 A 
HETATM    5  C12 UNL     1      12.472  -6.966  -9.489  1.00  0.00    -0.036 A 
HETATM    6  C13 UNL     1      11.488  -6.955  -8.366  1.00  0.00     0.050 C 
HETATM    7  C14 UNL     1      12.171  -6.246 -10.630  1.00  0.00     0.092 A 
ENDROOT
BRANCH   7   8
HETATM    8  S1  UNL     1      10.677  -5.380 -10.713  1.00  0.00     0.277 S 
HETATM    9  O2  UNL     1       9.482  -6.305 -10.512  1.00  0.00    -0.200 OA
HETATM   10  O3  UNL     1      10.566  -4.421  -9.529  1.00  0.00    -0.200 OA
BRANCH   8  11
HETATM   11  N3  UNL     1      10.477  -4.477 -12.119  1.00  0.00    -0.112 N 
HETATM   12  C15 UNL     1       9.500  -3.695 -12.327  1.00  0.00     0.692 A 
HETATM   13  N4  UNL     1       9.420  -2.996 -13.512  1.00  0.00    -0.195 N 
HETATM   14  N5  UNL     1       8.525  -3.522 -11.422  1.00  0.00    -0.195 N 
HETATM   15  C16 UNL     1       8.416  -2.172 -13.766  1.00  0.00     0.024 A 
ATOM     16  H4  UNL     1      10.153  -3.117 -14.210  1.00  0.00     0.184 HD
HETATM   17  C17 UNL     1       8.311  -1.399 -15.055  1.00  0.00     0.068 C 
HETATM   18  C18 UNL     1       7.424  -2.007 -12.824  1.00  0.00     0.050 A 
HETATM   19  C19 UNL     1       7.467  -2.687 -11.626  1.00  0.00     0.024 A 
HETATM   20  C20 UNL     1       6.419  -2.540 -10.584  1.00  0.00     0.068 C 
ATOM     21  H5  UNL     1       8.579  -4.036 -10.543  1.00  0.00     0.184 HD
ATOM     22  H3  UNL     1      11.184  -4.563 -12.848  1.00  0.00     0.197 HD
ENDBRANCH   8  11
ENDBRANCH   7   8
BRANCH   1  23
HETATM   23  C2  UNL     1      12.831  -5.504 -12.883  1.00  0.00     0.036 C 
HETATM   24  C1  UNL     1      13.910  -4.479 -13.157  1.00  0.00     0.010 C 
ENDBRANCH   1  23
BRANCH   3  25
HETATM   25  N1  UNL     1      15.789  -8.460 -10.179  1.00  0.00    -0.309 N 
HETATM   26  C6  UNL     1      15.995  -9.798 -10.489  1.00  0.00     0.320 C 
HETATM   27  O1  UNL     1      15.133 -10.524 -10.997  1.00  0.00    -0.247 OA
HETATM   28  N2  UNL     1      17.263 -10.429 -10.228  1.00  0.00    -0.339 N 
ATOM     29  H2  UNL     1      18.007  -9.870  -9.809  1.00  0.00     0.164 HD
ATOM     30  H1  UNL     1      16.577  -7.968  -9.756  1.00  0.00     0.170 HD
BRANCH  28  31
HETATM   31  C7  UNL     1      17.528 -11.808 -10.529  1.00  0.00     0.151 C 
BRANCH  31  32
HETATM   32  C8  UNL     1      18.366 -12.421  -9.482  1.00  0.00    -0.010 C 
HETATM   33  C9  UNL     1      19.079 -11.657  -8.667  1.00  0.00    -0.018 C 
BRANCH  33  34
HETATM   34  C10 UNL     1      19.947 -12.196  -7.590  1.00  0.00     0.112 C 
HETATM   35 BR1  UNL     1      19.107 -13.783  -6.871  1.00  0.00    -0.092 Br
ENDBRANCH  33  34
ENDBRANCH  31  32
ENDBRANCH  28  31
ENDBRANCH   3  25
TORSDOF 7
ENDMDL
MODEL 3
REMARK VINA RESULT: -7.026540609      0.554      2.118
REMARK  7 active torsions:
REMARK  status: ('A' for Active; 'I' for Inactive)
REMARK    1  A    between atoms: C2_2  and  C3_3 
REMARK    2  A    between atoms: C5_5  and  N1_6 
REMARK       I    between atoms: N1_6  and  C6_8 
REMARK       I    between atoms: C6_8  and  N2_10 
REMARK    3  A    between atoms: N2_10  and  C7_12 
REMARK    4  A    between atoms: C7_12  and  C8_13 
REMARK    5  A    between atoms: C9_14  and  C10_15 
REMARK    6  A    between atoms: C14_20  and  S1_21 
REMARK    7  A    between atoms: S1_21  and  N3_24 
ROOT
HETATM    1  C3  UNL     1      10.279  -3.231 -13.922  1.00  0.00    -0.033 A 
HETATM    2  C4  UNL     1       9.617  -2.285 -14.730  1.00  0.00     0.038 A 
HETATM    3  C5  UNL     1       8.415  -1.733 -14.406  1.00  0.00     0.037 A 
HETATM    4  C11 UNL     1       7.864  -2.174 -13.191  1.00  0.00     0.038 A 
HETATM    5  C12 UNL     1       8.508  -3.099 -12.399  1.00  0.00    -0.036 A 
HETATM    6  C13 UNL     1       7.874  -3.548 -11.124  1.00  0.00     0.050 C 
HETATM    7  C14 UNL     1       9.729  -3.644 -12.751  1.00  0.00     0.092 A 
ENDROOT
BRANCH   7   8
HETATM    8  S1  UNL     1      10.468  -4.804 -11.705  1.00  0.00     0.277 S 
HETATM    9  O2  UNL     1      10.520  -4.307 -10.265  1.00  0.00    -0.200 OA
HETATM   10  O3  UNL     1       9.587  -6.048 -11.603  1.00  0.00    -0.200 OA
BRANCH   8  11
HETATM   11  N3  UNL     1      11.998  -5.305 -12.197  1.00  0.00    -0.112 N 
HETATM   12  C15 UNL     1      12.732  -6.101 -11.535  1.00  0.00     0.692 A 
HETATM   13  N4  UNL     1      13.973  -6.454 -12.018  1.00  0.00    -0.195 N 
HETATM   14  N5  UNL     1      12.337  -6.620 -10.363  1.00  0.00    -0.195 N 
HETATM   15  C16 UNL     1      14.766  -7.281 -11.357  1.00  0.00     0.024 A 
ATOM     16  H4  UNL     1      14.287  -6.067 -12.908  1.00  0.00     0.184 HD
HETATM   17  C17 UNL     1      16.127  -7.678 -11.868  1.00  0.00     0.068 C 
HETATM   18  C18 UNL     1      14.344  -7.804 -10.154  1.00  0.00     0.050 A 
HETATM   19  C19 UNL     1      13.109  -7.476  -9.636  1.00  0.00     0.024 A 
HETATM   20  C20 UNL     1      12.614  -8.016  -8.344  1.00  0.00     0.068 C 
ATOM     21  H5  UNL     1      11.418  -6.363 -10.001  1.00  0.00     0.184 HD
ATOM     22  H3  UNL     1      12.358  -4.946 -13.081  1.00  0.00     0.197 HD
ENDBRANCH   8  11
ENDBRANCH   7   8
BRANCH   1  23
HETATM   23  C2  UNL     1      11.585  -3.779 -14.364  1.00  0.00     0.036 C 
HETATM   24  C1  UNL     1      11.846  -3.506 -15.830  1.00  0.00     0.010 C 
ENDBRANCH   1  23
BRANCH   3  25
HETATM   25  N1  UNL     1       7.698  -0.769 -15.161  1.00  0.00    -0.309 N 
HETATM   26  C6  UNL     1       7.119  -0.937 -16.412  1.00  0.00     0.320 C 
HETATM   27  O1  UNL     1       7.166  -1.993 -17.052  1.00  0.00    -0.247 OA
HETATM   28  N2  UNL     1       6.412   0.144 -17.048  1.00  0.00    -0.339 N 
ATOM     29  H2  UNL     1       6.345   1.036 -16.559  1.00  0.00     0.164 HD
ATOM     30  H1  UNL     1       7.597   0.154 -14.737  1.00  0.00     0.170 HD
BRANCH  28  31
HETATM   31  C7  UNL     1       5.795   0.024 -18.340  1.00  0.00     0.151 C 
BRANCH  31  32
HETATM   32  C8  UNL     1       6.720   0.456 -19.404  1.00  0.00    -0.010 C 
HETATM   33  C9  UNL     1       7.551   1.466 -19.195  1.00  0.00    -0.018 C 
BRANCH  33  34
HETATM   34  C10 UNL     1       8.511   1.961 -20.214  1.00  0.00     0.112 C 
HETATM   35 BR1  UNL     1      10.301   1.538 -19.618  1.00  0.00    -0.092 Br
ENDBRANCH  33  34
ENDBRANCH  31  32
ENDBRANCH  28  31
ENDBRANCH   3  25
TORSDOF 7
ENDMDL
MODEL 4
REMARK VINA RESULT: -6.947775752      5.570     11.703
REMARK  7 active torsions:
REMARK  status: ('A' for Active; 'I' for Inactive)
REMARK    1  A    between atoms: C2_2  and  C3_3 
REMARK    2  A    between atoms: C5_5  and  N1_6 
REMARK       I    between atoms: N1_6  and  C6_8 
REMARK       I    between atoms: C6_8  and  N2_10 
REMARK    3  A    between atoms: N2_10  and  C7_12 
REMARK    4  A    between atoms: C7_12  and  C8_13 
REMARK    5  A    between atoms: C9_14  and  C10_15 
REMARK    6  A    between atoms: C14_20  and  S1_21 
REMARK    7  A    between atoms: S1_21  and  N3_24 
ROOT
HETATM    1  C3  UNL     1      12.993  -7.110 -10.398  1.00  0.00    -0.033 A 
HETATM    2  C4  UNL     1      14.127  -7.753  -9.861  1.00  0.00     0.038 A 
HETATM    3  C5  UNL     1      15.348  -7.746 -10.465  1.00  0.00     0.037 A 
HETATM    4  C11 UNL     1      15.410  -7.043 -11.679  1.00  0.00     0.038 A 
HETATM    5  C12 UNL     1      14.304  -6.413 -12.207  1.00  0.00    -0.036 A 
HETATM    6  C13 UNL     1      14.416  -5.692 -13.509  1.00  0.00     0.050 C 
HETATM    7  C14 UNL     1      13.075  -6.436 -11.574  1.00  0.00     0.092 A 
ENDROOT
BRANCH   7   8
HETATM    8  S1  UNL     1      11.734  -5.626 -12.306  1.00  0.00     0.277 S 
HETATM    9  O2  UNL     1      12.194  -4.588 -13.323  1.00  0.00    -0.200 OA
HETATM   10  O3  UNL     1      10.937  -6.609 -13.161  1.00  0.00    -0.200 OA
BRANCH   8  11
HETATM   11  N3  UNL     1      10.666  -4.925 -11.209  1.00  0.00    -0.112 N 
HETATM   12  C15 UNL     1       9.700  -4.173 -11.541  1.00  0.00     0.692 A 
HETATM   13  N4  UNL     1       8.877  -3.643 -10.572  1.00  0.00    -0.195 N 
HETATM   14  N5  UNL     1       9.446  -3.870 -12.823  1.00  0.00    -0.195 N 
HETATM   15  C16 UNL     1       7.860  -2.855 -10.879  1.00  0.00     0.024 A 
ATOM     16  H4  UNL     1       9.057  -3.864  -9.592  1.00  0.00     0.184 HD
HETATM   17  C17 UNL     1       6.949  -2.265  -9.833  1.00  0.00     0.068 C 
HETATM   18  C18 UNL     1       7.614  -2.554 -12.202  1.00  0.00     0.050 A 
HETATM   19  C19 UNL     1       8.414  -3.065 -13.202  1.00  0.00     0.024 A 
HETATM   20  C20 UNL     1       8.186  -2.766 -14.639  1.00  0.00     0.068 C 
ATOM     21  H5  UNL     1      10.051  -4.260 -13.546  1.00  0.00     0.184 HD
ATOM     22  H3  UNL     1      10.804  -5.116 -10.217  1.00  0.00     0.197 HD
ENDBRANCH   8  11
ENDBRANCH   7   8
BRANCH   1  23
HETATM   23  C2  UNL     1      11.705  -7.178  -9.668  1.00  0.00     0.036 C 
HETATM   24  C1  UNL     1      11.825  -6.648  -8.255  1.00  0.00     0.010 C 
ENDBRANCH   1  23
BRANCH   3  25
HETATM   25  N1  UNL     1      16.533  -8.358  -9.979  1.00  0.00    -0.309 N 
HETATM   26  C6  UNL     1      16.884  -9.699 -10.059  1.00  0.00     0.320 C 
HETATM   27  O1  UNL     1      16.171 -10.564 -10.580  1.00  0.00    -0.247 OA
HETATM   28  N2  UNL     1      18.135 -10.167  -9.521  1.00  0.00    -0.339 N 
ATOM     29  H2  UNL     1      18.758  -9.491  -9.081  1.00  0.00     0.164 HD
ATOM     30  H1  UNL     1      17.204  -7.742  -9.518  1.00  0.00     0.170 HD
BRANCH  28  31
HETATM   31  C7  UNL     1      18.546 -11.543  -9.577  1.00  0.00     0.151 C 
BRANCH  31  32
HETATM   32  C8  UNL     1      19.490 -11.852  -8.488  1.00  0.00    -0.010 C 
HETATM   33  C9  UNL     1      19.196 -12.785  -7.595  1.00  0.00    -0.018 C 
BRANCH  33  34
HETATM   34  C10 UNL     1      20.092 -13.153  -6.470  1.00  0.00     0.112 C 
HETATM   35 BR1  UNL     1      19.036 -14.054  -5.124  1.00  0.00    -0.092 Br
ENDBRANCH  33  34
ENDBRANCH  31  32
ENDBRANCH  28  31
ENDBRANCH   3  25
TORSDOF 7
ENDMDL
MODEL 5
REMARK VINA RESULT: -6.885198317      1.402      1.606
REMARK  7 active torsions:
REMARK  status: ('A' for Active; 'I' for Inactive)
REMARK    1  A    between atoms: C2_2  and  C3_3 
REMARK    2  A    between atoms: C5_5  and  N1_6 
REMARK       I    between atoms: N1_6  and  C6_8 
REMARK       I    between atoms: C6_8  and  N2_10 
REMARK    3  A    between atoms: N2_10  and  C7_12 
REMARK    4  A    between atoms: C7_12  and  C8_13 
REMARK    5  A    between atoms: C9_14  and  C10_15 
REMARK    6  A    between atoms: C14_20  and  S1_21 
REMARK    7  A    between atoms: S1_21  and  N3_24 
ROOT
HETATM    1  C3  UNL     1       8.072  -2.846 -12.068  1.00  0.00    -0.033 A 
HETATM    2  C4  UNL     1       7.500  -1.889 -12.932  1.00  0.00     0.038 A 
HETATM    3  C5  UNL     1       8.045  -1.541 -14.130  1.00  0.00     0.037 A 
HETATM    4  C11 UNL     1       9.236  -2.208 -14.461  1.00  0.00     0.038 A 
HETATM    5  C12 UNL     1       9.798  -3.142 -13.619  1.00  0.00    -0.036 A 
HETATM    6  C13 UNL     1      11.075  -3.812 -14.008  1.00  0.00     0.050 C 
HETATM    7  C14 UNL     1       9.225  -3.478 -12.407  1.00  0.00     0.092 A 
ENDROOT
BRANCH   7   8
HETATM    8  S1  UNL     1       9.997  -4.657 -11.406  1.00  0.00     0.277 S 
HETATM    9  O2  UNL     1      11.365  -4.179 -10.932  1.00  0.00    -0.200 OA
HETATM   10  O3  UNL     1       9.222  -4.817 -10.099  1.00  0.00    -0.200 OA
BRANCH   8  11
HETATM   11  N3  UNL     1      10.131  -6.182 -12.107  1.00  0.00    -0.112 N 
HETATM   12  C15 UNL     1      10.765  -7.149 -11.588  1.00  0.00     0.692 A 
HETATM   13  N4  UNL     1      10.821  -8.362 -12.238  1.00  0.00    -0.195 N 
HETATM   14  N5  UNL     1      11.396  -7.031 -10.409  1.00  0.00    -0.195 N 
HETATM   15  C16 UNL     1      11.473  -9.395 -11.728  1.00  0.00     0.024 A 
ATOM     16  H4  UNL     1      10.346  -8.468 -13.134  1.00  0.00     0.184 HD
HETATM   17  C17 UNL     1      11.546 -10.729 -12.423  1.00  0.00     0.068 C 
HETATM   18  C18 UNL     1      12.115  -9.255 -10.516  1.00  0.00     0.050 A 
HETATM   19  C19 UNL     1      12.084  -8.058  -9.834  1.00  0.00     0.024 A 
HETATM   20  C20 UNL     1      12.762  -7.863  -8.527  1.00  0.00     0.068 C 
ATOM     21  H5  UNL     1      11.358  -6.136  -9.923  1.00  0.00     0.184 HD
ATOM     22  H3  UNL     1       9.673  -6.337 -13.005  1.00  0.00     0.197 HD
ENDBRANCH   8  11
ENDBRANCH   7   8
BRANCH   1  23
HETATM   23  C2  UNL     1       7.405  -3.154 -10.780  1.00  0.00     0.036 C 
HETATM   24  C1  UNL     1       6.632  -1.968 -10.244  1.00  0.00     0.010 C 
ENDBRANCH   1  23
BRANCH   3  25
HETATM   25  N1  UNL     1       7.520  -0.600 -15.054  1.00  0.00    -0.309 N 
HETATM   26  C6  UNL     1       6.994  -0.857 -16.313  1.00  0.00     0.320 C 
HETATM   27  O1  UNL     1       6.923  -1.987 -16.809  1.00  0.00    -0.247 OA
HETATM   28  N2  UNL     1       6.489   0.213 -17.134  1.00  0.00    -0.339 N 
ATOM     29  H2  UNL     1       6.526   1.165 -16.768  1.00  0.00     0.164 HD
ATOM     30  H1  UNL     1       7.530   0.377 -14.759  1.00  0.00     0.170 HD
BRANCH  28  31
HETATM   31  C7  UNL     1       5.936   0.003 -18.443  1.00  0.00     0.151 C 
BRANCH  31  32
HETATM   32  C8  UNL     1       6.862   0.481 -19.486  1.00  0.00    -0.010 C 
HETATM   33  C9  UNL     1       7.770   1.402 -19.199  1.00  0.00    -0.018 C 
BRANCH  33  34
HETATM   34  C10 UNL     1       8.736   1.935 -20.192  1.00  0.00     0.112 C 
HETATM   35 BR1  UNL     1      10.525   1.581 -19.549  1.00  0.00    -0.092 Br
ENDBRANCH  33  34
ENDBRANCH  31  32
ENDBRANCH  28  31
ENDBRANCH   3  25
TORSDOF 7
ENDMDL
