MODEL 1
REMARK VINA RESULT: -8.931899269      0.000      0.000
REMARK  4 active torsions:
REMARK  status: ('A' for Active; 'I' for Inactive)
REMARK    1  A    between atoms: C2_2  and  C3_3 
REMARK    2  A    between atoms: C2_2  and  C10_12 
REMARK    3  A    between atoms: C3_3  and  C4_4 
REMARK    4  A    between atoms: C4_4  and  C5_5 
ROOT
HETATM    1  C10 UNL     1      66.925  46.064  29.508  1.00  0.00    -0.002 C 
HETATM    2  C11 UNL     1      67.353  44.639  29.789  1.00  0.00     0.006 C 
HETATM    3  C12 UNL     1      66.921  44.368  31.181  1.00  0.00     0.006 C 
HETATM    4  C13 UNL     1      66.476  45.633  31.824  1.00  0.00     0.002 C 
HETATM    5  C14 UNL     1      66.916  45.821  33.224  1.00  0.00    -0.043 C 
HETATM    6  C15 UNL     1      67.319  44.453  33.806  1.00  0.00     0.015 C 
HETATM    7  C16 UNL     1      65.787  46.306  34.146  1.00  0.00     0.015 C 
HETATM    8  C17 UNL     1      68.078  46.721  33.450  1.00  0.00     0.009 C 
HETATM    9  C18 UNL     1      68.937  46.669  32.209  1.00  0.00     0.002 C 
HETATM   10  C19 UNL     1      68.170  47.362  31.129  1.00  0.00     0.010 C 
HETATM   11  C20 UNL     1      66.828  46.683  30.815  1.00  0.00    -0.036 C 
HETATM   12  C21 UNL     1      65.800  47.795  30.985  1.00  0.00     0.016 C 
ENDROOT
BRANCH   1  13
HETATM   13  C2  UNL     1      65.846  46.054  28.499  1.00  0.00    -0.014 C 
HETATM   14  C1  UNL     1      64.895  44.962  28.442  1.00  0.00     0.010 C 
BRANCH  13  15
HETATM   15  C3  UNL     1      65.298  47.411  28.254  1.00  0.00     0.005 C 
BRANCH  15  16
HETATM   16  C4  UNL     1      63.920  47.605  27.795  1.00  0.00     0.006 C 
BRANCH  16  17
HETATM   17  C5  UNL     1      62.921  48.360  28.571  1.00  0.00     0.003 C 
HETATM   18  C6  UNL     1      62.557  47.485  29.776  1.00  0.00     0.008 C 
HETATM   19  C7  UNL     1      61.577  46.421  29.440  1.00  0.00     0.020 C 
HETATM   20  C8  UNL     1      60.310  47.128  28.937  1.00  0.00     0.113 C 
HETATM   21  N1  UNL     1      60.684  47.758  27.710  1.00  0.00    -0.421 N 
HETATM   22  C9  UNL     1      61.687  48.750  27.800  1.00  0.00     0.118 C 
ATOM     23  H1  UNL     1      60.252  47.507  26.821  1.00  0.00     0.153 HD
ENDBRANCH  16  17
ENDBRANCH  15  16
ENDBRANCH  13  15
ENDBRANCH   1  13
TORSDOF 4
ENDMDL
MODEL 2
REMARK VINA RESULT: -8.710110765      2.289      6.176
REMARK  4 active torsions:
REMARK  status: ('A' for Active; 'I' for Inactive)
REMARK    1  A    between atoms: C2_2  and  C3_3 
REMARK    2  A    between atoms: C2_2  and  C10_12 
REMARK    3  A    between atoms: C3_3  and  C4_4 
REMARK    4  A    between atoms: C4_4  and  C5_5 
ROOT
HETATM    1  C10 UNL     1      66.210  46.989  29.152  1.00  0.00    -0.002 C 
HETATM    2  C11 UNL     1      65.671  47.834  30.287  1.00  0.00     0.006 C 
HETATM    3  C12 UNL     1      64.240  48.050  29.968  1.00  0.00     0.006 C 
HETATM    4  C13 UNL     1      63.958  47.584  28.585  1.00  0.00     0.002 C 
HETATM    5  C14 UNL     1      63.076  48.463  27.786  1.00  0.00    -0.043 C 
HETATM    6  C15 UNL     1      62.298  49.387  28.743  1.00  0.00     0.015 C 
HETATM    7  C16 UNL     1      61.981  47.690  27.036  1.00  0.00     0.015 C 
HETATM    8  C17 UNL     1      63.733  49.357  26.797  1.00  0.00     0.009 C 
HETATM    9  C18 UNL     1      65.119  49.660  27.312  1.00  0.00     0.002 C 
HETATM   10  C19 UNL     1      65.902  48.391  27.202  1.00  0.00     0.010 C 
HETATM   11  C20 UNL     1      65.313  47.247  28.043  1.00  0.00    -0.036 C 
HETATM   12  C21 UNL     1      65.102  46.119  27.041  1.00  0.00     0.016 C 
ENDROOT
BRANCH   1  13
HETATM   13  C2  UNL     1      66.547  45.646  29.668  1.00  0.00    -0.014 C 
HETATM   14  C1  UNL     1      67.751  44.966  29.236  1.00  0.00     0.010 C 
BRANCH  13  15
HETATM   15  C3  UNL     1      66.188  45.493  31.100  1.00  0.00     0.005 C 
BRANCH  15  16
HETATM   16  C4  UNL     1      67.025  44.714  32.016  1.00  0.00     0.006 C 
BRANCH  16  17
HETATM   17  C5  UNL     1      67.795  45.330  33.111  1.00  0.00     0.003 C 
HETATM   18  C6  UNL     1      66.776  45.739  34.180  1.00  0.00     0.008 C 
HETATM   19  C7  UNL     1      66.092  47.019  33.864  1.00  0.00     0.020 C 
HETATM   20  C8  UNL     1      67.183  48.096  33.777  1.00  0.00     0.113 C 
HETATM   21  N1  UNL     1      67.974  47.749  32.639  1.00  0.00    -0.421 N 
HETATM   22  C9  UNL     1      68.643  46.506  32.700  1.00  0.00     0.118 C 
ATOM     23  H1  UNL     1      68.052  48.364  31.829  1.00  0.00     0.153 HD
ENDBRANCH  16  17
ENDBRANCH  15  16
ENDBRANCH  13  15
ENDBRANCH   1  13
TORSDOF 4
ENDMDL
MODEL 3
REMARK VINA RESULT: -8.684811664      0.796      1.125
REMARK  4 active torsions:
REMARK  status: ('A' for Active; 'I' for Inactive)
REMARK    1  A    between atoms: C2_2  and  C3_3 
REMARK    2  A    between atoms: C2_2  and  C10_12 
REMARK    3  A    between atoms: C3_3  and  C4_4 
REMARK    4  A    between atoms: C4_4  and  C5_5 
ROOT
HETATM    1  C10 UNL     1      67.151  46.899  29.717  1.00  0.00    -0.002 C 
HETATM    2  C11 UNL     1      67.464  45.419  29.642  1.00  0.00     0.006 C 
HETATM    3  C12 UNL     1      66.916  44.840  30.892  1.00  0.00     0.006 C 
HETATM    4  C13 UNL     1      66.509  45.933  31.815  1.00  0.00     0.002 C 
HETATM    5  C14 UNL     1      66.859  45.724  33.238  1.00  0.00    -0.043 C 
HETATM    6  C15 UNL     1      67.129  44.225  33.468  1.00  0.00     0.015 C 
HETATM    7  C16 UNL     1      65.700  46.049  34.192  1.00  0.00     0.015 C 
HETATM    8  C17 UNL     1      68.057  46.439  33.749  1.00  0.00     0.009 C 
HETATM    9  C18 UNL     1      68.999  46.633  32.585  1.00  0.00     0.002 C 
HETATM   10  C19 UNL     1      68.358  47.638  31.681  1.00  0.00     0.010 C 
HETATM   11  C20 UNL     1      67.000  47.172  31.132  1.00  0.00    -0.036 C 
HETATM   12  C21 UNL     1      66.037  48.285  31.528  1.00  0.00     0.016 C 
ENDROOT
BRANCH   1  13
HETATM   13  C2  UNL     1      66.149  47.233  28.683  1.00  0.00    -0.014 C 
HETATM   14  C1  UNL     1      66.496  48.082  27.562  1.00  0.00     0.010 C 
BRANCH  13  15
HETATM   15  C3  UNL     1      65.255  46.087  28.382  1.00  0.00     0.005 C 
BRANCH  15  16
HETATM   16  C4  UNL     1      63.816  46.151  28.652  1.00  0.00     0.006 C 
BRANCH  16  17
HETATM   17  C5  UNL     1      63.136  47.394  29.056  1.00  0.00     0.003 C 
HETATM   18  C6  UNL     1      61.994  46.979  29.990  1.00  0.00     0.008 C 
HETATM   19  C7  UNL     1      60.797  46.494  29.256  1.00  0.00     0.020 C 
HETATM   20  C8  UNL     1      60.320  47.655  28.371  1.00  0.00     0.113 C 
HETATM   21  N1  UNL     1      61.355  47.851  27.405  1.00  0.00    -0.421 N 
HETATM   22  C9  UNL     1      62.619  48.229  27.913  1.00  0.00     0.118 C 
ATOM     23  H1  UNL     1      61.191  47.725  26.406  1.00  0.00     0.153 HD
ENDBRANCH  16  17
ENDBRANCH  15  16
ENDBRANCH  13  15
ENDBRANCH   1  13
TORSDOF 4
ENDMDL
MODEL 4
REMARK VINA RESULT: -8.464746363      2.624      5.610
REMARK  4 active torsions:
REMARK  status: ('A' for Active; 'I' for Inactive)
REMARK    1  A    between atoms: C2_2  and  C3_3 
REMARK    2  A    between atoms: C2_2  and  C10_12 
REMARK    3  A    between atoms: C3_3  and  C4_4 
REMARK    4  A    between atoms: C4_4  and  C5_5 
ROOT
HETATM    1  C10 UNL     1      66.419  45.423  30.162  1.00  0.00    -0.002 C 
HETATM    2  C11 UNL     1      67.721  45.713  29.444  1.00  0.00     0.006 C 
HETATM    3  C12 UNL     1      67.542  47.054  28.837  1.00  0.00     0.006 C 
HETATM    4  C13 UNL     1      66.119  47.471  28.953  1.00  0.00     0.002 C 
HETATM    5  C14 UNL     1      65.551  48.127  27.754  1.00  0.00    -0.043 C 
HETATM    6  C15 UNL     1      66.707  48.632  26.870  1.00  0.00     0.015 C 
HETATM    7  C16 UNL     1      64.750  49.394  28.089  1.00  0.00     0.015 C 
HETATM    8  C17 UNL     1      64.696  47.292  26.871  1.00  0.00     0.009 C 
HETATM    9  C18 UNL     1      65.163  45.863  27.010  1.00  0.00     0.002 C 
HETATM   10  C19 UNL     1      64.776  45.419  28.384  1.00  0.00     0.010 C 
HETATM   11  C20 UNL     1      65.437  46.252  29.493  1.00  0.00    -0.036 C 
HETATM   12  C21 UNL     1      64.266  46.756  30.328  1.00  0.00     0.016 C 
ENDROOT
BRANCH   1  13
HETATM   13  C2  UNL     1      66.664  45.416  31.619  1.00  0.00    -0.014 C 
HETATM   14  C1  UNL     1      66.884  44.172  32.328  1.00  0.00     0.010 C 
BRANCH  13  15
HETATM   15  C3  UNL     1      67.493  46.569  32.051  1.00  0.00     0.005 C 
BRANCH  15  16
HETATM   16  C4  UNL     1      66.930  47.652  32.861  1.00  0.00     0.006 C 
BRANCH  16  17
HETATM   17  C5  UNL     1      66.143  47.408  34.083  1.00  0.00     0.003 C 
HETATM   18  C6  UNL     1      64.673  47.366  33.651  1.00  0.00     0.008 C 
HETATM   19  C7  UNL     1      64.087  48.720  33.475  1.00  0.00     0.020 C 
HETATM   20  C8  UNL     1      64.187  49.426  34.834  1.00  0.00     0.113 C 
HETATM   21  N1  UNL     1      65.585  49.601  35.073  1.00  0.00    -0.421 N 
HETATM   22  C9  UNL     1      66.352  48.419  35.179  1.00  0.00     0.118 C 
ATOM     23  H1  UNL     1      66.005  50.526  35.162  1.00  0.00     0.153 HD
ENDBRANCH  16  17
ENDBRANCH  15  16
ENDBRANCH  13  15
ENDBRANCH   1  13
TORSDOF 4
ENDMDL
MODEL 5
REMARK VINA RESULT: -8.456557582      1.821      3.064
REMARK  4 active torsions:
REMARK  status: ('A' for Active; 'I' for Inactive)
REMARK    1  A    between atoms: C2_2  and  C3_3 
REMARK    2  A    between atoms: C2_2  and  C10_12 
REMARK    3  A    between atoms: C3_3  and  C4_4 
REMARK    4  A    between atoms: C4_4  and  C5_5 
ROOT
HETATM    1  C10 UNL     1      66.912  46.204  31.572  1.00  0.00    -0.002 C 
HETATM    2  C11 UNL     1      65.417  45.961  31.602  1.00  0.00     0.006 C 
HETATM    3  C12 UNL     1      64.846  47.125  32.321  1.00  0.00     0.006 C 
HETATM    4  C13 UNL     1      65.942  47.926  32.930  1.00  0.00     0.002 C 
HETATM    5  C14 UNL     1      65.681  48.419  34.300  1.00  0.00    -0.043 C 
HETATM    6  C15 UNL     1      64.163  48.379  34.561  1.00  0.00     0.015 C 
HETATM    7  C16 UNL     1      66.057  49.896  34.486  1.00  0.00     0.015 C 
HETATM    8  C17 UNL     1      66.308  47.666  35.418  1.00  0.00     0.009 C 
HETATM    9  C18 UNL     1      66.469  46.235  34.965  1.00  0.00     0.002 C 
HETATM   10  C19 UNL     1      67.531  46.237  33.912  1.00  0.00     0.010 C 
HETATM   11  C20 UNL     1      67.163  47.092  32.690  1.00  0.00    -0.036 C 
HETATM   12  C21 UNL     1      68.324  48.069  32.555  1.00  0.00     0.016 C 
ENDROOT
BRANCH   1  13
HETATM   13  C2  UNL     1      67.329  46.464  30.179  1.00  0.00    -0.014 C 
HETATM   14  C1  UNL     1      68.619  46.013  29.695  1.00  0.00     0.010 C 
BRANCH  13  15
HETATM   15  C3  UNL     1      66.198  46.348  29.226  1.00  0.00     0.005 C 
BRANCH  15  16
HETATM   16  C4  UNL     1      65.869  47.433  28.297  1.00  0.00     0.006 C 
BRANCH  16  17
HETATM   17  C5  UNL     1      65.125  48.636  28.707  1.00  0.00     0.003 C 
HETATM   18  C6  UNL     1      63.740  48.156  29.157  1.00  0.00     0.008 C 
HETATM   19  C7  UNL     1      62.820  47.905  28.018  1.00  0.00     0.020 C 
HETATM   20  C8  UNL     1      62.668  49.238  27.270  1.00  0.00     0.113 C 
HETATM   21  N1  UNL     1      63.956  49.516  26.717  1.00  0.00    -0.421 N 
HETATM   22  C9  UNL     1      65.007  49.697  27.644  1.00  0.00     0.118 C 
ATOM     23  H1  UNL     1      64.108  49.582  25.710  1.00  0.00     0.153 HD
ENDBRANCH  16  17
ENDBRANCH  15  16
ENDBRANCH  13  15
ENDBRANCH   1  13
TORSDOF 4
ENDMDL
