MODEL 1
REMARK VINA RESULT: -8.749458587      0.000      0.000
REMARK  8 active torsions:
REMARK  status: ('A' for Active; 'I' for Inactive)
REMARK    1  A    between atoms: C2_2  and  C3_3 
REMARK    2  A    between atoms: C3_3  and  C4_4 
REMARK    3  A    between atoms: C4_4  and  C5_5 
REMARK    4  A    between atoms: C5_5  and  C6_6 
REMARK    5  A    between atoms: C7_7  and  C8_8 
REMARK    6  A    between atoms: C8_8  and  N1_9 
REMARK    7  A    between atoms: C8_8  and  C9_13 
REMARK    8  A    between atoms: C10_14  and  C11_15 
ROOT
HETATM    1  C9  UNL     1      66.967  45.634  31.519  1.00  0.00     0.015 C 
HETATM    2  C10 UNL     1      66.757  46.741  30.829  1.00  0.00    -0.018 C 
ENDROOT
BRANCH   1   3
HETATM    3  C8  UNL     1      67.767  45.605  32.757  1.00  0.00     0.284 C 
BRANCH   3   4
HETATM    4  C7  UNL     1      67.129  46.453  33.762  1.00  0.00    -0.070 C 
HETATM    5  C6  UNL     1      66.607  47.170  34.581  1.00  0.00    -0.104 C 
BRANCH   5   6
HETATM    6  C5  UNL     1      65.987  48.060  35.561  1.00  0.00     0.094 C 
BRANCH   6   7
HETATM    7  C4  UNL     1      65.697  49.421  34.917  1.00  0.00     0.012 C 
BRANCH   7   8
HETATM    8  C3  UNL     1      64.683  49.273  33.804  1.00  0.00     0.000 C 
BRANCH   8   9
HETATM    9  C2  UNL     1      63.431  48.673  34.461  1.00  0.00    -0.005 C 
HETATM   10  C1  UNL     1      62.966  47.568  33.552  1.00  0.00     0.005 C 
ENDBRANCH   8   9
ENDBRANCH   7   8
ENDBRANCH   6   7
ENDBRANCH   5   6
ENDBRANCH   3   4
BRANCH   3  11
HETATM   11  N1  UNL     1      69.110  46.115  32.565  1.00  0.00    -0.061 N 
ATOM     12  H13 UNL     1      69.769  45.785  33.271  1.00  0.00     0.276 HD
ATOM     13  H12 UNL     1      69.579  45.714  31.753  1.00  0.00     0.276 HD
ATOM     14  H11 UNL     1      69.040  47.131  32.526  1.00  0.00     0.276 HD
ENDBRANCH   3  11
ENDBRANCH   1   3
BRANCH   2  15
HETATM   15  C11 UNL     1      65.947  46.732  29.588  1.00  0.00    -0.022 C 
HETATM   16  C12 UNL     1      65.747  45.315  29.097  1.00  0.00     0.014 C 
HETATM   17  C13 UNL     1      64.840  45.397  27.884  1.00  0.00     0.007 C 
HETATM   18  C14 UNL     1      64.524  46.832  27.509  1.00  0.00    -0.002 C 
HETATM   19  C15 UNL     1      65.820  47.540  27.245  1.00  0.00    -0.009 C 
HETATM   20  C19 UNL     1      63.827  47.536  28.655  1.00  0.00    -0.039 C 
HETATM   21  C16 UNL     1      65.614  48.982  26.844  1.00  0.00     0.005 C 
HETATM   22  C22 UNL     1      66.669  47.479  28.484  1.00  0.00     0.018 C 
HETATM   23  C17 UNL     1      64.870  49.686  27.953  1.00  0.00     0.001 C 
HETATM   24  C18 UNL     1      63.595  48.968  28.261  1.00  0.00     0.010 C 
HETATM   25  C20 UNL     1      62.459  46.915  28.912  1.00  0.00     0.015 C 
HETATM   26  C21 UNL     1      64.622  47.392  29.917  1.00  0.00     0.023 C 
ENDBRANCH   2  15
TORSDOF 8
ENDMDL
MODEL 2
REMARK VINA RESULT: -8.577595859      2.982      6.422
REMARK  8 active torsions:
REMARK  status: ('A' for Active; 'I' for Inactive)
REMARK    1  A    between atoms: C2_2  and  C3_3 
REMARK    2  A    between atoms: C3_3  and  C4_4 
REMARK    3  A    between atoms: C4_4  and  C5_5 
REMARK    4  A    between atoms: C5_5  and  C6_6 
REMARK    5  A    between atoms: C7_7  and  C8_8 
REMARK    6  A    between atoms: C8_8  and  N1_9 
REMARK    7  A    between atoms: C8_8  and  C9_13 
REMARK    8  A    between atoms: C10_14  and  C11_15 
ROOT
HETATM    1  C9  UNL     1      64.299  47.578  28.731  1.00  0.00     0.015 C 
HETATM    2  C10 UNL     1      64.688  47.427  29.984  1.00  0.00    -0.018 C 
ENDROOT
BRANCH   1   3
HETATM    3  C8  UNL     1      63.007  48.185  28.364  1.00  0.00     0.284 C 
BRANCH   3   4
HETATM    4  C7  UNL     1      61.924  47.406  28.961  1.00  0.00    -0.070 C 
HETATM    5  C6  UNL     1      61.040  46.761  29.472  1.00  0.00    -0.104 C 
BRANCH   5   6
HETATM    6  C5  UNL     1      59.987  45.972  30.110  1.00  0.00     0.094 C 
BRANCH   6   7
HETATM    7  C4  UNL     1      58.625  46.636  29.875  1.00  0.00     0.012 C 
BRANCH   7   8
HETATM    8  C3  UNL     1      58.297  46.659  28.398  1.00  0.00     0.000 C 
BRANCH   8   9
HETATM    9  C2  UNL     1      58.081  48.137  28.043  1.00  0.00    -0.005 C 
HETATM   10  C1  UNL     1      56.706  48.495  28.540  1.00  0.00     0.005 C 
ENDBRANCH   8   9
ENDBRANCH   7   8
ENDBRANCH   6   7
ENDBRANCH   5   6
ENDBRANCH   3   4
BRANCH   3  11
HETATM   11  N1  UNL     1      62.781  48.195  26.933  1.00  0.00    -0.061 N 
ATOM     12  H13 UNL     1      61.841  48.499  26.678  1.00  0.00     0.276 HD
ATOM     13  H12 UNL     1      63.291  48.936  26.452  1.00  0.00     0.276 HD
ATOM     14  H11 UNL     1      63.009  47.262  26.589  1.00  0.00     0.276 HD
ENDBRANCH   3  11
ENDBRANCH   1   3
BRANCH   2  15
HETATM   15  C11 UNL     1      65.995  46.812  30.315  1.00  0.00    -0.022 C 
HETATM   16  C12 UNL     1      66.991  47.055  29.203  1.00  0.00     0.014 C 
HETATM   17  C13 UNL     1      68.313  46.472  29.664  1.00  0.00     0.007 C 
HETATM   18  C14 UNL     1      68.185  45.767  31.001  1.00  0.00    -0.002 C 
HETATM   19  C15 UNL     1      67.155  44.685  30.860  1.00  0.00    -0.009 C 
HETATM   20  C19 UNL     1      67.711  46.735  32.065  1.00  0.00    -0.039 C 
HETATM   21  C16 UNL     1      66.962  43.907  32.140  1.00  0.00     0.005 C 
HETATM   22  C22 UNL     1      65.849  45.309  30.450  1.00  0.00     0.018 C 
HETATM   23  C17 UNL     1      66.543  44.867  33.227  1.00  0.00     0.001 C 
HETATM   24  C18 UNL     1      67.537  45.977  33.352  1.00  0.00     0.010 C 
HETATM   25  C20 UNL     1      68.761  47.810  32.318  1.00  0.00     0.015 C 
HETATM   26  C21 UNL     1      66.463  47.433  31.617  1.00  0.00     0.023 C 
ENDBRANCH   2  15
TORSDOF 8
ENDMDL
MODEL 3
REMARK VINA RESULT: -8.385596348      1.844      3.300
REMARK  8 active torsions:
REMARK  status: ('A' for Active; 'I' for Inactive)
REMARK    1  A    between atoms: C2_2  and  C3_3 
REMARK    2  A    between atoms: C3_3  and  C4_4 
REMARK    3  A    between atoms: C4_4  and  C5_5 
REMARK    4  A    between atoms: C5_5  and  C6_6 
REMARK    5  A    between atoms: C7_7  and  C8_8 
REMARK    6  A    between atoms: C8_8  and  N1_9 
REMARK    7  A    between atoms: C8_8  and  C9_13 
REMARK    8  A    between atoms: C10_14  and  C11_15 
ROOT
HETATM    1  C9  UNL     1      64.090  48.228  31.530  1.00  0.00     0.015 C 
HETATM    2  C10 UNL     1      64.986  47.550  30.835  1.00  0.00    -0.018 C 
ENDROOT
BRANCH   1   3
HETATM    3  C8  UNL     1      64.143  48.348  32.998  1.00  0.00     0.284 C 
BRANCH   3   4
HETATM    4  C7  UNL     1      65.231  47.517  33.509  1.00  0.00    -0.070 C 
HETATM    5  C6  UNL     1      66.132  46.821  33.912  1.00  0.00    -0.104 C 
BRANCH   5   6
HETATM    6  C5  UNL     1      67.223  45.966  34.377  1.00  0.00     0.094 C 
BRANCH   6   7
HETATM    7  C4  UNL     1      67.819  45.194  33.193  1.00  0.00     0.012 C 
BRANCH   7   8
HETATM    8  C3  UNL     1      66.871  44.104  32.743  1.00  0.00     0.000 C 
BRANCH   8   9
HETATM    9  C2  UNL     1      66.847  44.182  31.209  1.00  0.00    -0.005 C 
HETATM   10  C1  UNL     1      67.753  45.322  30.830  1.00  0.00     0.005 C 
ENDBRANCH   8   9
ENDBRANCH   7   8
ENDBRANCH   6   7
ENDBRANCH   5   6
ENDBRANCH   3   4
BRANCH   3  11
HETATM   11  N1  UNL     1      62.926  47.894  33.640  1.00  0.00    -0.061 N 
ATOM     12  H13 UNL     1      62.922  46.891  33.829  1.00  0.00     0.276 HD
ATOM     13  H12 UNL     1      62.841  48.208  34.607  1.00  0.00     0.276 HD
ATOM     14  H11 UNL     1      62.149  48.194  33.051  1.00  0.00     0.276 HD
ENDBRANCH   3  11
ENDBRANCH   1   3
BRANCH   2  15
HETATM   15  C11 UNL     1      64.900  47.452  29.359  1.00  0.00    -0.022 C 
HETATM   16  C12 UNL     1      64.698  46.014  28.936  1.00  0.00     0.014 C 
HETATM   17  C13 UNL     1      64.533  46.020  27.428  1.00  0.00     0.007 C 
HETATM   18  C14 UNL     1      64.723  47.407  26.844  1.00  0.00    -0.002 C 
HETATM   19  C15 UNL     1      66.091  47.891  27.225  1.00  0.00    -0.009 C 
HETATM   20  C19 UNL     1      63.704  48.367  27.423  1.00  0.00    -0.039 C 
HETATM   21  C16 UNL     1      66.387  49.266  26.675  1.00  0.00     0.005 C 
HETATM   22  C22 UNL     1      66.196  47.916  28.725  1.00  0.00     0.018 C 
HETATM   23  C17 UNL     1      65.347  50.226  27.200  1.00  0.00     0.001 C 
HETATM   24  C18 UNL     1      63.973  49.738  26.867  1.00  0.00     0.010 C 
HETATM   25  C20 UNL     1      62.295  47.978  26.993  1.00  0.00     0.015 C 
HETATM   26  C21 UNL     1      63.737  48.322  28.921  1.00  0.00     0.023 C 
ENDBRANCH   2  15
TORSDOF 8
ENDMDL
MODEL 4
REMARK VINA RESULT: -8.187896630      1.899      3.577
REMARK  8 active torsions:
REMARK  status: ('A' for Active; 'I' for Inactive)
REMARK    1  A    between atoms: C2_2  and  C3_3 
REMARK    2  A    between atoms: C3_3  and  C4_4 
REMARK    3  A    between atoms: C4_4  and  C5_5 
REMARK    4  A    between atoms: C5_5  and  C6_6 
REMARK    5  A    between atoms: C7_7  and  C8_8 
REMARK    6  A    between atoms: C8_8  and  N1_9 
REMARK    7  A    between atoms: C8_8  and  C9_13 
REMARK    8  A    between atoms: C10_14  and  C11_15 
ROOT
HETATM    1  C9  UNL     1      63.997  48.335  31.601  1.00  0.00     0.015 C 
HETATM    2  C10 UNL     1      65.037  47.824  30.967  1.00  0.00    -0.018 C 
ENDROOT
BRANCH   1   3
HETATM    3  C8  UNL     1      63.821  48.228  33.060  1.00  0.00     0.284 C 
BRANCH   3   4
HETATM    4  C7  UNL     1      64.968  47.525  33.633  1.00  0.00    -0.070 C 
HETATM    5  C6  UNL     1      65.915  46.932  34.089  1.00  0.00    -0.104 C 
BRANCH   5   6
HETATM    6  C5  UNL     1      67.058  46.193  34.624  1.00  0.00     0.094 C 
BRANCH   6   7
HETATM    7  C4  UNL     1      67.267  44.904  33.819  1.00  0.00     0.012 C 
BRANCH   7   8
HETATM    8  C3  UNL     1      67.456  45.223  32.352  1.00  0.00     0.000 C 
BRANCH   8   9
HETATM    9  C2  UNL     1      66.794  44.067  31.588  1.00  0.00    -0.005 C 
HETATM   10  C1  UNL     1      66.828  44.448  30.133  1.00  0.00     0.005 C 
ENDBRANCH   8   9
ENDBRANCH   7   8
ENDBRANCH   6   7
ENDBRANCH   5   6
ENDBRANCH   3   4
BRANCH   3  11
HETATM   11  N1  UNL     1      62.638  47.474  33.426  1.00  0.00    -0.061 N 
ATOM     12  H13 UNL     1      62.026  47.975  34.070  1.00  0.00     0.276 HD
ATOM     13  H12 UNL     1      61.971  47.379  32.661  1.00  0.00     0.276 HD
ATOM     14  H11 UNL     1      62.959  46.578  33.793  1.00  0.00     0.276 HD
ENDBRANCH   3  11
ENDBRANCH   1   3
BRANCH   2  15
HETATM   15  C11 UNL     1      65.181  47.952  29.498  1.00  0.00    -0.022 C 
HETATM   16  C12 UNL     1      66.637  47.860  29.098  1.00  0.00     0.014 C 
HETATM   17  C13 UNL     1      66.679  47.912  27.583  1.00  0.00     0.007 C 
HETATM   18  C14 UNL     1      65.303  48.135  26.986  1.00  0.00    -0.002 C 
HETATM   19  C15 UNL     1      64.757  49.418  27.540  1.00  0.00    -0.009 C 
HETATM   20  C19 UNL     1      64.366  47.013  27.384  1.00  0.00    -0.039 C 
HETATM   21  C16 UNL     1      63.388  49.744  26.991  1.00  0.00     0.005 C 
HETATM   22  C22 UNL     1      64.686  49.309  29.038  1.00  0.00     0.018 C 
HETATM   23  C17 UNL     1      62.454  48.608  27.332  1.00  0.00     0.001 C 
HETATM   24  C18 UNL     1      63.003  47.313  26.825  1.00  0.00     0.010 C 
HETATM   25  C20 UNL     1      64.820  45.693  26.772  1.00  0.00     0.015 C 
HETATM   26  C21 UNL     1      64.368  46.834  28.872  1.00  0.00     0.023 C 
ENDBRANCH   2  15
TORSDOF 8
ENDMDL
MODEL 5
REMARK VINA RESULT: -7.963008677      1.834      3.602
REMARK  8 active torsions:
REMARK  status: ('A' for Active; 'I' for Inactive)
REMARK    1  A    between atoms: C2_2  and  C3_3 
REMARK    2  A    between atoms: C3_3  and  C4_4 
REMARK    3  A    between atoms: C4_4  and  C5_5 
REMARK    4  A    between atoms: C5_5  and  C6_6 
REMARK    5  A    between atoms: C7_7  and  C8_8 
REMARK    6  A    between atoms: C8_8  and  N1_9 
REMARK    7  A    between atoms: C8_8  and  C9_13 
REMARK    8  A    between atoms: C10_14  and  C11_15 
ROOT
HETATM    1  C9  UNL     1      64.203  49.020  32.176  1.00  0.00     0.015 C 
HETATM    2  C10 UNL     1      64.620  48.051  31.381  1.00  0.00    -0.018 C 
ENDROOT
BRANCH   1   3
HETATM    3  C8  UNL     1      64.769  49.250  33.518  1.00  0.00     0.284 C 
BRANCH   3   4
HETATM    4  C7  UNL     1      65.565  48.089  33.910  1.00  0.00    -0.070 C 
HETATM    5  C6  UNL     1      66.216  47.119  34.217  1.00  0.00    -0.104 C 
BRANCH   5   6
HETATM    6  C5  UNL     1      66.990  45.930  34.570  1.00  0.00     0.094 C 
BRANCH   6   7
HETATM    7  C4  UNL     1      67.725  45.401  33.333  1.00  0.00     0.012 C 
BRANCH   7   8
HETATM    8  C3  UNL     1      66.942  44.275  32.694  1.00  0.00     0.000 C 
BRANCH   8   9
HETATM    9  C2  UNL     1      66.896  44.601  31.194  1.00  0.00    -0.005 C 
HETATM   10  C1  UNL     1      67.765  45.813  30.998  1.00  0.00     0.005 C 
ENDBRANCH   8   9
ENDBRANCH   7   8
ENDBRANCH   6   7
ENDBRANCH   5   6
ENDBRANCH   3   4
BRANCH   3  11
HETATM   11  N1  UNL     1      63.749  49.425  34.532  1.00  0.00    -0.061 N 
ATOM     12  H13 UNL     1      64.089  49.248  35.477  1.00  0.00     0.276 HD
ATOM     13  H12 UNL     1      63.483  50.400  34.670  1.00  0.00     0.276 HD
ATOM     14  H11 UNL     1      62.964  48.829  34.270  1.00  0.00     0.276 HD
ENDBRANCH   3  11
ENDBRANCH   1   3
BRANCH   2  15
HETATM   15  C11 UNL     1      64.028  47.849  30.038  1.00  0.00    -0.022 C 
HETATM   16  C12 UNL     1      62.652  47.232  30.154  1.00  0.00     0.014 C 
HETATM   17  C13 UNL     1      62.091  47.145  28.748  1.00  0.00     0.007 C 
HETATM   18  C14 UNL     1      63.099  47.595  27.708  1.00  0.00    -0.002 C 
HETATM   19  C15 UNL     1      64.320  46.734  27.840  1.00  0.00    -0.009 C 
HETATM   20  C19 UNL     1      63.507  49.033  27.954  1.00  0.00    -0.039 C 
HETATM   21  C16 UNL     1      65.386  47.091  26.831  1.00  0.00     0.005 C 
HETATM   22  C22 UNL     1      64.873  46.884  29.230  1.00  0.00     0.018 C 
HETATM   23  C17 UNL     1      65.765  48.539  27.027  1.00  0.00     0.001 C 
HETATM   24  C18 UNL     1      64.553  49.410  26.942  1.00  0.00     0.010 C 
HETATM   25  C20 UNL     1      62.323  49.969  27.745  1.00  0.00     0.015 C 
HETATM   26  C21 UNL     1      63.965  49.210  29.370  1.00  0.00     0.023 C 
ENDBRANCH   2  15
TORSDOF 8
ENDMDL
