MODEL 1
REMARK VINA RESULT: -9.607534231      0.000      0.000
REMARK  5 active torsions:
REMARK  status: ('A' for Active; 'I' for Inactive)
REMARK       I    between atoms: C1_2  and  N1_3 
REMARK    1  A    between atoms: C1_2  and  C9_12 
REMARK    2  A    between atoms: N1_3  and  C2_5 
REMARK    3  A    between atoms: C9_12  and  C10_13 
REMARK    4  A    between atoms: C9_12  and  C16_19 
REMARK    5  A    between atoms: C10_13  and  C11_14 
ROOT
HETATM    1  C9  UNL     1      63.565  47.432  28.828  1.00  0.00     0.082 C 
ENDROOT
BRANCH   1   2
HETATM    2  C1  UNL     1      64.003  48.111  30.114  1.00  0.00     0.222 C 
HETATM    3  O1  UNL     1      63.953  49.351  30.197  1.00  0.00    -0.273 OA
HETATM    4  N1  UNL     1      64.467  47.336  31.212  1.00  0.00    -0.356 N 
ATOM      5  H1  UNL     1      64.510  46.319  31.147  1.00  0.00     0.162 HD
BRANCH   4   6
HETATM    6  C2  UNL     1      64.880  48.020  32.431  1.00  0.00     0.084 C 
HETATM    7  C3  UNL     1      66.142  47.336  32.906  1.00  0.00     0.025 C 
HETATM    8  C4  UNL     1      66.313  47.569  34.371  1.00  0.00     0.002 C 
HETATM    9  C5  UNL     1      66.167  49.041  34.655  1.00  0.00     0.000 C 
HETATM   10  C6  UNL     1      64.820  49.353  35.269  1.00  0.00     0.000 C 
HETATM   11  C7  UNL     1      63.699  49.237  34.274  1.00  0.00     0.002 C 
HETATM   12  C8  UNL     1      63.777  47.981  33.448  1.00  0.00     0.025 C 
ENDBRANCH   4   6
ENDBRANCH   1   2
BRANCH   1  13
HETATM   13  C10 UNL     1      62.137  47.846  28.674  1.00  0.00     0.019 C 
BRANCH  13  14
HETATM   14  C11 UNL     1      61.081  46.839  28.860  1.00  0.00    -0.014 C 
HETATM   15  C12 UNL     1      59.769  47.424  28.274  1.00  0.00     0.005 C 
HETATM   16  C13 UNL     1      58.662  46.742  29.030  1.00  0.00     0.000 C 
HETATM   17  C14 UNL     1      59.328  45.919  30.109  1.00  0.00     0.000 C 
HETATM   18  C15 UNL     1      60.628  46.691  30.306  1.00  0.00     0.005 C 
ENDBRANCH  13  14
ENDBRANCH   1  13
BRANCH   1  19
HETATM   19  C16 UNL     1      64.499  47.868  27.752  1.00  0.00    -0.002 C 
HETATM   20  C17 UNL     1      65.951  47.836  28.036  1.00  0.00     0.005 C 
HETATM   21  C18 UNL     1      66.515  48.755  26.933  1.00  0.00     0.000 C 
HETATM   22  C19 UNL     1      65.539  49.887  26.945  1.00  0.00     0.000 C 
HETATM   23  C20 UNL     1      64.195  49.139  27.047  1.00  0.00     0.005 C 
ENDBRANCH   1  19
TORSDOF 5
ENDMDL
MODEL 2
REMARK VINA RESULT: -9.589503280      2.278      2.609
REMARK  5 active torsions:
REMARK  status: ('A' for Active; 'I' for Inactive)
REMARK       I    between atoms: C1_2  and  N1_3 
REMARK    1  A    between atoms: C1_2  and  C9_12 
REMARK    2  A    between atoms: N1_3  and  C2_5 
REMARK    3  A    between atoms: C9_12  and  C10_13 
REMARK    4  A    between atoms: C9_12  and  C16_19 
REMARK    5  A    between atoms: C10_13  and  C11_14 
ROOT
HETATM    1  C9  UNL     1      63.871  47.172  28.221  1.00  0.00     0.082 C 
ENDROOT
BRANCH   1   2
HETATM    2  C1  UNL     1      64.665  47.081  29.512  1.00  0.00     0.222 C 
HETATM    3  O1  UNL     1      64.406  47.863  30.445  1.00  0.00    -0.273 OA
HETATM    4  N1  UNL     1      65.697  46.114  29.654  1.00  0.00    -0.356 N 
ATOM      5  H1  UNL     1      65.913  45.471  28.892  1.00  0.00     0.162 HD
BRANCH   4   6
HETATM    6  C2  UNL     1      66.439  46.054  30.907  1.00  0.00     0.084 C 
HETATM    7  C3  UNL     1      67.597  47.018  30.772  1.00  0.00     0.025 C 
HETATM    8  C4  UNL     1      68.683  46.625  31.719  1.00  0.00     0.002 C 
HETATM    9  C5  UNL     1      68.092  46.431  33.090  1.00  0.00     0.000 C 
HETATM   10  C6  UNL     1      67.953  44.963  33.428  1.00  0.00     0.000 C 
HETATM   11  C7  UNL     1      66.850  44.301  32.649  1.00  0.00     0.002 C 
HETATM   12  C8  UNL     1      66.881  44.646  31.184  1.00  0.00     0.025 C 
ENDBRANCH   4   6
ENDBRANCH   1   2
BRANCH   1  13
HETATM   13  C10 UNL     1      62.554  47.732  28.650  1.00  0.00     0.019 C 
BRANCH  13  14
HETATM   14  C11 UNL     1      61.397  46.829  28.756  1.00  0.00    -0.014 C 
HETATM   15  C12 UNL     1      60.186  47.541  28.098  1.00  0.00     0.005 C 
HETATM   16  C13 UNL     1      58.975  46.961  28.774  1.00  0.00     0.000 C 
HETATM   17  C14 UNL     1      59.491  46.069  29.880  1.00  0.00     0.000 C 
HETATM   18  C15 UNL     1      60.843  46.711  30.168  1.00  0.00     0.005 C 
ENDBRANCH  13  14
ENDBRANCH   1  13
BRANCH   1  19
HETATM   19  C16 UNL     1      64.662  48.000  27.268  1.00  0.00    -0.002 C 
HETATM   20  C17 UNL     1      66.136  47.995  27.399  1.00  0.00     0.005 C 
HETATM   21  C18 UNL     1      66.533  49.258  26.607  1.00  0.00     0.000 C 
HETATM   22  C19 UNL     1      65.512  50.247  27.071  1.00  0.00     0.000 C 
HETATM   23  C20 UNL     1      64.224  49.400  27.041  1.00  0.00     0.005 C 
ENDBRANCH   1  19
TORSDOF 5
ENDMDL
MODEL 3
REMARK VINA RESULT: -9.476706754      1.604      2.467
REMARK  5 active torsions:
REMARK  status: ('A' for Active; 'I' for Inactive)
REMARK       I    between atoms: C1_2  and  N1_3 
REMARK    1  A    between atoms: C1_2  and  C9_12 
REMARK    2  A    between atoms: N1_3  and  C2_5 
REMARK    3  A    between atoms: C9_12  and  C10_13 
REMARK    4  A    between atoms: C9_12  and  C16_19 
REMARK    5  A    between atoms: C10_13  and  C11_14 
ROOT
HETATM    1  C9  UNL     1      63.937  46.977  28.055  1.00  0.00     0.082 C 
ENDROOT
BRANCH   1   2
HETATM    2  C1  UNL     1      64.897  46.552  29.152  1.00  0.00     0.222 C 
HETATM    3  O1  UNL     1      65.481  45.458  29.063  1.00  0.00    -0.273 OA
HETATM    4  N1  UNL     1      65.125  47.397  30.273  1.00  0.00    -0.356 N 
ATOM      5  H1  UNL     1      64.648  48.295  30.351  1.00  0.00     0.162 HD
BRANCH   4   6
HETATM    6  C2  UNL     1      66.053  46.958  31.308  1.00  0.00     0.084 C 
HETATM    7  C3  UNL     1      65.572  47.564  32.607  1.00  0.00     0.025 C 
HETATM    8  C4  UNL     1      66.712  47.647  33.569  1.00  0.00     0.002 C 
HETATM    9  C5  UNL     1      67.398  46.308  33.634  1.00  0.00     0.000 C 
HETATM   10  C6  UNL     1      68.700  46.317  32.863  1.00  0.00     0.000 C 
HETATM   11  C7  UNL     1      68.481  46.348  31.376  1.00  0.00     0.002 C 
HETATM   12  C8  UNL     1      67.454  47.365  30.957  1.00  0.00     0.025 C 
ENDBRANCH   4   6
ENDBRANCH   1   2
BRANCH   1  13
HETATM   13  C10 UNL     1      62.760  47.520  28.800  1.00  0.00     0.019 C 
BRANCH  13  14
HETATM   14  C11 UNL     1      61.497  46.767  28.780  1.00  0.00    -0.014 C 
HETATM   15  C12 UNL     1      60.445  47.637  28.043  1.00  0.00     0.005 C 
HETATM   16  C13 UNL     1      59.117  47.202  28.595  1.00  0.00     0.000 C 
HETATM   17  C14 UNL     1      59.420  46.232  29.715  1.00  0.00     0.000 C 
HETATM   18  C15 UNL     1      60.809  46.694  30.136  1.00  0.00     0.005 C 
ENDBRANCH  13  14
ENDBRANCH   1  13
BRANCH   1  19
HETATM   19  C16 UNL     1      64.661  47.935  27.174  1.00  0.00    -0.002 C 
HETATM   20  C17 UNL     1      66.135  48.007  27.287  1.00  0.00     0.005 C 
HETATM   21  C18 UNL     1      66.443  49.360  26.612  1.00  0.00     0.000 C 
HETATM   22  C19 UNL     1      65.373  50.238  27.177  1.00  0.00     0.000 C 
HETATM   23  C20 UNL     1      64.138  49.322  27.084  1.00  0.00     0.005 C 
ENDBRANCH   1  19
TORSDOF 5
ENDMDL
MODEL 4
REMARK VINA RESULT: -9.181543975      1.453      1.862
REMARK  5 active torsions:
REMARK  status: ('A' for Active; 'I' for Inactive)
REMARK       I    between atoms: C1_2  and  N1_3 
REMARK    1  A    between atoms: C1_2  and  C9_12 
REMARK    2  A    between atoms: N1_3  and  C2_5 
REMARK    3  A    between atoms: C9_12  and  C10_13 
REMARK    4  A    between atoms: C9_12  and  C16_19 
REMARK    5  A    between atoms: C10_13  and  C11_14 
ROOT
HETATM    1  C9  UNL     1      64.066  47.367  28.502  1.00  0.00     0.082 C 
ENDROOT
BRANCH   1   2
HETATM    2  C1  UNL     1      64.852  47.574  29.784  1.00  0.00     0.222 C 
HETATM    3  O1  UNL     1      64.595  48.553  30.508  1.00  0.00    -0.273 OA
HETATM    4  N1  UNL     1      65.876  46.659  30.154  1.00  0.00    -0.356 N 
ATOM      5  H1  UNL     1      66.091  45.856  29.564  1.00  0.00     0.162 HD
BRANCH   4   6
HETATM    6  C2  UNL     1      66.611  46.888  31.392  1.00  0.00     0.084 C 
HETATM    7  C3  UNL     1      68.016  46.377  31.163  1.00  0.00     0.025 C 
HETATM    8  C4  UNL     1      68.647  46.053  32.477  1.00  0.00     0.002 C 
HETATM    9  C5  UNL     1      68.473  47.224  33.407  1.00  0.00     0.000 C 
HETATM   10  C6  UNL     1      67.389  46.960  34.429  1.00  0.00     0.000 C 
HETATM   11  C7  UNL     1      66.014  46.991  33.822  1.00  0.00     0.002 C 
HETATM   12  C8  UNL     1      65.922  46.209  32.540  1.00  0.00     0.025 C 
ENDBRANCH   4   6
ENDBRANCH   1   2
BRANCH   1  13
HETATM   13  C10 UNL     1      62.701  47.879  28.834  1.00  0.00     0.019 C 
BRANCH  13  14
HETATM   14  C11 UNL     1      61.559  46.954  28.764  1.00  0.00    -0.014 C 
HETATM   15  C12 UNL     1      60.394  47.703  28.065  1.00  0.00     0.005 C 
HETATM   16  C13 UNL     1      59.141  47.052  28.584  1.00  0.00     0.000 C 
HETATM   17  C14 UNL     1      59.580  46.078  29.653  1.00  0.00     0.000 C 
HETATM   18  C15 UNL     1      60.889  46.712  30.109  1.00  0.00     0.005 C 
ENDBRANCH  13  14
ENDBRANCH   1  13
BRANCH   1  19
HETATM   19  C16 UNL     1      64.792  48.078  27.413  1.00  0.00    -0.002 C 
HETATM   20  C17 UNL     1      66.271  48.047  27.427  1.00  0.00     0.005 C 
HETATM   21  C18 UNL     1      66.627  49.218  26.487  1.00  0.00     0.000 C 
HETATM   22  C19 UNL     1      65.665  50.273  26.931  1.00  0.00     0.000 C 
HETATM   23  C20 UNL     1      64.364  49.462  27.087  1.00  0.00     0.005 C 
ENDBRANCH   1  19
TORSDOF 5
ENDMDL
MODEL 5
REMARK VINA RESULT: -8.740487008      1.180      2.081
REMARK  5 active torsions:
REMARK  status: ('A' for Active; 'I' for Inactive)
REMARK       I    between atoms: C1_2  and  N1_3 
REMARK    1  A    between atoms: C1_2  and  C9_12 
REMARK    2  A    between atoms: N1_3  and  C2_5 
REMARK    3  A    between atoms: C9_12  and  C10_13 
REMARK    4  A    between atoms: C9_12  and  C16_19 
REMARK    5  A    between atoms: C10_13  and  C11_14 
ROOT
HETATM    1  C9  UNL     1      64.353  47.680  28.583  1.00  0.00     0.082 C 
ENDROOT
BRANCH   1   2
HETATM    2  C1  UNL     1      64.866  47.245  29.944  1.00  0.00     0.222 C 
HETATM    3  O1  UNL     1      65.366  46.114  30.075  1.00  0.00    -0.273 OA
HETATM    4  N1  UNL     1      64.773  48.121  31.060  1.00  0.00    -0.356 N 
ATOM      5  H1  UNL     1      64.362  49.050  30.957  1.00  0.00     0.162 HD
BRANCH   4   6
HETATM    6  C2  UNL     1      65.274  47.671  32.352  1.00  0.00     0.084 C 
HETATM    7  C3  UNL     1      64.748  48.643  33.384  1.00  0.00     0.025 C 
HETATM    8  C4  UNL     1      65.626  48.609  34.592  1.00  0.00     0.002 C 
HETATM    9  C5  UNL     1      65.824  47.178  35.017  1.00  0.00     0.000 C 
HETATM   10  C6  UNL     1      67.193  46.669  34.622  1.00  0.00     0.000 C 
HETATM   11  C7  UNL     1      67.314  46.448  33.140  1.00  0.00     0.002 C 
HETATM   12  C8  UNL     1      66.774  47.597  32.331  1.00  0.00     0.025 C 
ENDBRANCH   4   6
ENDBRANCH   1   2
BRANCH   1  13
HETATM   13  C10 UNL     1      62.951  48.122  28.853  1.00  0.00     0.019 C 
BRANCH  13  14
HETATM   14  C11 UNL     1      61.863  47.137  28.748  1.00  0.00    -0.014 C 
HETATM   15  C12 UNL     1      60.662  47.840  28.061  1.00  0.00     0.005 C 
HETATM   16  C13 UNL     1      59.445  47.106  28.551  1.00  0.00     0.000 C 
HETATM   17  C14 UNL     1      59.930  46.126  29.595  1.00  0.00     0.000 C 
HETATM   18  C15 UNL     1      61.199  46.818  30.079  1.00  0.00     0.005 C 
ENDBRANCH  13  14
ENDBRANCH   1  13
BRANCH   1  19
HETATM   19  C16 UNL     1      65.286  48.720  28.066  1.00  0.00    -0.002 C 
HETATM   20  C17 UNL     1      64.786  49.650  27.029  1.00  0.00     0.005 C 
HETATM   21  C18 UNL     1      66.097  50.217  26.445  1.00  0.00     0.000 C 
HETATM   22  C19 UNL     1      66.941  48.988  26.334  1.00  0.00     0.000 C 
HETATM   23  C20 UNL     1      66.653  48.289  27.677  1.00  0.00     0.005 C 
ENDBRANCH   1  19
TORSDOF 5
ENDMDL
