MODEL 1
REMARK VINA RESULT: -9.680316018      0.000      0.000
REMARK  5 active torsions:
REMARK  status: ('A' for Active; 'I' for Inactive)
REMARK    1  A    between atoms: C2_2  and  N1_3 
REMARK    2  A    between atoms: C2_2  and  C12_15 
REMARK    3  A    between atoms: N1_3  and  C3_6 
REMARK    4  A    between atoms: C3_6  and  C4_7 
REMARK    5  A    between atoms: C4_7  and  C5_8 
ROOT
HETATM    1  C1  UNL     1      65.248  47.314  30.686  1.00  0.00     0.041 C 
HETATM    2  C2  UNL     1      64.254  48.159  31.349  1.00  0.00     0.190 C 
ENDROOT
BRANCH   2   3
HETATM    3  N1  UNL     1      62.893  47.717  31.010  1.00  0.00    -0.070 N 
ATOM      4  H12 UNL     1      62.581  46.985  31.649  1.00  0.00     0.277 HD
ATOM      5  H11 UNL     1      62.210  48.440  31.237  1.00  0.00     0.277 HD
BRANCH   3   6
HETATM    6  C3  UNL     1      62.754  47.299  29.658  1.00  0.00     0.237 C 
BRANCH   6   7
HETATM    7  C4  UNL     1      61.487  47.690  28.992  1.00  0.00     0.061 C 
BRANCH   7   8
HETATM    8  C5  UNL     1      60.319  46.801  29.108  1.00  0.00    -0.082 C 
HETATM    9  C6  UNL     1      59.230  47.310  28.519  1.00  0.00    -0.024 C 
HETATM   10  C7  UNL     1      57.887  46.726  28.421  1.00  0.00     0.027 C 
HETATM   11  C8  UNL     1      57.480  45.896  29.618  1.00  0.00     0.004 C 
HETATM   12  C9  UNL     1      58.198  46.362  30.845  1.00  0.00     0.001 C 
HETATM   13  C10 UNL     1      59.467  45.613  31.105  1.00  0.00     0.004 C 
HETATM   14  C11 UNL     1      60.360  45.539  29.858  1.00  0.00     0.034 C 
ENDBRANCH   7   8
ENDBRANCH   6   7
ENDBRANCH   3   6
ENDBRANCH   2   3
BRANCH   2  15
HETATM   15  C12 UNL     1      64.378  48.363  32.833  1.00  0.00    -0.011 C 
HETATM   16  C13 UNL     1      65.691  47.882  33.381  1.00  0.00     0.016 C 
HETATM   17  C14 UNL     1      65.639  47.860  34.891  1.00  0.00    -0.013 C 
HETATM   18  C15 UNL     1      65.387  49.243  35.402  1.00  0.00     0.009 C 
HETATM   19  C19 UNL     1      64.565  46.922  35.398  1.00  0.00     0.009 C 
HETATM   20  C16 UNL     1      64.074  49.767  34.820  1.00  0.00    -0.013 C 
HETATM   21  C17 UNL     1      62.985  48.885  35.395  1.00  0.00     0.009 C 
HETATM   22  C21 UNL     1      64.111  49.755  33.312  1.00  0.00     0.016 C 
HETATM   23  C18 UNL     1      63.239  47.475  34.901  1.00  0.00    -0.013 C 
HETATM   24  C20 UNL     1      63.261  47.441  33.408  1.00  0.00     0.016 C 
ENDBRANCH   2  15
TORSDOF 5
ENDMDL
MODEL 2
REMARK VINA RESULT: -9.618785019      0.188      1.623
REMARK  5 active torsions:
REMARK  status: ('A' for Active; 'I' for Inactive)
REMARK    1  A    between atoms: C2_2  and  N1_3 
REMARK    2  A    between atoms: C2_2  and  C12_15 
REMARK    3  A    between atoms: N1_3  and  C3_6 
REMARK    4  A    between atoms: C3_6  and  C4_7 
REMARK    5  A    between atoms: C4_7  and  C5_8 
ROOT
HETATM    1  C1  UNL     1      65.118  47.432  30.526  1.00  0.00     0.041 C 
HETATM    2  C2  UNL     1      64.132  48.127  31.355  1.00  0.00     0.190 C 
ENDROOT
BRANCH   2   3
HETATM    3  N1  UNL     1      62.767  47.748  30.959  1.00  0.00    -0.070 N 
ATOM      4  H12 UNL     1      62.394  47.032  31.583  1.00  0.00     0.277 HD
ATOM      5  H11 UNL     1      62.110  48.503  31.157  1.00  0.00     0.277 HD
BRANCH   3   6
HETATM    6  C3  UNL     1      62.665  47.336  29.601  1.00  0.00     0.237 C 
BRANCH   6   7
HETATM    7  C4  UNL     1      61.398  47.690  28.916  1.00  0.00     0.061 C 
BRANCH   7   8
HETATM    8  C5  UNL     1      60.237  46.796  29.063  1.00  0.00    -0.082 C 
HETATM    9  C6  UNL     1      59.132  47.299  28.498  1.00  0.00    -0.024 C 
HETATM   10  C7  UNL     1      57.789  46.709  28.435  1.00  0.00     0.027 C 
HETATM   11  C8  UNL     1      57.415  45.882  29.643  1.00  0.00     0.004 C 
HETATM   12  C9  UNL     1      58.160  46.355  30.851  1.00  0.00     0.001 C 
HETATM   13  C10 UNL     1      59.438  45.612  31.083  1.00  0.00     0.004 C 
HETATM   14  C11 UNL     1      60.302  45.537  29.816  1.00  0.00     0.034 C 
ENDBRANCH   7   8
ENDBRANCH   6   7
ENDBRANCH   3   6
ENDBRANCH   2   3
BRANCH   2  15
HETATM   15  C12 UNL     1      64.279  48.044  32.848  1.00  0.00    -0.011 C 
HETATM   16  C13 UNL     1      63.145  47.312  33.507  1.00  0.00     0.016 C 
HETATM   17  C14 UNL     1      63.213  47.505  35.005  1.00  0.00    -0.013 C 
HETATM   18  C15 UNL     1      64.502  46.950  35.521  1.00  0.00     0.009 C 
HETATM   19  C19 UNL     1      63.095  48.965  35.385  1.00  0.00     0.009 C 
HETATM   20  C16 UNL     1      65.670  47.652  34.829  1.00  0.00    -0.013 C 
HETATM   21  C17 UNL     1      65.609  49.098  35.277  1.00  0.00     0.009 C 
HETATM   22  C21 UNL     1      65.583  47.492  33.331  1.00  0.00     0.016 C 
HETATM   23  C18 UNL     1      64.296  49.669  34.776  1.00  0.00    -0.013 C 
HETATM   24  C20 UNL     1      64.201  49.535  33.292  1.00  0.00     0.016 C 
ENDBRANCH   2  15
TORSDOF 5
ENDMDL
MODEL 3
REMARK VINA RESULT: -9.557019696      2.591      6.408
REMARK  5 active torsions:
REMARK  status: ('A' for Active; 'I' for Inactive)
REMARK    1  A    between atoms: C2_2  and  N1_3 
REMARK    2  A    between atoms: C2_2  and  C12_15 
REMARK    3  A    between atoms: N1_3  and  C3_6 
REMARK    4  A    between atoms: C3_6  and  C4_7 
REMARK    5  A    between atoms: C4_7  and  C5_8 
ROOT
HETATM    1  C1  UNL     1      66.581  44.866  30.464  1.00  0.00     0.041 C 
HETATM    2  C2  UNL     1      66.178  46.208  30.888  1.00  0.00     0.190 C 
ENDROOT
BRANCH   2   3
HETATM    3  N1  UNL     1      67.354  47.000  31.279  1.00  0.00    -0.070 N 
ATOM      4  H12 UNL     1      68.216  46.516  31.029  1.00  0.00     0.277 HD
ATOM      5  H11 UNL     1      67.446  47.826  30.688  1.00  0.00     0.277 HD
BRANCH   3   6
HETATM    6  C3  UNL     1      67.360  47.362  32.655  1.00  0.00     0.237 C 
BRANCH   6   7
HETATM    7  C4  UNL     1      66.577  46.479  33.554  1.00  0.00     0.061 C 
BRANCH   7   8
HETATM    8  C5  UNL     1      65.505  47.071  34.372  1.00  0.00    -0.082 C 
HETATM    9  C6  UNL     1      64.301  46.951  33.799  1.00  0.00    -0.024 C 
HETATM   10  C7  UNL     1      63.000  47.409  34.301  1.00  0.00     0.027 C 
HETATM   11  C8  UNL     1      63.059  48.688  35.105  1.00  0.00     0.004 C 
HETATM   12  C9  UNL     1      64.230  49.518  34.682  1.00  0.00     0.001 C 
HETATM   13  C10 UNL     1      65.454  49.270  35.506  1.00  0.00     0.004 C 
HETATM   14  C11 UNL     1      65.773  47.773  35.633  1.00  0.00     0.034 C 
ENDBRANCH   7   8
ENDBRANCH   6   7
ENDBRANCH   3   6
ENDBRANCH   2   3
BRANCH   2  15
HETATM   15  C12 UNL     1      65.300  47.005  29.965  1.00  0.00    -0.011 C 
HETATM   16  C13 UNL     1      64.481  48.039  30.685  1.00  0.00     0.016 C 
HETATM   17  C14 UNL     1      63.434  48.604  29.752  1.00  0.00    -0.013 C 
HETATM   18  C15 UNL     1      64.105  49.255  28.585  1.00  0.00     0.009 C 
HETATM   19  C19 UNL     1      62.485  47.531  29.265  1.00  0.00     0.009 C 
HETATM   20  C16 UNL     1      64.978  48.229  27.865  1.00  0.00    -0.013 C 
HETATM   21  C17 UNL     1      64.024  47.198  27.298  1.00  0.00     0.009 C 
HETATM   22  C21 UNL     1      66.000  47.637  28.803  1.00  0.00     0.016 C 
HETATM   23  C18 UNL     1      63.322  46.542  28.471  1.00  0.00    -0.013 C 
HETATM   24  C20 UNL     1      64.319  45.934  29.402  1.00  0.00     0.016 C 
ENDBRANCH   2  15
TORSDOF 5
ENDMDL
MODEL 4
REMARK VINA RESULT: -9.554466981      2.641      4.102
REMARK  5 active torsions:
REMARK  status: ('A' for Active; 'I' for Inactive)
REMARK    1  A    between atoms: C2_2  and  N1_3 
REMARK    2  A    between atoms: C2_2  and  C12_15 
REMARK    3  A    between atoms: N1_3  and  C3_6 
REMARK    4  A    between atoms: C3_6  and  C4_7 
REMARK    5  A    between atoms: C4_7  and  C5_8 
ROOT
HETATM    1  C1  UNL     1      68.115  45.874  33.111  1.00  0.00     0.041 C 
HETATM    2  C2  UNL     1      66.877  46.376  32.514  1.00  0.00     0.190 C 
ENDROOT
BRANCH   2   3
HETATM    3  N1  UNL     1      66.242  45.335  31.691  1.00  0.00    -0.070 N 
ATOM      4  H12 UNL     1      66.536  44.406  31.993  1.00  0.00     0.277 HD
ATOM      5  H11 UNL     1      65.245  45.271  31.895  1.00  0.00     0.277 HD
BRANCH   3   6
HETATM    6  C3  UNL     1      66.462  45.504  30.296  1.00  0.00     0.237 C 
BRANCH   6   7
HETATM    7  C4  UNL     1      66.292  46.886  29.783  1.00  0.00     0.061 C 
BRANCH   7   8
HETATM    8  C5  UNL     1      65.121  47.192  28.944  1.00  0.00    -0.082 C 
HETATM    9  C6  UNL     1      65.259  48.346  28.279  1.00  0.00    -0.024 C 
HETATM   10  C7  UNL     1      64.317  48.984  27.351  1.00  0.00     0.027 C 
HETATM   11  C8  UNL     1      62.861  48.761  27.690  1.00  0.00     0.004 C 
HETATM   12  C9  UNL     1      62.696  48.529  29.160  1.00  0.00     0.001 C 
HETATM   13  C10 UNL     1      62.719  47.080  29.533  1.00  0.00     0.004 C 
HETATM   14  C11 UNL     1      63.922  46.345  28.923  1.00  0.00     0.034 C 
ENDBRANCH   7   8
ENDBRANCH   6   7
ENDBRANCH   3   6
ENDBRANCH   2   3
BRANCH   2  15
HETATM   15  C12 UNL     1      65.861  47.009  33.423  1.00  0.00    -0.011 C 
HETATM   16  C13 UNL     1      64.477  47.016  32.837  1.00  0.00     0.016 C 
HETATM   17  C14 UNL     1      63.575  47.901  33.666  1.00  0.00    -0.013 C 
HETATM   18  C15 UNL     1      63.499  47.368  35.061  1.00  0.00     0.009 C 
HETATM   19  C19 UNL     1      64.066  49.332  33.690  1.00  0.00     0.009 C 
HETATM   20  C16 UNL     1      64.904  47.311  35.660  1.00  0.00    -0.013 C 
HETATM   21  C17 UNL     1      65.366  48.750  35.768  1.00  0.00     0.009 C 
HETATM   22  C21 UNL     1      65.816  46.459  34.813  1.00  0.00     0.016 C 
HETATM   23  C18 UNL     1      65.430  49.310  34.361  1.00  0.00    -0.013 C 
HETATM   24  C20 UNL     1      66.343  48.487  33.512  1.00  0.00     0.016 C 
ENDBRANCH   2  15
TORSDOF 5
ENDMDL
MODEL 5
REMARK VINA RESULT: -9.520503895      0.209      1.572
REMARK  5 active torsions:
REMARK  status: ('A' for Active; 'I' for Inactive)
REMARK    1  A    between atoms: C2_2  and  N1_3 
REMARK    2  A    between atoms: C2_2  and  C12_15 
REMARK    3  A    between atoms: N1_3  and  C3_6 
REMARK    4  A    between atoms: C3_6  and  C4_7 
REMARK    5  A    between atoms: C4_7  and  C5_8 
ROOT
HETATM    1  C1  UNL     1      65.193  47.342  30.709  1.00  0.00     0.041 C 
HETATM    2  C2  UNL     1      64.066  48.057  31.310  1.00  0.00     0.190 C 
ENDROOT
BRANCH   2   3
HETATM    3  N1  UNL     1      62.790  47.486  30.854  1.00  0.00    -0.070 N 
ATOM      4  H12 UNL     1      62.624  46.578  31.288  1.00  0.00     0.277 HD
ATOM      5  H11 UNL     1      62.002  48.005  31.242  1.00  0.00     0.277 HD
BRANCH   3   6
HETATM    6  C3  UNL     1      62.685  47.395  29.438  1.00  0.00     0.237 C 
BRANCH   6   7
HETATM    7  C4  UNL     1      61.369  47.774  28.866  1.00  0.00     0.061 C 
BRANCH   7   8
HETATM    8  C5  UNL     1      60.233  46.852  29.028  1.00  0.00    -0.082 C 
HETATM    9  C6  UNL     1      59.109  47.327  28.477  1.00  0.00    -0.024 C 
HETATM   10  C7  UNL     1      57.780  46.705  28.430  1.00  0.00     0.027 C 
HETATM   11  C8  UNL     1      57.442  45.868  29.643  1.00  0.00     0.004 C 
HETATM   12  C9  UNL     1      58.190  46.359  30.842  1.00  0.00     0.001 C 
HETATM   13  C10 UNL     1      59.488  45.648  31.058  1.00  0.00     0.004 C 
HETATM   14  C11 UNL     1      60.338  45.595  29.779  1.00  0.00     0.034 C 
ENDBRANCH   7   8
ENDBRANCH   6   7
ENDBRANCH   3   6
ENDBRANCH   2   3
BRANCH   2  15
HETATM   15  C12 UNL     1      64.053  48.225  32.804  1.00  0.00    -0.011 C 
HETATM   16  C13 UNL     1      63.920  49.660  33.229  1.00  0.00     0.016 C 
HETATM   17  C14 UNL     1      64.191  49.782  34.712  1.00  0.00    -0.013 C 
HETATM   18  C15 UNL     1      63.194  48.965  35.470  1.00  0.00     0.009 C 
HETATM   19  C19 UNL     1      65.594  49.332  35.061  1.00  0.00     0.009 C 
HETATM   20  C16 UNL     1      63.284  47.508  35.018  1.00  0.00    -0.013 C 
HETATM   21  C17 UNL     1      64.655  47.026  35.445  1.00  0.00     0.009 C 
HETATM   22  C21 UNL     1      63.050  47.388  33.533  1.00  0.00     0.016 C 
HETATM   23  C18 UNL     1      65.678  47.859  34.698  1.00  0.00    -0.013 C 
HETATM   24  C20 UNL     1      65.472  47.738  33.224  1.00  0.00     0.016 C 
ENDBRANCH   2  15
TORSDOF 5
ENDMDL
