MODEL 1
REMARK VINA RESULT: -10.428966171      0.000      0.000
REMARK  3 active torsions:
REMARK  status: ('A' for Active; 'I' for Inactive)
REMARK    1  A    between atoms: C2_3  and  C3_4 
REMARK    2  A    between atoms: C3_4  and  C15_16 
REMARK    3  A    between atoms: C4_5  and  C5_6 
ROOT
HETATM    1  C3  UNL     1      65.203  47.409  32.039  1.00  0.00    -0.056 C 
HETATM    2  C4  UNL     1      63.994  47.681  31.323  1.00  0.00    -0.010 C 
ENDROOT
BRANCH   1   3
HETATM    3  C2  UNL     1      66.053  46.293  32.239  1.00  0.00     0.022 C 
HETATM    4  C1  UNL     1      67.394  45.902  31.890  1.00  0.00     0.100 C 
HETATM    5  N1  UNL     1      67.819  45.654  30.558  1.00  0.00    -0.115 NA
ENDBRANCH   1   3
BRANCH   1   6
HETATM    6  C15 UNL     1      65.058  48.102  33.437  1.00  0.00     0.023 C 
HETATM    7  C16 UNL     1      64.071  49.191  33.514  1.00  0.00     0.014 C 
HETATM    8  C17 UNL     1      63.852  49.200  35.050  1.00  0.00    -0.013 C 
HETATM    9  C18 UNL     1      65.158  49.097  35.778  1.00  0.00     0.005 C 
HETATM   10  C21 UNL     1      63.385  47.735  35.154  1.00  0.00     0.010 C 
HETATM   11  C19 UNL     1      65.584  47.618  35.727  1.00  0.00     0.005 C 
HETATM   12  C20 UNL     1      64.691  47.185  34.534  1.00  0.00    -0.006 C 
ENDBRANCH   1   6
BRANCH   2  13
HETATM   13  C5  UNL     1      63.681  47.683  29.896  1.00  0.00    -0.021 C 
HETATM   14  C6  UNL     1      64.048  49.145  29.474  1.00  0.00     0.018 C 
HETATM   15  C7  UNL     1      63.960  49.387  28.028  1.00  0.00    -0.013 C 
HETATM   16  C8  UNL     1      62.511  49.195  27.617  1.00  0.00     0.009 C 
HETATM   17  C12 UNL     1      64.882  48.480  27.236  1.00  0.00     0.009 C 
HETATM   18  C9  UNL     1      62.157  47.788  27.928  1.00  0.00    -0.013 C 
HETATM   19  C10 UNL     1      63.065  46.873  27.111  1.00  0.00     0.009 C 
HETATM   20  C14 UNL     1      62.335  47.446  29.384  1.00  0.00     0.018 C 
HETATM   21  C11 UNL     1      64.455  47.062  27.626  1.00  0.00    -0.013 C 
HETATM   22  C13 UNL     1      64.649  46.828  29.076  1.00  0.00     0.018 C 
ENDBRANCH   2  13
TORSDOF 3
ENDMDL
MODEL 2
REMARK VINA RESULT: -10.252562017      1.089      6.086
REMARK  3 active torsions:
REMARK  status: ('A' for Active; 'I' for Inactive)
REMARK    1  A    between atoms: C2_3  and  C3_4 
REMARK    2  A    between atoms: C3_4  and  C15_16 
REMARK    3  A    between atoms: C4_5  and  C5_6 
ROOT
HETATM    1  C3  UNL     1      64.777  47.416  30.354  1.00  0.00    -0.056 C 
HETATM    2  C4  UNL     1      64.368  48.267  31.430  1.00  0.00    -0.010 C 
ENDROOT
BRANCH   1   3
HETATM    3  C2  UNL     1      65.997  46.888  29.865  1.00  0.00     0.022 C 
HETATM    4  C1  UNL     1      67.023  45.987  30.320  1.00  0.00     0.100 C 
HETATM    5  N1  UNL     1      67.886  46.265  31.412  1.00  0.00    -0.115 NA
ENDBRANCH   1   3
BRANCH   1   6
HETATM    6  C15 UNL     1      63.962  47.871  29.094  1.00  0.00     0.023 C 
HETATM    7  C16 UNL     1      63.914  46.911  27.980  1.00  0.00     0.014 C 
HETATM    8  C17 UNL     1      62.655  47.456  27.256  1.00  0.00    -0.013 C 
HETATM    9  C18 UNL     1      62.690  48.953  27.172  1.00  0.00     0.005 C 
HETATM   10  C21 UNL     1      61.697  47.288  28.452  1.00  0.00     0.010 C 
HETATM   11  C19 UNL     1      62.274  49.487  28.556  1.00  0.00     0.005 C 
HETATM   12  C20 UNL     1      62.549  48.196  29.370  1.00  0.00    -0.006 C 
ENDBRANCH   1   6
BRANCH   2  13
HETATM   13  C5  UNL     1      64.426  48.106  32.880  1.00  0.00    -0.021 C 
HETATM   14  C6  UNL     1      64.250  49.576  33.389  1.00  0.00     0.018 C 
HETATM   15  C7  UNL     1      64.128  49.691  34.848  1.00  0.00    -0.013 C 
HETATM   16  C8  UNL     1      65.429  49.202  35.458  1.00  0.00     0.009 C 
HETATM   17  C12 UNL     1      62.941  48.916  35.389  1.00  0.00     0.009 C 
HETATM   18  C9  UNL     1      65.584  47.781  35.062  1.00  0.00    -0.013 C 
HETATM   19  C10 UNL     1      64.406  46.994  35.629  1.00  0.00     0.009 C 
HETATM   20  C14 UNL     1      65.603  47.586  33.569  1.00  0.00     0.018 C 
HETATM   21  C11 UNL     1      63.179  47.476  34.926  1.00  0.00    -0.013 C 
HETATM   22  C13 UNL     1      63.200  47.389  33.448  1.00  0.00     0.018 C 
ENDBRANCH   2  13
TORSDOF 3
ENDMDL
MODEL 3
REMARK VINA RESULT: -10.204278659      1.164      6.063
REMARK  3 active torsions:
REMARK  status: ('A' for Active; 'I' for Inactive)
REMARK    1  A    between atoms: C2_3  and  C3_4 
REMARK    2  A    between atoms: C3_4  and  C15_16 
REMARK    3  A    between atoms: C4_5  and  C5_6 
ROOT
HETATM    1  C3  UNL     1      64.485  47.207  30.514  1.00  0.00    -0.056 C 
HETATM    2  C4  UNL     1      64.217  48.320  31.374  1.00  0.00    -0.010 C 
ENDROOT
BRANCH   1   3
HETATM    3  C2  UNL     1      65.624  46.471  30.107  1.00  0.00     0.022 C 
HETATM    4  C1  UNL     1      66.176  45.159  30.328  1.00  0.00     0.100 C 
HETATM    5  N1  UNL     1      66.662  44.713  31.585  1.00  0.00    -0.115 NA
ENDBRANCH   1   3
BRANCH   1   6
HETATM    6  C15 UNL     1      63.624  47.428  29.222  1.00  0.00     0.023 C 
HETATM    7  C16 UNL     1      62.289  46.811  29.228  1.00  0.00     0.014 C 
HETATM    8  C17 UNL     1      61.626  47.679  28.124  1.00  0.00    -0.013 C 
HETATM    9  C18 UNL     1      62.547  47.855  26.955  1.00  0.00     0.005 C 
HETATM   10  C21 UNL     1      61.846  49.031  28.831  1.00  0.00     0.010 C 
HETATM   11  C19 UNL     1      63.574  48.932  27.354  1.00  0.00     0.005 C 
HETATM   12  C20 UNL     1      63.381  48.846  28.891  1.00  0.00    -0.006 C 
ENDBRANCH   1   6
BRANCH   2  13
HETATM   13  C5  UNL     1      64.361  48.496  32.817  1.00  0.00    -0.021 C 
HETATM   14  C6  UNL     1      63.296  47.498  33.386  1.00  0.00     0.018 C 
HETATM   15  C7  UNL     1      63.324  47.367  34.848  1.00  0.00    -0.013 C 
HETATM   16  C8  UNL     1      62.970  48.720  35.438  1.00  0.00     0.009 C 
HETATM   17  C12 UNL     1      64.667  46.879  35.357  1.00  0.00     0.009 C 
HETATM   18  C9  UNL     1      64.012  49.674  34.985  1.00  0.00    -0.013 C 
HETATM   19  C10 UNL     1      65.361  49.201  35.519  1.00  0.00     0.009 C 
HETATM   20  C14 UNL     1      64.109  49.769  33.485  1.00  0.00     0.018 C 
HETATM   21  C11 UNL     1      65.673  47.909  34.836  1.00  0.00    -0.013 C 
HETATM   22  C13 UNL     1      65.682  47.942  33.355  1.00  0.00     0.018 C 
ENDBRANCH   2  13
TORSDOF 3
ENDMDL
MODEL 4
REMARK VINA RESULT: -9.944209158      0.683      1.315
REMARK  3 active torsions:
REMARK  status: ('A' for Active; 'I' for Inactive)
REMARK    1  A    between atoms: C2_3  and  C3_4 
REMARK    2  A    between atoms: C3_4  and  C15_16 
REMARK    3  A    between atoms: C4_5  and  C5_6 
ROOT
HETATM    1  C3  UNL     1      65.305  47.424  31.840  1.00  0.00    -0.056 C 
HETATM    2  C4  UNL     1      64.056  47.198  31.178  1.00  0.00    -0.010 C 
ENDROOT
BRANCH   1   3
HETATM    3  C2  UNL     1      66.632  46.939  31.729  1.00  0.00     0.022 C 
HETATM    4  C1  UNL     1      67.394  46.127  30.817  1.00  0.00     0.100 C 
HETATM    5  N1  UNL     1      67.150  44.744  30.604  1.00  0.00    -0.115 NA
ENDBRANCH   1   3
BRANCH   1   6
HETATM    6  C15 UNL     1      64.990  47.485  33.374  1.00  0.00     0.023 C 
HETATM    7  C16 UNL     1      66.139  47.298  34.273  1.00  0.00     0.014 C 
HETATM    8  C17 UNL     1      65.546  47.950  35.550  1.00  0.00    -0.013 C 
HETATM    9  C18 UNL     1      64.131  47.508  35.771  1.00  0.00     0.005 C 
HETATM   10  C21 UNL     1      65.287  49.332  34.918  1.00  0.00     0.010 C 
HETATM   11  C19 UNL     1      63.252  48.321  34.801  1.00  0.00     0.005 C 
HETATM   12  C20 UNL     1      64.371  48.751  33.816  1.00  0.00    -0.006 C 
ENDBRANCH   1   6
BRANCH   2  13
HETATM   13  C5  UNL     1      63.616  47.449  29.808  1.00  0.00    -0.021 C 
HETATM   14  C6  UNL     1      64.105  48.916  29.561  1.00  0.00     0.018 C 
HETATM   15  C7  UNL     1      63.913  49.384  28.182  1.00  0.00    -0.013 C 
HETATM   16  C8  UNL     1      62.420  49.400  27.906  1.00  0.00     0.009 C 
HETATM   17  C12 UNL     1      64.650  48.523  27.175  1.00  0.00     0.009 C 
HETATM   18  C9  UNL     1      61.940  48.003  28.050  1.00  0.00    -0.013 C 
HETATM   19  C10 UNL     1      62.660  47.140  27.018  1.00  0.00     0.009 C 
HETATM   20  C14 UNL     1      62.211  47.427  29.414  1.00  0.00     0.018 C 
HETATM   21  C11 UNL     1      64.104  47.111  27.402  1.00  0.00    -0.013 C 
HETATM   22  C13 UNL     1      64.402  46.640  28.775  1.00  0.00     0.018 C 
ENDBRANCH   2  13
TORSDOF 3
ENDMDL
MODEL 5
REMARK VINA RESULT: -9.877020625      0.624      1.763
REMARK  3 active torsions:
REMARK  status: ('A' for Active; 'I' for Inactive)
REMARK    1  A    between atoms: C2_3  and  C3_4 
REMARK    2  A    between atoms: C3_4  and  C15_16 
REMARK    3  A    between atoms: C4_5  and  C5_6 
ROOT
HETATM    1  C3  UNL     1      65.162  47.923  32.103  1.00  0.00    -0.056 C 
HETATM    2  C4  UNL     1      64.078  47.773  31.181  1.00  0.00    -0.010 C 
ENDROOT
BRANCH   1   3
HETATM    3  C2  UNL     1      66.373  47.245  32.388  1.00  0.00     0.022 C 
HETATM    4  C1  UNL     1      67.559  46.844  31.678  1.00  0.00     0.100 C 
HETATM    5  N1  UNL     1      67.564  45.871  30.643  1.00  0.00    -0.115 NA
ENDBRANCH   1   3
BRANCH   1   6
HETATM    6  C15 UNL     1      64.521  48.272  33.490  1.00  0.00     0.023 C 
HETATM    7  C16 UNL     1      63.334  47.488  33.863  1.00  0.00     0.014 C 
HETATM    8  C17 UNL     1      63.370  47.726  35.397  1.00  0.00    -0.013 C 
HETATM    9  C18 UNL     1      63.651  49.164  35.710  1.00  0.00     0.005 C 
HETATM   10  C21 UNL     1      64.777  47.135  35.617  1.00  0.00     0.010 C 
HETATM   11  C19 UNL     1      65.165  49.375  35.520  1.00  0.00     0.005 C 
HETATM   12  C20 UNL     1      65.440  48.130  34.636  1.00  0.00    -0.006 C 
ENDBRANCH   1   6
BRANCH   2  13
HETATM   13  C5  UNL     1      64.013  47.862  29.724  1.00  0.00    -0.021 C 
HETATM   14  C6  UNL     1      62.478  47.724  29.446  1.00  0.00     0.018 C 
HETATM   15  C7  UNL     1      62.107  47.923  28.039  1.00  0.00    -0.013 C 
HETATM   16  C8  UNL     1      62.768  46.822  27.230  1.00  0.00     0.009 C 
HETATM   17  C12 UNL     1      62.502  49.295  27.528  1.00  0.00     0.009 C 
HETATM   18  C9  UNL     1      64.233  46.977  27.405  1.00  0.00    -0.013 C 
HETATM   19  C10 UNL     1      64.638  48.346  26.866  1.00  0.00     0.009 C 
HETATM   20  C14 UNL     1      64.664  46.895  28.846  1.00  0.00     0.018 C 
HETATM   21  C11 UNL     1      64.015  49.370  27.758  1.00  0.00    -0.013 C 
HETATM   22  C13 UNL     1      64.340  49.261  29.199  1.00  0.00     0.018 C 
ENDBRANCH   2  13
TORSDOF 3
ENDMDL
