MODEL 1
REMARK VINA RESULT: -7.966354780      0.000      0.000
REMARK  8 active torsions:
REMARK  status: ('A' for Active; 'I' for Inactive)
REMARK    1  A    between atoms: C3_3  and  C4_4 
REMARK    2  A    between atoms: C4_4  and  N1_6 
REMARK    3  A    between atoms: C4_4  and  C6_10 
REMARK    4  A    between atoms: C14_18  and  C15_19 
REMARK    5  A    between atoms: C15_19  and  C16_20 
REMARK    6  A    between atoms: C16_20  and  C18_22 
REMARK    7  A    between atoms: C18_22  and  C19_23 
REMARK    8  A    between atoms: C19_23  and  C20_24 
ROOT
HETATM    1  C1  UNL     1      61.605  46.792  33.343  1.00  0.00     0.112 C 
HETATM    2  C2  UNL     1      62.970  47.099  33.749  1.00  0.00    -0.108 C 
HETATM    3  C3  UNL     1      64.097  47.339  34.102  1.00  0.00    -0.067 C 
ENDROOT
BRANCH   3   4
HETATM    4  C4  UNL     1      65.480  47.643  34.558  1.00  0.00     0.190 C 
HETATM    5  C5  UNL     1      65.540  49.107  34.755  1.00  0.00     0.061 C 
BRANCH   4   6
HETATM    6  N1  UNL     1      65.619  46.995  35.838  1.00  0.00    -0.059 N 
ATOM      7  H13 UNL     1      64.905  47.266  36.514  1.00  0.00     0.276 HD
ATOM      8  H12 UNL     1      65.396  46.000  35.819  1.00  0.00     0.276 HD
ATOM      9  H11 UNL     1      66.571  47.195  36.146  1.00  0.00     0.276 HD
ENDBRANCH   4   6
BRANCH   4  10
HETATM   10  C6  UNL     1      66.456  47.059  33.555  1.00  0.00     0.008 C 
HETATM   11  C7  UNL     1      67.312  48.259  33.182  1.00  0.00     0.019 C 
HETATM   12  C8  UNL     1      67.360  46.036  34.147  1.00  0.00    -0.003 C 
HETATM   13  C9  UNL     1      68.552  45.858  33.214  1.00  0.00     0.006 C 
HETATM   14  C13 UNL     1      66.761  44.653  34.250  1.00  0.00     0.006 C 
HETATM   15  C10 UNL     1      67.994  45.448  31.884  1.00  0.00     0.005 C 
HETATM   16  C11 UNL     1      66.497  45.245  31.902  1.00  0.00    -0.010 C 
HETATM   17  C12 UNL     1      66.188  44.193  32.936  1.00  0.00     0.005 C 
HETATM   18  C14 UNL     1      65.773  46.520  32.333  1.00  0.00     0.002 C 
BRANCH  18  19
HETATM   19  C15 UNL     1      65.795  47.446  31.169  1.00  0.00     0.010 C 
BRANCH  19  20
HETATM   20  C16 UNL     1      64.492  47.700  30.496  1.00  0.00    -0.018 C 
HETATM   21  C17 UNL     1      63.788  48.962  30.847  1.00  0.00     0.010 C 
BRANCH  20  22
HETATM   22  C18 UNL     1      64.835  47.787  28.992  1.00  0.00     0.004 C 
BRANCH  22  23
HETATM   23  C19 UNL     1      63.914  46.873  28.250  1.00  0.00     0.000 C 
BRANCH  23  24
HETATM   24  C20 UNL     1      62.764  47.615  27.645  1.00  0.00    -0.005 C 
HETATM   25  C21 UNL     1      63.130  49.022  27.282  1.00  0.00     0.005 C 
ENDBRANCH  23  24
ENDBRANCH  22  23
ENDBRANCH  20  22
ENDBRANCH  19  20
ENDBRANCH  18  19
ENDBRANCH   4  10
ENDBRANCH   3   4
TORSDOF 8
ENDMDL
MODEL 2
REMARK VINA RESULT: -7.907807561      0.640      1.162
REMARK  8 active torsions:
REMARK  status: ('A' for Active; 'I' for Inactive)
REMARK    1  A    between atoms: C3_3  and  C4_4 
REMARK    2  A    between atoms: C4_4  and  N1_6 
REMARK    3  A    between atoms: C4_4  and  C6_10 
REMARK    4  A    between atoms: C14_18  and  C15_19 
REMARK    5  A    between atoms: C15_19  and  C16_20 
REMARK    6  A    between atoms: C16_20  and  C18_22 
REMARK    7  A    between atoms: C18_22  and  C19_23 
REMARK    8  A    between atoms: C19_23  and  C20_24 
ROOT
HETATM    1  C1  UNL     1      61.603  46.801  33.208  1.00  0.00     0.112 C 
HETATM    2  C2  UNL     1      62.954  47.101  33.664  1.00  0.00    -0.108 C 
HETATM    3  C3  UNL     1      64.072  47.332  34.051  1.00  0.00    -0.067 C 
ENDROOT
BRANCH   3   4
HETATM    4  C4  UNL     1      65.443  47.615  34.553  1.00  0.00     0.190 C 
HETATM    5  C5  UNL     1      65.502  49.072  34.803  1.00  0.00     0.061 C 
BRANCH   4   6
HETATM    6  N1  UNL     1      65.549  46.922  35.813  1.00  0.00    -0.059 N 
ATOM      7  H13 UNL     1      65.799  47.529  36.593  1.00  0.00     0.276 HD
ATOM      8  H12 UNL     1      64.651  46.611  36.184  1.00  0.00     0.276 HD
ATOM      9  H11 UNL     1      66.212  46.163  35.655  1.00  0.00     0.276 HD
ENDBRANCH   4   6
BRANCH   4  10
HETATM   10  C6  UNL     1      66.443  47.064  33.555  1.00  0.00     0.008 C 
HETATM   11  C7  UNL     1      67.310  48.274  33.246  1.00  0.00     0.019 C 
HETATM   12  C8  UNL     1      67.330  46.019  34.133  1.00  0.00    -0.003 C 
HETATM   13  C9  UNL     1      68.545  45.870  33.225  1.00  0.00     0.006 C 
HETATM   14  C13 UNL     1      66.726  44.635  34.174  1.00  0.00     0.006 C 
HETATM   15  C10 UNL     1      68.019  45.507  31.868  1.00  0.00     0.005 C 
HETATM   16  C11 UNL     1      66.522  45.308  31.842  1.00  0.00    -0.010 C 
HETATM   17  C12 UNL     1      66.185  44.222  32.831  1.00  0.00     0.005 C 
HETATM   18  C14 UNL     1      65.790  46.569  32.298  1.00  0.00     0.002 C 
BRANCH  18  19
HETATM   19  C15 UNL     1      65.842  47.535  31.168  1.00  0.00     0.010 C 
BRANCH  19  20
HETATM   20  C16 UNL     1      64.602  47.681  30.358  1.00  0.00    -0.018 C 
HETATM   21  C17 UNL     1      63.782  48.898  30.598  1.00  0.00     0.010 C 
BRANCH  20  22
HETATM   22  C18 UNL     1      65.092  47.758  28.895  1.00  0.00     0.004 C 
BRANCH  22  23
HETATM   23  C19 UNL     1      64.171  46.937  28.051  1.00  0.00     0.000 C 
BRANCH  23  24
HETATM   24  C20 UNL     1      63.672  45.732  28.785  1.00  0.00    -0.005 C 
HETATM   25  C21 UNL     1      64.488  44.512  28.485  1.00  0.00     0.005 C 
ENDBRANCH  23  24
ENDBRANCH  22  23
ENDBRANCH  20  22
ENDBRANCH  19  20
ENDBRANCH  18  19
ENDBRANCH   4  10
ENDBRANCH   3   4
TORSDOF 8
ENDMDL
MODEL 3
REMARK VINA RESULT: -7.651700699      2.847      5.347
REMARK  8 active torsions:
REMARK  status: ('A' for Active; 'I' for Inactive)
REMARK    1  A    between atoms: C3_3  and  C4_4 
REMARK    2  A    between atoms: C4_4  and  N1_6 
REMARK    3  A    between atoms: C4_4  and  C6_10 
REMARK    4  A    between atoms: C14_18  and  C15_19 
REMARK    5  A    between atoms: C15_19  and  C16_20 
REMARK    6  A    between atoms: C16_20  and  C18_22 
REMARK    7  A    between atoms: C18_22  and  C19_23 
REMARK    8  A    between atoms: C19_23  and  C20_24 
ROOT
HETATM    1  C1  UNL     1      63.358  47.680  34.529  1.00  0.00     0.112 C 
HETATM    2  C2  UNL     1      63.965  47.449  33.225  1.00  0.00    -0.108 C 
HETATM    3  C3  UNL     1      64.461  47.277  32.140  1.00  0.00    -0.067 C 
ENDROOT
BRANCH   3   4
HETATM    4  C4  UNL     1      65.051  47.069  30.790  1.00  0.00     0.190 C 
HETATM    5  C5  UNL     1      66.467  47.487  30.886  1.00  0.00     0.061 C 
BRANCH   4   6
HETATM    6  N1  UNL     1      65.001  45.648  30.558  1.00  0.00    -0.059 N 
ATOM      7  H13 UNL     1      65.388  45.094  31.322  1.00  0.00     0.276 HD
ATOM      8  H12 UNL     1      64.058  45.261  30.594  1.00  0.00     0.276 HD
ATOM      9  H11 UNL     1      65.470  45.497  29.665  1.00  0.00     0.276 HD
ENDBRANCH   4   6
BRANCH   4  10
HETATM   10  C6  UNL     1      64.200  47.807  29.776  1.00  0.00     0.008 C 
HETATM   11  C7  UNL     1      63.660  48.980  30.579  1.00  0.00     0.019 C 
HETATM   12  C8  UNL     1      64.991  48.370  28.648  1.00  0.00    -0.003 C 
HETATM   13  C9  UNL     1      64.149  49.438  27.961  1.00  0.00     0.006 C 
HETATM   14  C13 UNL     1      65.308  47.383  27.549  1.00  0.00     0.006 C 
HETATM   15  C10 UNL     1      62.889  48.760  27.512  1.00  0.00     0.005 C 
HETATM   16  C11 UNL     1      62.885  47.273  27.773  1.00  0.00    -0.010 C 
HETATM   17  C12 UNL     1      64.071  46.677  27.060  1.00  0.00     0.005 C 
HETATM   18  C14 UNL     1      63.063  46.974  29.261  1.00  0.00     0.002 C 
BRANCH  18  19
HETATM   19  C15 UNL     1      61.760  47.256  29.921  1.00  0.00     0.010 C 
BRANCH  19  20
HETATM   20  C16 UNL     1      60.603  46.422  29.494  1.00  0.00    -0.018 C 
HETATM   21  C17 UNL     1      59.755  45.847  30.571  1.00  0.00     0.010 C 
BRANCH  20  22
HETATM   22  C18 UNL     1      59.702  47.382  28.686  1.00  0.00     0.004 C 
BRANCH  22  23
HETATM   23  C19 UNL     1      58.386  46.709  28.464  1.00  0.00     0.000 C 
BRANCH  23  24
HETATM   24  C20 UNL     1      57.246  47.673  28.564  1.00  0.00    -0.005 C 
HETATM   25  C21 UNL     1      56.207  47.217  29.542  1.00  0.00     0.005 C 
ENDBRANCH  23  24
ENDBRANCH  22  23
ENDBRANCH  20  22
ENDBRANCH  19  20
ENDBRANCH  18  19
ENDBRANCH   4  10
ENDBRANCH   3   4
TORSDOF 8
ENDMDL
MODEL 4
REMARK VINA RESULT: -7.589746593      2.840      4.948
REMARK  8 active torsions:
REMARK  status: ('A' for Active; 'I' for Inactive)
REMARK    1  A    between atoms: C3_3  and  C4_4 
REMARK    2  A    between atoms: C4_4  and  N1_6 
REMARK    3  A    between atoms: C4_4  and  C6_10 
REMARK    4  A    between atoms: C14_18  and  C15_19 
REMARK    5  A    between atoms: C15_19  and  C16_20 
REMARK    6  A    between atoms: C16_20  and  C18_22 
REMARK    7  A    between atoms: C18_22  and  C19_23 
REMARK    8  A    between atoms: C19_23  and  C20_24 
ROOT
HETATM    1  C1  UNL     1      67.946  46.632  32.871  1.00  0.00     0.112 C 
HETATM    2  C2  UNL     1      66.626  47.091  32.462  1.00  0.00    -0.108 C 
HETATM    3  C3  UNL     1      65.527  47.472  32.144  1.00  0.00    -0.067 C 
ENDROOT
BRANCH   3   4
HETATM    4  C4  UNL     1      64.162  47.922  31.762  1.00  0.00     0.190 C 
HETATM    5  C5  UNL     1      63.218  47.111  32.561  1.00  0.00     0.061 C 
BRANCH   4   6
HETATM    6  N1  UNL     1      64.071  49.296  32.188  1.00  0.00    -0.059 N 
ATOM      7  H13 UNL     1      64.378  49.448  33.149  1.00  0.00     0.276 HD
ATOM      8  H12 UNL     1      64.755  49.908  31.744  1.00  0.00     0.276 HD
ATOM      9  H11 UNL     1      63.103  49.573  32.020  1.00  0.00     0.276 HD
ENDBRANCH   4   6
BRANCH   4  10
HETATM   10  C6  UNL     1      64.027  47.820  30.255  1.00  0.00     0.008 C 
HETATM   11  C7  UNL     1      63.557  49.213  29.865  1.00  0.00     0.019 C 
HETATM   12  C8  UNL     1      65.325  47.582  29.567  1.00  0.00    -0.003 C 
HETATM   13  C9  UNL     1      65.158  47.942  28.096  1.00  0.00     0.006 C 
HETATM   14  C13 UNL     1      65.769  46.138  29.547  1.00  0.00     0.006 C 
HETATM   15  C10 UNL     1      64.049  47.080  27.571  1.00  0.00     0.005 C 
HETATM   16  C11 UNL     1      63.532  46.089  28.587  1.00  0.00    -0.010 C 
HETATM   17  C12 UNL     1      64.689  45.229  29.023  1.00  0.00     0.005 C 
HETATM   18  C14 UNL     1      63.010  46.801  29.834  1.00  0.00     0.002 C 
BRANCH  18  19
HETATM   19  C15 UNL     1      61.685  47.379  29.484  1.00  0.00     0.010 C 
BRANCH  19  20
HETATM   20  C16 UNL     1      60.547  46.424  29.384  1.00  0.00    -0.018 C 
HETATM   21  C17 UNL     1      59.965  45.936  30.663  1.00  0.00     0.010 C 
BRANCH  20  22
HETATM   22  C18 UNL     1      59.432  47.211  28.660  1.00  0.00     0.004 C 
BRANCH  22  23
HETATM   23  C19 UNL     1      58.180  46.395  28.707  1.00  0.00     0.000 C 
BRANCH  23  24
HETATM   24  C20 UNL     1      57.029  47.178  29.254  1.00  0.00    -0.005 C 
HETATM   25  C21 UNL     1      56.645  48.316  28.358  1.00  0.00     0.005 C 
ENDBRANCH  23  24
ENDBRANCH  22  23
ENDBRANCH  20  22
ENDBRANCH  19  20
ENDBRANCH  18  19
ENDBRANCH   4  10
ENDBRANCH   3   4
TORSDOF 8
ENDMDL
MODEL 5
REMARK VINA RESULT: -7.482899997      0.730      1.043
REMARK  8 active torsions:
REMARK  status: ('A' for Active; 'I' for Inactive)
REMARK    1  A    between atoms: C3_3  and  C4_4 
REMARK    2  A    between atoms: C4_4  and  N1_6 
REMARK    3  A    between atoms: C4_4  and  C6_10 
REMARK    4  A    between atoms: C14_18  and  C15_19 
REMARK    5  A    between atoms: C15_19  and  C16_20 
REMARK    6  A    between atoms: C16_20  and  C18_22 
REMARK    7  A    between atoms: C18_22  and  C19_23 
REMARK    8  A    between atoms: C19_23  and  C20_24 
ROOT
HETATM    1  C1  UNL     1      61.518  46.793  33.121  1.00  0.00     0.112 C 
HETATM    2  C2  UNL     1      62.860  47.106  33.593  1.00  0.00    -0.108 C 
HETATM    3  C3  UNL     1      63.978  47.344  33.980  1.00  0.00    -0.067 C 
ENDROOT
BRANCH   3   4
HETATM    4  C4  UNL     1      65.353  47.620  34.475  1.00  0.00     0.190 C 
HETATM    5  C5  UNL     1      65.426  49.079  34.707  1.00  0.00     0.061 C 
BRANCH   4   6
HETATM    6  N1  UNL     1      65.455  46.941  35.742  1.00  0.00    -0.059 N 
ATOM      7  H13 UNL     1      64.554  46.767  36.187  1.00  0.00     0.276 HD
ATOM      8  H12 UNL     1      65.741  45.966  35.661  1.00  0.00     0.276 HD
ATOM      9  H11 UNL     1      66.087  47.507  36.308  1.00  0.00     0.276 HD
ENDBRANCH   4   6
BRANCH   4  10
HETATM   10  C6  UNL     1      66.344  47.048  33.480  1.00  0.00     0.008 C 
HETATM   11  C7  UNL     1      67.119  48.278  33.034  1.00  0.00     0.019 C 
HETATM   12  C8  UNL     1      67.319  46.111  34.101  1.00  0.00    -0.003 C 
HETATM   13  C9  UNL     1      68.503  45.959  33.154  1.00  0.00     0.006 C 
HETATM   14  C13 UNL     1      66.807  44.701  34.282  1.00  0.00     0.006 C 
HETATM   15  C10 UNL     1      67.948  45.452  31.857  1.00  0.00     0.005 C 
HETATM   16  C11 UNL     1      66.467  45.161  31.915  1.00  0.00    -0.010 C 
HETATM   17  C12 UNL     1      66.240  44.145  33.004  1.00  0.00     0.005 C 
HETATM   18  C14 UNL     1      65.674  46.410  32.299  1.00  0.00     0.002 C 
BRANCH  18  19
HETATM   19  C15 UNL     1      65.619  47.279  31.093  1.00  0.00     0.010 C 
BRANCH  19  20
HETATM   20  C16 UNL     1      65.389  46.596  29.791  1.00  0.00    -0.018 C 
HETATM   21  C17 UNL     1      64.036  46.022  29.563  1.00  0.00     0.010 C 
BRANCH  20  22
HETATM   22  C18 UNL     1      65.588  47.698  28.726  1.00  0.00     0.004 C 
BRANCH  22  23
HETATM   23  C19 UNL     1      64.613  48.797  29.005  1.00  0.00     0.000 C 
BRANCH  23  24
HETATM   24  C20 UNL     1      64.085  49.403  27.743  1.00  0.00    -0.005 C 
HETATM   25  C21 UNL     1      62.657  49.024  27.490  1.00  0.00     0.005 C 
ENDBRANCH  23  24
ENDBRANCH  22  23
ENDBRANCH  20  22
ENDBRANCH  19  20
ENDBRANCH  18  19
ENDBRANCH   4  10
ENDBRANCH   3   4
TORSDOF 8
ENDMDL
