MODEL 1
REMARK VINA RESULT: -8.642254373      0.000      0.000
REMARK  4 active torsions:
REMARK  status: ('A' for Active; 'I' for Inactive)
REMARK    1  A    between atoms: C2_3  and  C7_13 
REMARK    2  A    between atoms: N2_4  and  N3_6 
REMARK    3  A    between atoms: C6_10  and  O1_11 
REMARK       I    between atoms: C7_13  and  N4_15 
REMARK    4  A    between atoms: N4_15  and  C8_17 
ROOT
HETATM    1  N1  UNL     1      22.550   2.483  51.136  1.00  0.00    -0.190 NA
HETATM    2  C1  UNL     1      22.930   3.488  50.708  1.00  0.00     0.125 C 
HETATM    3  C2  UNL     1      23.396   4.760  50.187  1.00  0.00     0.197 C 
HETATM    4  N2  UNL     1      24.576   5.075  50.420  1.00  0.00    -0.278 N 
ATOM      5  H2  UNL     1      25.130   4.413  50.963  1.00  0.00     0.188 HD
ENDROOT
BRANCH   3   6
HETATM    6  C7  UNL     1      22.467   5.566  49.438  1.00  0.00     0.284 C 
HETATM    7  O2  UNL     1      22.289   6.739  49.796  1.00  0.00    -0.265 OA
HETATM    8  N4  UNL     1      21.769   5.049  48.325  1.00  0.00    -0.321 N 
ATOM      9  H4  UNL     1      21.970   4.075  48.099  1.00  0.00     0.169 HD
BRANCH   8  10
HETATM   10  C8  UNL     1      20.845   5.676  47.490  1.00  0.00     0.035 A 
HETATM   11  C9  UNL     1      19.727   6.341  47.888  1.00  0.00     0.029 A 
HETATM   12  C10 UNL     1      18.840   6.932  46.968  1.00  0.00     0.002 A 
HETATM   13  C11 UNL     1      19.065   6.865  45.624  1.00  0.00     0.000 A 
HETATM   14  C12 UNL     1      20.190   6.199  45.195  1.00  0.00     0.002 A 
HETATM   15  C13 UNL     1      21.049   5.626  46.103  1.00  0.00     0.029 A 
ENDBRANCH   8  10
ENDBRANCH   3   6
BRANCH   4  16
HETATM   16  N3  UNL     1      25.206   6.227  50.020  1.00  0.00    -0.244 N 
HETATM   17  C3  UNL     1      25.436   7.320  50.792  1.00  0.00     0.119 A 
HETATM   18  C4  UNL     1      26.099   8.284  50.088  1.00  0.00     0.024 A 
HETATM   19  C5  UNL     1      26.278   7.756  48.838  1.00  0.00     0.059 A 
HETATM   20  C6  UNL     1      25.728   6.499  48.811  1.00  0.00     0.161 A 
BRANCH  20  21
HETATM   21  O1  UNL     1      25.719   5.646  47.694  1.00  0.00    -0.345 OA
ATOM     22  H1  UNL     1      26.222   4.846  47.597  1.00  0.00     0.219 HD
ENDBRANCH  20  21
ENDBRANCH   4  16
TORSDOF 4
ENDMDL
MODEL 2
REMARK VINA RESULT: -8.552310021      0.116      1.077
REMARK  4 active torsions:
REMARK  status: ('A' for Active; 'I' for Inactive)
REMARK    1  A    between atoms: C2_3  and  C7_13 
REMARK    2  A    between atoms: N2_4  and  N3_6 
REMARK    3  A    between atoms: C6_10  and  O1_11 
REMARK       I    between atoms: C7_13  and  N4_15 
REMARK    4  A    between atoms: N4_15  and  C8_17 
ROOT
HETATM    1  N1  UNL     1      22.579   2.487  51.178  1.00  0.00    -0.190 NA
HETATM    2  C1  UNL     1      22.961   3.487  50.741  1.00  0.00     0.125 C 
HETATM    3  C2  UNL     1      23.430   4.753  50.209  1.00  0.00     0.197 C 
HETATM    4  N2  UNL     1      24.602   5.082  50.465  1.00  0.00    -0.278 N 
ATOM      5  H2  UNL     1      25.148   4.433  51.032  1.00  0.00     0.188 HD
ENDROOT
BRANCH   3   6
HETATM    6  C7  UNL     1      22.513   5.538  49.425  1.00  0.00     0.284 C 
HETATM    7  O2  UNL     1      22.332   6.722  49.746  1.00  0.00    -0.265 OA
HETATM    8  N4  UNL     1      21.831   4.992  48.317  1.00  0.00    -0.321 N 
ATOM      9  H4  UNL     1      22.034   4.011  48.121  1.00  0.00     0.169 HD
BRANCH   8  10
HETATM   10  C8  UNL     1      20.920   5.596  47.451  1.00  0.00     0.035 A 
HETATM   11  C9  UNL     1      21.006   5.632  46.094  1.00  0.00     0.029 A 
HETATM   12  C10 UNL     1      20.042   6.282  45.300  1.00  0.00     0.002 A 
HETATM   13  C11 UNL     1      18.969   6.910  45.861  1.00  0.00     0.000 A 
HETATM   14  C12 UNL     1      18.857   6.888  47.232  1.00  0.00     0.002 A 
HETATM   15  C13 UNL     1      19.805   6.249  47.997  1.00  0.00     0.029 A 
ENDBRANCH   8  10
ENDBRANCH   3   6
BRANCH   4  16
HETATM   16  N3  UNL     1      25.232   6.230  50.058  1.00  0.00    -0.244 N 
HETATM   17  C3  UNL     1      25.465   7.327  50.827  1.00  0.00     0.119 A 
HETATM   18  C4  UNL     1      26.128   8.287  50.118  1.00  0.00     0.024 A 
HETATM   19  C5  UNL     1      26.306   7.754  48.870  1.00  0.00     0.059 A 
HETATM   20  C6  UNL     1      25.754   6.497  48.849  1.00  0.00     0.161 A 
BRANCH  20  21
HETATM   21  O1  UNL     1      25.744   5.639  47.735  1.00  0.00    -0.345 OA
ATOM     22  H1  UNL     1      26.285   4.867  47.619  1.00  0.00     0.219 HD
ENDBRANCH  20  21
ENDBRANCH   4  16
TORSDOF 4
ENDMDL
MODEL 3
REMARK VINA RESULT: -8.451889321      0.950      1.401
REMARK  4 active torsions:
REMARK  status: ('A' for Active; 'I' for Inactive)
REMARK    1  A    between atoms: C2_3  and  C7_13 
REMARK    2  A    between atoms: N2_4  and  N3_6 
REMARK    3  A    between atoms: C6_10  and  O1_11 
REMARK       I    between atoms: C7_13  and  N4_15 
REMARK    4  A    between atoms: N4_15  and  C8_17 
ROOT
HETATM    1  N1  UNL     1      22.476   2.398  51.179  1.00  0.00    -0.190 NA
HETATM    2  C1  UNL     1      22.883   3.397  50.762  1.00  0.00     0.125 C 
HETATM    3  C2  UNL     1      23.384   4.661  50.256  1.00  0.00     0.197 C 
HETATM    4  N2  UNL     1      24.563   4.957  50.522  1.00  0.00    -0.278 N 
ATOM      5  H2  UNL     1      25.091   4.285  51.078  1.00  0.00     0.188 HD
ENDROOT
BRANCH   3   6
HETATM    6  C7  UNL     1      22.489   5.484  49.485  1.00  0.00     0.284 C 
HETATM    7  O2  UNL     1      22.358   6.672  49.811  1.00  0.00    -0.265 OA
HETATM    8  N4  UNL     1      21.773   4.966  48.384  1.00  0.00    -0.321 N 
ATOM      9  H4  UNL     1      21.936   3.979  48.183  1.00  0.00     0.169 HD
BRANCH   8  10
HETATM   10  C8  UNL     1      20.876   5.607  47.530  1.00  0.00     0.035 A 
HETATM   11  C9  UNL     1      19.773   6.309  47.906  1.00  0.00     0.029 A 
HETATM   12  C10 UNL     1      18.914   6.912  46.969  1.00  0.00     0.002 A 
HETATM   13  C11 UNL     1      19.150   6.819  45.628  1.00  0.00     0.000 A 
HETATM   14  C12 UNL     1      20.260   6.115  45.220  1.00  0.00     0.002 A 
HETATM   15  C13 UNL     1      21.093   5.530  46.146  1.00  0.00     0.029 A 
ENDBRANCH   8  10
ENDBRANCH   3   6
BRANCH   4  16
HETATM   16  N3  UNL     1      25.222   6.098  50.140  1.00  0.00    -0.244 N 
HETATM   17  C3  UNL     1      25.794   6.320  48.927  1.00  0.00     0.119 A 
HETATM   18  C4  UNL     1      26.353   7.566  48.873  1.00  0.00     0.024 A 
HETATM   19  C5  UNL     1      26.112   8.121  50.100  1.00  0.00     0.059 A 
HETATM   20  C6  UNL     1      25.420   7.213  50.863  1.00  0.00     0.161 A 
BRANCH  20  21
HETATM   21  O1  UNL     1      24.993   7.429  52.185  1.00  0.00    -0.345 OA
ATOM     22  H1  UNL     1      24.635   8.237  52.532  1.00  0.00     0.219 HD
ENDBRANCH  20  21
ENDBRANCH   4  16
TORSDOF 4
ENDMDL
MODEL 4
REMARK VINA RESULT: -8.417861840      1.956      5.482
REMARK  4 active torsions:
REMARK  status: ('A' for Active; 'I' for Inactive)
REMARK    1  A    between atoms: C2_3  and  C7_13 
REMARK    2  A    between atoms: N2_4  and  N3_6 
REMARK    3  A    between atoms: C6_10  and  O1_11 
REMARK       I    between atoms: C7_13  and  N4_15 
REMARK    4  A    between atoms: N4_15  and  C8_17 
ROOT
HETATM    1  N1  UNL     1      23.658   4.043  51.084  1.00  0.00    -0.190 NA
HETATM    2  C1  UNL     1      23.129   4.685  50.281  1.00  0.00     0.125 C 
HETATM    3  C2  UNL     1      22.482   5.490  49.262  1.00  0.00     0.197 C 
HETATM    4  N2  UNL     1      21.695   4.913  48.491  1.00  0.00    -0.278 N 
ATOM      5  H2  UNL     1      21.563   3.912  48.634  1.00  0.00     0.188 HD
ENDROOT
BRANCH   3   6
HETATM    6  C7  UNL     1      22.793   6.895  49.212  1.00  0.00     0.284 C 
HETATM    7  O2  UNL     1      22.024   7.686  49.778  1.00  0.00    -0.265 OA
HETATM    8  N4  UNL     1      23.938   7.377  48.541  1.00  0.00    -0.321 N 
ATOM      9  H4  UNL     1      24.516   6.662  48.100  1.00  0.00     0.169 HD
BRANCH   8  10
HETATM   10  C8  UNL     1      24.393   8.686  48.394  1.00  0.00     0.035 A 
HETATM   11  C9  UNL     1      24.273   9.457  47.279  1.00  0.00     0.029 A 
HETATM   12  C10 UNL     1      24.779  10.769  47.218  1.00  0.00     0.002 A 
HETATM   13  C11 UNL     1      25.418  11.332  48.283  1.00  0.00     0.000 A 
HETATM   14  C12 UNL     1      25.552  10.575  49.424  1.00  0.00     0.002 A 
HETATM   15  C13 UNL     1      25.053   9.294  49.472  1.00  0.00     0.029 A 
ENDBRANCH   8  10
ENDBRANCH   3   6
BRANCH   4  16
HETATM   16  N3  UNL     1      20.988   5.491  47.467  1.00  0.00    -0.244 N 
HETATM   17  C3  UNL     1      21.252   5.357  46.141  1.00  0.00     0.119 A 
HETATM   18  C4  UNL     1      20.346   6.051  45.391  1.00  0.00     0.024 A 
HETATM   19  C5  UNL     1      19.497   6.628  46.296  1.00  0.00     0.059 A 
HETATM   20  C6  UNL     1      19.902   6.277  47.560  1.00  0.00     0.161 A 
BRANCH  20  21
HETATM   21  O1  UNL     1      19.273   6.681  48.750  1.00  0.00    -0.345 OA
ATOM     22  H1  UNL     1      18.457   6.339  49.096  1.00  0.00     0.219 HD
ENDBRANCH  20  21
ENDBRANCH   4  16
TORSDOF 4
ENDMDL
MODEL 5
REMARK VINA RESULT: -8.337389476      1.928      5.382
REMARK  4 active torsions:
REMARK  status: ('A' for Active; 'I' for Inactive)
REMARK    1  A    between atoms: C2_3  and  C7_13 
REMARK    2  A    between atoms: N2_4  and  N3_6 
REMARK    3  A    between atoms: C6_10  and  O1_11 
REMARK       I    between atoms: C7_13  and  N4_15 
REMARK    4  A    between atoms: N4_15  and  C8_17 
ROOT
HETATM    1  N1  UNL     1      23.631   3.923  51.091  1.00  0.00    -0.190 NA
HETATM    2  C1  UNL     1      23.112   4.584  50.297  1.00  0.00     0.125 C 
HETATM    3  C2  UNL     1      22.479   5.413  49.288  1.00  0.00     0.197 C 
HETATM    4  N2  UNL     1      21.693   4.856  48.501  1.00  0.00    -0.278 N 
ATOM      5  H2  UNL     1      21.551   3.854  48.625  1.00  0.00     0.188 HD
ENDROOT
BRANCH   3   6
HETATM    6  C7  UNL     1      22.802   6.816  49.266  1.00  0.00     0.284 C 
HETATM    7  O2  UNL     1      22.007   7.608  49.792  1.00  0.00    -0.265 OA
HETATM    8  N4  UNL     1      23.986   7.294  48.665  1.00  0.00    -0.321 N 
ATOM      9  H4  UNL     1      24.585   6.577  48.253  1.00  0.00     0.169 HD
BRANCH   8  10
HETATM   10  C8  UNL     1      24.458   8.601  48.554  1.00  0.00     0.035 A 
HETATM   11  C9  UNL     1      25.043   9.330  49.542  1.00  0.00     0.029 A 
HETATM   12  C10 UNL     1      25.476  10.654  49.340  1.00  0.00     0.002 A 
HETATM   13  C11 UNL     1      25.327  11.271  48.133  1.00  0.00     0.000 A 
HETATM   14  C12 UNL     1      24.739  10.556  47.115  1.00  0.00     0.002 A 
HETATM   15  C13 UNL     1      24.320   9.263  47.325  1.00  0.00     0.029 A 
ENDBRANCH   8  10
ENDBRANCH   3   6
BRANCH   4  16
HETATM   16  N3  UNL     1      20.998   5.459  47.483  1.00  0.00    -0.244 N 
HETATM   17  C3  UNL     1      21.268   5.345  46.156  1.00  0.00     0.119 A 
HETATM   18  C4  UNL     1      20.373   6.060  45.413  1.00  0.00     0.024 A 
HETATM   19  C5  UNL     1      19.525   6.631  46.324  1.00  0.00     0.059 A 
HETATM   20  C6  UNL     1      19.919   6.254  47.584  1.00  0.00     0.161 A 
BRANCH  20  21
HETATM   21  O1  UNL     1      19.287   6.645  48.777  1.00  0.00    -0.345 OA
ATOM     22  H1  UNL     1      19.572   7.339  49.360  1.00  0.00     0.219 HD
ENDBRANCH  20  21
ENDBRANCH   4  16
TORSDOF 4
ENDMDL
