MODEL 1
REMARK VINA RESULT: -7.455666458      0.000      0.000
REMARK  6 active torsions:
REMARK  status: ('A' for Active; 'I' for Inactive)
REMARK    1  A    between atoms: N1_2  and  C2_4 
REMARK    2  A    between atoms: C2_4  and  N2_6 
REMARK    3  A    between atoms: N2_6  and  N3_8 
REMARK    4  A    between atoms: C3_10  and  C4_11 
REMARK    5  A    between atoms: C7_14  and  N4_15 
REMARK    6  A    between atoms: N4_15  and  O1_16 
ROOT
HETATM    1  C4  UNL     1      17.765   8.116  45.485  1.00  0.00    -0.019 A 
HETATM    2  C5  UNL     1      18.535   7.565  44.495  1.00  0.00     0.015 A 
HETATM    3  C6  UNL     1      19.584   6.724  44.848  1.00  0.00     0.033 A 
HETATM    4  C7  UNL     1      19.875   6.425  46.171  1.00  0.00     0.071 A 
HETATM    5  C8  UNL     1      19.066   7.007  47.119  1.00  0.00     0.033 A 
HETATM    6  C9  UNL     1      18.025   7.841  46.799  1.00  0.00     0.015 A 
ENDROOT
BRANCH   1   7
HETATM    7  C3  UNL     1      16.669   8.993  45.136  1.00  0.00     0.118 C 
HETATM    8  N3  UNL     1      16.124   8.863  43.983  1.00  0.00    -0.309 N 
ATOM      9  H3  UNL     1      16.497   8.141  43.366  1.00  0.00     0.186 HD
BRANCH   8  10
HETATM   10  N2  UNL     1      15.075   9.622  43.511  1.00  0.00    -0.277 N 
ATOM     11  H2  UNL     1      14.119   9.269  43.562  1.00  0.00     0.189 HD
BRANCH  10  12
HETATM   12  C2  UNL     1      15.339  10.897  42.954  1.00  0.00     0.186 C 
HETATM   13  S1  UNL     1      14.731  11.252  41.491  1.00  0.00    -0.040 SA
BRANCH  12  14
HETATM   14  N1  UNL     1      16.133  11.837  43.687  1.00  0.00    -0.370 N 
HETATM   15  C1  UNL     1      15.761  13.229  43.587  1.00  0.00     0.148 C 
ATOM     16  H1  UNL     1      16.925  11.537  44.254  1.00  0.00     0.161 HD
ENDBRANCH  12  14
ENDBRANCH  10  12
ENDBRANCH   8  10
ENDBRANCH   1   7
BRANCH   4  17
HETATM   17  N4  UNL     1      20.944   5.567  46.534  1.00  0.00    -0.185 N 
HETATM   18  S2  UNL     1      21.867   5.951  47.794  1.00  0.00     0.075 SA
BRANCH  17  19
HETATM   19  O1  UNL     1      21.226   4.421  45.856  1.00  0.00    -0.276 OA
ATOM     20  H1  UNL     1      21.065   3.558  46.220  1.00  0.00     0.246 HD
ENDBRANCH  17  19
ENDBRANCH   4  17
TORSDOF 6
ENDMDL
MODEL 2
REMARK VINA RESULT: -7.446978116      1.835      2.562
REMARK  6 active torsions:
REMARK  status: ('A' for Active; 'I' for Inactive)
REMARK    1  A    between atoms: N1_2  and  C2_4 
REMARK    2  A    between atoms: C2_4  and  N2_6 
REMARK    3  A    between atoms: N2_6  and  N3_8 
REMARK    4  A    between atoms: C3_10  and  C4_11 
REMARK    5  A    between atoms: C7_14  and  N4_15 
REMARK    6  A    between atoms: N4_15  and  O1_16 
ROOT
HETATM    1  C4  UNL     1      19.210   6.757  45.663  1.00  0.00    -0.019 A 
HETATM    2  C5  UNL     1      18.900   6.923  46.987  1.00  0.00     0.015 A 
HETATM    3  C6  UNL     1      19.707   6.322  47.947  1.00  0.00     0.033 A 
HETATM    4  C7  UNL     1      20.814   5.560  47.605  1.00  0.00     0.071 A 
HETATM    5  C8  UNL     1      21.074   5.430  46.261  1.00  0.00     0.033 A 
HETATM    6  C9  UNL     1      20.296   6.012  45.293  1.00  0.00     0.015 A 
ENDROOT
BRANCH   1   7
HETATM    7  C3  UNL     1      18.383   7.375  44.650  1.00  0.00     0.118 C 
HETATM    8  N3  UNL     1      17.126   7.493  44.875  1.00  0.00    -0.309 N 
ATOM      9  H3  UNL     1      16.773   7.140  45.764  1.00  0.00     0.186 HD
BRANCH   8  10
HETATM   10  N2  UNL     1      16.214   8.058  44.009  1.00  0.00    -0.277 N 
ATOM     11  H2  UNL     1      15.708   7.476  43.341  1.00  0.00     0.189 HD
BRANCH  10  12
HETATM   12  C2  UNL     1      15.988   9.455  44.058  1.00  0.00     0.186 C 
HETATM   13  S1  UNL     1      16.721  10.325  45.216  1.00  0.00    -0.040 SA
BRANCH  12  14
HETATM   14  N1  UNL     1      15.123  10.065  43.093  1.00  0.00    -0.370 N 
HETATM   15  C1  UNL     1      15.469  11.394  42.648  1.00  0.00     0.148 C 
ATOM     16  H1  UNL     1      14.299   9.582  42.736  1.00  0.00     0.161 HD
ENDBRANCH  12  14
ENDBRANCH  10  12
ENDBRANCH   8  10
ENDBRANCH   1   7
BRANCH   4  17
HETATM   17  N4  UNL     1      21.639   4.946  48.582  1.00  0.00    -0.185 N 
HETATM   18  S2  UNL     1      22.682   5.848  49.411  1.00  0.00     0.075 SA
BRANCH  17  19
HETATM   19  O1  UNL     1      21.587   3.612  48.851  1.00  0.00    -0.276 OA
ATOM     20  H1  UNL     1      20.792   3.181  49.141  1.00  0.00     0.246 HD
ENDBRANCH  17  19
ENDBRANCH   4  17
TORSDOF 6
ENDMDL
MODEL 3
REMARK VINA RESULT: -7.267749459      3.171      7.561
REMARK  6 active torsions:
REMARK  status: ('A' for Active; 'I' for Inactive)
REMARK    1  A    between atoms: N1_2  and  C2_4 
REMARK    2  A    between atoms: C2_4  and  N2_6 
REMARK    3  A    between atoms: N2_6  and  N3_8 
REMARK    4  A    between atoms: C3_10  and  C4_11 
REMARK    5  A    between atoms: C7_14  and  N4_15 
REMARK    6  A    between atoms: N4_15  and  O1_16 
ROOT
HETATM    1  C4  UNL     1      20.083   6.358  46.281  1.00  0.00    -0.019 A 
HETATM    2  C5  UNL     1      19.967   6.428  44.917  1.00  0.00     0.015 A 
HETATM    3  C6  UNL     1      18.875   7.091  44.368  1.00  0.00     0.033 A 
HETATM    4  C7  UNL     1      17.901   7.684  45.157  1.00  0.00     0.071 A 
HETATM    5  C8  UNL     1      18.072   7.581  46.517  1.00  0.00     0.033 A 
HETATM    6  C9  UNL     1      19.139   6.933  47.086  1.00  0.00     0.015 A 
ENDROOT
BRANCH   1   7
HETATM    7  C3  UNL     1      21.211   5.673  46.870  1.00  0.00     0.118 C 
HETATM    8  N3  UNL     1      21.251   5.544  48.145  1.00  0.00    -0.309 N 
ATOM      9  H3  UNL     1      20.476   5.936  48.681  1.00  0.00     0.186 HD
BRANCH   8  10
HETATM   10  N2  UNL     1      22.257   4.917  48.849  1.00  0.00    -0.277 N 
ATOM     11  H2  UNL     1      22.465   3.932  48.685  1.00  0.00     0.189 HD
BRANCH  10  12
HETATM   12  C2  UNL     1      22.998   5.657  49.802  1.00  0.00     0.186 C 
HETATM   13  S1  UNL     1      24.276   4.954  50.515  1.00  0.00    -0.040 SA
BRANCH  12  14
HETATM   14  N1  UNL     1      22.605   6.998  50.117  1.00  0.00    -0.370 N 
HETATM   15  C1  UNL     1      23.452   8.061  49.630  1.00  0.00     0.148 C 
ATOM     16  H1  UNL     1      21.764   7.193  50.660  1.00  0.00     0.161 HD
ENDBRANCH  12  14
ENDBRANCH  10  12
ENDBRANCH   8  10
ENDBRANCH   1   7
BRANCH   4  17
HETATM   17  N4  UNL     1      16.786   8.362  44.599  1.00  0.00    -0.185 N 
HETATM   18  S2  UNL     1      16.710   9.965  44.700  1.00  0.00     0.075 SA
BRANCH  17  19
HETATM   19  O1  UNL     1      15.768   7.707  43.976  1.00  0.00    -0.276 OA
ATOM     20  H1  UNL     1      15.917   7.010  43.348  1.00  0.00     0.246 HD
ENDBRANCH  17  19
ENDBRANCH   4  17
TORSDOF 6
ENDMDL
MODEL 4
REMARK VINA RESULT: -7.234636205      3.168      7.659
REMARK  6 active torsions:
REMARK  status: ('A' for Active; 'I' for Inactive)
REMARK    1  A    between atoms: N1_2  and  C2_4 
REMARK    2  A    between atoms: C2_4  and  N2_6 
REMARK    3  A    between atoms: N2_6  and  N3_8 
REMARK    4  A    between atoms: C3_10  and  C4_11 
REMARK    5  A    between atoms: C7_14  and  N4_15 
REMARK    6  A    between atoms: N4_15  and  O1_16 
ROOT
HETATM    1  C4  UNL     1      20.091   6.365  46.279  1.00  0.00    -0.019 A 
HETATM    2  C5  UNL     1      19.149   6.924  47.102  1.00  0.00     0.015 A 
HETATM    3  C6  UNL     1      18.062   7.579  46.534  1.00  0.00     0.033 A 
HETATM    4  C7  UNL     1      17.902   7.683  45.160  1.00  0.00     0.071 A 
HETATM    5  C8  UNL     1      18.879   7.103  44.386  1.00  0.00     0.033 A 
HETATM    6  C9  UNL     1      19.962   6.450  44.920  1.00  0.00     0.015 A 
ENDROOT
BRANCH   1   7
HETATM    7  C3  UNL     1      21.228   5.679  46.852  1.00  0.00     0.118 C 
HETATM    8  N3  UNL     1      21.283   5.544  48.126  1.00  0.00    -0.309 N 
ATOM      9  H3  UNL     1      20.514   5.932  48.673  1.00  0.00     0.186 HD
BRANCH   8  10
HETATM   10  N2  UNL     1      22.299   4.917  48.815  1.00  0.00    -0.277 N 
ATOM     11  H2  UNL     1      22.546   3.950  48.602  1.00  0.00     0.189 HD
BRANCH  10  12
HETATM   12  C2  UNL     1      22.994   5.629  49.821  1.00  0.00     0.186 C 
HETATM   13  S1  UNL     1      24.200   4.885  50.614  1.00  0.00    -0.040 SA
BRANCH  12  14
HETATM   14  N1  UNL     1      22.621   6.980  50.118  1.00  0.00    -0.370 N 
HETATM   15  C1  UNL     1      23.441   8.026  49.554  1.00  0.00     0.148 C 
ATOM     16  H1  UNL     1      21.812   7.193  50.701  1.00  0.00     0.161 HD
ENDBRANCH  12  14
ENDBRANCH  10  12
ENDBRANCH   8  10
ENDBRANCH   1   7
BRANCH   4  17
HETATM   17  N4  UNL     1      16.794   8.351  44.577  1.00  0.00    -0.185 N 
HETATM   18  S2  UNL     1      16.741   9.958  44.605  1.00  0.00     0.075 SA
BRANCH  17  19
HETATM   19  O1  UNL     1      15.764   7.682  43.990  1.00  0.00    -0.276 OA
ATOM     20  H1  UNL     1      15.399   7.941  43.152  1.00  0.00     0.246 HD
ENDBRANCH  17  19
ENDBRANCH   4  17
TORSDOF 6
ENDMDL
MODEL 5
REMARK VINA RESULT: -7.178358424      3.308      7.770
REMARK  6 active torsions:
REMARK  status: ('A' for Active; 'I' for Inactive)
REMARK    1  A    between atoms: N1_2  and  C2_4 
REMARK    2  A    between atoms: C2_4  and  N2_6 
REMARK    3  A    between atoms: N2_6  and  N3_8 
REMARK    4  A    between atoms: C3_10  and  C4_11 
REMARK    5  A    between atoms: C7_14  and  N4_15 
REMARK    6  A    between atoms: N4_15  and  O1_16 
ROOT
HETATM    1  C4  UNL     1      20.129   6.307  46.308  1.00  0.00    -0.019 A 
HETATM    2  C5  UNL     1      20.025   6.386  44.944  1.00  0.00     0.015 A 
HETATM    3  C6  UNL     1      18.937   7.050  44.389  1.00  0.00     0.033 A 
HETATM    4  C7  UNL     1      17.954   7.635  45.174  1.00  0.00     0.071 A 
HETATM    5  C8  UNL     1      18.113   7.523  46.535  1.00  0.00     0.033 A 
HETATM    6  C9  UNL     1      19.176   6.873  47.109  1.00  0.00     0.015 A 
ENDROOT
BRANCH   1   7
HETATM    7  C3  UNL     1      21.254   5.620  46.903  1.00  0.00     0.118 C 
HETATM    8  N3  UNL     1      21.507   5.822  48.143  1.00  0.00    -0.309 N 
ATOM      9  H3  UNL     1      20.896   6.464  48.649  1.00  0.00     0.186 HD
BRANCH   8  10
HETATM   10  N2  UNL     1      22.541   5.241  48.848  1.00  0.00    -0.277 N 
ATOM     11  H2  UNL     1      22.474   4.270  49.154  1.00  0.00     0.189 HD
BRANCH  10  12
HETATM   12  C2  UNL     1      23.694   6.008  49.141  1.00  0.00     0.186 C 
HETATM   13  S1  UNL     1      23.710   6.911  50.490  1.00  0.00    -0.040 SA
BRANCH  12  14
HETATM   14  N1  UNL     1      24.813   5.972  48.247  1.00  0.00    -0.370 N 
HETATM   15  C1  UNL     1      26.104   6.311  48.797  1.00  0.00     0.148 C 
ATOM     16  H1  UNL     1      24.702   5.718  47.265  1.00  0.00     0.161 HD
ENDBRANCH  12  14
ENDBRANCH  10  12
ENDBRANCH   8  10
ENDBRANCH   1   7
BRANCH   4  17
HETATM   17  N4  UNL     1      16.843   8.314  44.610  1.00  0.00    -0.185 N 
HETATM   18  S2  UNL     1      16.773   9.918  44.702  1.00  0.00     0.075 SA
BRANCH  17  19
HETATM   19  O1  UNL     1      15.822   7.659  43.990  1.00  0.00    -0.276 OA
ATOM     20  H1  UNL     1      15.735   7.628  43.045  1.00  0.00     0.246 HD
ENDBRANCH  17  19
ENDBRANCH   4  17
TORSDOF 6
ENDMDL
