MODEL 1
REMARK VINA RESULT: -9.057875395      0.000      0.000
REMARK  5 active torsions:
REMARK  status: ('A' for Active; 'I' for Inactive)
REMARK       I    between atoms: C1_2  and  N1_3 
REMARK    1  A    between atoms: C1_2  and  C7_13 
REMARK    2  A    between atoms: N1_3  and  N2_4 
REMARK       I    between atoms: N2_4  and  C2_6 
REMARK    3  A    between atoms: C2_6  and  C3_8 
REMARK    4  A    between atoms: C5_10  and  C6_11 
REMARK       I    between atoms: C7_13  and  N3_15 
REMARK    5  A    between atoms: N3_15  and  C8_17 
ROOT
HETATM    1  O1  UNL     1       4.436  22.407   0.066  1.00  0.00    -0.244 OA
HETATM    2  C1  UNL     1       4.080  21.850   0.491  1.00  0.00     0.403 C 
HETATM    3  N1  UNL     1       4.142  21.465   1.920  1.00  0.00    -0.274 NA
ENDROOT
BRANCH   2   4
HETATM    4  C7  UNL     1       3.063  20.854  -0.115  1.00  0.00     0.330 C 
HETATM    5  O3  UNL     1       2.039  20.626   0.521  1.00  0.00    -0.261 OA
HETATM    6  N3  UNL     1       3.366  20.289  -1.332  1.00  0.00    -0.315 N 
ATOM      7  H3  UNL     1       4.249  20.519  -1.788  1.00  0.00     0.169 HD
BRANCH   6   8
HETATM    8  C8  UNL     1       2.480  19.406  -1.949  1.00  0.00     0.069 A 
HETATM    9  C9  UNL     1       1.574  19.679  -3.016  1.00  0.00     0.138 A 
HETATM   10  N4  UNL     1       0.903  18.552  -3.340  1.00  0.00    -0.310 N 
HETATM   11  N5  UNL     1       1.358  17.595  -2.515  1.00  0.00    -0.310 N 
ATOM     12  H4  UNL     1       0.193  18.449  -4.065  1.00  0.00     0.186 HD
HETATM   13  C10 UNL     1       2.245  18.046  -1.718  1.00  0.00     0.138 A 
ATOM     14  H5  UNL     1       1.035  16.627  -2.525  1.00  0.00     0.186 HD
ENDBRANCH   6   8
ENDBRANCH   2   4
BRANCH   3  15
HETATM   15  N2  UNL     1       4.201  21.153   3.105  1.00  0.00    -0.199 N 
HETATM   16  C2  UNL     1       4.361  19.872   3.760  1.00  0.00     0.251 C 
HETATM   17  O2  UNL     1       4.461  18.852   2.978  1.00  0.00    -0.271 OA
ATOM     18  H2  UNL     1       4.123  21.942   3.746  1.00  0.00     0.205 HD
BRANCH  16  19
HETATM   19  C3  UNL     1       4.413  19.750   5.212  1.00  0.00     0.087 A 
HETATM   20  C4  UNL     1       3.098  19.131   5.779  1.00  0.00     0.022 A 
HETATM   21  C5  UNL     1       3.552  20.583   6.059  1.00  0.00     0.028 A 
BRANCH  21  22
HETATM   22  C6  UNL     1       3.928  20.910   7.470  1.00  0.00     0.227 C 
HETATM   23  F1  UNL     1       3.598  22.214   7.827  1.00  0.00    -0.255 F 
ENDBRANCH  21  22
ENDBRANCH  16  19
ENDBRANCH   3  15
TORSDOF 5
ENDMDL
MODEL 2
REMARK VINA RESULT: -8.735025520      1.411      1.684
REMARK  5 active torsions:
REMARK  status: ('A' for Active; 'I' for Inactive)
REMARK       I    between atoms: C1_2  and  N1_3 
REMARK    1  A    between atoms: C1_2  and  C7_13 
REMARK    2  A    between atoms: N1_3  and  N2_4 
REMARK       I    between atoms: N2_4  and  C2_6 
REMARK    3  A    between atoms: C2_6  and  C3_8 
REMARK    4  A    between atoms: C5_10  and  C6_11 
REMARK       I    between atoms: C7_13  and  N3_15 
REMARK    5  A    between atoms: N3_15  and  C8_17 
ROOT
HETATM    1  O1  UNL     1       4.223  22.274  -0.053  1.00  0.00    -0.244 OA
HETATM    2  C1  UNL     1       3.981  21.682   0.403  1.00  0.00     0.403 C 
HETATM    3  N1  UNL     1       4.103  21.396   1.852  1.00  0.00    -0.274 NA
ENDROOT
BRANCH   2   4
HETATM    4  C7  UNL     1       3.189  20.471  -0.145  1.00  0.00     0.330 C 
HETATM    5  O3  UNL     1       2.550  20.628  -1.181  1.00  0.00    -0.261 OA
HETATM    6  N3  UNL     1       3.254  19.291   0.559  1.00  0.00    -0.315 N 
ATOM      7  H3  UNL     1       3.795  19.249   1.422  1.00  0.00     0.169 HD
BRANCH   6   8
HETATM    8  C8  UNL     1       2.589  18.152   0.105  1.00  0.00     0.069 A 
HETATM    9  C9  UNL     1       1.560  17.419   0.767  1.00  0.00     0.138 A 
HETATM   10  N4  UNL     1       1.165  16.388  -0.012  1.00  0.00    -0.310 N 
HETATM   11  N5  UNL     1       1.909  16.456  -1.128  1.00  0.00    -0.310 N 
ATOM     12  H4  UNL     1       0.446  15.698   0.204  1.00  0.00     0.186 HD
HETATM   13  C10 UNL     1       2.723  17.437  -1.089  1.00  0.00     0.138 A 
ATOM     14  H5  UNL     1       1.834  15.804  -1.909  1.00  0.00     0.186 HD
ENDBRANCH   6   8
ENDBRANCH   2   4
BRANCH   3  15
HETATM   15  N2  UNL     1       4.210  21.169   3.052  1.00  0.00    -0.199 N 
HETATM   16  C2  UNL     1       4.365  19.934   3.791  1.00  0.00     0.251 C 
HETATM   17  O2  UNL     1       4.399  18.858   3.082  1.00  0.00    -0.271 OA
ATOM     18  H2  UNL     1       4.186  22.004   3.637  1.00  0.00     0.205 HD
BRANCH  16  19
HETATM   19  C3  UNL     1       4.484  19.915   5.244  1.00  0.00     0.087 A 
HETATM   20  C4  UNL     1       3.333  19.090   5.899  1.00  0.00     0.022 A 
HETATM   21  C5  UNL     1       3.502  20.617   6.079  1.00  0.00     0.028 A 
BRANCH  21  22
HETATM   22  C6  UNL     1       3.850  21.098   7.453  1.00  0.00     0.227 C 
HETATM   23  F1  UNL     1       3.522  22.435   7.655  1.00  0.00    -0.255 F 
ENDBRANCH  21  22
ENDBRANCH  16  19
ENDBRANCH   3  15
TORSDOF 5
ENDMDL
MODEL 3
REMARK VINA RESULT: -8.564115681      2.204      2.818
REMARK  5 active torsions:
REMARK  status: ('A' for Active; 'I' for Inactive)
REMARK       I    between atoms: C1_2  and  N1_3 
REMARK    1  A    between atoms: C1_2  and  C7_13 
REMARK    2  A    between atoms: N1_3  and  N2_4 
REMARK       I    between atoms: N2_4  and  C2_6 
REMARK    3  A    between atoms: C2_6  and  C3_8 
REMARK    4  A    between atoms: C5_10  and  C6_11 
REMARK       I    between atoms: C7_13  and  N3_15 
REMARK    5  A    between atoms: N3_15  and  C8_17 
ROOT
HETATM    1  O1  UNL     1       1.477  16.783   0.874  1.00  0.00    -0.244 OA
HETATM    2  C1  UNL     1       1.851  17.472   0.835  1.00  0.00     0.403 C 
HETATM    3  N1  UNL     1       2.439  18.372   1.855  1.00  0.00    -0.274 NA
ENDROOT
BRANCH   2   4
HETATM    4  C7  UNL     1       2.131  18.200  -0.502  1.00  0.00     0.330 C 
HETATM    5  O3  UNL     1       3.065  18.995  -0.534  1.00  0.00    -0.261 OA
HETATM    6  N3  UNL     1       1.319  17.908  -1.572  1.00  0.00    -0.315 N 
ATOM      7  H3  UNL     1       0.551  17.246  -1.457  1.00  0.00     0.169 HD
BRANCH   6   8
HETATM    8  C8  UNL     1       1.533  18.505  -2.814  1.00  0.00     0.069 A 
HETATM    9  C9  UNL     1       1.705  17.862  -4.076  1.00  0.00     0.138 A 
HETATM   10  N4  UNL     1       1.871  18.794  -5.040  1.00  0.00    -0.310 N 
HETATM   11  N5  UNL     1       1.810  19.986  -4.424  1.00  0.00    -0.310 N 
ATOM     12  H4  UNL     1       2.014  18.627  -6.036  1.00  0.00     0.186 HD
HETATM   13  C10 UNL     1       1.624  19.855  -3.169  1.00  0.00     0.138 A 
ATOM     14  H5  UNL     1       1.902  20.884  -4.899  1.00  0.00     0.186 HD
ENDBRANCH   6   8
ENDBRANCH   2   4
BRANCH   3  15
HETATM   15  N2  UNL     1       2.922  19.109   2.708  1.00  0.00    -0.199 N 
HETATM   16  C2  UNL     1       2.976  19.011   4.151  1.00  0.00     0.251 C 
HETATM   17  O2  UNL     1       2.423  17.966   4.663  1.00  0.00    -0.271 OA
ATOM     18  H2  UNL     1       3.367  19.946   2.330  1.00  0.00     0.205 HD
BRANCH  16  19
HETATM   19  C3  UNL     1       3.626  20.029   4.969  1.00  0.00     0.087 A 
HETATM   20  C4  UNL     1       4.909  19.471   5.659  1.00  0.00     0.022 A 
HETATM   21  C5  UNL     1       3.642  19.907   6.432  1.00  0.00     0.028 A 
BRANCH  21  22
HETATM   22  C6  UNL     1       3.773  21.111   7.312  1.00  0.00     0.227 C 
HETATM   23  F1  UNL     1       3.859  20.783   8.662  1.00  0.00    -0.255 F 
ENDBRANCH  21  22
ENDBRANCH  16  19
ENDBRANCH   3  15
TORSDOF 5
ENDMDL
MODEL 4
REMARK VINA RESULT: -8.551653822      2.146      2.861
REMARK  5 active torsions:
REMARK  status: ('A' for Active; 'I' for Inactive)
REMARK       I    between atoms: C1_2  and  N1_3 
REMARK    1  A    between atoms: C1_2  and  C7_13 
REMARK    2  A    between atoms: N1_3  and  N2_4 
REMARK       I    between atoms: N2_4  and  C2_6 
REMARK    3  A    between atoms: C2_6  and  C3_8 
REMARK    4  A    between atoms: C5_10  and  C6_11 
REMARK       I    between atoms: C7_13  and  N3_15 
REMARK    5  A    between atoms: N3_15  and  C8_17 
ROOT
HETATM    1  O1  UNL     1       1.098  16.614   1.124  1.00  0.00    -0.244 OA
HETATM    2  C1  UNL     1       1.541  17.262   1.111  1.00  0.00     0.403 C 
HETATM    3  N1  UNL     1       2.137  18.111   2.169  1.00  0.00    -0.274 NA
ENDROOT
BRANCH   2   4
HETATM    4  C7  UNL     1       1.993  17.942  -0.204  1.00  0.00     0.330 C 
HETATM    5  O3  UNL     1       3.046  18.572  -0.187  1.00  0.00    -0.261 OA
HETATM    6  N3  UNL     1       1.190  17.795  -1.310  1.00  0.00    -0.315 N 
ATOM      7  H3  UNL     1       0.319  17.269  -1.234  1.00  0.00     0.169 HD
BRANCH   6   8
HETATM    8  C8  UNL     1       1.552  18.357  -2.534  1.00  0.00     0.069 A 
HETATM    9  C9  UNL     1       2.019  17.683  -3.702  1.00  0.00     0.138 A 
HETATM   10  N4  UNL     1       2.246  18.583  -4.683  1.00  0.00    -0.310 N 
HETATM   11  N5  UNL     1       1.938  19.785  -4.169  1.00  0.00    -0.310 N 
ATOM     12  H4  UNL     1       2.583  18.389  -5.626  1.00  0.00     0.186 HD
HETATM   13  C10 UNL     1       1.547  19.690  -2.959  1.00  0.00     0.138 A 
ATOM     14  H5  UNL     1       2.008  20.664  -4.681  1.00  0.00     0.186 HD
ENDBRANCH   6   8
ENDBRANCH   2   4
BRANCH   3  15
HETATM   15  N2  UNL     1       2.625  18.807   3.053  1.00  0.00    -0.199 N 
HETATM   16  C2  UNL     1       3.939  19.394   3.205  1.00  0.00     0.251 C 
HETATM   17  O2  UNL     1       4.772  19.156   2.251  1.00  0.00    -0.271 OA
ATOM     18  H2  UNL     1       1.986  19.011   3.822  1.00  0.00     0.205 HD
BRANCH  16  19
HETATM   19  C3  UNL     1       4.291  20.209   4.362  1.00  0.00     0.087 A 
HETATM   20  C4  UNL     1       4.860  19.335   5.523  1.00  0.00     0.022 A 
HETATM   21  C5  UNL     1       3.520  20.103   5.607  1.00  0.00     0.028 A 
BRANCH  21  22
HETATM   22  C6  UNL     1       3.455  21.236   6.582  1.00  0.00     0.227 C 
HETATM   23  F1  UNL     1       3.763  20.846   7.882  1.00  0.00    -0.255 F 
ENDBRANCH  21  22
ENDBRANCH  16  19
ENDBRANCH   3  15
TORSDOF 5
ENDMDL
MODEL 5
REMARK VINA RESULT: -8.277244979      3.867      8.024
REMARK  5 active torsions:
REMARK  status: ('A' for Active; 'I' for Inactive)
REMARK       I    between atoms: C1_2  and  N1_3 
REMARK    1  A    between atoms: C1_2  and  C7_13 
REMARK    2  A    between atoms: N1_3  and  N2_4 
REMARK       I    between atoms: N2_4  and  C2_6 
REMARK    3  A    between atoms: C2_6  and  C3_8 
REMARK    4  A    between atoms: C5_10  and  C6_11 
REMARK       I    between atoms: C7_13  and  N3_15 
REMARK    5  A    between atoms: N3_15  and  C8_17 
ROOT
HETATM    1  O1  UNL     1       3.819  16.816   3.634  1.00  0.00    -0.244 OA
HETATM    2  C1  UNL     1       3.825  17.540   3.329  1.00  0.00     0.403 C 
HETATM    3  N1  UNL     1       3.660  18.068   1.954  1.00  0.00    -0.274 NA
ENDROOT
BRANCH   2   4
HETATM    4  C7  UNL     1       4.031  18.811   4.188  1.00  0.00     0.330 C 
HETATM    5  O3  UNL     1       4.708  19.717   3.713  1.00  0.00    -0.261 OA
HETATM    6  N3  UNL     1       3.439  18.848   5.429  1.00  0.00    -0.315 N 
ATOM      7  H3  UNL     1       2.906  18.043   5.757  1.00  0.00     0.169 HD
BRANCH   6   8
HETATM    8  C8  UNL     1       3.560  19.974   6.243  1.00  0.00     0.069 A 
HETATM    9  C9  UNL     1       3.953  20.024   7.614  1.00  0.00     0.138 A 
HETATM   10  N4  UNL     1       3.962  21.307   8.036  1.00  0.00    -0.310 N 
HETATM   11  N5  UNL     1       3.589  22.051   6.981  1.00  0.00    -0.310 N 
ATOM     12  H4  UNL     1       4.203  21.644   8.968  1.00  0.00     0.186 HD
HETATM   13  C10 UNL     1       3.353  21.328   5.958  1.00  0.00     0.138 A 
ATOM     14  H5  UNL     1       3.505  23.068   6.996  1.00  0.00     0.186 HD
ENDBRANCH   6   8
ENDBRANCH   2   4
BRANCH   3  15
HETATM   15  N2  UNL     1       3.523  18.494   0.813  1.00  0.00    -0.199 N 
HETATM   16  C2  UNL     1       2.673  18.072  -0.281  1.00  0.00     0.251 C 
HETATM   17  O2  UNL     1       1.908  17.064  -0.038  1.00  0.00    -0.271 OA
ATOM     18  H2  UNL     1       4.118  19.293   0.593  1.00  0.00     0.205 HD
BRANCH  16  19
HETATM   19  C3  UNL     1       2.679  18.754  -1.570  1.00  0.00     0.087 A 
HETATM   20  C4  UNL     1       1.804  20.045  -1.535  1.00  0.00     0.022 A 
HETATM   21  C5  UNL     1       1.463  18.802  -2.390  1.00  0.00     0.028 A 
BRANCH  21  22
HETATM   22  C6  UNL     1       1.532  18.969  -3.876  1.00  0.00     0.227 C 
HETATM   23  F1  UNL     1       1.542  20.304  -4.268  1.00  0.00    -0.255 F 
ENDBRANCH  21  22
ENDBRANCH  16  19
ENDBRANCH   3  15
TORSDOF 5
ENDMDL
