MODEL 1
REMARK VINA RESULT: -6.029498577      0.000      0.000
REMARK  2 active torsions:
REMARK  status: ('A' for Active; 'I' for Inactive)
REMARK    1  A    between atoms: C4_7  and  O2_8 
REMARK    2  A    between atoms: C10_20  and  O3_21 
ROOT
HETATM    1  O1  UNL     1       0.018  12.318  11.902  1.00  0.00    -0.246 OA
HETATM    2  C1  UNL     1      -0.871  11.489  11.453  1.00  0.00     0.334 C 
HETATM    3  N1  UNL     1      -1.945  11.242  12.315  1.00  0.00    -0.342 N 
ATOM      4  H1  UNL     1      -1.825  11.583  13.269  1.00  0.00     0.164 HD
HETATM    5  C2  UNL     1      -3.193  10.579  12.053  1.00  0.00     0.127 C 
HETATM    6  C3  UNL     1      -4.418  11.393  12.149  1.00  0.00     0.051 C 
HETATM    7  C4  UNL     1      -4.355  12.839  11.883  1.00  0.00     0.124 C 
HETATM    8  C5  UNL     1      -4.451  13.279  10.448  1.00  0.00     0.074 C 
HETATM    9  C6  UNL     1      -3.262  14.108  10.052  1.00  0.00    -0.011 A 
HETATM   10  C7  UNL     1      -2.886  15.231  10.645  1.00  0.00     0.042 A 
HETATM   11  C8  UNL     1      -1.670  15.747   9.966  1.00  0.00     0.295 A 
HETATM   12  F1  UNL     1      -1.952  16.937   9.324  1.00  0.00    -0.222 F 
HETATM   13  N2  UNL     1      -1.475  14.749   8.959  1.00  0.00    -0.342 N 
ATOM     14  H2  UNL     1      -0.708  14.779   8.287  1.00  0.00     0.164 HD
HETATM   15  C9  UNL     1      -2.359  13.808   8.981  1.00  0.00     0.112 A 
HETATM   16  N3  UNL     1      -2.421  12.693   8.100  1.00  0.00    -0.307 N 
ATOM     17  H3  UNL     1      -2.440  12.923   7.107  1.00  0.00     0.171 HD
HETATM   18  C10 UNL     1      -2.460  11.315   8.402  1.00  0.00     0.237 C 
HETATM   19  N4  UNL     1      -1.575  10.542   9.200  1.00  0.00    -0.261 N 
ATOM     20  H4  UNL     1      -1.615   9.537   9.029  1.00  0.00     0.190 HD
HETATM   21  N5  UNL     1      -0.676  10.924  10.162  1.00  0.00    -0.249 N 
ATOM     22  H5  UNL     1       0.301  10.778   9.909  1.00  0.00     0.192 HD
ENDROOT
BRANCH   7  23
HETATM   23  O2  UNL     1      -3.188  13.430  12.427  1.00  0.00    -0.395 OA
ATOM     24  H2  UNL     1      -3.106  14.346  12.186  1.00  0.00     0.210 HD
ENDBRANCH   7  23
BRANCH  18  25
HETATM   25  O3  UNL     1      -3.443  10.633   7.886  1.00  0.00    -0.331 OA
ATOM     26  H3  UNL     1      -3.211   9.979   7.237  1.00  0.00     0.221 HD
ENDBRANCH  18  25
TORSDOF 2
ENDMDL
MODEL 2
REMARK VINA RESULT: -5.816997869      2.500      4.049
REMARK  2 active torsions:
REMARK  status: ('A' for Active; 'I' for Inactive)
REMARK    1  A    between atoms: C4_7  and  O2_8 
REMARK    2  A    between atoms: C10_20  and  O3_21 
ROOT
HETATM    1  O1  UNL     1      -1.210  15.422   9.223  1.00  0.00    -0.246 OA
HETATM    2  C1  UNL     1      -1.640  14.933  10.343  1.00  0.00     0.334 C 
HETATM    3  N1  UNL     1      -3.029  14.955  10.509  1.00  0.00    -0.342 N 
ATOM      4  H1  UNL     1      -3.540  15.518   9.829  1.00  0.00     0.164 HD
HETATM    5  C2  UNL     1      -3.843  14.300  11.496  1.00  0.00     0.127 C 
HETATM    6  C3  UNL     1      -4.779  13.268  11.017  1.00  0.00     0.051 C 
HETATM    7  C4  UNL     1      -4.465  12.512   9.794  1.00  0.00     0.124 C 
HETATM    8  C5  UNL     1      -3.574  11.309   9.937  1.00  0.00     0.074 C 
HETATM    9  C6  UNL     1      -2.365  11.419   9.052  1.00  0.00    -0.011 A 
HETATM   10  C7  UNL     1      -2.397  11.565   7.736  1.00  0.00     0.042 A 
HETATM   11  C8  UNL     1      -1.003  11.636   7.228  1.00  0.00     0.295 A 
HETATM   12  F1  UNL     1      -0.722  10.528   6.453  1.00  0.00    -0.222 F 
HETATM   13  N2  UNL     1      -0.262  11.511   8.445  1.00  0.00    -0.342 N 
ATOM     14  H2  UNL     1       0.758  11.519   8.479  1.00  0.00     0.164 HD
HETATM   15  C9  UNL     1      -1.003  11.386   9.495  1.00  0.00     0.112 A 
HETATM   16  N3  UNL     1      -0.545  11.238  10.834  1.00  0.00    -0.307 N 
ATOM     17  H3  UNL     1       0.104  10.466  10.990  1.00  0.00     0.171 HD
HETATM   18  C10 UNL     1      -0.859  12.002  11.978  1.00  0.00     0.237 C 
HETATM   19  N4  UNL     1      -0.761  13.405  12.178  1.00  0.00    -0.261 N 
ATOM     20  H4  UNL     1      -0.743  13.695  13.155  1.00  0.00     0.190 HD
HETATM   21  N5  UNL     1      -0.686  14.433  11.273  1.00  0.00    -0.249 N 
ATOM     22  H5  UNL     1       0.208  14.925  11.265  1.00  0.00     0.192 HD
ENDROOT
BRANCH   7  23
HETATM   23  O2  UNL     1      -3.901  13.336   8.788  1.00  0.00    -0.395 OA
ATOM     24  H2  UNL     1      -4.136  13.044   7.914  1.00  0.00     0.210 HD
ENDBRANCH   7  23
BRANCH  18  25
HETATM   25  O3  UNL     1      -1.307  11.349  13.011  1.00  0.00    -0.331 OA
ATOM     26  H3  UNL     1      -0.886  11.530  13.843  1.00  0.00     0.221 HD
ENDBRANCH  18  25
TORSDOF 2
ENDMDL
MODEL 3
REMARK VINA RESULT: -5.632794884      2.570      4.272
REMARK  2 active torsions:
REMARK  status: ('A' for Active; 'I' for Inactive)
REMARK    1  A    between atoms: C4_7  and  O2_8 
REMARK    2  A    between atoms: C10_20  and  O3_21 
ROOT
HETATM    1  O1  UNL     1      -0.875  11.991   8.036  1.00  0.00    -0.246 OA
HETATM    2  C1  UNL     1      -1.838  12.798   8.354  1.00  0.00     0.334 C 
HETATM    3  N1  UNL     1      -3.097  12.202   8.481  1.00  0.00    -0.342 N 
ATOM      4  H1  UNL     1      -3.165  11.248   8.128  1.00  0.00     0.164 HD
HETATM    5  C2  UNL     1      -4.310  12.738   9.036  1.00  0.00     0.127 C 
HETATM    6  C3  UNL     1      -4.833  12.092  10.254  1.00  0.00     0.051 C 
HETATM    7  C4  UNL     1      -3.905  11.426  11.181  1.00  0.00     0.124 C 
HETATM    8  C5  UNL     1      -3.222  12.286  12.208  1.00  0.00     0.074 C 
HETATM    9  C6  UNL     1      -1.728  12.166  12.113  1.00  0.00    -0.011 A 
HETATM   10  C7  UNL     1      -1.046  11.036  12.225  1.00  0.00     0.042 A 
HETATM   11  C8  UNL     1       0.400  11.331  12.072  1.00  0.00     0.295 A 
HETATM   12  F1  UNL     1       1.063  11.097  13.261  1.00  0.00    -0.222 F 
HETATM   13  N2  UNL     1       0.371  12.747  11.866  1.00  0.00    -0.342 N 
ATOM     14  H2  UNL     1       1.211  13.306  11.720  1.00  0.00     0.164 HD
HETATM   15  C9  UNL     1      -0.819  13.250  11.885  1.00  0.00     0.112 A 
HETATM   16  N3  UNL     1      -1.153  14.622  11.716  1.00  0.00    -0.307 N 
ATOM     17  H3  UNL     1      -0.685  15.267  12.353  1.00  0.00     0.171 HD
HETATM   18  C10 UNL     1      -2.039  15.221  10.795  1.00  0.00     0.237 C 
HETATM   19  N4  UNL     1      -2.074  15.114   9.379  1.00  0.00    -0.261 N 
ATOM     20  H4  UNL     1      -2.588  15.859   8.908  1.00  0.00     0.190 HD
HETATM   21  N5  UNL     1      -1.531  14.175   8.540  1.00  0.00    -0.249 N 
ATOM     22  H5  UNL     1      -0.778  14.523   7.947  1.00  0.00     0.192 HD
ENDROOT
BRANCH   7  23
HETATM   23  O2  UNL     1      -2.894  10.706  10.497  1.00  0.00    -0.395 OA
ATOM     24  H2  UNL     1      -2.780  11.010   9.604  1.00  0.00     0.210 HD
ENDBRANCH   7  23
BRANCH  18  25
HETATM   25  O3  UNL     1      -2.969  15.985  11.292  1.00  0.00    -0.331 OA
ATOM     26  H3  UNL     1      -3.864  15.774  11.055  1.00  0.00     0.221 HD
ENDBRANCH  18  25
TORSDOF 2
ENDMDL
MODEL 4
REMARK VINA RESULT: -5.576645404      2.677      4.280
REMARK  2 active torsions:
REMARK  status: ('A' for Active; 'I' for Inactive)
REMARK    1  A    between atoms: C4_7  and  O2_8 
REMARK    2  A    between atoms: C10_20  and  O3_21 
ROOT
HETATM    1  O1  UNL     1      -1.540  15.270   8.211  1.00  0.00    -0.246 OA
HETATM    2  C1  UNL     1      -1.869  14.621   9.283  1.00  0.00     0.334 C 
HETATM    3  N1  UNL     1      -3.244  14.458   9.483  1.00  0.00    -0.342 N 
ATOM      4  H1  UNL     1      -3.841  15.023   8.879  1.00  0.00     0.164 HD
HETATM    5  C2  UNL     1      -3.938  13.613  10.415  1.00  0.00     0.127 C 
HETATM    6  C3  UNL     1      -4.763  12.530   9.851  1.00  0.00     0.051 C 
HETATM    7  C4  UNL     1      -4.408  11.946   8.548  1.00  0.00     0.124 C 
HETATM    8  C5  UNL     1      -3.377  10.851   8.542  1.00  0.00     0.074 C 
HETATM    9  C6  UNL     1      -2.223  11.196   7.644  1.00  0.00    -0.011 A 
HETATM   10  C7  UNL     1      -2.319  11.471   6.352  1.00  0.00     0.042 A 
HETATM   11  C8  UNL     1      -0.963  11.761   5.822  1.00  0.00     0.295 A 
HETATM   12  F1  UNL     1      -0.582  10.780   4.927  1.00  0.00    -0.222 F 
HETATM   13  N2  UNL     1      -0.168  11.602   7.000  1.00  0.00    -0.342 N 
ATOM     14  H2  UNL     1       0.844  11.730   7.011  1.00  0.00     0.164 HD
HETATM   15  C9  UNL     1      -0.851  11.282   8.049  1.00  0.00     0.112 A 
HETATM   16  N3  UNL     1      -0.331  11.053   9.353  1.00  0.00    -0.307 N 
ATOM     17  H3  UNL     1       0.409  10.354   9.411  1.00  0.00     0.171 HD
HETATM   18  C10 UNL     1      -0.690  11.654  10.579  1.00  0.00     0.237 C 
HETATM   19  N4  UNL     1      -0.750  13.031  10.924  1.00  0.00    -0.261 N 
ATOM     20  H4  UNL     1      -0.731  13.219  11.926  1.00  0.00     0.190 HD
HETATM   21  N5  UNL     1      -0.829  14.147  10.132  1.00  0.00    -0.249 N 
ATOM     22  H5  UNL     1      -0.000  14.741  10.154  1.00  0.00     0.192 HD
ENDROOT
BRANCH   7  23
HETATM   23  O2  UNL     1      -3.982  12.930   7.622  1.00  0.00    -0.395 OA
ATOM     24  H2  UNL     1      -4.293  12.752   6.742  1.00  0.00     0.210 HD
ENDBRANCH   7  23
BRANCH  18  25
HETATM   25  O3  UNL     1      -1.021  10.849  11.547  1.00  0.00    -0.331 OA
ATOM     26  H3  UNL     1      -0.520  10.923  12.351  1.00  0.00     0.221 HD
ENDBRANCH  18  25
TORSDOF 2
ENDMDL
MODEL 5
REMARK VINA RESULT: -5.336534654      1.824      3.452
REMARK  2 active torsions:
REMARK  status: ('A' for Active; 'I' for Inactive)
REMARK    1  A    between atoms: C4_7  and  O2_8 
REMARK    2  A    between atoms: C10_20  and  O3_21 
ROOT
HETATM    1  O1  UNL     1      -4.833  13.409  11.822  1.00  0.00    -0.246 OA
HETATM    2  C1  UNL     1      -3.948  12.467  11.904  1.00  0.00     0.334 C 
HETATM    3  N1  UNL     1      -4.047  11.469  10.928  1.00  0.00    -0.342 N 
ATOM      4  H1  UNL     1      -4.907  11.481  10.380  1.00  0.00     0.164 HD
HETATM    5  C2  UNL     1      -3.116  10.430  10.585  1.00  0.00     0.127 C 
HETATM    6  C3  UNL     1      -2.515  10.485   9.240  1.00  0.00     0.051 C 
HETATM    7  C4  UNL     1      -2.353  11.783   8.567  1.00  0.00     0.124 C 
HETATM    8  C5  UNL     1      -1.122  12.581   8.898  1.00  0.00     0.074 C 
HETATM    9  C6  UNL     1      -1.480  13.950   9.403  1.00  0.00    -0.011 A 
HETATM   10  C7  UNL     1      -2.200  14.842   8.739  1.00  0.00     0.042 A 
HETATM   11  C8  UNL     1      -2.335  16.064   9.572  1.00  0.00     0.295 A 
HETATM   12  F1  UNL     1      -1.664  17.118   8.983  1.00  0.00    -0.222 F 
HETATM   13  N2  UNL     1      -1.600  15.683  10.738  1.00  0.00    -0.342 N 
ATOM     14  H2  UNL     1      -1.479  16.295  11.545  1.00  0.00     0.164 HD
HETATM   15  C9  UNL     1      -1.103  14.493  10.675  1.00  0.00     0.112 A 
HETATM   16  N3  UNL     1      -0.324  13.852  11.678  1.00  0.00    -0.307 N 
ATOM     17  H3  UNL     1       0.502  14.366  11.983  1.00  0.00     0.171 HD
HETATM   18  C10 UNL     1      -0.530  12.608  12.312  1.00  0.00     0.237 C 
HETATM   19  N4  UNL     1      -1.676  12.125  12.997  1.00  0.00    -0.261 N 
ATOM     20  H4  UNL     1      -1.497  11.345  13.629  1.00  0.00     0.190 HD
HETATM   21  N5  UNL     1      -2.984  12.534  12.949  1.00  0.00    -0.249 N 
ATOM     22  H5  UNL     1      -3.326  12.960  13.810  1.00  0.00     0.192 HD
ENDROOT
BRANCH   7  23
HETATM   23  O2  UNL     1      -3.471  12.631   8.769  1.00  0.00    -0.395 OA
ATOM     24  H2  UNL     1      -3.287  13.530   8.520  1.00  0.00     0.210 HD
ENDBRANCH   7  23
BRANCH  18  25
HETATM   25  O3  UNL     1       0.461  11.764  12.275  1.00  0.00    -0.331 OA
ATOM     26  H3  UNL     1       0.397  11.008  12.847  1.00  0.00     0.221 HD
ENDBRANCH  18  25
TORSDOF 2
ENDMDL
