MODEL 1
REMARK VINA RESULT: -5.987496951      0.000      0.000
REMARK  3 active torsions:
REMARK  status: ('A' for Active; 'I' for Inactive)
REMARK    1  A    between atoms: O1_1  and  C1_3 
REMARK    2  A    between atoms: C9_18  and  O2_19 
REMARK    3  A    between atoms: C10_23  and  O3_24 
ROOT
HETATM    1  C1  UNL     1      -3.843  12.200   8.208  1.00  0.00     0.122 C 
HETATM    2  C2  UNL     1      -2.962  12.807   7.193  1.00  0.00     0.124 C 
HETATM    3  C3  UNL     1      -1.644  12.151   7.026  1.00  0.00    -0.024 A 
HETATM    4  C4  UNL     1      -0.875  12.372   5.931  1.00  0.00     0.041 A 
HETATM    5  C5  UNL     1       0.346  11.575   6.084  1.00  0.00     0.294 A 
HETATM    6  F1  UNL     1       0.604  10.759   5.009  1.00  0.00    -0.223 F 
HETATM    7  N1  UNL     1       0.164  10.932   7.308  1.00  0.00    -0.356 N 
ATOM      8  H1  UNL     1       0.854  10.291   7.702  1.00  0.00     0.162 HD
HETATM    9  C6  UNL     1      -0.977  11.221   7.919  1.00  0.00     0.038 A 
HETATM   10  C7  UNL     1      -1.365  10.651   9.186  1.00  0.00     0.048 C 
HETATM   11  C8  UNL     1      -1.230  11.089  10.432  1.00  0.00     0.109 C 
HETATM   12  N2  UNL     1      -0.650  12.274  10.916  1.00  0.00    -0.309 N 
ATOM     13  H2  UNL     1      -0.180  12.161  11.814  1.00  0.00     0.186 HD
HETATM   14  N3  UNL     1      -0.590  13.556  10.421  1.00  0.00    -0.266 N 
ATOM     15  H3  UNL     1       0.361  13.897  10.276  1.00  0.00     0.190 HD
HETATM   16  C9  UNL     1      -1.583  14.486  10.076  1.00  0.00     0.239 C 
HETATM   17  N4  UNL     1      -2.941  14.561  10.373  1.00  0.00    -0.287 N 
ATOM     18  H4  UNL     1      -3.240  15.489  10.672  1.00  0.00     0.173 HD
HETATM   19  C10 UNL     1      -3.990  13.615  10.344  1.00  0.00     0.226 C 
HETATM   20  N5  UNL     1      -4.405  12.697   9.373  1.00  0.00    -0.306 N 
ATOM     21  H5  UNL     1      -5.327  12.307   9.566  1.00  0.00     0.171 HD
ENDROOT
BRANCH   1  22
HETATM   22  O1  UNL     1      -4.115  10.963   7.906  1.00  0.00    -0.349 OA
ATOM     23  H1  UNL     1      -4.502  10.510   8.646  1.00  0.00     0.219 HD
ENDBRANCH   1  22
BRANCH  19  24
HETATM   24  O3  UNL     1      -4.696  13.615  11.437  1.00  0.00    -0.332 OA
ATOM     25  H3  UNL     1      -5.303  12.885  11.482  1.00  0.00     0.221 HD
ENDBRANCH  19  24
BRANCH  16  26
HETATM   26  O2  UNL     1      -1.144  15.463   9.335  1.00  0.00    -0.331 OA
ATOM     27  H2  UNL     1      -1.511  15.467   8.458  1.00  0.00     0.221 HD
ENDBRANCH  16  26
TORSDOF 3
ENDMDL
MODEL 2
REMARK VINA RESULT: -5.469626090      3.420      5.474
REMARK  3 active torsions:
REMARK  status: ('A' for Active; 'I' for Inactive)
REMARK    1  A    between atoms: O1_1  and  C1_3 
REMARK    2  A    between atoms: C9_18  and  O2_19 
REMARK    3  A    between atoms: C10_23  and  O3_24 
ROOT
HETATM    1  C1  UNL     1      -2.884  14.471  10.570  1.00  0.00     0.122 C 
HETATM    2  C2  UNL     1      -4.020  13.731  11.151  1.00  0.00     0.124 C 
HETATM    3  C3  UNL     1      -3.667  12.770  12.221  1.00  0.00    -0.024 A 
HETATM    4  C4  UNL     1      -4.605  12.272  13.065  1.00  0.00     0.041 A 
HETATM    5  C5  UNL     1      -3.923  11.363  13.991  1.00  0.00     0.294 A 
HETATM    6  F1  UNL     1      -4.159  11.651  15.314  1.00  0.00    -0.223 F 
HETATM    7  N1  UNL     1      -2.591  11.420  13.584  1.00  0.00    -0.356 N 
ATOM      8  H1  UNL     1      -1.850  10.889  14.042  1.00  0.00     0.162 HD
HETATM    9  C6  UNL     1      -2.364  12.222  12.552  1.00  0.00     0.038 A 
HETATM   10  C7  UNL     1      -1.055  12.435  11.986  1.00  0.00     0.048 C 
HETATM   11  C8  UNL     1      -0.427  11.861  10.966  1.00  0.00     0.109 C 
HETATM   12  N2  UNL     1      -0.854  10.839  10.101  1.00  0.00    -0.309 N 
ATOM     13  H2  UNL     1      -0.103  10.217   9.803  1.00  0.00     0.186 HD
HETATM   14  N3  UNL     1      -2.083  10.510   9.576  1.00  0.00    -0.266 N 
ATOM     15  H3  UNL     1      -2.395   9.570   9.819  1.00  0.00     0.190 HD
HETATM   16  C9  UNL     1      -2.989  11.218   8.772  1.00  0.00     0.239 C 
HETATM   17  N4  UNL     1      -2.856  12.365   7.994  1.00  0.00    -0.287 N 
ATOM     18  H4  UNL     1      -3.269  12.274   7.066  1.00  0.00     0.173 HD
HETATM   19  C10 UNL     1      -2.267  13.627   8.226  1.00  0.00     0.226 C 
HETATM   20  N5  UNL     1      -2.374  14.537   9.283  1.00  0.00    -0.306 N 
ATOM     21  H5  UNL     1      -1.992  15.455   9.056  1.00  0.00     0.171 HD
ENDROOT
BRANCH   1  22
HETATM   22  O1  UNL     1      -2.280  15.182  11.479  1.00  0.00    -0.349 OA
ATOM     23  H1  UNL     1      -1.587  15.705  11.094  1.00  0.00     0.219 HD
ENDBRANCH   1  22
BRANCH  19  24
HETATM   24  O3  UNL     1      -1.477  13.998   7.260  1.00  0.00    -0.332 OA
ATOM     25  H3  UNL     1      -1.728  13.631   6.420  1.00  0.00     0.221 HD
ENDBRANCH  19  24
BRANCH  16  26
HETATM   26  O2  UNL     1      -4.184  10.700   8.757  1.00  0.00    -0.331 OA
ATOM     27  H2  UNL     1      -4.835  11.237   9.194  1.00  0.00     0.221 HD
ENDBRANCH  16  26
TORSDOF 3
ENDMDL
MODEL 3
REMARK VINA RESULT: -5.392709923      3.453      5.291
REMARK  3 active torsions:
REMARK  status: ('A' for Active; 'I' for Inactive)
REMARK    1  A    between atoms: O1_1  and  C1_3 
REMARK    2  A    between atoms: C9_18  and  O2_19 
REMARK    3  A    between atoms: C10_23  and  O3_24 
ROOT
HETATM    1  C1  UNL     1      -2.765  11.272   9.834  1.00  0.00     0.122 C 
HETATM    2  C2  UNL     1      -1.983  10.983  11.051  1.00  0.00     0.124 C 
HETATM    3  C3  UNL     1      -2.643  11.340  12.327  1.00  0.00    -0.024 A 
HETATM    4  C4  UNL     1      -2.212  10.843  13.513  1.00  0.00     0.041 A 
HETATM    5  C5  UNL     1      -3.079  11.391  14.560  1.00  0.00     0.294 A 
HETATM    6  F1  UNL     1      -3.638  10.430  15.367  1.00  0.00    -0.223 F 
HETATM    7  N1  UNL     1      -3.977  12.192  13.854  1.00  0.00    -0.356 N 
ATOM      8  H1  UNL     1      -4.723  12.718  14.310  1.00  0.00     0.162 HD
HETATM    9  C6  UNL     1      -3.783  12.212  12.542  1.00  0.00     0.038 A 
HETATM   10  C7  UNL     1      -4.610  12.964  11.630  1.00  0.00     0.048 C 
HETATM   11  C8  UNL     1      -4.477  14.178  11.110  1.00  0.00     0.109 C 
HETATM   12  N2  UNL     1      -3.463  15.134  11.293  1.00  0.00    -0.309 N 
ATOM     13  H2  UNL     1      -3.801  16.096  11.274  1.00  0.00     0.186 HD
HETATM   14  N3  UNL     1      -2.106  15.031  11.492  1.00  0.00    -0.266 N 
ATOM     15  H3  UNL     1      -1.785  15.450  12.365  1.00  0.00     0.190 HD
HETATM   16  C9  UNL     1      -1.077  14.462  10.727  1.00  0.00     0.239 C 
HETATM   17  N4  UNL     1      -1.009  14.064   9.395  1.00  0.00    -0.287 N 
ATOM     18  H4  UNL     1      -0.161  14.376   8.921  1.00  0.00     0.173 HD
HETATM   19  C10 UNL     1      -1.872  13.315   8.564  1.00  0.00     0.226 C 
HETATM   20  N5  UNL     1      -2.523  12.090   8.742  1.00  0.00    -0.306 N 
ATOM     21  H5  UNL     1      -2.904  11.715   7.874  1.00  0.00     0.171 HD
ENDROOT
BRANCH   1  22
HETATM   22  O1  UNL     1      -3.885  10.608   9.834  1.00  0.00    -0.349 OA
ATOM     23  H1  UNL     1      -3.945  10.043   9.073  1.00  0.00     0.219 HD
ENDBRANCH   1  22
BRANCH  19  24
HETATM   24  O3  UNL     1      -2.091  13.892   7.418  1.00  0.00    -0.332 OA
ATOM     25  H3  UNL     1      -1.726  13.406   6.687  1.00  0.00     0.221 HD
ENDBRANCH  19  24
BRANCH  16  26
HETATM   26  O2  UNL     1       0.023  14.269  11.397  1.00  0.00    -0.331 OA
ATOM     27  H2  UNL     1       0.793  14.632  10.975  1.00  0.00     0.221 HD
ENDBRANCH  16  26
TORSDOF 3
ENDMDL
MODEL 4
REMARK VINA RESULT: -5.224200667      2.276      4.026
REMARK  3 active torsions:
REMARK  status: ('A' for Active; 'I' for Inactive)
REMARK    1  A    between atoms: O1_1  and  C1_3 
REMARK    2  A    between atoms: C9_18  and  O2_19 
REMARK    3  A    between atoms: C10_23  and  O3_24 
ROOT
HETATM    1  C1  UNL     1      -0.893  12.112  11.798  1.00  0.00     0.122 C 
HETATM    2  C2  UNL     1      -1.008  11.287  10.581  1.00  0.00     0.124 C 
HETATM    3  C3  UNL     1      -1.283  12.037   9.333  1.00  0.00    -0.024 A 
HETATM    4  C4  UNL     1      -1.087  11.479   8.113  1.00  0.00     0.041 A 
HETATM    5  C5  UNL     1      -1.450  12.482   7.108  1.00  0.00     0.294 A 
HETATM    6  F1  UNL     1      -0.461  12.713   6.182  1.00  0.00    -0.223 F 
HETATM    7  N1  UNL     1      -1.839  13.583   7.872  1.00  0.00    -0.356 N 
ATOM      8  H1  UNL     1      -2.151  14.460   7.455  1.00  0.00     0.162 HD
HETATM    9  C6  UNL     1      -1.769  13.396   9.183  1.00  0.00     0.038 A 
HETATM   10  C7  UNL     1      -2.111  14.412  10.148  1.00  0.00     0.048 C 
HETATM   11  C8  UNL     1      -3.236  14.667  10.804  1.00  0.00     0.109 C 
HETATM   12  N2  UNL     1      -4.478  14.010  10.758  1.00  0.00    -0.309 N 
ATOM     13  H2  UNL     1      -5.275  14.636  10.875  1.00  0.00     0.186 HD
HETATM   14  N3  UNL     1      -4.833  12.692  10.589  1.00  0.00    -0.266 N 
ATOM     15  H3  UNL     1      -5.429  12.527   9.778  1.00  0.00     0.190 HD
HETATM   16  C9  UNL     1      -4.534  11.529  11.317  1.00  0.00     0.239 C 
HETATM   17  N4  UNL     1      -4.027  11.329  12.598  1.00  0.00    -0.287 N 
ATOM     18  H4  UNL     1      -4.535  10.621  13.128  1.00  0.00     0.173 HD
HETATM   19  C10 UNL     1      -2.954  11.904  13.314  1.00  0.00     0.226 C 
HETATM   20  N5  UNL     1      -1.615  12.134  12.981  1.00  0.00    -0.306 N 
ATOM     21  H5  UNL     1      -1.041  12.370  13.790  1.00  0.00     0.171 HD
ENDROOT
BRANCH   1  22
HETATM   22  O1  UNL     1       0.086  12.964  11.691  1.00  0.00    -0.349 OA
ATOM     23  H1  UNL     1       0.791  12.605  11.165  1.00  0.00     0.219 HD
ENDBRANCH   1  22
BRANCH  19  24
HETATM   24  O3  UNL     1      -3.296  12.286  14.510  1.00  0.00    -0.332 OA
ATOM     25  H3  UNL     1      -3.586  13.191  14.538  1.00  0.00     0.221 HD
ENDBRANCH  19  24
BRANCH  16  26
HETATM   26  O2  UNL     1      -4.776  10.430  10.661  1.00  0.00    -0.331 OA
ATOM     27  H2  UNL     1      -5.419   9.872  11.083  1.00  0.00     0.221 HD
ENDBRANCH  16  26
TORSDOF 3
ENDMDL
MODEL 5
REMARK VINA RESULT: -4.871505469      2.535      3.926
REMARK  3 active torsions:
REMARK  status: ('A' for Active; 'I' for Inactive)
REMARK    1  A    between atoms: O1_1  and  C1_3 
REMARK    2  A    between atoms: C9_18  and  O2_19 
REMARK    3  A    between atoms: C10_23  and  O3_24 
ROOT
HETATM    1  C1  UNL     1      -0.784  11.373   9.786  1.00  0.00     0.122 C 
HETATM    2  C2  UNL     1      -2.085  10.696   9.626  1.00  0.00     0.124 C 
HETATM    3  C3  UNL     1      -2.967  11.261   8.580  1.00  0.00    -0.024 A 
HETATM    4  C4  UNL     1      -4.023  10.564   8.091  1.00  0.00     0.041 A 
HETATM    5  C5  UNL     1      -4.674  11.405   7.081  1.00  0.00     0.294 A 
HETATM    6  F1  UNL     1      -4.831  10.780   5.868  1.00  0.00    -0.223 F 
HETATM    7  N1  UNL     1      -3.898  12.564   7.073  1.00  0.00    -0.356 N 
ATOM      8  H1  UNL     1      -4.096  13.356   6.461  1.00  0.00     0.162 HD
HETATM    9  C6  UNL     1      -2.882  12.553   7.926  1.00  0.00     0.038 A 
HETATM   10  C7  UNL     1      -1.950  13.645   8.063  1.00  0.00     0.048 C 
HETATM   11  C8  UNL     1      -1.914  14.679   8.894  1.00  0.00     0.109 C 
HETATM   12  N2  UNL     1      -2.799  15.041   9.925  1.00  0.00    -0.309 N 
ATOM     13  H2  UNL     1      -2.903  16.050  10.038  1.00  0.00     0.186 HD
HETATM   14  N3  UNL     1      -3.551  14.307  10.813  1.00  0.00    -0.266 N 
ATOM     15  H3  UNL     1      -4.553  14.487  10.749  1.00  0.00     0.190 HD
HETATM   16  C9  UNL     1      -3.207  13.359  11.789  1.00  0.00     0.239 C 
HETATM   17  N4  UNL     1      -1.998  13.038  12.399  1.00  0.00    -0.287 N 
ATOM     18  H4  UNL     1      -2.069  12.940  13.412  1.00  0.00     0.173 HD
HETATM   19  C10 UNL     1      -0.693  12.820  11.904  1.00  0.00     0.226 C 
HETATM   20  N5  UNL     1      -0.202  12.033  10.857  1.00  0.00    -0.306 N 
ATOM     21  H5  UNL     1       0.811  11.920  10.888  1.00  0.00     0.171 HD
ENDROOT
BRANCH   1  22
HETATM   22  O1  UNL     1      -0.090  11.310   8.687  1.00  0.00    -0.349 OA
ATOM     23  H1  UNL     1      -0.254  12.069   8.139  1.00  0.00     0.219 HD
ENDBRANCH   1  22
BRANCH  19  24
HETATM   24  O3  UNL     1       0.212  13.484  12.563  1.00  0.00    -0.332 OA
ATOM     25  H3  UNL     1       0.634  14.151  12.035  1.00  0.00     0.221 HD
ENDBRANCH  19  24
BRANCH  16  26
HETATM   26  O2  UNL     1      -4.217  12.644  12.196  1.00  0.00    -0.331 OA
ATOM     27  H2  UNL     1      -4.138  11.722  11.981  1.00  0.00     0.221 HD
ENDBRANCH  16  26
TORSDOF 3
ENDMDL
