MODEL 1
REMARK VINA RESULT: -8.658739713      0.000      0.000
REMARK  3 active torsions:
REMARK  status: ('A' for Active; 'I' for Inactive)
REMARK    1  A    between atoms: C1_2  and  O2_4 
REMARK    2  A    between atoms: O2_4  and  C2_5 
REMARK    3  A    between atoms: N4_13  and  C6_14 
ROOT
HETATM    1  C2  UNL     1       3.100  19.748   0.985  1.00  0.00     0.151 C 
HETATM    2  C3  UNL     1       2.694  18.925   1.958  1.00  0.00     0.088 C 
HETATM    3  C4  UNL     1       2.082  17.619   1.859  1.00  0.00     0.118 C 
HETATM    4  N2  UNL     1       1.753  16.937   3.074  1.00  0.00    -0.083 NA
HETATM    5  N3  UNL     1       1.791  16.984   0.806  1.00  0.00    -0.332 N 
ATOM      6  H3  UNL     1       1.367  16.086   1.040  1.00  0.00     0.165 HD
HETATM    7  C5  UNL     1       1.874  17.137  -0.593  1.00  0.00     0.387 C 
HETATM    8  F1  UNL     1       2.651  16.149  -1.202  1.00  0.00    -0.202 F 
HETATM    9  N4  UNL     1       2.328  18.418  -1.083  1.00  0.00    -0.249 N 
HETATM   10  C10 UNL     1       3.008  19.494  -0.441  1.00  0.00     0.287 C 
HETATM   11  O3  UNL     1       3.598  20.322  -1.189  1.00  0.00    -0.265 OA
ENDROOT
BRANCH   9  12
HETATM   12  C6  UNL     1       2.035  18.637  -2.470  1.00  0.00     0.110 A 
HETATM   13  C7  UNL     1       2.186  17.777  -3.462  1.00  0.00     0.027 A 
HETATM   14  C8  UNL     1       1.757  18.424  -4.754  1.00  0.00     0.075 A 
HETATM   15  C9  UNL     1       1.358  19.771  -4.267  1.00  0.00     0.066 A 
HETATM   16  N5  UNL     1       1.528  19.842  -3.006  1.00  0.00    -0.356 N 
ATOM     17  H5  UNL     1       1.322  20.671  -2.449  1.00  0.00     0.166 HD
ENDBRANCH   9  12
BRANCH   1  18
HETATM   18  O2  UNL     1       3.654  20.946   1.398  1.00  0.00    -0.258 OA
BRANCH  18  19
HETATM   19  C1  UNL     1       5.022  21.188   1.440  1.00  0.00     0.378 C 
HETATM   20  N1  UNL     1       5.927  20.090   1.503  1.00  0.00    -0.032 NA
HETATM   21  O1  UNL     1       5.402  22.369   1.421  1.00  0.00    -0.242 OA
ENDBRANCH  18  19
ENDBRANCH   1  18
TORSDOF 3
ENDMDL
MODEL 2
REMARK VINA RESULT: -8.343675118      2.509      3.657
REMARK  3 active torsions:
REMARK  status: ('A' for Active; 'I' for Inactive)
REMARK    1  A    between atoms: C1_2  and  O2_4 
REMARK    2  A    between atoms: O2_4  and  C2_5 
REMARK    3  A    between atoms: N4_13  and  C6_14 
ROOT
HETATM    1  C2  UNL     1       3.607  18.636   1.375  1.00  0.00     0.151 C 
HETATM    2  C3  UNL     1       4.249  19.760   1.710  1.00  0.00     0.088 C 
HETATM    3  C4  UNL     1       4.330  21.017   1.002  1.00  0.00     0.118 C 
HETATM    4  N2  UNL     1       5.084  22.078   1.598  1.00  0.00    -0.083 NA
HETATM    5  N3  UNL     1       3.805  21.308  -0.110  1.00  0.00    -0.332 N 
ATOM      6  H3  UNL     1       4.031  22.269  -0.368  1.00  0.00     0.165 HD
HETATM    7  C5  UNL     1       3.002  20.711  -1.103  1.00  0.00     0.387 C 
HETATM    8  F1  UNL     1       1.789  21.377  -1.294  1.00  0.00    -0.202 F 
HETATM    9  N4  UNL     1       2.711  19.304  -0.948  1.00  0.00    -0.249 N 
HETATM   10  C10 UNL     1       2.818  18.430   0.174  1.00  0.00     0.287 C 
HETATM   11  O3  UNL     1       2.158  17.357   0.124  1.00  0.00    -0.265 OA
ENDROOT
BRANCH   9  12
HETATM   12  C6  UNL     1       2.228  18.683  -2.147  1.00  0.00     0.110 A 
HETATM   13  C7  UNL     1       2.950  18.118  -3.098  1.00  0.00     0.027 A 
HETATM   14  C8  UNL     1       2.035  17.593  -4.175  1.00  0.00     0.075 A 
HETATM   15  C9  UNL     1       0.710  17.984  -3.623  1.00  0.00     0.066 A 
HETATM   16  N5  UNL     1       0.866  18.580  -2.508  1.00  0.00    -0.356 N 
ATOM     17  H5  UNL     1       0.098  18.940  -1.942  1.00  0.00     0.166 HD
ENDBRANCH   9  12
BRANCH   1  18
HETATM   18  O2  UNL     1       3.717  17.586   2.268  1.00  0.00    -0.258 OA
BRANCH  18  19
HETATM   19  C1  UNL     1       2.924  17.451   3.400  1.00  0.00     0.378 C 
HETATM   20  N1  UNL     1       3.187  18.260   4.543  1.00  0.00    -0.032 NA
HETATM   21  O1  UNL     1       2.004  16.618   3.368  1.00  0.00    -0.242 OA
ENDBRANCH  18  19
ENDBRANCH   1  18
TORSDOF 3
ENDMDL
MODEL 3
REMARK VINA RESULT: -7.987781844      0.982      1.031
REMARK  3 active torsions:
REMARK  status: ('A' for Active; 'I' for Inactive)
REMARK    1  A    between atoms: C1_2  and  O2_4 
REMARK    2  A    between atoms: O2_4  and  C2_5 
REMARK    3  A    between atoms: N4_13  and  C6_14 
ROOT
HETATM    1  C2  UNL     1       3.729  19.646   1.151  1.00  0.00     0.151 C 
HETATM    2  C3  UNL     1       3.219  18.997   2.204  1.00  0.00     0.088 C 
HETATM    3  C4  UNL     1       2.297  17.885   2.238  1.00  0.00     0.118 C 
HETATM    4  N2  UNL     1       1.917  17.363   3.516  1.00  0.00    -0.083 NA
HETATM    5  N3  UNL     1       1.766  17.296   1.253  1.00  0.00    -0.332 N 
ATOM      6  H3  UNL     1       1.154  16.546   1.577  1.00  0.00     0.165 HD
HETATM    7  C5  UNL     1       1.760  17.359  -0.155  1.00  0.00     0.387 C 
HETATM    8  F1  UNL     1       2.211  16.181  -0.754  1.00  0.00    -0.202 F 
HETATM    9  N4  UNL     1       2.472  18.461  -0.761  1.00  0.00    -0.249 N 
HETATM   10  C10 UNL     1       3.451  19.359  -0.244  1.00  0.00     0.287 C 
HETATM   11  O3  UNL     1       4.159  19.976  -1.087  1.00  0.00    -0.265 OA
ENDROOT
BRANCH   9  12
HETATM   12  C6  UNL     1       2.121  18.683  -2.134  1.00  0.00     0.110 A 
HETATM   13  C7  UNL     1       2.153  17.802  -3.118  1.00  0.00     0.027 A 
HETATM   14  C8  UNL     1       1.704  18.462  -4.396  1.00  0.00     0.075 A 
HETATM   15  C9  UNL     1       1.433  19.842  -3.911  1.00  0.00     0.066 A 
HETATM   16  N5  UNL     1       1.676  19.915  -2.663  1.00  0.00    -0.356 N 
ATOM     17  H5  UNL     1       1.564  20.765  -2.110  1.00  0.00     0.166 HD
ENDBRANCH   9  12
BRANCH   1  18
HETATM   18  O2  UNL     1       4.597  20.682   1.441  1.00  0.00    -0.258 OA
BRANCH  18  19
HETATM   19  C1  UNL     1       4.302  22.021   1.214  1.00  0.00     0.378 C 
HETATM   20  N1  UNL     1       5.364  22.960   1.078  1.00  0.00    -0.032 NA
HETATM   21  O1  UNL     1       3.106  22.346   1.136  1.00  0.00    -0.242 OA
ENDBRANCH  18  19
ENDBRANCH   1  18
TORSDOF 3
ENDMDL
MODEL 4
REMARK VINA RESULT: -7.917925060      2.432      3.603
REMARK  3 active torsions:
REMARK  status: ('A' for Active; 'I' for Inactive)
REMARK    1  A    between atoms: C1_2  and  O2_4 
REMARK    2  A    between atoms: O2_4  and  C2_5 
REMARK    3  A    between atoms: N4_13  and  C6_14 
ROOT
HETATM    1  C2  UNL     1       3.728  18.688   1.144  1.00  0.00     0.151 C 
HETATM    2  C3  UNL     1       4.223  19.876   1.507  1.00  0.00     0.088 C 
HETATM    3  C4  UNL     1       4.123  21.154   0.840  1.00  0.00     0.118 C 
HETATM    4  N2  UNL     1       4.741  22.287   1.459  1.00  0.00    -0.083 NA
HETATM    5  N3  UNL     1       3.543  21.407  -0.254  1.00  0.00    -0.332 N 
ATOM      6  H3  UNL     1       3.635  22.397  -0.483  1.00  0.00     0.165 HD
HETATM    7  C5  UNL     1       2.807  20.740  -1.254  1.00  0.00     0.387 C 
HETATM    8  F1  UNL     1       1.513  21.244  -1.405  1.00  0.00    -0.202 F 
HETATM    9  N4  UNL     1       2.708  19.302  -1.141  1.00  0.00    -0.249 N 
HETATM   10  C10 UNL     1       2.951  18.416  -0.051  1.00  0.00     0.287 C 
HETATM   11  O3  UNL     1       2.437  17.267  -0.127  1.00  0.00    -0.265 OA
ENDROOT
BRANCH   9  12
HETATM   12  C6  UNL     1       2.288  18.661  -2.353  1.00  0.00     0.110 A 
HETATM   13  C7  UNL     1       1.167  18.871  -3.020  1.00  0.00     0.027 A 
HETATM   14  C8  UNL     1       1.134  17.981  -4.236  1.00  0.00     0.075 A 
HETATM   15  C9  UNL     1       2.430  17.267  -4.089  1.00  0.00     0.066 A 
HETATM   16  N5  UNL     1       3.030  17.673  -3.041  1.00  0.00    -0.356 N 
ATOM     17  H5  UNL     1       3.938  17.327  -2.734  1.00  0.00     0.166 HD
ENDBRANCH   9  12
BRANCH   1  18
HETATM   18  O2  UNL     1       3.994  17.634   1.999  1.00  0.00    -0.258 OA
BRANCH  18  19
HETATM   19  C1  UNL     1       3.478  17.538   3.286  1.00  0.00     0.378 C 
HETATM   20  N1  UNL     1       2.230  16.886   3.496  1.00  0.00    -0.032 NA
HETATM   21  O1  UNL     1       4.139  18.033   4.214  1.00  0.00    -0.242 OA
ENDBRANCH  18  19
ENDBRANCH   1  18
TORSDOF 3
ENDMDL
MODEL 5
REMARK VINA RESULT: -6.618120934      3.330      6.090
REMARK  3 active torsions:
REMARK  status: ('A' for Active; 'I' for Inactive)
REMARK    1  A    between atoms: C1_2  and  O2_4 
REMARK    2  A    between atoms: O2_4  and  C2_5 
REMARK    3  A    between atoms: N4_13  and  C6_14 
ROOT
HETATM    1  C2  UNL     1       3.635  19.450   1.527  1.00  0.00     0.151 C 
HETATM    2  C3  UNL     1       2.930  18.399   1.094  1.00  0.00     0.088 C 
HETATM    3  C4  UNL     1       1.989  17.568   1.808  1.00  0.00     0.118 C 
HETATM    4  N2  UNL     1       1.354  16.501   1.094  1.00  0.00    -0.083 NA
HETATM    5  N3  UNL     1       1.644  17.663   3.020  1.00  0.00    -0.332 N 
ATOM      6  H3  UNL     1       0.963  16.940   3.254  1.00  0.00     0.165 HD
HETATM    7  C5  UNL     1       1.912  18.464   4.149  1.00  0.00     0.387 C 
HETATM    8  F1  UNL     1       0.777  19.116   4.635  1.00  0.00    -0.202 F 
HETATM    9  N4  UNL     1       2.961  19.450   4.015  1.00  0.00    -0.249 N 
HETATM   10  C10 UNL     1       3.603  20.003   2.868  1.00  0.00     0.287 C 
HETATM   11  O3  UNL     1       4.214  21.095   3.030  1.00  0.00    -0.265 OA
ENDROOT
BRANCH   9  12
HETATM   12  C6  UNL     1       3.435  19.956   5.270  1.00  0.00     0.110 A 
HETATM   13  C7  UNL     1       4.280  19.369   6.098  1.00  0.00     0.027 A 
HETATM   14  C8  UNL     1       4.501  20.254   7.299  1.00  0.00     0.075 A 
HETATM   15  C9  UNL     1       3.623  21.405   6.955  1.00  0.00     0.066 A 
HETATM   16  N5  UNL     1       3.058  21.196   5.832  1.00  0.00    -0.356 N 
ATOM     17  H5  UNL     1       2.410  21.848   5.391  1.00  0.00     0.166 HD
ENDBRANCH   9  12
BRANCH   1  18
HETATM   18  O2  UNL     1       4.464  20.048   0.596  1.00  0.00    -0.258 OA
BRANCH  18  19
HETATM   19  C1  UNL     1       4.039  21.019  -0.303  1.00  0.00     0.378 C 
HETATM   20  N1  UNL     1       4.338  22.388  -0.051  1.00  0.00    -0.032 NA
HETATM   21  O1  UNL     1       3.406  20.645  -1.304  1.00  0.00    -0.242 OA
ENDBRANCH  18  19
ENDBRANCH   1  18
TORSDOF 3
ENDMDL
