MODEL 1
REMARK VINA RESULT: -6.390167586      0.000      0.000
REMARK  0 active torsions:
REMARK  status: ('A' for Active; 'I' for Inactive)
ROOT
HETATM    1  N1  UNL     1      17.373  -7.587   1.068  1.00  0.00    -0.100 NA
HETATM    2  C1  UNL     1      18.347  -7.254   0.096  1.00  0.00     0.078 A 
HETATM    3  C2  UNL     1      17.999  -6.900  -1.195  1.00  0.00     0.134 A 
HETATM    4  N2  UNL     1      18.951  -6.590  -2.093  1.00  0.00    -0.308 N 
ATOM      5  H2  UNL     1      18.674  -6.331  -3.040  1.00  0.00     0.186 HD
HETATM    6  N3  UNL     1      20.245  -6.610  -1.781  1.00  0.00    -0.284 N 
ATOM      7  H3  UNL     1      20.933  -6.366  -2.494  1.00  0.00     0.188 HD
HETATM    8  C3  UNL     1      20.666  -6.942  -0.554  1.00  0.00     0.148 A 
HETATM    9  N4  UNL     1      21.888  -7.044   0.025  1.00  0.00    -0.284 N 
ATOM     10  H4  UNL     1      22.789  -6.866  -0.420  1.00  0.00     0.188 HD
HETATM   11  N5  UNL     1      21.692  -7.414   1.271  1.00  0.00    -0.309 N 
ATOM     12  H5  UNL     1      22.438  -7.569   1.948  1.00  0.00     0.186 HD
HETATM   13  C4  UNL     1      20.391  -7.561   1.537  1.00  0.00     0.124 A 
HETATM   14  C5  UNL     1      19.705  -7.264   0.381  1.00  0.00     0.053 A 
ENDROOT
TORSDOF 0
ENDMDL
MODEL 2
REMARK VINA RESULT: -6.219645711      1.639      2.517
REMARK  0 active torsions:
REMARK  status: ('A' for Active; 'I' for Inactive)
ROOT
HETATM    1  N1  UNL     1      15.844  -6.473  -2.290  1.00  0.00    -0.100 NA
HETATM    2  C1  UNL     1      17.244  -6.375  -2.110  1.00  0.00     0.078 A 
HETATM    3  C2  UNL     1      18.073  -5.869  -3.096  1.00  0.00     0.134 A 
HETATM    4  N2  UNL     1      19.400  -5.790  -2.891  1.00  0.00    -0.308 N 
ATOM      5  H2  UNL     1      19.994  -5.414  -3.630  1.00  0.00     0.186 HD
HETATM    6  N3  UNL     1      19.961  -6.189  -1.751  1.00  0.00    -0.284 N 
ATOM      7  H3  UNL     1      20.971  -6.110  -1.639  1.00  0.00     0.188 HD
HETATM    8  C3  UNL     1      19.230  -6.691  -0.748  1.00  0.00     0.148 A 
HETATM    9  N4  UNL     1      19.528  -7.162   0.489  1.00  0.00    -0.284 N 
ATOM     10  H4  UNL     1      20.455  -7.221   0.909  1.00  0.00     0.188 HD
HETATM   11  N5  UNL     1      18.394  -7.528   1.042  1.00  0.00    -0.309 N 
ATOM     12  H5  UNL     1      18.313  -7.923   1.980  1.00  0.00     0.186 HD
HETATM   13  C4  UNL     1      17.360  -7.319   0.223  1.00  0.00     0.124 A 
HETATM   14  C5  UNL     1      17.867  -6.780  -0.938  1.00  0.00     0.053 A 
ENDROOT
TORSDOF 0
ENDMDL
MODEL 3
REMARK VINA RESULT: -6.182715950      1.840      2.168
REMARK  0 active torsions:
REMARK  status: ('A' for Active; 'I' for Inactive)
ROOT
HETATM    1  N1  UNL     1      16.043  -7.417  -0.950  1.00  0.00    -0.100 NA
HETATM    2  C1  UNL     1      17.214  -7.177  -1.708  1.00  0.00     0.078 A 
HETATM    3  C2  UNL     1      17.281  -7.466  -3.059  1.00  0.00     0.134 A 
HETATM    4  N2  UNL     1      18.410  -7.225  -3.748  1.00  0.00    -0.308 N 
ATOM      5  H2  UNL     1      18.440  -7.446  -4.744  1.00  0.00     0.186 HD
HETATM    6  N3  UNL     1      19.491  -6.706  -3.169  1.00  0.00    -0.284 N 
ATOM      7  H3  UNL     1      20.325  -6.539  -3.731  1.00  0.00     0.188 HD
HETATM    8  C3  UNL     1      19.508  -6.397  -1.866  1.00  0.00     0.148 A 
HETATM    9  N4  UNL     1      20.444  -5.871  -1.037  1.00  0.00    -0.284 N 
ATOM     10  H4  UNL     1      21.392  -5.592  -1.290  1.00  0.00     0.188 HD
HETATM   11  N5  UNL     1      19.896  -5.789   0.155  1.00  0.00    -0.309 N 
ATOM     12  H5  UNL     1      20.372  -5.428   0.981  1.00  0.00     0.186 HD
HETATM   13  C4  UNL     1      18.639  -6.239   0.147  1.00  0.00     0.124 A 
HETATM   14  C5  UNL     1      18.360  -6.637  -1.142  1.00  0.00     0.053 A 
ENDROOT
TORSDOF 0
ENDMDL
MODEL 4
REMARK VINA RESULT: -6.077572890      1.245      1.473
REMARK  0 active torsions:
REMARK  status: ('A' for Active; 'I' for Inactive)
ROOT
HETATM    1  N1  UNL     1      16.442  -7.425  -0.898  1.00  0.00    -0.100 NA
HETATM    2  C1  UNL     1      17.787  -6.991  -0.973  1.00  0.00     0.078 A 
HETATM    3  C2  UNL     1      18.279  -6.327  -2.083  1.00  0.00     0.134 A 
HETATM    4  N2  UNL     1      19.563  -5.929  -2.119  1.00  0.00    -0.308 N 
ATOM      5  H2  UNL     1      19.908  -5.441  -2.947  1.00  0.00     0.186 HD
HETATM    6  N3  UNL     1      20.399  -6.152  -1.107  1.00  0.00    -0.284 N 
ATOM      7  H3  UNL     1      21.364  -5.832  -1.178  1.00  0.00     0.188 HD
HETATM    8  C3  UNL     1      20.002  -6.788   0.002  1.00  0.00     0.148 A 
HETATM    9  N4  UNL     1      20.621  -7.142   1.156  1.00  0.00    -0.284 N 
ATOM     10  H4  UNL     1      21.596  -6.966   1.401  1.00  0.00     0.188 HD
HETATM   11  N5  UNL     1      19.726  -7.753   1.899  1.00  0.00    -0.309 N 
ATOM     12  H5  UNL     1      19.912  -8.131   2.828  1.00  0.00     0.186 HD
HETATM   13  C4  UNL     1      18.543  -7.819   1.284  1.00  0.00     0.124 A 
HETATM   14  C5  UNL     1      18.688  -7.204   0.060  1.00  0.00     0.053 A 
ENDROOT
TORSDOF 0
ENDMDL
MODEL 5
REMARK VINA RESULT: -6.042161086      0.723      2.908
REMARK  0 active torsions:
REMARK  status: ('A' for Active; 'I' for Inactive)
ROOT
HETATM    1  N1  UNL     1      18.278  -8.103   1.920  1.00  0.00    -0.100 NA
HETATM    2  C1  UNL     1      19.388  -7.618   1.190  1.00  0.00     0.078 A 
HETATM    3  C2  UNL     1      20.682  -7.726   1.670  1.00  0.00     0.134 A 
HETATM    4  N2  UNL     1      21.714  -7.254   0.948  1.00  0.00    -0.308 N 
ATOM      5  H2  UNL     1      22.660  -7.343   1.320  1.00  0.00     0.186 HD
HETATM    6  N3  UNL     1      21.537  -6.674  -0.237  1.00  0.00    -0.284 N 
ATOM      7  H3  UNL     1      22.350  -6.332  -0.750  1.00  0.00     0.188 HD
HETATM    8  C3  UNL     1      20.318  -6.530  -0.772  1.00  0.00     0.148 A 
HETATM    9  N4  UNL     1      19.857  -5.993  -1.930  1.00  0.00    -0.284 N 
ATOM     10  H4  UNL     1      20.417  -5.564  -2.666  1.00  0.00     0.188 HD
HETATM   11  N5  UNL     1      18.550  -6.133  -1.922  1.00  0.00    -0.309 N 
ATOM     12  H5  UNL     1      17.935  -5.819  -2.672  1.00  0.00     0.186 HD
HETATM   13  C4  UNL     1      18.130  -6.739  -0.809  1.00  0.00     0.124 A 
HETATM   14  C5  UNL     1      19.246  -7.007  -0.048  1.00  0.00     0.053 A 
ENDROOT
TORSDOF 0
ENDMDL
