MODEL 1
REMARK VINA RESULT: -6.911577193      0.000      0.000
REMARK  12 active torsions:
REMARK  status: ('A' for Active; 'I' for Inactive)
REMARK    1  A    between atoms: N1_1  and  C1_5 
REMARK    2  A    between atoms: C2_6  and  O1_7 
REMARK    3  A    between atoms: C2_6  and  C3_9 
REMARK    4  A    between atoms: C3_9  and  O2_10 
REMARK    5  A    between atoms: O2_10  and  C4_11 
REMARK    6  A    between atoms: C7_17  and  C8_18 
REMARK    7  A    between atoms: C7_17  and  C9_21 
REMARK    8  A    between atoms: C8_18  and  O6_19 
REMARK    9  A    between atoms: C9_21  and  O7_22 
REMARK   10  A    between atoms: C9_21  and  C10_24 
REMARK   11  A    between atoms: C10_24  and  C11_25 
REMARK   12  A    between atoms: C11_25  and  O8_26 
ROOT
HETATM    1  C1  UNL     1      18.509  -7.444  -0.159  1.00  0.00     0.237 C 
HETATM    2  C2  UNL     1      19.141  -8.181   0.937  1.00  0.00     0.130 C 
HETATM    3  C5  UNL     1      20.582  -7.988   1.219  1.00  0.00     0.209 C 
HETATM    4  O5  UNL     1      21.234  -7.108   0.370  1.00  0.00    -0.387 OA
HETATM    5  C6  UNL     1      20.745  -7.196  -0.939  1.00  0.00     0.184 C 
HETATM    6  C7  UNL     1      19.435  -6.457  -0.923  1.00  0.00     0.059 C 
ENDROOT
BRANCH   6   7
HETATM    7  C8  UNL     1      19.624  -5.215  -0.094  1.00  0.00     0.180 C 
BRANCH   7   8
HETATM    8  O6  UNL     1      20.811  -4.555  -0.387  1.00  0.00    -0.400 OA
ATOM      9  H6  UNL     1      20.833  -3.671  -0.037  1.00  0.00     0.209 HD
ENDBRANCH   7   8
ENDBRANCH   6   7
BRANCH   6  10
HETATM   10  C9  UNL     1      18.833  -6.264  -2.240  1.00  0.00     0.135 C 
BRANCH  10  11
HETATM   11  O7  UNL     1      17.977  -7.372  -2.488  1.00  0.00    -0.395 OA
ATOM     12  H7  UNL     1      18.098  -7.631  -3.393  1.00  0.00     0.210 HD
ENDBRANCH  10  11
BRANCH  10  13
HETATM   13  C10 UNL     1      19.571  -6.006  -3.462  1.00  0.00     0.058 C 
BRANCH  13  14
HETATM   14  C11 UNL     1      19.272  -6.754  -4.706  1.00  0.00     0.166 C 
BRANCH  14  15
HETATM   15  O8  UNL     1      19.793  -8.072  -4.695  1.00  0.00    -0.401 OA
ATOM     16  H8  UNL     1      19.119  -8.735  -4.599  1.00  0.00     0.209 HD
ENDBRANCH  14  15
ENDBRANCH  13  14
ENDBRANCH  10  13
ENDBRANCH   6  10
BRANCH   1  17
HETATM   17  N1  UNL     1      17.284  -6.839   0.102  1.00  0.00    -0.071 N 
ATOM     18  H13 UNL     1      16.561  -7.555   0.173  1.00  0.00     0.274 HD
ATOM     19  H12 UNL     1      17.283  -6.473   1.054  1.00  0.00     0.274 HD
ATOM     20  H11 UNL     1      16.976  -6.110  -0.541  1.00  0.00     0.274 HD
ENDBRANCH   1  17
BRANCH   2  21
HETATM   21  O1  UNL     1      18.997  -9.586   0.712  1.00  0.00    -0.383 OA
ATOM     22  H1  UNL     1      19.403 -10.065   1.426  1.00  0.00     0.210 HD
ENDBRANCH   2  21
BRANCH   2  23
HETATM   23  C3  UNL     1      18.392  -8.039   2.275  1.00  0.00     0.224 C 
BRANCH  23  24
HETATM   24  O2  UNL     1      19.219  -8.159   3.374  1.00  0.00    -0.293 OA
BRANCH  24  25
HETATM   25  C4  UNL     1      18.736  -8.573   4.605  1.00  0.00     0.332 C 
HETATM   26  O3  UNL     1      19.474  -9.081   5.460  1.00  0.00    -0.624 OA
HETATM   27  O4  UNL     1      17.388  -8.414   4.896  1.00  0.00    -0.624 OA
ENDBRANCH  24  25
ENDBRANCH  23  24
ENDBRANCH   2  23
TORSDOF 12
ENDMDL
MODEL 2
REMARK VINA RESULT: -6.662543916      0.992      1.106
REMARK  12 active torsions:
REMARK  status: ('A' for Active; 'I' for Inactive)
REMARK    1  A    between atoms: N1_1  and  C1_5 
REMARK    2  A    between atoms: C2_6  and  O1_7 
REMARK    3  A    between atoms: C2_6  and  C3_9 
REMARK    4  A    between atoms: C3_9  and  O2_10 
REMARK    5  A    between atoms: O2_10  and  C4_11 
REMARK    6  A    between atoms: C7_17  and  C8_18 
REMARK    7  A    between atoms: C7_17  and  C9_21 
REMARK    8  A    between atoms: C8_18  and  O6_19 
REMARK    9  A    between atoms: C9_21  and  O7_22 
REMARK   10  A    between atoms: C9_21  and  C10_24 
REMARK   11  A    between atoms: C10_24  and  C11_25 
REMARK   12  A    between atoms: C11_25  and  O8_26 
ROOT
HETATM    1  C1  UNL     1      18.656  -7.337  -0.198  1.00  0.00     0.237 C 
HETATM    2  C2  UNL     1      19.237  -8.150   0.872  1.00  0.00     0.130 C 
HETATM    3  C5  UNL     1      20.668  -7.993   1.221  1.00  0.00     0.209 C 
HETATM    4  O5  UNL     1      21.361  -7.069   0.457  1.00  0.00    -0.387 OA
HETATM    5  C6  UNL     1      20.923  -7.067  -0.874  1.00  0.00     0.184 C 
HETATM    6  C7  UNL     1      19.621  -6.314  -0.860  1.00  0.00     0.059 C 
ENDROOT
BRANCH   6   7
HETATM    7  C8  UNL     1      19.789  -5.130   0.054  1.00  0.00     0.180 C 
BRANCH   7   8
HETATM    8  O6  UNL     1      20.908  -4.369  -0.262  1.00  0.00    -0.400 OA
ATOM      9  H6  UNL     1      20.927  -3.540   0.202  1.00  0.00     0.209 HD
ENDBRANCH   7   8
ENDBRANCH   6   7
BRANCH   6  10
HETATM   10  C9  UNL     1      19.074  -6.030  -2.184  1.00  0.00     0.135 C 
BRANCH  10  11
HETATM   11  O7  UNL     1      17.866  -5.301  -2.004  1.00  0.00    -0.395 OA
ATOM     12  H7  UNL     1      17.158  -5.931  -1.932  1.00  0.00     0.210 HD
ENDBRANCH  10  11
BRANCH  10  13
HETATM   13  C10 UNL     1      18.830  -7.022  -3.214  1.00  0.00     0.058 C 
BRANCH  13  14
HETATM   14  C11 UNL     1      17.449  -7.393  -3.605  1.00  0.00     0.166 C 
BRANCH  14  15
HETATM   15  O8  UNL     1      16.837  -8.283  -2.687  1.00  0.00    -0.401 OA
ATOM     16  H8  UNL     1      16.034  -7.935  -2.316  1.00  0.00     0.209 HD
ENDBRANCH  14  15
ENDBRANCH  13  14
ENDBRANCH  10  13
ENDBRANCH   6  10
BRANCH   1  17
HETATM   17  N1  UNL     1      17.428  -6.734   0.054  1.00  0.00    -0.071 N 
ATOM     18  H13 UNL     1      17.188  -6.118  -0.723  1.00  0.00     0.274 HD
ATOM     19  H12 UNL     1      16.687  -7.432  -0.022  1.00  0.00     0.274 HD
ATOM     20  H11 UNL     1      17.327  -6.227   0.932  1.00  0.00     0.274 HD
ENDBRANCH   1  17
BRANCH   2  21
HETATM   21  O1  UNL     1      19.088  -9.536   0.551  1.00  0.00    -0.383 OA
ATOM     22  H1  UNL     1      19.634 -10.056   1.129  1.00  0.00     0.210 HD
ENDBRANCH   2  21
BRANCH   2  23
HETATM   23  C3  UNL     1      18.437  -8.085   2.186  1.00  0.00     0.224 C 
BRANCH  23  24
HETATM   24  O2  UNL     1      19.233  -8.177   3.309  1.00  0.00    -0.293 OA
BRANCH  24  25
HETATM   25  C4  UNL     1      18.719  -8.566   4.536  1.00  0.00     0.332 C 
HETATM   26  O3  UNL     1      19.439  -9.029   5.431  1.00  0.00    -0.624 OA
HETATM   27  O4  UNL     1      17.357  -8.434   4.776  1.00  0.00    -0.624 OA
ENDBRANCH  24  25
ENDBRANCH  23  24
ENDBRANCH   2  23
TORSDOF 12
ENDMDL
MODEL 3
REMARK VINA RESULT: -6.460488334      1.656      6.344
REMARK  12 active torsions:
REMARK  status: ('A' for Active; 'I' for Inactive)
REMARK    1  A    between atoms: N1_1  and  C1_5 
REMARK    2  A    between atoms: C2_6  and  O1_7 
REMARK    3  A    between atoms: C2_6  and  C3_9 
REMARK    4  A    between atoms: C3_9  and  O2_10 
REMARK    5  A    between atoms: O2_10  and  C4_11 
REMARK    6  A    between atoms: C7_17  and  C8_18 
REMARK    7  A    between atoms: C7_17  and  C9_21 
REMARK    8  A    between atoms: C8_18  and  O6_19 
REMARK    9  A    between atoms: C9_21  and  O7_22 
REMARK   10  A    between atoms: C9_21  and  C10_24 
REMARK   11  A    between atoms: C10_24  and  C11_25 
REMARK   12  A    between atoms: C11_25  and  O8_26 
ROOT
HETATM    1  C1  UNL     1      19.358  -7.263  -1.482  1.00  0.00     0.237 C 
HETATM    2  C2  UNL     1      18.539  -6.723  -2.569  1.00  0.00     0.130 C 
HETATM    3  C5  UNL     1      17.449  -5.767  -2.263  1.00  0.00     0.209 C 
HETATM    4  O5  UNL     1      17.283  -5.476  -0.920  1.00  0.00    -0.387 OA
HETATM    5  C6  UNL     1      17.527  -6.596  -0.115  1.00  0.00     0.184 C 
HETATM    6  C7  UNL     1      19.025  -6.726  -0.062  1.00  0.00     0.059 C 
ENDROOT
BRANCH   6   7
HETATM    7  C8  UNL     1      19.597  -5.343   0.090  1.00  0.00     0.180 C 
BRANCH   7   8
HETATM    8  O6  UNL     1      20.946  -5.286  -0.239  1.00  0.00    -0.400 OA
ATOM      9  H6  UNL     1      21.505  -5.618   0.455  1.00  0.00     0.209 HD
ENDBRANCH   7   8
ENDBRANCH   6   7
BRANCH   6  10
HETATM   10  C9  UNL     1      19.512  -7.730   0.881  1.00  0.00     0.135 C 
BRANCH  10  11
HETATM   11  O7  UNL     1      19.017  -8.994   0.458  1.00  0.00    -0.395 OA
ATOM     12  H7  UNL     1      19.262  -9.633   1.116  1.00  0.00     0.210 HD
ENDBRANCH  10  11
BRANCH  10  13
HETATM   13  C10 UNL     1      19.353  -7.664   2.321  1.00  0.00     0.058 C 
BRANCH  13  14
HETATM   14  C11 UNL     1      18.453  -8.601   3.034  1.00  0.00     0.166 C 
BRANCH  14  15
HETATM   15  O8  UNL     1      17.085  -8.249   2.913  1.00  0.00    -0.401 OA
ATOM     16  H8  UNL     1      16.856  -7.479   3.420  1.00  0.00     0.209 HD
ENDBRANCH  14  15
ENDBRANCH  13  14
ENDBRANCH  10  13
ENDBRANCH   6  10
BRANCH   1  17
HETATM   17  N1  UNL     1      20.737  -7.280  -1.671  1.00  0.00    -0.071 N 
ATOM     18  H13 UNL     1      21.200  -7.389  -0.768  1.00  0.00     0.274 HD
ATOM     19  H12 UNL     1      21.005  -8.151  -2.129  1.00  0.00     0.274 HD
ATOM     20  H11 UNL     1      21.150  -6.493  -2.170  1.00  0.00     0.274 HD
ENDBRANCH   1  17
BRANCH   2  21
HETATM   21  O1  UNL     1      17.899  -7.798  -3.263  1.00  0.00    -0.383 OA
ATOM     22  H1  UNL     1      17.539  -8.412  -2.633  1.00  0.00     0.210 HD
ENDBRANCH   2  21
BRANCH   2  23
HETATM   23  C3  UNL     1      19.372  -6.114  -3.712  1.00  0.00     0.224 C 
BRANCH  23  24
HETATM   24  O2  UNL     1      20.123  -7.050  -4.393  1.00  0.00    -0.293 OA
BRANCH  24  25
HETATM   25  C4  UNL     1      20.015  -7.211  -5.766  1.00  0.00     0.332 C 
HETATM   26  O3  UNL     1      19.130  -6.648  -6.423  1.00  0.00    -0.624 OA
HETATM   27  O4  UNL     1      20.924  -8.025  -6.429  1.00  0.00    -0.624 OA
ENDBRANCH  24  25
ENDBRANCH  23  24
ENDBRANCH   2  23
TORSDOF 12
ENDMDL
MODEL 4
REMARK VINA RESULT: -6.284949454      1.421      1.875
REMARK  12 active torsions:
REMARK  status: ('A' for Active; 'I' for Inactive)
REMARK    1  A    between atoms: N1_1  and  C1_5 
REMARK    2  A    between atoms: C2_6  and  O1_7 
REMARK    3  A    between atoms: C2_6  and  C3_9 
REMARK    4  A    between atoms: C3_9  and  O2_10 
REMARK    5  A    between atoms: O2_10  and  C4_11 
REMARK    6  A    between atoms: C7_17  and  C8_18 
REMARK    7  A    between atoms: C7_17  and  C9_21 
REMARK    8  A    between atoms: C8_18  and  O6_19 
REMARK    9  A    between atoms: C9_21  and  O7_22 
REMARK   10  A    between atoms: C9_21  and  C10_24 
REMARK   11  A    between atoms: C10_24  and  C11_25 
REMARK   12  A    between atoms: C11_25  and  O8_26 
ROOT
HETATM    1  C1  UNL     1      18.235  -7.656   0.437  1.00  0.00     0.237 C 
HETATM    2  C2  UNL     1      18.633  -8.167   1.750  1.00  0.00     0.130 C 
HETATM    3  C5  UNL     1      20.011  -7.937   2.242  1.00  0.00     0.209 C 
HETATM    4  O5  UNL     1      20.839  -7.251   1.369  1.00  0.00    -0.387 OA
HETATM    5  C6  UNL     1      20.581  -7.593   0.036  1.00  0.00     0.184 C 
HETATM    6  C7  UNL     1      19.324  -6.850  -0.325  1.00  0.00     0.059 C 
ENDROOT
BRANCH   6   7
HETATM    7  C8  UNL     1      19.423  -5.471   0.266  1.00  0.00     0.180 C 
BRANCH   7   8
HETATM    8  O6  UNL     1      20.561  -4.792  -0.155  1.00  0.00    -0.400 OA
ATOM      9  H6  UNL     1      20.360  -4.082  -0.754  1.00  0.00     0.209 HD
ENDBRANCH   7   8
ENDBRANCH   6   7
BRANCH   6  10
HETATM   10  C9  UNL     1      18.968  -6.917  -1.741  1.00  0.00     0.135 C 
BRANCH  10  11
HETATM   11  O7  UNL     1      20.178  -6.967  -2.487  1.00  0.00    -0.395 OA
ATOM     12  H7  UNL     1      20.030  -7.531  -3.237  1.00  0.00     0.210 HD
ENDBRANCH  10  11
BRANCH  10  13
HETATM   13  C10 UNL     1      18.080  -5.993  -2.420  1.00  0.00     0.058 C 
BRANCH  13  14
HETATM   14  C11 UNL     1      16.865  -6.477  -3.120  1.00  0.00     0.166 C 
BRANCH  14  15
HETATM   15  O8  UNL     1      15.715  -6.472  -2.293  1.00  0.00    -0.401 OA
ATOM     16  H8  UNL     1      14.910  -6.334  -2.780  1.00  0.00     0.209 HD
ENDBRANCH  14  15
ENDBRANCH  13  14
ENDBRANCH  10  13
ENDBRANCH   6  10
BRANCH   1  17
HETATM   17  N1  UNL     1      17.013  -6.997   0.353  1.00  0.00    -0.071 N 
ATOM     18  H13 UNL     1      16.389  -7.347   1.080  1.00  0.00     0.274 HD
ATOM     19  H12 UNL     1      17.129  -6.028   0.651  1.00  0.00     0.274 HD
ATOM     20  H11 UNL     1      16.531  -7.020  -0.546  1.00  0.00     0.274 HD
ENDBRANCH   1  17
BRANCH   2  21
HETATM   21  O1  UNL     1      18.465  -9.587   1.780  1.00  0.00    -0.383 OA
ATOM     22  H1  UNL     1      18.034  -9.838   2.589  1.00  0.00     0.210 HD
ENDBRANCH   2  21
BRANCH   2  23
HETATM   23  C3  UNL     1      17.672  -7.753   2.880  1.00  0.00     0.224 C 
BRANCH  23  24
HETATM   24  O2  UNL     1      17.921  -8.405   4.070  1.00  0.00    -0.293 OA
BRANCH  24  25
HETATM   25  C4  UNL     1      17.456  -7.915   5.280  1.00  0.00     0.332 C 
HETATM   26  O3  UNL     1      16.801  -6.867   5.353  1.00  0.00    -0.624 OA
HETATM   27  O4  UNL     1      17.727  -8.616   6.447  1.00  0.00    -0.624 OA
ENDBRANCH  24  25
ENDBRANCH  23  24
ENDBRANCH   2  23
TORSDOF 12
ENDMDL
MODEL 5
REMARK VINA RESULT: -6.115367988      1.831      3.271
REMARK  12 active torsions:
REMARK  status: ('A' for Active; 'I' for Inactive)
REMARK    1  A    between atoms: N1_1  and  C1_5 
REMARK    2  A    between atoms: C2_6  and  O1_7 
REMARK    3  A    between atoms: C2_6  and  C3_9 
REMARK    4  A    between atoms: C3_9  and  O2_10 
REMARK    5  A    between atoms: O2_10  and  C4_11 
REMARK    6  A    between atoms: C7_17  and  C8_18 
REMARK    7  A    between atoms: C7_17  and  C9_21 
REMARK    8  A    between atoms: C8_18  and  O6_19 
REMARK    9  A    between atoms: C9_21  and  O7_22 
REMARK   10  A    between atoms: C9_21  and  C10_24 
REMARK   11  A    between atoms: C10_24  and  C11_25 
REMARK   12  A    between atoms: C11_25  and  O8_26 
ROOT
HETATM    1  C1  UNL     1      19.652  -6.380  -1.713  1.00  0.00     0.237 C 
HETATM    2  C2  UNL     1      19.072  -6.229  -0.377  1.00  0.00     0.130 C 
HETATM    3  C5  UNL     1      17.603  -6.124  -0.222  1.00  0.00     0.209 C 
HETATM    4  O5  UNL     1      16.883  -6.158  -1.405  1.00  0.00    -0.387 OA
HETATM    5  C6  UNL     1      17.562  -5.505  -2.441  1.00  0.00     0.184 C 
HETATM    6  C7  UNL     1      18.631  -6.467  -2.881  1.00  0.00     0.059 C 
ENDROOT
BRANCH   6   7
HETATM    7  C8  UNL     1      18.024  -7.844  -2.905  1.00  0.00     0.180 C 
BRANCH   7   8
HETATM    8  O6  UNL     1      16.681  -7.827  -3.264  1.00  0.00    -0.400 OA
ATOM      9  H6  UNL     1      16.200  -8.567  -2.910  1.00  0.00     0.209 HD
ENDBRANCH   7   8
ENDBRANCH   6   7
BRANCH   6  10
HETATM   10  C9  UNL     1      19.350  -6.062  -4.086  1.00  0.00     0.135 C 
BRANCH  10  11
HETATM   11  O7  UNL     1      19.303  -4.643  -4.159  1.00  0.00    -0.395 OA
ATOM     12  H7  UNL     1      19.692  -4.384  -4.986  1.00  0.00     0.210 HD
ENDBRANCH  10  11
BRANCH  10  13
HETATM   13  C10 UNL     1      19.092  -6.572  -5.420  1.00  0.00     0.058 C 
BRANCH  13  14
HETATM   14  C11 UNL     1      20.122  -7.343  -6.155  1.00  0.00     0.166 C 
BRANCH  14  15
HETATM   15  O8  UNL     1      20.214  -6.977  -7.521  1.00  0.00    -0.401 OA
ATOM     16  H8  UNL     1      21.031  -7.251  -7.922  1.00  0.00     0.209 HD
ENDBRANCH  14  15
ENDBRANCH  13  14
ENDBRANCH  10  13
ENDBRANCH   6  10
BRANCH   1  17
HETATM   17  N1  UNL     1      20.639  -7.348  -1.874  1.00  0.00    -0.071 N 
ATOM     18  H13 UNL     1      21.130  -7.480  -0.989  1.00  0.00     0.274 HD
ATOM     19  H12 UNL     1      20.201  -8.262  -1.986  1.00  0.00     0.274 HD
ATOM     20  H11 UNL     1      21.318  -7.204  -2.620  1.00  0.00     0.274 HD
ENDBRANCH   1  17
BRANCH   2  21
HETATM   21  O1  UNL     1      19.591  -5.045   0.236  1.00  0.00    -0.383 OA
ATOM     22  H1  UNL     1      20.331  -5.272   0.786  1.00  0.00     0.210 HD
ENDBRANCH   2  21
BRANCH   2  23
HETATM   23  C3  UNL     1      19.561  -7.293   0.622  1.00  0.00     0.224 C 
BRANCH  23  24
HETATM   24  O2  UNL     1      18.533  -8.022   1.183  1.00  0.00    -0.293 OA
BRANCH  24  25
HETATM   25  C4  UNL     1      18.434  -8.205   2.553  1.00  0.00     0.332 C 
HETATM   26  O3  UNL     1      19.344  -7.874   3.325  1.00  0.00    -0.624 OA
HETATM   27  O4  UNL     1      17.283  -8.774   3.082  1.00  0.00    -0.624 OA
ENDBRANCH  24  25
ENDBRANCH  23  24
ENDBRANCH   2  23
TORSDOF 12
ENDMDL
