MODEL 1
REMARK VINA RESULT: -7.871043198      0.000      0.000
REMARK  4 active torsions:
REMARK  status: ('A' for Active; 'I' for Inactive)
REMARK    1  A    between atoms: C2_2  and  C3_3 
REMARK    2  A    between atoms: N1_12  and  N2_14 
REMARK    3  A    between atoms: N2_14  and  C13_16 
REMARK    4  A    between atoms: C13_16  and  C14_17 
ROOT
HETATM    1  C3  UNL     1      18.341  -7.533  -1.383  1.00  0.00    -0.027 A 
HETATM    2  C4  UNL     1      17.937  -7.426  -0.129  1.00  0.00    -0.044 A 
HETATM    3  C5  UNL     1      18.454  -8.028   1.128  1.00  0.00     0.040 C 
HETATM    4  C6  UNL     1      17.204  -8.118   1.971  1.00  0.00     0.009 C 
HETATM    5  C7  UNL     1      16.619  -6.719   1.745  1.00  0.00     0.039 C 
HETATM    6  C8  UNL     1      16.793  -6.605   0.256  1.00  0.00    -0.055 A 
HETATM    7  C9  UNL     1      16.107  -5.927  -0.648  1.00  0.00    -0.013 A 
HETATM    8  C10 UNL     1      16.419  -5.932  -2.085  1.00  0.00     0.086 A 
HETATM    9  C11 UNL     1      17.602  -6.800  -2.403  1.00  0.00     0.036 A 
HETATM   10  N1  UNL     1      18.017  -6.931  -3.611  1.00  0.00    -0.303 N 
ATOM     11  H1  UNL     1      18.821  -7.519  -3.831  1.00  0.00     0.186 HD
ENDROOT
BRANCH  10  12
HETATM   12  N2  UNL     1      17.331  -6.242  -4.612  1.00  0.00    -0.307 N 
HETATM   13  C12 UNL     1      15.869  -6.276  -4.668  1.00  0.00     0.177 C 
BRANCH  12  14
HETATM   14  C13 UNL     1      18.083  -5.518  -5.561  1.00  0.00     0.117 C 
BRANCH  14  15
HETATM   15  C14 UNL     1      18.852  -6.210  -6.425  1.00  0.00    -0.038 A 
HETATM   16  C15 UNL     1      18.561  -6.107  -7.838  1.00  0.00     0.010 A 
HETATM   17  C16 UNL     1      19.242  -6.733  -8.754  1.00  0.00     0.024 A 
HETATM   18  C17 UNL     1      20.346  -7.571  -8.299  1.00  0.00     0.030 A 
HETATM   19 CL1  UNL     1      21.302  -8.442  -9.493  1.00  0.00    -0.085 Cl
HETATM   20  C18 UNL     1      20.660  -7.705  -7.035  1.00  0.00     0.002 A 
HETATM   21  C19 UNL     1      19.958  -7.045  -5.933  1.00  0.00     0.068 A 
ENDBRANCH  14  15
ENDBRANCH  12  14
ENDBRANCH  10  12
BRANCH   1  22
HETATM   22  C2  UNL     1      19.507  -8.370  -1.747  1.00  0.00     0.036 C 
HETATM   23  C1  UNL     1      20.786  -7.564  -1.803  1.00  0.00     0.010 C 
ENDBRANCH   1  22
TORSDOF 4
ENDMDL
MODEL 2
REMARK VINA RESULT: -7.865770447      0.124      1.067
REMARK  4 active torsions:
REMARK  status: ('A' for Active; 'I' for Inactive)
REMARK    1  A    between atoms: C2_2  and  C3_3 
REMARK    2  A    between atoms: N1_12  and  N2_14 
REMARK    3  A    between atoms: N2_14  and  C13_16 
REMARK    4  A    between atoms: C13_16  and  C14_17 
ROOT
HETATM    1  C3  UNL     1      18.342  -7.555  -1.305  1.00  0.00    -0.027 A 
HETATM    2  C4  UNL     1      17.933  -7.446  -0.053  1.00  0.00    -0.044 A 
HETATM    3  C5  UNL     1      18.460  -8.026   1.211  1.00  0.00     0.040 C 
HETATM    4  C6  UNL     1      17.209  -8.133   2.052  1.00  0.00     0.009 C 
HETATM    5  C7  UNL     1      16.597  -6.749   1.812  1.00  0.00     0.039 C 
HETATM    6  C8  UNL     1      16.772  -6.644   0.323  1.00  0.00    -0.055 A 
HETATM    7  C9  UNL     1      16.075  -5.988  -0.589  1.00  0.00    -0.013 A 
HETATM    8  C10 UNL     1      16.390  -5.999  -2.025  1.00  0.00     0.086 A 
HETATM    9  C11 UNL     1      17.592  -6.846  -2.332  1.00  0.00     0.036 A 
HETATM   10  N1  UNL     1      18.012  -6.980  -3.539  1.00  0.00    -0.303 N 
ATOM     11  H1  UNL     1      18.827  -7.553  -3.752  1.00  0.00     0.186 HD
ENDROOT
BRANCH  10  12
HETATM   12  N2  UNL     1      17.314  -6.314  -4.547  1.00  0.00    -0.307 N 
HETATM   13  C12 UNL     1      15.860  -6.443  -4.654  1.00  0.00     0.177 C 
BRANCH  12  14
HETATM   14  C13 UNL     1      18.047  -5.518  -5.453  1.00  0.00     0.117 C 
BRANCH  14  15
HETATM   15  C14 UNL     1      18.737  -6.137  -6.431  1.00  0.00    -0.038 A 
HETATM   16  C15 UNL     1      19.861  -6.967  -6.059  1.00  0.00     0.010 A 
HETATM   17  C16 UNL     1      20.592  -7.608  -6.925  1.00  0.00     0.024 A 
HETATM   18  C17 UNL     1      20.232  -7.460  -8.331  1.00  0.00     0.030 A 
HETATM   19 CL1  UNL     1      21.185  -8.303  -9.547  1.00  0.00    -0.085 Cl
HETATM   20  C18 UNL     1      19.226  -6.724  -8.731  1.00  0.00     0.002 A 
HETATM   21  C19 UNL     1      18.347  -5.967  -7.838  1.00  0.00     0.068 A 
ENDBRANCH  14  15
ENDBRANCH  12  14
ENDBRANCH  10  12
BRANCH   1  22
HETATM   22  C2  UNL     1      19.526  -8.372  -1.659  1.00  0.00     0.036 C 
HETATM   23  C1  UNL     1      20.770  -7.526  -1.815  1.00  0.00     0.010 C 
ENDBRANCH   1  22
TORSDOF 4
ENDMDL
MODEL 3
REMARK VINA RESULT: -6.398424744      3.551      7.614
REMARK  4 active torsions:
REMARK  status: ('A' for Active; 'I' for Inactive)
REMARK    1  A    between atoms: C2_2  and  C3_3 
REMARK    2  A    between atoms: N1_12  and  N2_14 
REMARK    3  A    between atoms: N2_14  and  C13_16 
REMARK    4  A    between atoms: C13_16  and  C14_17 
ROOT
HETATM    1  C3  UNL     1      19.177  -6.443  -3.825  1.00  0.00    -0.027 A 
HETATM    2  C4  UNL     1      19.025  -6.509  -5.136  1.00  0.00    -0.044 A 
HETATM    3  C5  UNL     1      20.017  -6.545  -6.243  1.00  0.00     0.040 C 
HETATM    4  C6  UNL     1      19.252  -5.893  -7.371  1.00  0.00     0.009 C 
HETATM    5  C7  UNL     1      17.912  -6.629  -7.257  1.00  0.00     0.039 C 
HETATM    6  C8  UNL     1      17.711  -6.565  -5.769  1.00  0.00    -0.055 A 
HETATM    7  C9  UNL     1      16.605  -6.553  -5.043  1.00  0.00    -0.013 A 
HETATM    8  C10 UNL     1      16.591  -6.483  -3.574  1.00  0.00     0.086 A 
HETATM    9  C11 UNL     1      17.977  -6.424  -2.999  1.00  0.00     0.036 A 
HETATM   10  N1  UNL     1      18.160  -6.353  -1.730  1.00  0.00    -0.303 N 
ATOM     11  H1  UNL     1      19.099  -6.313  -1.335  1.00  0.00     0.186 HD
ENDROOT
BRANCH  10  12
HETATM   12  N2  UNL     1      17.031  -6.332  -0.910  1.00  0.00    -0.307 N 
HETATM   13  C12 UNL     1      16.296  -5.086  -0.691  1.00  0.00     0.177 C 
BRANCH  12  14
HETATM   14  C13 UNL     1      16.622  -7.539  -0.305  1.00  0.00     0.117 C 
BRANCH  14  15
HETATM   15  C14 UNL     1      16.946  -7.744   0.987  1.00  0.00    -0.038 A 
HETATM   16  C15 UNL     1      16.010  -7.319   2.006  1.00  0.00     0.010 A 
HETATM   17  C16 UNL     1      16.227  -7.470   3.281  1.00  0.00     0.024 A 
HETATM   18  C17 UNL     1      17.483  -8.104   3.667  1.00  0.00     0.030 A 
HETATM   19 CL1  UNL     1      17.829  -8.334   5.377  1.00  0.00    -0.085 Cl
HETATM   20  C18 UNL     1      18.370  -8.510   2.794  1.00  0.00     0.002 A 
HETATM   21  C19 UNL     1      18.220  -8.386   1.342  1.00  0.00     0.068 A 
ENDBRANCH  14  15
ENDBRANCH  12  14
ENDBRANCH  10  12
BRANCH   1  22
HETATM   22  C2  UNL     1      20.522  -6.390  -3.208  1.00  0.00     0.036 C 
HETATM   23  C1  UNL     1      20.934  -7.729  -2.635  1.00  0.00     0.010 C 
ENDBRANCH   1  22
TORSDOF 4
ENDMDL
MODEL 4
REMARK VINA RESULT: -6.224452915      3.556      7.662
REMARK  4 active torsions:
REMARK  status: ('A' for Active; 'I' for Inactive)
REMARK    1  A    between atoms: C2_2  and  C3_3 
REMARK    2  A    between atoms: N1_12  and  N2_14 
REMARK    3  A    between atoms: N2_14  and  C13_16 
REMARK    4  A    between atoms: C13_16  and  C14_17 
ROOT
HETATM    1  C3  UNL     1      19.194  -6.434  -3.843  1.00  0.00    -0.027 A 
HETATM    2  C4  UNL     1      19.031  -6.517  -5.152  1.00  0.00    -0.044 A 
HETATM    3  C5  UNL     1      20.012  -6.551  -6.268  1.00  0.00     0.040 C 
HETATM    4  C6  UNL     1      19.227  -5.924  -7.396  1.00  0.00     0.009 C 
HETATM    5  C7  UNL     1      17.900  -6.679  -7.260  1.00  0.00     0.039 C 
HETATM    6  C8  UNL     1      17.711  -6.602  -5.771  1.00  0.00    -0.055 A 
HETATM    7  C9  UNL     1      16.613  -6.598  -5.035  1.00  0.00    -0.013 A 
HETATM    8  C10 UNL     1      16.611  -6.512  -3.567  1.00  0.00     0.086 A 
HETATM    9  C11 UNL     1      18.001  -6.424  -3.006  1.00  0.00     0.036 A 
HETATM   10  N1  UNL     1      18.195  -6.335  -1.740  1.00  0.00    -0.303 N 
ATOM     11  H1  UNL     1      19.138  -6.276  -1.354  1.00  0.00     0.186 HD
ENDROOT
BRANCH  10  12
HETATM   12  N2  UNL     1      17.074  -6.323  -0.910  1.00  0.00    -0.307 N 
HETATM   13  C12 UNL     1      16.340  -5.079  -0.673  1.00  0.00     0.177 C 
BRANCH  12  14
HETATM   14  C13 UNL     1      16.672  -7.535  -0.310  1.00  0.00     0.117 C 
BRANCH  14  15
HETATM   15  C14 UNL     1      16.883  -7.691   1.012  1.00  0.00    -0.038 A 
HETATM   16  C15 UNL     1      18.101  -8.344   1.441  1.00  0.00     0.010 A 
HETATM   17  C16 UNL     1      18.399  -8.544   2.693  1.00  0.00     0.024 A 
HETATM   18  C17 UNL     1      17.437  -8.075   3.684  1.00  0.00     0.030 A 
HETATM   19 CL1  UNL     1      17.788  -8.319   5.392  1.00  0.00    -0.085 Cl
HETATM   20  C18 UNL     1      16.318  -7.478   3.360  1.00  0.00     0.002 A 
HETATM   21  C19 UNL     1      15.893  -7.207   1.985  1.00  0.00     0.068 A 
ENDBRANCH  14  15
ENDBRANCH  12  14
ENDBRANCH  10  12
BRANCH   1  22
HETATM   22  C2  UNL     1      20.544  -6.353  -3.240  1.00  0.00     0.036 C 
HETATM   23  C1  UNL     1      20.983  -7.678  -2.657  1.00  0.00     0.010 C 
ENDBRANCH   1  22
TORSDOF 4
ENDMDL
MODEL 5
REMARK VINA RESULT: -4.696385459      1.307      2.580
REMARK  4 active torsions:
REMARK  status: ('A' for Active; 'I' for Inactive)
REMARK    1  A    between atoms: C2_2  and  C3_3 
REMARK    2  A    between atoms: N1_12  and  N2_14 
REMARK    3  A    between atoms: N2_14  and  C13_16 
REMARK    4  A    between atoms: C13_16  and  C14_17 
ROOT
HETATM    1  C3  UNL     1      16.405  -7.036  -0.430  1.00  0.00    -0.027 A 
HETATM    2  C4  UNL     1      16.796  -7.583   0.708  1.00  0.00    -0.044 A 
HETATM    3  C5  UNL     1      16.035  -8.000   1.915  1.00  0.00     0.040 C 
HETATM    4  C6  UNL     1      17.062  -7.827   3.010  1.00  0.00     0.009 C 
HETATM    5  C7  UNL     1      18.274  -8.500   2.358  1.00  0.00     0.039 C 
HETATM    6  C8  UNL     1      18.195  -7.899   0.983  1.00  0.00    -0.055 A 
HETATM    7  C9  UNL     1      19.137  -7.646   0.091  1.00  0.00    -0.013 A 
HETATM    8  C10 UNL     1      18.879  -7.042  -1.225  1.00  0.00     0.086 A 
HETATM    9  C11 UNL     1      17.422  -6.742  -1.431  1.00  0.00     0.036 A 
HETATM   10  N1  UNL     1      17.009  -6.205  -2.522  1.00  0.00    -0.303 N 
ATOM     11  H1  UNL     1      16.020  -6.001  -2.666  1.00  0.00     0.186 HD
ENDROOT
BRANCH  10  12
HETATM   12  N2  UNL     1      17.957  -5.911  -3.501  1.00  0.00    -0.307 N 
HETATM   13  C12 UNL     1      19.379  -5.838  -3.160  1.00  0.00     0.177 C 
BRANCH  12  14
HETATM   14  C13 UNL     1      17.509  -5.688  -4.820  1.00  0.00     0.117 C 
BRANCH  14  15
HETATM   15  C14 UNL     1      18.262  -6.155  -5.836  1.00  0.00    -0.038 A 
HETATM   16  C15 UNL     1      18.934  -5.198  -6.689  1.00  0.00     0.010 A 
HETATM   17  C16 UNL     1      19.683  -5.545  -7.696  1.00  0.00     0.024 A 
HETATM   18  C17 UNL     1      19.833  -6.973  -7.948  1.00  0.00     0.030 A 
HETATM   19 CL1  UNL     1      20.835  -7.500  -9.296  1.00  0.00    -0.085 Cl
HETATM   20  C18 UNL     1      19.251  -7.888  -7.213  1.00  0.00     0.002 A 
HETATM   21  C19 UNL     1      18.392  -7.602  -6.062  1.00  0.00     0.068 A 
ENDBRANCH  14  15
ENDBRANCH  12  14
ENDBRANCH  10  12
BRANCH   1  22
HETATM   22  C2  UNL     1      14.979  -6.728  -0.685  1.00  0.00     0.036 C 
HETATM   23  C1  UNL     1      14.264  -7.879  -1.357  1.00  0.00     0.010 C 
ENDBRANCH   1  22
TORSDOF 4
ENDMDL
