MODEL 1
REMARK VINA RESULT: -0.588822924      0.000      0.000
REMARK  2 active torsions:
REMARK  status: ('A' for Active; 'I' for Inactive)
REMARK    1  A    between atoms: N1_8  and  C8_9 
REMARK    2  A    between atoms: C8_9  and  C9_10 
ROOT
HETATM    1  C1  UNL     1      15.344  -6.315   3.955  1.00  0.00     0.036 C 
HETATM    2  C2  UNL     1      16.444  -7.237   3.584  1.00  0.00    -0.022 C 
HETATM    3  C3  UNL     1      17.006  -7.128   2.392  1.00  0.00    -0.037 C 
HETATM    4  C4  UNL     1      16.407  -6.050   1.604  1.00  0.00     0.068 C 
HETATM    5  C5  UNL     1      16.540  -6.125   0.157  1.00  0.00    -0.007 C 
HETATM    6  C6  UNL     1      17.415  -6.504  -0.739  1.00  0.00     0.003 C 
HETATM    7  C7  UNL     1      16.506  -6.134  -1.842  1.00  0.00     0.103 C 
HETATM    8  N1  UNL     1      16.914  -6.436  -3.133  1.00  0.00    -0.366 N 
HETATM    9  C11 UNL     1      17.948  -5.655  -3.728  1.00  0.00     0.156 C 
HETATM   10  C12 UNL     1      19.267  -6.329  -3.825  1.00  0.00     0.018 C 
HETATM   11  C13 UNL     1      20.034  -6.876  -2.889  1.00  0.00     0.005 C 
HETATM   12  C14 UNL     1      21.303  -7.463  -3.380  1.00  0.00     0.068 C 
HETATM   13  N2  UNL     1      19.967  -7.067  -1.451  1.00  0.00    -0.355 N 
HETATM   14  C15 UNL     1      21.151  -7.249  -0.745  1.00  0.00     0.156 C 
HETATM   15  C16 UNL     1      18.764  -7.082  -0.674  1.00  0.00     0.045 C 
HETATM   16  C17 UNL     1      19.414  -7.863   0.190  1.00  0.00     0.032 C 
HETATM   17  C18 UNL     1      19.026  -8.464   1.448  1.00  0.00     0.026 C 
HETATM   18  C19 UNL     1      18.064  -8.148   2.297  1.00  0.00     0.040 C 
HETATM   19 CL1  UNL     1      18.073  -9.256   3.672  1.00  0.00    -0.084 Cl
ENDROOT
BRANCH   8  20
HETATM   20  C8  UNL     1      16.035  -7.060  -4.033  1.00  0.00     0.063 C 
BRANCH  20  21
HETATM   21  C9  UNL     1      16.022  -6.542  -5.434  1.00  0.00     0.040 C 
HETATM   22  C10 UNL     1      17.075  -7.052  -6.351  1.00  0.00     0.010 C 
ENDBRANCH  20  21
ENDBRANCH   8  20
TORSDOF 2
ENDMDL
MODEL 2
REMARK VINA RESULT: 0.753291787      1.625      3.808
REMARK  2 active torsions:
REMARK  status: ('A' for Active; 'I' for Inactive)
REMARK    1  A    between atoms: N1_8  and  C8_9 
REMARK    2  A    between atoms: C8_9  and  C9_10 
ROOT
HETATM    1  C1  UNL     1      18.141  -9.103   5.392  1.00  0.00     0.036 C 
HETATM    2  C2  UNL     1      17.380  -7.991   4.776  1.00  0.00    -0.022 C 
HETATM    3  C3  UNL     1      17.389  -7.850   3.461  1.00  0.00    -0.037 C 
HETATM    4  C4  UNL     1      18.198  -8.882   2.809  1.00  0.00     0.068 C 
HETATM    5  C5  UNL     1      18.717  -8.587   1.482  1.00  0.00    -0.007 C 
HETATM    6  C6  UNL     1      18.350  -7.964   0.390  1.00  0.00     0.003 C 
HETATM    7  C7  UNL     1      19.622  -8.302  -0.278  1.00  0.00     0.103 C 
HETATM    8  N1  UNL     1      19.841  -7.767  -1.539  1.00  0.00    -0.366 N 
HETATM    9  C11 UNL     1      19.120  -8.301  -2.647  1.00  0.00     0.156 C 
HETATM   10  C12 UNL     1      18.026  -7.438  -3.159  1.00  0.00     0.018 C 
HETATM   11  C13 UNL     1      16.966  -6.923  -2.546  1.00  0.00     0.005 C 
HETATM   12  C14 UNL     1      16.084  -6.098  -3.403  1.00  0.00     0.068 C 
HETATM   13  N2  UNL     1      16.410  -6.948  -1.205  1.00  0.00    -0.355 N 
HETATM   14  C15 UNL     1      15.053  -6.699  -1.039  1.00  0.00     0.156 C 
HETATM   15  C16 UNL     1      17.151  -7.214  -0.008  1.00  0.00     0.045 C 
HETATM   16  C17 UNL     1      16.244  -6.477   0.635  1.00  0.00     0.032 C 
HETATM   17  C18 UNL     1      16.082  -6.120   2.027  1.00  0.00     0.026 C 
HETATM   18  C19 UNL     1      16.552  -6.687   3.125  1.00  0.00     0.040 C 
HETATM   19 CL1  UNL     1      16.019  -5.792   4.551  1.00  0.00    -0.084 Cl
ENDROOT
BRANCH   8  20
HETATM   20  C8  UNL     1      21.066  -7.155  -1.853  1.00  0.00     0.063 C 
BRANCH  20  21
HETATM   21  C9  UNL     1      21.140  -6.420  -3.150  1.00  0.00     0.040 C 
HETATM   22  C10 UNL     1      20.233  -5.255  -3.318  1.00  0.00     0.010 C 
ENDBRANCH  20  21
ENDBRANCH   8  20
TORSDOF 2
ENDMDL
MODEL 3
REMARK VINA RESULT: 2.051772167      1.300      1.697
REMARK  2 active torsions:
REMARK  status: ('A' for Active; 'I' for Inactive)
REMARK    1  A    between atoms: N1_8  and  C8_9 
REMARK    2  A    between atoms: C8_9  and  C9_10 
ROOT
HETATM    1  C1  UNL     1      15.908  -6.115   2.625  1.00  0.00     0.036 C 
HETATM    2  C2  UNL     1      16.914  -7.055   2.077  1.00  0.00    -0.022 C 
HETATM    3  C3  UNL     1      17.344  -6.892   0.837  1.00  0.00    -0.037 C 
HETATM    4  C4  UNL     1      16.711  -5.743   0.187  1.00  0.00     0.068 C 
HETATM    5  C5  UNL     1      16.677  -5.730  -1.267  1.00  0.00    -0.007 C 
HETATM    6  C6  UNL     1      17.427  -6.086  -2.279  1.00  0.00     0.003 C 
HETATM    7  C7  UNL     1      16.418  -5.610  -3.246  1.00  0.00     0.103 C 
HETATM    8  N1  UNL     1      16.664  -5.844  -4.591  1.00  0.00    -0.366 N 
HETATM    9  C11 UNL     1      17.661  -5.069  -5.253  1.00  0.00     0.156 C 
HETATM   10  C12 UNL     1      18.926  -5.788  -5.541  1.00  0.00     0.018 C 
HETATM   11  C13 UNL     1      19.768  -6.425  -4.734  1.00  0.00     0.005 C 
HETATM   12  C14 UNL     1      20.944  -7.029  -5.402  1.00  0.00     0.068 C 
HETATM   13  N2  UNL     1      19.854  -6.705  -3.312  1.00  0.00    -0.355 N 
HETATM   14  C15 UNL     1      21.100  -6.979  -2.759  1.00  0.00     0.156 C 
HETATM   15  C16 UNL     1      18.746  -6.721  -2.404  1.00  0.00     0.045 C 
HETATM   16  C17 UNL     1      19.451  -7.581  -1.668  1.00  0.00     0.032 C 
HETATM   17  C18 UNL     1      19.179  -8.245  -0.412  1.00  0.00     0.026 C 
HETATM   18  C19 UNL     1      18.335  -7.946   0.560  1.00  0.00     0.040 C 
HETATM   19 CL1  UNL     1      18.445  -9.139   1.856  1.00  0.00    -0.084 Cl
ENDROOT
BRANCH   8  20
HETATM   20  C8  UNL     1      15.661  -6.373  -5.419  1.00  0.00     0.063 C 
BRANCH  20  21
HETATM   21  C9  UNL     1      16.078  -7.413  -6.406  1.00  0.00     0.040 C 
HETATM   22  C10 UNL     1      17.298  -8.198  -6.082  1.00  0.00     0.010 C 
ENDBRANCH  20  21
ENDBRANCH   8  20
TORSDOF 2
ENDMDL
MODEL 4
REMARK VINA RESULT: 2.493384134      1.487      3.951
REMARK  2 active torsions:
REMARK  status: ('A' for Active; 'I' for Inactive)
REMARK    1  A    between atoms: N1_8  and  C8_9 
REMARK    2  A    between atoms: C8_9  and  C9_10 
ROOT
HETATM    1  C1  UNL     1      18.636  -9.058   4.338  1.00  0.00     0.036 C 
HETATM    2  C2  UNL     1      17.629  -8.107   3.811  1.00  0.00    -0.022 C 
HETATM    3  C3  UNL     1      17.545  -7.911   2.506  1.00  0.00    -0.037 C 
HETATM    4  C4  UNL     1      18.520  -8.717   1.770  1.00  0.00     0.068 C 
HETATM    5  C5  UNL     1      18.900  -8.262   0.442  1.00  0.00    -0.007 C 
HETATM    6  C6  UNL     1      18.357  -7.685  -0.601  1.00  0.00     0.003 C 
HETATM    7  C7  UNL     1      19.638  -7.716  -1.335  1.00  0.00     0.103 C 
HETATM    8  N1  UNL     1      19.678  -7.092  -2.573  1.00  0.00    -0.366 N 
HETATM    9  C11 UNL     1      19.033  -7.719  -3.679  1.00  0.00     0.156 C 
HETATM   10  C12 UNL     1      17.759  -7.087  -4.103  1.00  0.00     0.018 C 
HETATM   11  C13 UNL     1      16.645  -6.836  -3.424  1.00  0.00     0.005 C 
HETATM   12  C14 UNL     1      15.568  -6.181  -4.202  1.00  0.00     0.068 C 
HETATM   13  N2  UNL     1      16.172  -7.036  -2.065  1.00  0.00    -0.355 N 
HETATM   14  C15 UNL     1      14.803  -7.089  -1.835  1.00  0.00     0.156 C 
HETATM   15  C16 UNL     1      17.010  -7.191  -0.913  1.00  0.00     0.045 C 
HETATM   16  C17 UNL     1      16.000  -6.692  -0.199  1.00  0.00     0.032 C 
HETATM   17  C18 UNL     1      15.835  -6.438   1.216  1.00  0.00     0.026 C 
HETATM   18  C19 UNL     1      16.466  -6.938   2.264  1.00  0.00     0.040 C 
HETATM   19 CL1  UNL     1      15.826  -6.240   3.755  1.00  0.00    -0.084 Cl
ENDROOT
BRANCH   8  20
HETATM   20  C8  UNL     1      20.730  -6.221  -2.901  1.00  0.00     0.063 C 
BRANCH  20  21
HETATM   21  C9  UNL     1      22.045  -6.846  -3.234  1.00  0.00     0.040 C 
HETATM   22  C10 UNL     1      23.264  -6.050  -2.937  1.00  0.00     0.010 C 
ENDBRANCH  20  21
ENDBRANCH   8  20
TORSDOF 2
ENDMDL
MODEL 5
REMARK VINA RESULT: 2.704411851      0.890      1.428
REMARK  2 active torsions:
REMARK  status: ('A' for Active; 'I' for Inactive)
REMARK    1  A    between atoms: N1_8  and  C8_9 
REMARK    2  A    between atoms: C8_9  and  C9_10 
ROOT
HETATM    1  C1  UNL     1      15.711  -6.563   4.328  1.00  0.00     0.036 C 
HETATM    2  C2  UNL     1      16.804  -7.423   3.815  1.00  0.00    -0.022 C 
HETATM    3  C3  UNL     1      17.214  -7.273   2.567  1.00  0.00    -0.037 C 
HETATM    4  C4  UNL     1      16.471  -6.221   1.872  1.00  0.00     0.068 C 
HETATM    5  C5  UNL     1      16.434  -6.274   0.418  1.00  0.00    -0.007 C 
HETATM    6  C6  UNL     1      17.214  -6.599  -0.581  1.00  0.00     0.003 C 
HETATM    7  C7  UNL     1      16.163  -6.267  -1.563  1.00  0.00     0.103 C 
HETATM    8  N1  UNL     1      16.429  -6.535  -2.898  1.00  0.00    -0.366 N 
HETATM    9  C11 UNL     1      17.344  -5.696  -3.598  1.00  0.00     0.156 C 
HETATM   10  C12 UNL     1      18.674  -6.299  -3.861  1.00  0.00     0.018 C 
HETATM   11  C13 UNL     1      19.574  -6.815  -3.032  1.00  0.00     0.005 C 
HETATM   12  C14 UNL     1      20.803  -7.330  -3.679  1.00  0.00     0.068 C 
HETATM   13  N2  UNL     1      19.689  -7.022  -1.599  1.00  0.00    -0.355 N 
HETATM   14  C15 UNL     1      20.956  -7.149  -1.041  1.00  0.00     0.156 C 
HETATM   15  C16 UNL     1      18.589  -7.107  -0.685  1.00  0.00     0.045 C 
HETATM   16  C17 UNL     1      19.376  -7.861   0.083  1.00  0.00     0.032 C 
HETATM   17  C18 UNL     1      19.172  -8.493   1.369  1.00  0.00     0.026 C 
HETATM   18  C19 UNL     1      18.303  -8.236   2.331  1.00  0.00     0.040 C 
HETATM   19 CL1  UNL     1      18.532  -9.355   3.677  1.00  0.00    -0.084 Cl
ENDROOT
BRANCH   8  20
HETATM   20  C8  UNL     1      15.481  -7.195  -3.696  1.00  0.00     0.063 C 
BRANCH  20  21
HETATM   21  C9  UNL     1      14.194  -7.573  -3.042  1.00  0.00     0.040 C 
HETATM   22  C10 UNL     1      14.275  -8.130  -1.666  1.00  0.00     0.010 C 
ENDBRANCH  20  21
ENDBRANCH   8  20
TORSDOF 2
ENDMDL
