MODEL 1
REMARK VINA RESULT: -4.780358132      0.000      0.000
REMARK  6 active torsions:
REMARK  status: ('A' for Active; 'I' for Inactive)
REMARK    1  A    between atoms: C2_2  and  C3_3 
REMARK    2  A    between atoms: C3_3  and  N1_4 
REMARK    3  A    between atoms: N2_8  and  C5_9 
REMARK    4  A    between atoms: C5_9  and  C6_10 
REMARK    5  A    between atoms: C6_10  and  C7_11 
REMARK    6  A    between atoms: C6_10  and  C11_17 
ROOT
HETATM    1  C6  UNL     1      17.756  -7.381  -2.213  1.00  0.00     0.084 C 
ENDROOT
BRANCH   1   2
HETATM    2  C5  UNL     1      17.090  -6.530  -3.206  1.00  0.00     0.154 C 
BRANCH   2   3
HETATM    3  N2  UNL     1      17.469  -6.752  -4.595  1.00  0.00    -0.241 N 
HETATM    4  C4  UNL     1      17.063  -7.743  -5.396  1.00  0.00     0.393 A 
HETATM    5  O1  UNL     1      17.664  -7.567  -6.549  1.00  0.00    -0.174 OA
HETATM    6  O2  UNL     1      16.281  -8.695  -5.210  1.00  0.00    -0.236 OA
HETATM    7  N1  UNL     1      18.432  -6.531  -6.556  1.00  0.00    -0.193 N 
HETATM    8  C16 UNL     1      18.319  -6.005  -5.326  1.00  0.00     0.353 A 
HETATM    9  O5  UNL     1      18.911  -4.985  -4.930  1.00  0.00    -0.244 OA
BRANCH   7  10
HETATM   10  C3  UNL     1      19.247  -6.026  -7.642  1.00  0.00     0.188 C 
BRANCH  10  11
HETATM   11  C2  UNL     1      20.209  -7.036  -8.130  1.00  0.00    -0.015 C 
HETATM   12  C1  UNL     1      20.495  -7.196  -9.418  1.00  0.00     0.008 C 
ENDBRANCH  10  11
ENDBRANCH   7  10
ENDBRANCH   2   3
ENDBRANCH   1   2
BRANCH   1  13
HETATM   13  C7  UNL     1      19.236  -7.293  -2.365  1.00  0.00    -0.005 A 
HETATM   14  C8  UNL     1      20.139  -8.324  -2.327  1.00  0.00     0.017 A 
HETATM   15  C9  UNL     1      21.438  -8.027  -2.471  1.00  0.00     0.032 A 
HETATM   16  C10 UNL     1      21.761  -6.706  -2.646  1.00  0.00     0.075 A 
HETATM   17 CL1  UNL     1      23.386  -6.029  -2.861  1.00  0.00    -0.076 Cl
HETATM   18  S1  UNL     1      20.256  -5.924  -2.605  1.00  0.00    -0.082 SA
ENDBRANCH   1  13
BRANCH   1  19
HETATM   19  C11 UNL     1      17.415  -7.290  -0.784  1.00  0.00     0.033 A 
HETATM   20  C12 UNL     1      16.788  -6.196  -0.264  1.00  0.00    -0.004 A 
HETATM   21  C13 UNL     1      16.385  -4.977  -1.029  1.00  0.00     0.057 C 
HETATM   22  S2  UNL     1      16.452  -6.277   1.429  1.00  0.00    -0.033 SA
HETATM   23  C14 UNL     1      16.961  -7.699   2.159  1.00  0.00     0.291 A 
HETATM   24  O3  UNL     1      16.811  -7.960   3.399  1.00  0.00    -0.260 OA
HETATM   25  N3  UNL     1      17.550  -8.561   1.324  1.00  0.00    -0.284 N 
HETATM   26  C15 UNL     1      17.757  -8.397   0.030  1.00  0.00     0.256 A 
ATOM     27  H3  UNL     1      17.874  -9.440   1.730  1.00  0.00     0.172 HD
HETATM   28  O4  UNL     1      18.350  -9.398  -0.532  1.00  0.00    -0.267 OA
ENDBRANCH   1  19
TORSDOF 6
ENDMDL
MODEL 2
REMARK VINA RESULT: -4.139694141      2.994      4.491
REMARK  6 active torsions:
REMARK  status: ('A' for Active; 'I' for Inactive)
REMARK    1  A    between atoms: C2_2  and  C3_3 
REMARK    2  A    between atoms: C3_3  and  N1_4 
REMARK    3  A    between atoms: N2_8  and  C5_9 
REMARK    4  A    between atoms: C5_9  and  C6_10 
REMARK    5  A    between atoms: C6_10  and  C7_11 
REMARK    6  A    between atoms: C6_10  and  C11_17 
ROOT
HETATM    1  C6  UNL     1      17.817  -5.650  -2.317  1.00  0.00     0.084 C 
ENDROOT
BRANCH   1   2
HETATM    2  C5  UNL     1      16.870  -5.690  -3.437  1.00  0.00     0.154 C 
BRANCH   2   3
HETATM    3  N2  UNL     1      17.366  -6.279  -4.674  1.00  0.00    -0.241 N 
HETATM    4  C4  UNL     1      17.114  -7.506  -5.144  1.00  0.00     0.393 A 
HETATM    5  O1  UNL     1      17.777  -7.621  -6.271  1.00  0.00    -0.174 OA
HETATM    6  O2  UNL     1      16.414  -8.437  -4.705  1.00  0.00    -0.236 OA
HETATM    7  N1  UNL     1      18.443  -6.557  -6.567  1.00  0.00    -0.193 N 
HETATM    8  C16 UNL     1      18.192  -5.699  -5.566  1.00  0.00     0.353 A 
HETATM    9  O5  UNL     1      18.656  -4.547  -5.480  1.00  0.00    -0.244 OA
BRANCH   7  10
HETATM   10  C3  UNL     1      19.283  -6.317  -7.723  1.00  0.00     0.188 C 
BRANCH  10  11
HETATM   11  C2  UNL     1      20.272  -7.396  -7.924  1.00  0.00    -0.015 C 
HETATM   12  C1  UNL     1      20.732  -7.738  -9.123  1.00  0.00     0.008 C 
ENDBRANCH  10  11
ENDBRANCH   7  10
ENDBRANCH   2   3
ENDBRANCH   1   2
BRANCH   1  13
HETATM   13  C7  UNL     1      17.182  -6.191  -1.082  1.00  0.00    -0.005 A 
HETATM   14  C8  UNL     1      15.882  -6.599  -0.926  1.00  0.00     0.017 A 
HETATM   15  C9  UNL     1      15.505  -7.044   0.282  1.00  0.00     0.032 A 
HETATM   16  C10 UNL     1      16.457  -7.055   1.269  1.00  0.00     0.075 A 
HETATM   17 CL1  UNL     1      16.241  -7.587   2.947  1.00  0.00    -0.076 Cl
HETATM   18  S1  UNL     1      17.838  -6.450   0.490  1.00  0.00    -0.082 SA
ENDBRANCH   1  13
BRANCH   1  19
HETATM   19  C11 UNL     1      19.170  -6.215  -2.446  1.00  0.00     0.033 A 
HETATM   20  C12 UNL     1      19.415  -7.542  -2.249  1.00  0.00    -0.004 A 
HETATM   21  C13 UNL     1      18.397  -8.570  -1.877  1.00  0.00     0.057 C 
HETATM   22  S2  UNL     1      21.061  -8.025  -2.462  1.00  0.00    -0.033 SA
HETATM   23  C14 UNL     1      22.093  -6.769  -2.876  1.00  0.00     0.291 A 
HETATM   24  O3  UNL     1      23.345  -6.909  -3.078  1.00  0.00    -0.260 OA
HETATM   25  N3  UNL     1      21.492  -5.580  -2.982  1.00  0.00    -0.284 N 
HETATM   26  C15 UNL     1      20.209  -5.320  -2.797  1.00  0.00     0.256 A 
ATOM     27  H3  UNL     1      22.086  -4.789  -3.233  1.00  0.00     0.172 HD
HETATM   28  O4  UNL     1      19.903  -4.076  -2.966  1.00  0.00    -0.267 OA
ENDBRANCH   1  19
TORSDOF 6
ENDMDL
MODEL 3
REMARK VINA RESULT: -3.733156554      1.801      2.573
REMARK  6 active torsions:
REMARK  status: ('A' for Active; 'I' for Inactive)
REMARK    1  A    between atoms: C2_2  and  C3_3 
REMARK    2  A    between atoms: C3_3  and  N1_4 
REMARK    3  A    between atoms: N2_8  and  C5_9 
REMARK    4  A    between atoms: C5_9  and  C6_10 
REMARK    5  A    between atoms: C6_10  and  C7_11 
REMARK    6  A    between atoms: C6_10  and  C11_17 
ROOT
HETATM    1  C6  UNL     1      17.128  -7.747  -1.442  1.00  0.00     0.084 C 
ENDROOT
BRANCH   1   2
HETATM    2  C5  UNL     1      16.052  -7.290  -2.329  1.00  0.00     0.154 C 
BRANCH   2   3
HETATM    3  N2  UNL     1      16.471  -6.613  -3.548  1.00  0.00    -0.241 N 
HETATM    4  C4  UNL     1      16.418  -5.302  -3.805  1.00  0.00     0.393 A 
HETATM    5  O1  UNL     1      16.878  -5.137  -5.023  1.00  0.00    -0.174 OA
HETATM    6  O2  UNL     1      16.038  -4.335  -3.118  1.00  0.00    -0.236 OA
HETATM    7  N1  UNL     1      17.226  -6.248  -5.578  1.00  0.00    -0.193 N 
HETATM    8  C16 UNL     1      16.975  -7.191  -4.656  1.00  0.00     0.353 A 
HETATM    9  O5  UNL     1      17.177  -8.410  -4.809  1.00  0.00    -0.244 OA
BRANCH   7  10
HETATM   10  C3  UNL     1      17.772  -6.457  -6.904  1.00  0.00     0.188 C 
BRANCH  10  11
HETATM   11  C2  UNL     1      19.248  -6.400  -6.911  1.00  0.00    -0.015 C 
HETATM   12  C1  UNL     1      19.996  -7.199  -7.664  1.00  0.00     0.008 C 
ENDBRANCH  10  11
ENDBRANCH   7  10
ENDBRANCH   2   3
ENDBRANCH   1   2
BRANCH   1  13
HETATM   13  C7  UNL     1      18.441  -7.215  -1.906  1.00  0.00    -0.005 A 
HETATM   14  C8  UNL     1      18.813  -5.901  -2.020  1.00  0.00     0.017 A 
HETATM   15  C9  UNL     1      20.046  -5.634  -2.475  1.00  0.00     0.032 A 
HETATM   16  C10 UNL     1      20.840  -6.706  -2.791  1.00  0.00     0.075 A 
HETATM   17 CL1  UNL     1      22.502  -6.651  -3.410  1.00  0.00    -0.076 Cl
HETATM   18  S1  UNL     1      19.853  -8.043  -2.447  1.00  0.00    -0.082 SA
ENDBRANCH   1  13
BRANCH   1  19
HETATM   19  C11 UNL     1      17.033  -7.579   0.017  1.00  0.00     0.033 A 
HETATM   20  C12 UNL     1      17.875  -8.230   0.870  1.00  0.00    -0.004 A 
HETATM   21  C13 UNL     1      18.959  -9.178   0.471  1.00  0.00     0.057 C 
HETATM   22  S2  UNL     1      17.625  -7.895   2.547  1.00  0.00    -0.033 SA
HETATM   23  C14 UNL     1      16.376  -6.817   2.849  1.00  0.00     0.291 A 
HETATM   24  O3  UNL     1      16.026  -6.436   4.016  1.00  0.00    -0.260 OA
HETATM   25  N3  UNL     1      15.758  -6.374   1.750  1.00  0.00    -0.284 N 
HETATM   26  C15 UNL     1      16.034  -6.699   0.499  1.00  0.00     0.256 A 
ATOM     27  H3  UNL     1      14.991  -5.716   1.891  1.00  0.00     0.172 HD
HETATM   28  O4  UNL     1      15.273  -6.118  -0.368  1.00  0.00    -0.267 OA
ENDBRANCH   1  19
TORSDOF 6
ENDMDL
MODEL 4
REMARK VINA RESULT: -3.688958975      1.479      1.864
REMARK  6 active torsions:
REMARK  status: ('A' for Active; 'I' for Inactive)
REMARK    1  A    between atoms: C2_2  and  C3_3 
REMARK    2  A    between atoms: C3_3  and  N1_4 
REMARK    3  A    between atoms: N2_8  and  C5_9 
REMARK    4  A    between atoms: C5_9  and  C6_10 
REMARK    5  A    between atoms: C6_10  and  C7_11 
REMARK    6  A    between atoms: C6_10  and  C11_17 
ROOT
HETATM    1  C6  UNL     1      17.647  -7.000  -1.908  1.00  0.00     0.084 C 
ENDROOT
BRANCH   1   2
HETATM    2  C5  UNL     1      17.036  -5.909  -2.677  1.00  0.00     0.154 C 
BRANCH   2   3
HETATM    3  N2  UNL     1      16.998  -6.088  -4.122  1.00  0.00    -0.241 N 
HETATM    4  C4  UNL     1      15.962  -6.503  -4.859  1.00  0.00     0.393 A 
HETATM    5  O1  UNL     1      16.374  -6.537  -6.104  1.00  0.00    -0.174 OA
HETATM    6  O2  UNL     1      14.797  -6.820  -4.551  1.00  0.00    -0.236 OA
HETATM    7  N1  UNL     1      17.605  -6.174  -6.230  1.00  0.00    -0.193 N 
HETATM    8  C16 UNL     1      18.013  -5.887  -4.984  1.00  0.00     0.353 A 
HETATM    9  O5  UNL     1      19.155  -5.496  -4.680  1.00  0.00    -0.244 OA
BRANCH   7  10
HETATM   10  C3  UNL     1      18.395  -6.087  -7.442  1.00  0.00     0.188 C 
BRANCH  10  11
HETATM   11  C2  UNL     1      19.533  -7.029  -7.431  1.00  0.00    -0.015 C 
HETATM   12  C1  UNL     1      20.277  -7.272  -8.505  1.00  0.00     0.008 C 
ENDBRANCH  10  11
ENDBRANCH   7  10
ENDBRANCH   2   3
ENDBRANCH   1   2
BRANCH   1  13
HETATM   13  C7  UNL     1      19.111  -7.067  -2.179  1.00  0.00    -0.005 A 
HETATM   14  C8  UNL     1      19.849  -8.180  -2.491  1.00  0.00     0.017 A 
HETATM   15  C9  UNL     1      21.167  -8.025  -2.684  1.00  0.00     0.032 A 
HETATM   16  C10 UNL     1      21.673  -6.758  -2.552  1.00  0.00     0.075 A 
HETATM   17 CL1  UNL     1      23.365  -6.264  -2.750  1.00  0.00    -0.076 Cl
HETATM   18  S1  UNL     1      20.308  -5.827  -2.167  1.00  0.00    -0.082 SA
ENDBRANCH   1  13
BRANCH   1  19
HETATM   19  C11 UNL     1      17.422  -7.127  -0.459  1.00  0.00     0.033 A 
HETATM   20  C12 UNL     1      17.999  -8.124   0.271  1.00  0.00    -0.004 A 
HETATM   21  C13 UNL     1      18.891  -9.195  -0.268  1.00  0.00     0.057 C 
HETATM   22  S2  UNL     1      17.635  -8.102   1.960  1.00  0.00    -0.033 SA
HETATM   23  C14 UNL     1      16.622  -6.848   2.424  1.00  0.00     0.291 A 
HETATM   24  O3  UNL     1      16.231  -6.651   3.623  1.00  0.00    -0.260 OA
HETATM   25  N3  UNL     1      16.246  -6.049   1.421  1.00  0.00    -0.284 N 
HETATM   26  C15 UNL     1      16.589  -6.158   0.149  1.00  0.00     0.256 A 
ATOM     27  H3  UNL     1      15.629  -5.273   1.662  1.00  0.00     0.172 HD
HETATM   28  O4  UNL     1      16.077  -5.243  -0.606  1.00  0.00    -0.267 OA
ENDBRANCH   1  19
TORSDOF 6
ENDMDL
MODEL 5
REMARK VINA RESULT: -3.608883770      1.326      1.910
REMARK  6 active torsions:
REMARK  status: ('A' for Active; 'I' for Inactive)
REMARK    1  A    between atoms: C2_2  and  C3_3 
REMARK    2  A    between atoms: C3_3  and  N1_4 
REMARK    3  A    between atoms: N2_8  and  C5_9 
REMARK    4  A    between atoms: C5_9  and  C6_10 
REMARK    5  A    between atoms: C6_10  and  C7_11 
REMARK    6  A    between atoms: C6_10  and  C11_17 
ROOT
HETATM    1  C6  UNL     1      17.180  -7.701  -1.556  1.00  0.00     0.084 C 
ENDROOT
BRANCH   1   2
HETATM    2  C5  UNL     1      16.124  -7.240  -2.464  1.00  0.00     0.154 C 
BRANCH   2   3
HETATM    3  N2  UNL     1      16.573  -6.605  -3.696  1.00  0.00    -0.241 N 
HETATM    4  C4  UNL     1      16.500  -5.307  -4.011  1.00  0.00     0.393 A 
HETATM    5  O1  UNL     1      16.999  -5.184  -5.219  1.00  0.00    -0.174 OA
HETATM    6  O2  UNL     1      16.074  -4.321  -3.380  1.00  0.00    -0.236 OA
HETATM    7  N1  UNL     1      17.391  -6.309  -5.712  1.00  0.00    -0.193 N 
HETATM    8  C16 UNL     1      17.128  -7.218  -4.760  1.00  0.00     0.353 A 
HETATM    9  O5  UNL     1      17.363  -8.436  -4.853  1.00  0.00    -0.244 OA
BRANCH   7  10
HETATM   10  C3  UNL     1      17.989  -6.560  -7.008  1.00  0.00     0.188 C 
BRANCH  10  11
HETATM   11  C2  UNL     1      19.465  -6.597  -6.940  1.00  0.00    -0.015 C 
HETATM   12  C1  UNL     1      20.205  -7.338  -7.759  1.00  0.00     0.008 C 
ENDBRANCH  10  11
ENDBRANCH   7  10
ENDBRANCH   2   3
ENDBRANCH   1   2
BRANCH   1  13
HETATM   13  C7  UNL     1      18.502  -7.159  -1.980  1.00  0.00    -0.005 A 
HETATM   14  C8  UNL     1      18.844  -5.842  -2.154  1.00  0.00     0.017 A 
HETATM   15  C9  UNL     1      20.092  -5.566  -2.558  1.00  0.00     0.032 A 
HETATM   16  C10 UNL     1      20.932  -6.630  -2.766  1.00  0.00     0.075 A 
HETATM   17 CL1  UNL     1      22.622  -6.561  -3.298  1.00  0.00    -0.076 Cl
HETATM   18  S1  UNL     1      19.964  -7.973  -2.395  1.00  0.00    -0.082 SA
ENDBRANCH   1  13
BRANCH   1  19
HETATM   19  C11 UNL     1      17.048  -7.550  -0.097  1.00  0.00     0.033 A 
HETATM   20  C12 UNL     1      16.338  -6.526   0.456  1.00  0.00    -0.004 A 
HETATM   21  C13 UNL     1      15.635  -5.445  -0.299  1.00  0.00     0.057 C 
HETATM   22  S2  UNL     1      16.278  -6.523   2.183  1.00  0.00    -0.033 SA
HETATM   23  C14 UNL     1      17.112  -7.791   2.898  1.00  0.00     0.291 A 
HETATM   24  O3  UNL     1      17.193  -7.973   4.158  1.00  0.00    -0.260 OA
HETATM   25  N3  UNL     1      17.699  -8.618   2.028  1.00  0.00    -0.284 N 
HETATM   26  C15 UNL     1      17.681  -8.526   0.710  1.00  0.00     0.256 A 
ATOM     27  H3  UNL     1      18.217  -9.403   2.423  1.00  0.00     0.172 HD
HETATM   28  O4  UNL     1      18.337  -9.467   0.115  1.00  0.00    -0.267 OA
ENDBRANCH   1  19
TORSDOF 6
ENDMDL
