MODEL 1
REMARK VINA RESULT: -6.576322954      0.000      0.000
REMARK  3 active torsions:
REMARK  status: ('A' for Active; 'I' for Inactive)
REMARK    1  A    between atoms: C6_7  and  C7_8 
REMARK    2  A    between atoms: N1_11  and  C10_12 
REMARK    3  A    between atoms: C10_12  and  C11_13 
ROOT
HETATM    1  C7  UNL     1      11.570  -7.682 -12.889  1.00  0.00    -0.045 C 
HETATM    2  C8  UNL     1      12.272  -7.957 -11.811  1.00  0.00     0.025 C 
HETATM    3  C9  UNL     1      11.913  -9.195 -11.071  1.00  0.00     0.091 C 
HETATM    4  N1  UNL     1      10.529  -9.224 -10.839  1.00  0.00    -0.365 N 
HETATM    5  C17 UNL     1       9.685  -8.816 -11.888  1.00  0.00     0.132 C 
HETATM    6  C18 UNL     1      10.486  -8.693 -13.196  1.00  0.00     0.060 C 
ENDROOT
BRANCH   4   7
HETATM    7  C10 UNL     1      10.039  -9.143  -9.523  1.00  0.00     0.103 C 
BRANCH   7   8
HETATM    8  C11 UNL     1       9.935  -7.743  -9.038  1.00  0.00    -0.005 A 
HETATM    9  C12 UNL     1       9.369  -6.736  -9.832  1.00  0.00     0.016 A 
HETATM   10  C13 UNL     1       9.271  -5.428  -9.400  1.00  0.00     0.025 A 
HETATM   11  C14 UNL     1       9.736  -5.072  -8.150  1.00  0.00     0.005 A 
HETATM   12  C15 UNL     1       9.646  -3.666  -7.647  1.00  0.00     0.068 C 
HETATM   13  N2  UNL     1      10.277  -6.046  -7.396  1.00  0.00    -0.369 N 
HETATM   14  C16 UNL     1      10.382  -7.326  -7.800  1.00  0.00     0.100 A 
ATOM     15  H2  UNL     1      10.627  -5.802  -6.470  1.00  0.00     0.165 HD
ENDBRANCH   7   8
ENDBRANCH   4   7
BRANCH   1  16
HETATM   16  C6  UNL     1      11.821  -6.515 -13.691  1.00  0.00    -0.028 A 
HETATM   17  C5  UNL     1      10.784  -5.754 -14.217  1.00  0.00     0.035 A 
HETATM   18  C4  UNL     1      11.077  -4.626 -14.985  1.00  0.00     0.035 A 
HETATM   19  C3  UNL     1      12.374  -4.248 -15.234  1.00  0.00     0.030 A 
HETATM   20 CL1  UNL     1       9.758  -3.677 -15.641  1.00  0.00    -0.084 Cl
HETATM   21  C2  UNL     1      13.400  -4.995 -14.717  1.00  0.00    -0.060 A 
HETATM   22  C1  UNL     1      14.782  -4.585 -14.987  1.00  0.00     0.048 C 
HETATM   23  C19 UNL     1      13.102  -6.115 -13.954  1.00  0.00     0.018 A 
ENDBRANCH   1  16
TORSDOF 3
ENDMDL
MODEL 2
REMARK VINA RESULT: -5.799227276      3.195      6.989
REMARK  3 active torsions:
REMARK  status: ('A' for Active; 'I' for Inactive)
REMARK    1  A    between atoms: C6_7  and  C7_8 
REMARK    2  A    between atoms: N1_11  and  C10_12 
REMARK    3  A    between atoms: C10_12  and  C11_13 
ROOT
HETATM    1  C7  UNL     1       9.985  -6.401 -12.614  1.00  0.00    -0.045 C 
HETATM    2  C8  UNL     1       9.759  -5.131 -12.358  1.00  0.00     0.025 C 
HETATM    3  C9  UNL     1       9.271  -4.293 -13.484  1.00  0.00     0.091 C 
HETATM    4  N1  UNL     1      10.093  -4.482 -14.607  1.00  0.00    -0.365 N 
HETATM    5  C17 UNL     1      10.509  -5.795 -14.894  1.00  0.00     0.132 C 
HETATM    6  C18 UNL     1       9.711  -6.802 -14.048  1.00  0.00     0.060 C 
ENDROOT
BRANCH   4   7
HETATM    7  C10 UNL     1      10.878  -3.417 -15.086  1.00  0.00     0.103 C 
BRANCH   7   8
HETATM    8  C11 UNL     1      12.288  -3.814 -15.331  1.00  0.00    -0.005 A 
HETATM    9  C12 UNL     1      12.970  -3.406 -16.486  1.00  0.00     0.016 A 
HETATM   10  C13 UNL     1      14.279  -3.771 -16.733  1.00  0.00     0.025 A 
HETATM   11  C14 UNL     1      14.963  -4.561 -15.831  1.00  0.00     0.005 A 
HETATM   12  C15 UNL     1      16.382  -4.976 -16.063  1.00  0.00     0.068 C 
HETATM   13  N2  UNL     1      14.299  -4.947 -14.726  1.00  0.00    -0.369 N 
HETATM   14  C16 UNL     1      13.023  -4.601 -14.468  1.00  0.00     0.100 A 
ATOM     15  H2  UNL     1      14.788  -5.532 -14.048  1.00  0.00     0.165 HD
ENDBRANCH   7   8
ENDBRANCH   4   7
BRANCH   1  16
HETATM   16  C6  UNL     1      10.457  -7.315 -11.608  1.00  0.00    -0.028 A 
HETATM   17  C5  UNL     1      11.566  -8.124 -11.820  1.00  0.00     0.035 A 
HETATM   18  C4  UNL     1      11.990  -8.992 -10.812  1.00  0.00     0.035 A 
HETATM   19  C3  UNL     1      11.333  -9.063  -9.608  1.00  0.00     0.030 A 
HETATM   20 CL1  UNL     1      13.391 -10.006 -11.097  1.00  0.00    -0.084 Cl
HETATM   21  C2  UNL     1      10.239  -8.266  -9.394  1.00  0.00    -0.060 A 
HETATM   22  C1  UNL     1       9.543  -8.348  -8.106  1.00  0.00     0.048 C 
HETATM   23  C19 UNL     1       9.823  -7.407 -10.400  1.00  0.00     0.018 A 
ENDBRANCH   1  16
TORSDOF 3
ENDMDL
MODEL 3
REMARK VINA RESULT: -5.055820139     10.967     12.544
REMARK  3 active torsions:
REMARK  status: ('A' for Active; 'I' for Inactive)
REMARK    1  A    between atoms: C6_7  and  C7_8 
REMARK    2  A    between atoms: N1_11  and  C10_12 
REMARK    3  A    between atoms: C10_12  and  C11_13 
ROOT
HETATM    1  C7  UNL     1      19.302  -6.257  -3.206  1.00  0.00    -0.045 C 
HETATM    2  C8  UNL     1      18.280  -5.917  -2.451  1.00  0.00     0.025 C 
HETATM    3  C9  UNL     1      18.376  -6.238  -1.003  1.00  0.00     0.091 C 
HETATM    4  N1  UNL     1      18.749  -7.582  -0.839  1.00  0.00    -0.365 N 
HETATM    5  C17 UNL     1      19.745  -8.089  -1.693  1.00  0.00     0.132 C 
HETATM    6  C18 UNL     1      20.426  -6.939  -2.456  1.00  0.00     0.060 C 
ENDROOT
BRANCH   4   7
HETATM    7  C10 UNL     1      17.847  -8.492  -0.257  1.00  0.00     0.103 C 
BRANCH   7   8
HETATM    8  C11 UNL     1      17.464  -8.108   1.126  1.00  0.00    -0.005 A 
HETATM    9  C12 UNL     1      16.351  -7.293   1.375  1.00  0.00     0.016 A 
HETATM   10  C13 UNL     1      15.984  -6.922   2.654  1.00  0.00     0.025 A 
HETATM   11  C14 UNL     1      16.717  -7.353   3.740  1.00  0.00     0.005 A 
HETATM   12  C15 UNL     1      16.350  -6.973   5.140  1.00  0.00     0.068 C 
HETATM   13  N2  UNL     1      17.783  -8.135   3.490  1.00  0.00    -0.369 N 
HETATM   14  C16 UNL     1      18.156  -8.507   2.251  1.00  0.00     0.100 A 
ATOM     15  H2  UNL     1      18.338  -8.462   4.281  1.00  0.00     0.165 HD
ENDBRANCH   7   8
ENDBRANCH   4   7
BRANCH   1  16
HETATM   16  C6  UNL     1      19.331  -5.999  -4.621  1.00  0.00    -0.028 A 
HETATM   17  C5  UNL     1      19.040  -4.744  -5.140  1.00  0.00     0.035 A 
HETATM   18  C4  UNL     1      19.086  -4.541  -6.521  1.00  0.00     0.035 A 
HETATM   19  C3  UNL     1      19.416  -5.559  -7.382  1.00  0.00     0.030 A 
HETATM   20 CL1  UNL     1      18.715  -2.952  -7.159  1.00  0.00    -0.084 Cl
HETATM   21  C2  UNL     1      19.704  -6.798  -6.874  1.00  0.00    -0.060 A 
HETATM   22  C1  UNL     1      20.056  -7.880  -7.799  1.00  0.00     0.048 C 
HETATM   23  C19 UNL     1      19.657  -6.993  -5.502  1.00  0.00     0.018 A 
ENDBRANCH   1  16
TORSDOF 3
ENDMDL
MODEL 4
REMARK VINA RESULT: -4.991705801     10.423     12.006
REMARK  3 active torsions:
REMARK  status: ('A' for Active; 'I' for Inactive)
REMARK    1  A    between atoms: C6_7  and  C7_8 
REMARK    2  A    between atoms: N1_11  and  C10_12 
REMARK    3  A    between atoms: C10_12  and  C11_13 
ROOT
HETATM    1  C7  UNL     1      18.205  -6.869  -3.888  1.00  0.00    -0.045 C 
HETATM    2  C8  UNL     1      18.897  -6.774  -2.775  1.00  0.00     0.025 C 
HETATM    3  C9  UNL     1      18.291  -7.363  -1.552  1.00  0.00     0.091 C 
HETATM    4  N1  UNL     1      16.970  -6.906  -1.411  1.00  0.00    -0.365 N 
HETATM    5  C17 UNL     1      16.178  -6.838  -2.571  1.00  0.00     0.132 C 
HETATM    6  C18 UNL     1      16.873  -7.572  -3.732  1.00  0.00     0.060 C 
ENDROOT
BRANCH   4   7
HETATM    7  C10 UNL     1      16.629  -6.080  -0.324  1.00  0.00     0.103 C 
BRANCH   7   8
HETATM    8  C11 UNL     1      16.880  -6.730   0.987  1.00  0.00    -0.005 A 
HETATM    9  C12 UNL     1      16.085  -6.447   2.106  1.00  0.00     0.016 A 
HETATM   10  C13 UNL     1      16.308  -7.037   3.335  1.00  0.00     0.025 A 
HETATM   11  C14 UNL     1      17.340  -7.940   3.495  1.00  0.00     0.005 A 
HETATM   12  C15 UNL     1      17.612  -8.601   4.809  1.00  0.00     0.068 C 
HETATM   13  N2  UNL     1      18.097  -8.205   2.414  1.00  0.00    -0.369 N 
HETATM   14  C16 UNL     1      17.895  -7.639   1.209  1.00  0.00     0.100 A 
ATOM     15  H2  UNL     1      18.865  -8.869   2.514  1.00  0.00     0.165 HD
ENDBRANCH   7   8
ENDBRANCH   4   7
BRANCH   1  16
HETATM   16  C6  UNL     1      18.684  -6.341  -5.138  1.00  0.00    -0.028 A 
HETATM   17  C5  UNL     1      18.632  -4.982  -5.423  1.00  0.00     0.035 A 
HETATM   18  C4  UNL     1      19.114  -4.515  -6.648  1.00  0.00     0.035 A 
HETATM   19  C3  UNL     1      19.643  -5.374  -7.581  1.00  0.00     0.030 A 
HETATM   20 CL1  UNL     1      19.041  -2.799  -6.992  1.00  0.00    -0.084 Cl
HETATM   21  C2  UNL     1      19.696  -6.715  -7.303  1.00  0.00    -0.060 A 
HETATM   22  C1  UNL     1      20.262  -7.624  -8.304  1.00  0.00     0.048 C 
HETATM   23  C19 UNL     1      19.216  -7.171  -6.085  1.00  0.00     0.018 A 
ENDBRANCH   1  16
TORSDOF 3
ENDMDL
MODEL 5
REMARK VINA RESULT: -4.718255753     10.836     13.997
REMARK  3 active torsions:
REMARK  status: ('A' for Active; 'I' for Inactive)
REMARK    1  A    between atoms: C6_7  and  C7_8 
REMARK    2  A    between atoms: N1_11  and  C10_12 
REMARK    3  A    between atoms: C10_12  and  C11_13 
ROOT
HETATM    1  C7  UNL     1      17.653  -6.405  -0.665  1.00  0.00    -0.045 C 
HETATM    2  C8  UNL     1      18.425  -6.862  -1.627  1.00  0.00     0.025 C 
HETATM    3  C9  UNL     1      18.361  -6.157  -2.934  1.00  0.00     0.091 C 
HETATM    4  N1  UNL     1      17.022  -6.018  -3.333  1.00  0.00    -0.365 N 
HETATM    5  C17 UNL     1      16.084  -5.662  -2.347  1.00  0.00     0.132 C 
HETATM    6  C18 UNL     1      16.806  -5.215  -1.064  1.00  0.00     0.060 C 
ENDROOT
BRANCH   4   7
HETATM    7  C10 UNL     1      16.559  -6.693  -4.477  1.00  0.00     0.103 C 
BRANCH   7   8
HETATM    8  C11 UNL     1      17.592  -6.786  -5.541  1.00  0.00    -0.005 A 
HETATM    9  C12 UNL     1      18.221  -5.640  -6.049  1.00  0.00     0.016 A 
HETATM   10  C13 UNL     1      19.178  -5.708  -7.043  1.00  0.00     0.025 A 
HETATM   11  C14 UNL     1      19.548  -6.928  -7.570  1.00  0.00     0.005 A 
HETATM   12  C15 UNL     1      20.582  -7.042  -8.645  1.00  0.00     0.068 C 
HETATM   13  N2  UNL     1      18.938  -8.021  -7.075  1.00  0.00    -0.369 N 
HETATM   14  C16 UNL     1      18.003  -7.976  -6.107  1.00  0.00     0.100 A 
ATOM     15  H2  UNL     1      19.198  -8.932  -7.453  1.00  0.00     0.165 HD
ENDBRANCH   7   8
ENDBRANCH   4   7
BRANCH   1  16
HETATM   16  C6  UNL     1      17.625  -6.999   0.644  1.00  0.00    -0.028 A 
HETATM   17  C5  UNL     1      18.548  -7.964   1.028  1.00  0.00     0.035 A 
HETATM   18  C4  UNL     1      18.484  -8.508   2.312  1.00  0.00     0.035 A 
HETATM   19  C3  UNL     1      17.525  -8.109   3.210  1.00  0.00     0.030 A 
HETATM   20 CL1  UNL     1      19.656  -9.724   2.780  1.00  0.00    -0.084 Cl
HETATM   21  C2  UNL     1      16.612  -7.157   2.836  1.00  0.00    -0.060 A 
HETATM   22  C1  UNL     1      15.592  -6.736   3.800  1.00  0.00     0.048 C 
HETATM   23  C19 UNL     1      16.682  -6.621   1.559  1.00  0.00     0.018 A 
ENDBRANCH   1  16
TORSDOF 3
ENDMDL
