MODEL 1
REMARK VINA RESULT: -6.231953767      0.000      0.000
REMARK  4 active torsions:
REMARK  status: ('A' for Active; 'I' for Inactive)
REMARK    1  A    between atoms: C1_2  and  C2_3 
REMARK    2  A    between atoms: C2_3  and  N1_4 
REMARK    3  A    between atoms: C6_8  and  C7_9 
REMARK    4  A    between atoms: C8_10  and  C9_11 
ROOT
HETATM    1  C7  UNL     1      20.259  -6.735  -2.087  1.00  0.00     0.002 C 
HETATM    2  C8  UNL     1      19.937  -6.043  -3.136  1.00  0.00     0.030 C 
ENDROOT
BRANCH   2   3
HETATM    3  C9  UNL     1      18.771  -6.141  -3.982  1.00  0.00     0.043 A 
HETATM    4  N2  UNL     1      17.531  -6.074  -3.413  1.00  0.00    -0.365 N 
HETATM    5  C10 UNL     1      16.393  -6.195  -4.096  1.00  0.00     0.089 A 
ATOM      6  H2  UNL     1      17.473  -5.923  -2.406  1.00  0.00     0.165 HD
HETATM    7  C11 UNL     1      16.402  -6.400  -5.456  1.00  0.00     0.029 A 
HETATM    8  C12 UNL     1      17.643  -6.476  -6.065  1.00  0.00    -0.022 A 
HETATM    9  C13 UNL     1      17.721  -6.732  -7.422  1.00  0.00     0.012 A 
HETATM   10  C17 UNL     1      18.834  -6.349  -5.333  1.00  0.00     0.001 A 
HETATM   11  C14 UNL     1      18.912  -6.874  -8.091  1.00  0.00     0.001 A 
HETATM   12  C15 UNL     1      20.064  -6.752  -7.350  1.00  0.00     0.001 A 
HETATM   13  C16 UNL     1      20.051  -6.495  -5.994  1.00  0.00     0.014 A 
ENDBRANCH   2   3
BRANCH   1  14
HETATM   14  C6  UNL     1      19.567  -7.820  -1.446  1.00  0.00     0.003 C 
HETATM   15  C5  UNL     1      18.526  -7.587  -0.664  1.00  0.00    -0.077 C 
HETATM   16  C4  UNL     1      17.845  -8.744  -0.024  1.00  0.00     0.064 C 
HETATM   17  C18 UNL     1      18.105  -6.175  -0.474  1.00  0.00     0.064 C 
HETATM   18  C3  UNL     1      16.719  -8.305   0.879  1.00  0.00     0.276 C 
HETATM   19  N1  UNL     1      17.065  -7.050   1.473  1.00  0.00     0.090 N 
HETATM   20  C19 UNL     1      16.918  -6.036   0.446  1.00  0.00     0.276 C 
BRANCH  19  21
HETATM   21  C2  UNL     1      16.379  -6.746   2.686  1.00  0.00     0.287 C 
BRANCH  21  22
HETATM   22  C1  UNL     1      16.539  -7.784   3.763  1.00  0.00     0.144 C 
HETATM   23 CL1  UNL     1      16.373  -7.092   5.385  1.00  0.00    -0.129 Cl
ENDBRANCH  21  22
ENDBRANCH  19  21
ENDBRANCH   1  14
TORSDOF 4
ENDMDL
MODEL 2
REMARK VINA RESULT: -6.153388899      3.602      7.971
REMARK  4 active torsions:
REMARK  status: ('A' for Active; 'I' for Inactive)
REMARK    1  A    between atoms: C1_2  and  C2_3 
REMARK    2  A    between atoms: C2_3  and  N1_4 
REMARK    3  A    between atoms: C6_8  and  C7_9 
REMARK    4  A    between atoms: C8_10  and  C9_11 
ROOT
HETATM    1  C7  UNL     1      16.193  -5.438  -2.196  1.00  0.00     0.002 C 
HETATM    2  C8  UNL     1      16.758  -5.473  -1.028  1.00  0.00     0.030 C 
ENDROOT
BRANCH   2   3
HETATM    3  C9  UNL     1      17.457  -6.553  -0.375  1.00  0.00     0.043 A 
HETATM    4  N2  UNL     1      18.375  -7.274  -1.084  1.00  0.00    -0.365 N 
HETATM    5  C10 UNL     1      19.045  -8.315  -0.590  1.00  0.00     0.089 A 
ATOM      6  H2  UNL     1      18.560  -6.999  -2.049  1.00  0.00     0.165 HD
HETATM    7  C11 UNL     1      18.844  -8.737   0.703  1.00  0.00     0.029 A 
HETATM    8  C12 UNL     1      17.916  -8.031   1.451  1.00  0.00    -0.022 A 
HETATM    9  C13 UNL     1      17.630  -8.436   2.742  1.00  0.00     0.012 A 
HETATM   10  C17 UNL     1      17.217  -6.937   0.916  1.00  0.00     0.001 A 
HETATM   11  C14 UNL     1      16.688  -7.822   3.529  1.00  0.00     0.001 A 
HETATM   12  C15 UNL     1      16.012  -6.757   2.981  1.00  0.00     0.001 A 
HETATM   13  C16 UNL     1      16.254  -6.305   1.699  1.00  0.00     0.014 A 
ENDBRANCH   2   3
BRANCH   1  14
HETATM   14  C6  UNL     1      16.076  -6.462  -3.197  1.00  0.00     0.003 C 
HETATM   15  C5  UNL     1      17.031  -6.640  -4.095  1.00  0.00    -0.077 C 
HETATM   16  C4  UNL     1      16.862  -7.714  -5.110  1.00  0.00     0.064 C 
HETATM   17  C18 UNL     1      18.217  -5.749  -4.029  1.00  0.00     0.064 C 
HETATM   18  C3  UNL     1      18.006  -7.747  -6.091  1.00  0.00     0.276 C 
HETATM   19  N1  UNL     1      18.480  -6.412  -6.294  1.00  0.00     0.090 N 
HETATM   20  C19 UNL     1      19.229  -6.040  -5.110  1.00  0.00     0.276 C 
BRANCH  19  21
HETATM   21  C2  UNL     1      19.188  -6.201  -7.515  1.00  0.00     0.287 C 
BRANCH  21  22
HETATM   22  C1  UNL     1      20.182  -7.281  -7.846  1.00  0.00     0.144 C 
HETATM   23 CL1  UNL     1      20.592  -7.303  -9.569  1.00  0.00    -0.129 Cl
ENDBRANCH  21  22
ENDBRANCH  19  21
ENDBRANCH   1  14
TORSDOF 4
ENDMDL
MODEL 3
REMARK VINA RESULT: -6.078256885      3.427      7.730
REMARK  4 active torsions:
REMARK  status: ('A' for Active; 'I' for Inactive)
REMARK    1  A    between atoms: C1_2  and  C2_3 
REMARK    2  A    between atoms: C2_3  and  N1_4 
REMARK    3  A    between atoms: C6_8  and  C7_9 
REMARK    4  A    between atoms: C8_10  and  C9_11 
ROOT
HETATM    1  C7  UNL     1      20.218  -7.298  -2.435  1.00  0.00     0.002 C 
HETATM    2  C8  UNL     1      19.424  -7.764  -1.521  1.00  0.00     0.030 C 
ENDROOT
BRANCH   2   3
HETATM    3  C9  UNL     1      18.177  -7.230  -1.026  1.00  0.00     0.043 A 
HETATM    4  N2  UNL     1      17.427  -6.431  -1.840  1.00  0.00    -0.365 N 
HETATM    5  C10 UNL     1      16.284  -5.855  -1.468  1.00  0.00     0.089 A 
ATOM      6  H2  UNL     1      17.762  -6.264  -2.789  1.00  0.00     0.165 HD
HETATM    7  C11 UNL     1      15.778  -6.039  -0.203  1.00  0.00     0.029 A 
HETATM    8  C12 UNL     1      16.514  -6.842   0.651  1.00  0.00    -0.022 A 
HETATM    9  C13 UNL     1      16.085  -7.026   1.953  1.00  0.00     0.012 A 
HETATM   10  C17 UNL     1      17.718  -7.441   0.246  1.00  0.00     0.001 A 
HETATM   11  C14 UNL     1      16.785  -7.764   2.875  1.00  0.00     0.001 A 
HETATM   12  C15 UNL     1      17.963  -8.335   2.456  1.00  0.00     0.001 A 
HETATM   13  C16 UNL     1      18.443  -8.189   1.170  1.00  0.00     0.014 A 
ENDBRANCH   2   3
BRANCH   1  14
HETATM   14  C6  UNL     1      20.115  -6.105  -3.230  1.00  0.00     0.003 C 
HETATM   15  C5  UNL     1      19.506  -6.127  -4.403  1.00  0.00    -0.077 C 
HETATM   16  C4  UNL     1      19.426  -4.865  -5.186  1.00  0.00     0.064 C 
HETATM   17  C18 UNL     1      18.938  -7.420  -4.864  1.00  0.00     0.064 C 
HETATM   18  C3  UNL     1      18.755  -5.072  -6.521  1.00  0.00     0.276 C 
HETATM   19  N1  UNL     1      19.069  -6.385  -6.997  1.00  0.00     0.090 N 
HETATM   20  C19 UNL     1      18.281  -7.321  -6.218  1.00  0.00     0.276 C 
BRANCH  19  21
HETATM   21  C2  UNL     1      18.945  -6.562  -8.408  1.00  0.00     0.287 C 
BRANCH  21  22
HETATM   22  C1  UNL     1      20.230  -6.932  -9.098  1.00  0.00     0.144 C 
HETATM   23 CL1  UNL     1      20.997  -8.349  -8.363  1.00  0.00    -0.129 Cl
ENDBRANCH  21  22
ENDBRANCH  19  21
ENDBRANCH   1  14
TORSDOF 4
ENDMDL
MODEL 4
REMARK VINA RESULT: -5.992981658      3.746      7.414
REMARK  4 active torsions:
REMARK  status: ('A' for Active; 'I' for Inactive)
REMARK    1  A    between atoms: C1_2  and  C2_3 
REMARK    2  A    between atoms: C2_3  and  N1_4 
REMARK    3  A    between atoms: C6_8  and  C7_9 
REMARK    4  A    between atoms: C8_10  and  C9_11 
ROOT
HETATM    1  C7  UNL     1      15.676  -6.568  -3.666  1.00  0.00     0.002 C 
HETATM    2  C8  UNL     1      15.574  -7.171  -2.522  1.00  0.00     0.030 C 
ENDROOT
BRANCH   2   3
HETATM    3  C9  UNL     1      16.409  -7.067  -1.349  1.00  0.00     0.043 A 
HETATM    4  N2  UNL     1      15.837  -6.739  -0.154  1.00  0.00    -0.365 N 
HETATM    5  C10 UNL     1      16.521  -6.577   0.979  1.00  0.00     0.089 A 
ATOM      6  H2  UNL     1      14.825  -6.609  -0.125  1.00  0.00     0.165 HD
HETATM    7  C11 UNL     1      17.886  -6.738   1.009  1.00  0.00     0.029 A 
HETATM    8  C12 UNL     1      18.501  -7.068  -0.187  1.00  0.00    -0.022 A 
HETATM    9  C13 UNL     1      19.878  -7.194  -0.235  1.00  0.00     0.012 A 
HETATM   10  C17 UNL     1      17.767  -7.233  -1.372  1.00  0.00     0.001 A 
HETATM   11  C14 UNL     1      20.566  -7.468  -1.390  1.00  0.00     0.001 A 
HETATM   12  C15 UNL     1      19.825  -7.619  -2.539  1.00  0.00     0.001 A 
HETATM   13  C16 UNL     1      18.449  -7.507  -2.555  1.00  0.00     0.014 A 
ENDBRANCH   2   3
BRANCH   1  14
HETATM   14  C6  UNL     1      16.653  -5.621  -4.129  1.00  0.00     0.003 C 
HETATM   15  C5  UNL     1      17.410  -5.891  -5.178  1.00  0.00    -0.077 C 
HETATM   16  C4  UNL     1      18.406  -4.878  -5.616  1.00  0.00     0.064 C 
HETATM   17  C18 UNL     1      17.215  -7.200  -5.854  1.00  0.00     0.064 C 
HETATM   18  C3  UNL     1      19.227  -5.363  -6.785  1.00  0.00     0.276 C 
HETATM   19  N1  UNL     1      19.405  -6.777  -6.669  1.00  0.00     0.090 N 
HETATM   20  C19 UNL     1      18.143  -7.398  -7.026  1.00  0.00     0.276 C 
BRANCH  19  21
HETATM   21  C2  UNL     1      20.527  -7.306  -7.376  1.00  0.00     0.287 C 
BRANCH  21  22
HETATM   22  C1  UNL     1      20.339  -7.376  -8.867  1.00  0.00     0.144 C 
HETATM   23 CL1  UNL     1      21.257  -8.706  -9.592  1.00  0.00    -0.129 Cl
ENDBRANCH  21  22
ENDBRANCH  19  21
ENDBRANCH   1  14
TORSDOF 4
ENDMDL
MODEL 5
REMARK VINA RESULT: -5.924180173      3.778      8.011
REMARK  4 active torsions:
REMARK  status: ('A' for Active; 'I' for Inactive)
REMARK    1  A    between atoms: C1_2  and  C2_3 
REMARK    2  A    between atoms: C2_3  and  N1_4 
REMARK    3  A    between atoms: C6_8  and  C7_9 
REMARK    4  A    between atoms: C8_10  and  C9_11 
ROOT
HETATM    1  C7  UNL     1      16.008  -6.068  -3.947  1.00  0.00     0.002 C 
HETATM    2  C8  UNL     1      16.130  -6.831  -2.905  1.00  0.00     0.030 C 
ENDROOT
BRANCH   2   3
HETATM    3  C9  UNL     1      17.286  -7.081  -2.077  1.00  0.00     0.043 A 
HETATM    4  N2  UNL     1      18.467  -7.421  -2.672  1.00  0.00    -0.365 N 
HETATM    5  C10 UNL     1      19.581  -7.712  -2.000  1.00  0.00     0.089 A 
ATOM      6  H2  UNL     1      18.499  -7.454  -3.691  1.00  0.00     0.165 HD
HETATM    7  C11 UNL     1      19.605  -7.685  -0.626  1.00  0.00     0.029 A 
HETATM    8  C12 UNL     1      18.424  -7.347   0.011  1.00  0.00    -0.022 A 
HETATM    9  C13 UNL     1      18.368  -7.352   1.394  1.00  0.00     0.012 A 
HETATM   10  C17 UNL     1      17.257  -7.045  -0.709  1.00  0.00     0.001 A 
HETATM   11  C14 UNL     1      17.222  -7.080   2.099  1.00  0.00     0.001 A 
HETATM   12  C15 UNL     1      16.092  -6.793   1.370  1.00  0.00     0.001 A 
HETATM   13  C16 UNL     1      16.085  -6.771  -0.010  1.00  0.00     0.014 A 
ENDBRANCH   2   3
BRANCH   1  14
HETATM   14  C6  UNL     1      16.982  -5.245  -4.610  1.00  0.00     0.003 C 
HETATM   15  C5  UNL     1      17.713  -5.730  -5.600  1.00  0.00    -0.077 C 
HETATM   16  C4  UNL     1      18.708  -4.837  -6.252  1.00  0.00     0.064 C 
HETATM   17  C18 UNL     1      17.492  -7.144  -5.995  1.00  0.00     0.064 C 
HETATM   18  C3  UNL     1      19.497  -5.557  -7.317  1.00  0.00     0.276 C 
HETATM   19  N1  UNL     1      19.665  -6.922  -6.924  1.00  0.00     0.090 N 
HETATM   20  C19 UNL     1      18.391  -7.585  -7.123  1.00  0.00     0.276 C 
BRANCH  19  21
HETATM   21  C2  UNL     1      20.766  -7.595  -7.534  1.00  0.00     0.287 C 
BRANCH  21  22
HETATM   22  C1  UNL     1      20.656  -7.731  -9.028  1.00  0.00     0.144 C 
HETATM   23 CL1  UNL     1      21.541  -9.139  -9.636  1.00  0.00    -0.129 Cl
ENDBRANCH  21  22
ENDBRANCH  19  21
ENDBRANCH   1  14
TORSDOF 4
ENDMDL
