MODEL 1
REMARK VINA RESULT: -6.139004373      0.000      0.000
REMARK  4 active torsions:
REMARK  status: ('A' for Active; 'I' for Inactive)
REMARK    1  A    between atoms: C2_2  and  C3_3 
REMARK    2  A    between atoms: C3_3  and  C4_4 
REMARK    3  A    between atoms: C7_7  and  C8_8 
REMARK    4  A    between atoms: C8_8  and  N1_9 
ROOT
HETATM    1  N1  UNL     1      16.415  -6.240  -3.017  1.00  0.00    -0.404 N 
HETATM    2  C9  UNL     1      15.948  -5.343  -2.027  1.00  0.00     0.123 C 
HETATM    3  C10 UNL     1      15.559  -6.228  -0.832  1.00  0.00     0.077 C 
HETATM    4  C11 UNL     1      16.842  -6.926  -0.449  1.00  0.00     0.020 A 
HETATM    5  N2  UNL     1      16.989  -7.343   0.834  1.00  0.00    -0.363 N 
ATOM      6  H2  UNL     1      16.231  -7.174   1.496  1.00  0.00     0.165 HD
HETATM    7  C12 UNL     1      18.093  -7.970   1.261  1.00  0.00     0.007 A 
HETATM    8  C13 UNL     1      18.246  -8.426   2.673  1.00  0.00     0.068 C 
HETATM    9  C14 UNL     1      19.099  -8.186   0.345  1.00  0.00     0.049 A 
HETATM   10  C15 UNL     1      19.010  -7.788  -0.966  1.00  0.00     0.045 A 
HETATM   11 CL1  UNL     1      20.295  -8.068  -2.117  1.00  0.00    -0.084 Cl
HETATM   12  C16 UNL     1      17.840  -7.136  -1.371  1.00  0.00     0.004 A 
HETATM   13  C17 UNL     1      17.738  -6.696  -2.810  1.00  0.00     0.159 C 
ENDROOT
BRANCH   1  14
HETATM   14  C8  UNL     1      15.964  -6.067  -4.344  1.00  0.00     0.155 C 
BRANCH  14  15
HETATM   15  C7  UNL     1      17.133  -6.191  -5.257  1.00  0.00    -0.041 A 
HETATM   16  C6  UNL     1      17.375  -7.409  -5.897  1.00  0.00     0.009 A 
HETATM   17  C5  UNL     1      18.452  -7.561  -6.745  1.00  0.00     0.007 A 
HETATM   18  C4  UNL     1      19.339  -6.537  -7.004  1.00  0.00    -0.058 A 
HETATM   19  C19 UNL     1      19.097  -5.335  -6.368  1.00  0.00     0.007 A 
HETATM   20  C18 UNL     1      18.019  -5.175  -5.517  1.00  0.00     0.009 A 
BRANCH  18  21
HETATM   21  C3  UNL     1      20.506  -6.682  -7.914  1.00  0.00     0.038 C 
BRANCH  21  22
HETATM   22  C2  UNL     1      20.174  -7.464  -9.158  1.00  0.00     0.000 C 
HETATM   23  C1  UNL     1      21.190  -8.577  -9.323  1.00  0.00     0.005 C 
ENDBRANCH  21  22
ENDBRANCH  18  21
ENDBRANCH  14  15
ENDBRANCH   1  14
TORSDOF 4
ENDMDL
MODEL 2
REMARK VINA RESULT: -6.106395406      0.032      1.003
REMARK  4 active torsions:
REMARK  status: ('A' for Active; 'I' for Inactive)
REMARK    1  A    between atoms: C2_2  and  C3_3 
REMARK    2  A    between atoms: C3_3  and  C4_4 
REMARK    3  A    between atoms: C7_7  and  C8_8 
REMARK    4  A    between atoms: C8_8  and  N1_9 
ROOT
HETATM    1  N1  UNL     1      16.426  -6.239  -3.023  1.00  0.00    -0.404 N 
HETATM    2  C9  UNL     1      15.960  -5.338  -2.035  1.00  0.00     0.123 C 
HETATM    3  C10 UNL     1      15.563  -6.220  -0.840  1.00  0.00     0.077 C 
HETATM    4  C11 UNL     1      16.841  -6.923  -0.452  1.00  0.00     0.020 A 
HETATM    5  N2  UNL     1      16.981  -7.339   0.832  1.00  0.00    -0.363 N 
ATOM      6  H2  UNL     1      16.223  -7.166   1.491  1.00  0.00     0.165 HD
HETATM    7  C12 UNL     1      18.081  -7.971   1.264  1.00  0.00     0.007 A 
HETATM    8  C13 UNL     1      18.227  -8.426   2.677  1.00  0.00     0.068 C 
HETATM    9  C14 UNL     1      19.089  -8.193   0.351  1.00  0.00     0.049 A 
HETATM   10  C15 UNL     1      19.007  -7.796  -0.960  1.00  0.00     0.045 A 
HETATM   11 CL1  UNL     1      20.295  -8.084  -2.106  1.00  0.00    -0.084 Cl
HETATM   12  C16 UNL     1      17.842  -7.139  -1.370  1.00  0.00     0.004 A 
HETATM   13  C17 UNL     1      17.746  -6.700  -2.810  1.00  0.00     0.159 C 
ENDROOT
BRANCH   1  14
HETATM   14  C8  UNL     1      15.981  -6.066  -4.351  1.00  0.00     0.155 C 
BRANCH  14  15
HETATM   15  C7  UNL     1      17.141  -6.259  -5.264  1.00  0.00    -0.041 A 
HETATM   16  C6  UNL     1      17.993  -5.184  -5.525  1.00  0.00     0.009 A 
HETATM   17  C5  UNL     1      19.073  -5.325  -6.370  1.00  0.00     0.007 A 
HETATM   18  C4  UNL     1      19.370  -6.518  -6.997  1.00  0.00    -0.058 A 
HETATM   19  C19 UNL     1      18.525  -7.579  -6.736  1.00  0.00     0.007 A 
HETATM   20  C18 UNL     1      17.440  -7.445  -5.890  1.00  0.00     0.009 A 
BRANCH  18  21
HETATM   21  C3  UNL     1      20.530  -6.690  -7.911  1.00  0.00     0.038 C 
BRANCH  21  22
HETATM   22  C2  UNL     1      20.179  -7.479  -9.145  1.00  0.00     0.000 C 
HETATM   23  C1  UNL     1      21.192  -8.593  -9.318  1.00  0.00     0.005 C 
ENDBRANCH  21  22
ENDBRANCH  18  21
ENDBRANCH  14  15
ENDBRANCH   1  14
TORSDOF 4
ENDMDL
MODEL 3
REMARK VINA RESULT: -5.924657176      1.678      2.345
REMARK  4 active torsions:
REMARK  status: ('A' for Active; 'I' for Inactive)
REMARK    1  A    between atoms: C2_2  and  C3_3 
REMARK    2  A    between atoms: C3_3  and  C4_4 
REMARK    3  A    between atoms: C7_7  and  C8_8 
REMARK    4  A    between atoms: C8_8  and  N1_9 
ROOT
HETATM    1  N1  UNL     1      17.232  -5.921  -3.316  1.00  0.00    -0.404 N 
HETATM    2  C9  UNL     1      18.525  -6.474  -3.158  1.00  0.00     0.123 C 
HETATM    3  C10 UNL     1      18.950  -6.104  -1.728  1.00  0.00     0.077 C 
HETATM    4  C11 UNL     1      17.911  -6.753  -0.847  1.00  0.00     0.020 A 
HETATM    5  N2  UNL     1      18.257  -7.077   0.425  1.00  0.00    -0.363 N 
ATOM      6  H2  UNL     1      19.204  -6.872   0.744  1.00  0.00     0.165 HD
HETATM    7  C12 UNL     1      17.398  -7.655   1.275  1.00  0.00     0.007 A 
HETATM    8  C13 UNL     1      17.787  -8.007   2.672  1.00  0.00     0.068 C 
HETATM    9  C14 UNL     1      16.127  -7.920   0.817  1.00  0.00     0.049 A 
HETATM   10  C15 UNL     1      15.717  -7.617  -0.458  1.00  0.00     0.045 A 
HETATM   11 CL1  UNL     1      14.100  -7.958  -1.026  1.00  0.00    -0.084 Cl
HETATM   12  C16 UNL     1      16.644  -7.013  -1.314  1.00  0.00     0.004 A 
HETATM   13  C17 UNL     1      16.199  -6.678  -2.716  1.00  0.00     0.159 C 
ENDROOT
BRANCH   1  14
HETATM   14  C8  UNL     1      16.945  -5.218  -4.506  1.00  0.00     0.155 C 
BRANCH  14  15
HETATM   15  C7  UNL     1      17.801  -5.766  -5.593  1.00  0.00    -0.041 A 
HETATM   16  C6  UNL     1      18.708  -4.923  -6.240  1.00  0.00     0.009 A 
HETATM   17  C5  UNL     1      19.513  -5.395  -7.256  1.00  0.00     0.007 A 
HETATM   18  C4  UNL     1      19.469  -6.706  -7.685  1.00  0.00    -0.058 A 
HETATM   19  C19 UNL     1      18.571  -7.536  -7.042  1.00  0.00     0.007 A 
HETATM   20  C18 UNL     1      17.761  -7.069  -6.024  1.00  0.00     0.009 A 
BRANCH  18  21
HETATM   21  C3  UNL     1      20.327  -7.233  -8.778  1.00  0.00     0.038 C 
BRANCH  21  22
HETATM   22  C2  UNL     1      21.158  -8.412  -8.341  1.00  0.00     0.000 C 
HETATM   23  C1  UNL     1      21.666  -9.136  -9.572  1.00  0.00     0.005 C 
ENDBRANCH  21  22
ENDBRANCH  18  21
ENDBRANCH  14  15
ENDBRANCH   1  14
TORSDOF 4
ENDMDL
MODEL 4
REMARK VINA RESULT: -5.894807523      1.655      7.318
REMARK  4 active torsions:
REMARK  status: ('A' for Active; 'I' for Inactive)
REMARK    1  A    between atoms: C2_2  and  C3_3 
REMARK    2  A    between atoms: C3_3  and  C4_4 
REMARK    3  A    between atoms: C7_7  and  C8_8 
REMARK    4  A    between atoms: C8_8  and  N1_9 
ROOT
HETATM    1  N1  UNL     1      16.692  -5.813  -3.479  1.00  0.00    -0.404 N 
HETATM    2  C9  UNL     1      15.912  -6.649  -4.314  1.00  0.00     0.123 C 
HETATM    3  C10 UNL     1      16.268  -6.229  -5.749  1.00  0.00     0.077 C 
HETATM    4  C11 UNL     1      17.751  -6.491  -5.859  1.00  0.00     0.020 A 
HETATM    5  N2  UNL     1      18.271  -6.737  -7.089  1.00  0.00    -0.363 N 
ATOM      6  H2  UNL     1      17.647  -6.738  -7.896  1.00  0.00     0.165 HD
HETATM    7  C12 UNL     1      19.574  -6.980  -7.279  1.00  0.00     0.007 A 
HETATM    8  C13 UNL     1      20.137  -7.250  -8.634  1.00  0.00     0.068 C 
HETATM    9  C14 UNL     1      20.393  -6.972  -6.172  1.00  0.00     0.049 A 
HETATM   10  C15 UNL     1      19.928  -6.729  -4.904  1.00  0.00     0.045 A 
HETATM   11 CL1  UNL     1      20.980  -6.723  -3.508  1.00  0.00    -0.084 Cl
HETATM   12  C16 UNL     1      18.560  -6.481  -4.748  1.00  0.00     0.004 A 
HETATM   13  C17 UNL     1      18.043  -6.214  -3.356  1.00  0.00     0.159 C 
ENDROOT
BRANCH   1  14
HETATM   14  C8  UNL     1      16.068  -5.207  -2.367  1.00  0.00     0.155 C 
BRANCH  14  15
HETATM   15  C7  UNL     1      16.481  -5.940  -1.139  1.00  0.00    -0.041 A 
HETATM   16  C6  UNL     1      15.572  -6.799  -0.517  1.00  0.00     0.009 A 
HETATM   17  C5  UNL     1      15.918  -7.489   0.626  1.00  0.00     0.007 A 
HETATM   18  C4  UNL     1      17.162  -7.373   1.211  1.00  0.00    -0.058 A 
HETATM   19  C19 UNL     1      18.058  -6.523   0.592  1.00  0.00     0.007 A 
HETATM   20  C18 UNL     1      17.718  -5.828  -0.553  1.00  0.00     0.009 A 
BRANCH  18  21
HETATM   21  C3  UNL     1      17.554  -8.109   2.441  1.00  0.00     0.038 C 
BRANCH  21  22
HETATM   22  C2  UNL     1      16.489  -8.062   3.505  1.00  0.00     0.000 C 
HETATM   23  C1  UNL     1      16.388  -6.645   4.034  1.00  0.00     0.005 C 
ENDBRANCH  21  22
ENDBRANCH  18  21
ENDBRANCH  14  15
ENDBRANCH   1  14
TORSDOF 4
ENDMDL
MODEL 5
REMARK VINA RESULT: -5.863362872      1.668      2.115
REMARK  4 active torsions:
REMARK  status: ('A' for Active; 'I' for Inactive)
REMARK    1  A    between atoms: C2_2  and  C3_3 
REMARK    2  A    between atoms: C3_3  and  C4_4 
REMARK    3  A    between atoms: C7_7  and  C8_8 
REMARK    4  A    between atoms: C8_8  and  N1_9 
ROOT
HETATM    1  N1  UNL     1      17.154  -5.933  -3.309  1.00  0.00    -0.404 N 
HETATM    2  C9  UNL     1      18.457  -6.468  -3.173  1.00  0.00     0.123 C 
HETATM    3  C10 UNL     1      18.898  -6.097  -1.748  1.00  0.00     0.077 C 
HETATM    4  C11 UNL     1      17.882  -6.765  -0.854  1.00  0.00     0.020 A 
HETATM    5  N2  UNL     1      18.252  -7.088   0.411  1.00  0.00    -0.363 N 
ATOM      6  H2  UNL     1      19.200  -6.870   0.717  1.00  0.00     0.165 HD
HETATM    7  C12 UNL     1      17.415  -7.683   1.272  1.00  0.00     0.007 A 
HETATM    8  C13 UNL     1      17.830  -8.035   2.661  1.00  0.00     0.068 C 
HETATM    9  C14 UNL     1      16.141  -7.965   0.831  1.00  0.00     0.049 A 
HETATM   10  C15 UNL     1      15.707  -7.663  -0.435  1.00  0.00     0.045 A 
HETATM   11 CL1  UNL     1      14.087  -8.026  -0.980  1.00  0.00    -0.084 Cl
HETATM   12  C16 UNL     1      16.612  -7.042  -1.304  1.00  0.00     0.004 A 
HETATM   13  C17 UNL     1      16.141  -6.709  -2.697  1.00  0.00     0.159 C 
ENDROOT
BRANCH   1  14
HETATM   14  C8  UNL     1      16.838  -5.230  -4.492  1.00  0.00     0.155 C 
BRANCH  14  15
HETATM   15  C7  UNL     1      17.744  -5.701  -5.574  1.00  0.00    -0.041 A 
HETATM   16  C6  UNL     1      17.661  -7.026  -6.007  1.00  0.00     0.009 A 
HETATM   17  C5  UNL     1      18.489  -7.499  -7.004  1.00  0.00     0.007 A 
HETATM   18  C4  UNL     1      19.433  -6.703  -7.620  1.00  0.00    -0.058 A 
HETATM   19  C19 UNL     1      19.512  -5.393  -7.189  1.00  0.00     0.007 A 
HETATM   20  C18 UNL     1      18.685  -4.913  -6.190  1.00  0.00     0.009 A 
BRANCH  18  21
HETATM   21  C3  UNL     1      20.334  -7.194  -8.696  1.00  0.00     0.038 C 
BRANCH  21  22
HETATM   22  C2  UNL     1      21.086  -8.436  -8.296  1.00  0.00     0.000 C 
HETATM   23  C1  UNL     1      21.663  -9.081  -9.541  1.00  0.00     0.005 C 
ENDBRANCH  21  22
ENDBRANCH  18  21
ENDBRANCH  14  15
ENDBRANCH   1  14
TORSDOF 4
ENDMDL
