MODEL 1
REMARK VINA RESULT: -8.317364308      0.000      0.000
REMARK  5 active torsions:
REMARK  status: ('A' for Active; 'I' for Inactive)
REMARK    1  A    between atoms: C2_2  and  C3_3 
REMARK    2  A    between atoms: C2_2  and  C5_7 
REMARK    3  A    between atoms: C3_3  and  C4_4 
REMARK    4  A    between atoms: C4_4  and  O1_5 
REMARK    5  A    between atoms: C15_17  and  C16_18 
ROOT
HETATM    1  C5  UNL     1      64.735  48.122  31.029  1.00  0.00    -0.005 C 
HETATM    2  C6  UNL     1      64.618  49.472  31.650  1.00  0.00     0.015 C 
HETATM    3  C7  UNL     1      64.874  48.794  33.011  1.00  0.00    -0.035 C 
HETATM    4  C8  UNL     1      64.054  49.420  34.026  1.00  0.00     0.019 C 
HETATM    5  C9  UNL     1      63.858  48.867  35.361  1.00  0.00    -0.043 C 
HETATM    6  C10 UNL     1      62.662  49.586  36.021  1.00  0.00     0.015 C 
HETATM    7  C11 UNL     1      63.811  47.410  35.569  1.00  0.00     0.014 C 
HETATM    8  C12 UNL     1      65.211  47.443  36.051  1.00  0.00    -0.012 C 
HETATM    9  C13 UNL     1      65.060  48.906  36.277  1.00  0.00     0.014 C 
HETATM   10  C14 UNL     1      66.276  46.968  35.189  1.00  0.00     0.014 C 
HETATM   11  C15 UNL     1      66.402  47.225  33.773  1.00  0.00    -0.036 C 
HETATM   12  C19 UNL     1      65.450  46.504  32.845  1.00  0.00     0.015 C 
HETATM   13  C20 UNL     1      64.437  47.519  32.354  1.00  0.00    -0.001 C 
HETATM   14  C21 UNL     1      66.322  48.625  33.280  1.00  0.00     0.020 C 
ENDROOT
BRANCH   1  15
HETATM   15  C2  UNL     1      63.864  47.829  29.857  1.00  0.00    -0.012 C 
HETATM   16  C1  UNL     1      64.626  46.942  28.921  1.00  0.00     0.010 C 
BRANCH  15  17
HETATM   17  C3  UNL     1      63.262  48.999  29.171  1.00  0.00     0.030 C 
BRANCH  17  18
HETATM   18  C4  UNL     1      63.112  48.691  27.698  1.00  0.00     0.164 C 
BRANCH  18  19
HETATM   19  O1  UNL     1      63.030  49.802  26.888  1.00  0.00    -0.401 OA
ATOM     20  H1  UNL     1      62.457  49.701  26.136  1.00  0.00     0.209 HD
ENDBRANCH  18  19
ENDBRANCH  17  18
ENDBRANCH  15  17
ENDBRANCH   1  15
BRANCH  11  21
HETATM   21  C16 UNL     1      67.810  46.730  33.369  1.00  0.00    -0.014 C 
HETATM   22  C17 UNL     1      68.296  47.450  32.144  1.00  0.00     0.010 C 
HETATM   23  C18 UNL     1      67.824  45.254  33.168  1.00  0.00     0.010 C 
ENDBRANCH  11  21
TORSDOF 5
ENDMDL
MODEL 2
REMARK VINA RESULT: -8.269102068      1.322      1.452
REMARK  5 active torsions:
REMARK  status: ('A' for Active; 'I' for Inactive)
REMARK    1  A    between atoms: C2_2  and  C3_3 
REMARK    2  A    between atoms: C2_2  and  C5_7 
REMARK    3  A    between atoms: C3_3  and  C4_4 
REMARK    4  A    between atoms: C4_4  and  O1_5 
REMARK    5  A    between atoms: C15_17  and  C16_18 
ROOT
HETATM    1  C5  UNL     1      64.547  48.099  31.136  1.00  0.00    -0.005 C 
HETATM    2  C6  UNL     1      64.467  49.454  31.752  1.00  0.00     0.015 C 
HETATM    3  C7  UNL     1      64.795  48.786  33.103  1.00  0.00    -0.035 C 
HETATM    4  C8  UNL     1      64.033  49.422  34.156  1.00  0.00     0.019 C 
HETATM    5  C9  UNL     1      63.908  48.880  35.504  1.00  0.00    -0.043 C 
HETATM    6  C10 UNL     1      62.752  49.608  36.222  1.00  0.00     0.015 C 
HETATM    7  C11 UNL     1      63.870  47.425  35.725  1.00  0.00     0.014 C 
HETATM    8  C12 UNL     1      65.294  47.458  36.130  1.00  0.00    -0.012 C 
HETATM    9  C13 UNL     1      65.158  48.923  36.353  1.00  0.00     0.014 C 
HETATM   10  C14 UNL     1      66.309  46.973  35.216  1.00  0.00     0.014 C 
HETATM   11  C15 UNL     1      66.359  47.219  33.793  1.00  0.00    -0.036 C 
HETATM   12  C19 UNL     1      65.356  46.493  32.923  1.00  0.00     0.015 C 
HETATM   13  C20 UNL     1      64.320  47.507  32.480  1.00  0.00    -0.001 C 
HETATM   14  C21 UNL     1      66.255  48.615  33.293  1.00  0.00     0.020 C 
ENDROOT
BRANCH   1  15
HETATM   15  C2  UNL     1      63.613  47.799  30.016  1.00  0.00    -0.012 C 
HETATM   16  C1  UNL     1      63.642  48.954  29.063  1.00  0.00     0.010 C 
BRANCH  15  17
HETATM   17  C3  UNL     1      62.233  47.407  30.394  1.00  0.00     0.030 C 
BRANCH  17  18
HETATM   18  C4  UNL     1      61.510  46.883  29.172  1.00  0.00     0.164 C 
BRANCH  18  19
HETATM   19  O1  UNL     1      60.723  45.778  29.404  1.00  0.00    -0.401 OA
ATOM     20  H1  UNL     1      60.769  45.111  28.728  1.00  0.00     0.209 HD
ENDBRANCH  18  19
ENDBRANCH  17  18
ENDBRANCH  15  17
ENDBRANCH   1  15
BRANCH  11  21
HETATM   21  C16 UNL     1      67.742  46.716  33.317  1.00  0.00    -0.014 C 
HETATM   22  C17 UNL     1      68.198  47.482  32.108  1.00  0.00     0.010 C 
HETATM   23  C18 UNL     1      67.719  45.251  33.051  1.00  0.00     0.010 C 
ENDBRANCH  11  21
TORSDOF 5
ENDMDL
MODEL 3
REMARK VINA RESULT: -7.913072726      1.350      1.606
REMARK  5 active torsions:
REMARK  status: ('A' for Active; 'I' for Inactive)
REMARK    1  A    between atoms: C2_2  and  C3_3 
REMARK    2  A    between atoms: C2_2  and  C5_7 
REMARK    3  A    between atoms: C3_3  and  C4_4 
REMARK    4  A    between atoms: C4_4  and  O1_5 
REMARK    5  A    between atoms: C15_17  and  C16_18 
ROOT
HETATM    1  C5  UNL     1      64.601  48.256  31.157  1.00  0.00    -0.005 C 
HETATM    2  C6  UNL     1      64.524  49.586  31.824  1.00  0.00     0.015 C 
HETATM    3  C7  UNL     1      64.801  48.861  33.156  1.00  0.00    -0.035 C 
HETATM    4  C8  UNL     1      64.019  49.468  34.211  1.00  0.00     0.019 C 
HETATM    5  C9  UNL     1      63.845  48.877  35.533  1.00  0.00    -0.043 C 
HETATM    6  C10 UNL     1      62.681  49.596  36.245  1.00  0.00     0.015 C 
HETATM    7  C11 UNL     1      63.777  47.415  35.695  1.00  0.00     0.014 C 
HETATM    8  C12 UNL     1      65.189  47.407  36.142  1.00  0.00    -0.012 C 
HETATM    9  C13 UNL     1      65.070  48.865  36.418  1.00  0.00     0.014 C 
HETATM   10  C14 UNL     1      66.222  46.940  35.239  1.00  0.00     0.014 C 
HETATM   11  C15 UNL     1      66.318  47.240  33.829  1.00  0.00    -0.036 C 
HETATM   12  C19 UNL     1      65.330  46.567  32.903  1.00  0.00     0.015 C 
HETATM   13  C20 UNL     1      64.324  47.615  32.470  1.00  0.00    -0.001 C 
HETATM   14  C21 UNL     1      66.252  48.656  33.382  1.00  0.00     0.020 C 
ENDROOT
BRANCH   1  15
HETATM   15  C2  UNL     1      63.695  48.016  30.000  1.00  0.00    -0.012 C 
HETATM   16  C1  UNL     1      62.408  47.456  30.524  1.00  0.00     0.010 C 
BRANCH  15  17
HETATM   17  C3  UNL     1      64.250  47.216  28.881  1.00  0.00     0.030 C 
BRANCH  17  18
HETATM   18  C4  UNL     1      65.736  47.030  29.089  1.00  0.00     0.164 C 
BRANCH  18  19
HETATM   19  O1  UNL     1      66.098  45.786  29.555  1.00  0.00    -0.401 OA
ATOM     20  H1  UNL     1      66.664  45.799  30.318  1.00  0.00     0.209 HD
ENDBRANCH  18  19
ENDBRANCH  17  18
ENDBRANCH  15  17
ENDBRANCH   1  15
BRANCH  11  21
HETATM   21  C16 UNL     1      67.706  46.733  33.373  1.00  0.00    -0.014 C 
HETATM   22  C17 UNL     1      68.166  47.469  32.148  1.00  0.00     0.010 C 
HETATM   23  C18 UNL     1      67.691  45.261  33.146  1.00  0.00     0.010 C 
ENDBRANCH  11  21
TORSDOF 5
ENDMDL
MODEL 4
REMARK VINA RESULT: -7.677141829      2.522      5.710
REMARK  5 active torsions:
REMARK  status: ('A' for Active; 'I' for Inactive)
REMARK    1  A    between atoms: C2_2  and  C3_3 
REMARK    2  A    between atoms: C2_2  and  C5_7 
REMARK    3  A    between atoms: C3_3  and  C4_4 
REMARK    4  A    between atoms: C4_4  and  O1_5 
REMARK    5  A    between atoms: C15_17  and  C16_18 
ROOT
HETATM    1  C5  UNL     1      63.866  48.662  34.130  1.00  0.00    -0.005 C 
HETATM    2  C6  UNL     1      65.238  49.227  34.268  1.00  0.00     0.015 C 
HETATM    3  C7  UNL     1      65.647  48.357  33.063  1.00  0.00    -0.035 C 
HETATM    4  C8  UNL     1      66.983  47.842  33.267  1.00  0.00     0.019 C 
HETATM    5  C9  UNL     1      67.577  46.787  32.453  1.00  0.00    -0.043 C 
HETATM    6  C10 UNL     1      68.832  46.255  33.176  1.00  0.00     0.015 C 
HETATM    7  C11 UNL     1      66.745  45.700  31.913  1.00  0.00     0.014 C 
HETATM    8  C12 UNL     1      66.730  46.377  30.596  1.00  0.00    -0.012 C 
HETATM    9  C13 UNL     1      67.916  47.163  31.029  1.00  0.00     0.014 C 
HETATM   10  C14 UNL     1      65.536  47.077  30.165  1.00  0.00     0.014 C 
HETATM   11  C15 UNL     1      64.704  47.925  30.988  1.00  0.00    -0.036 C 
HETATM   12  C19 UNL     1      63.829  47.253  32.022  1.00  0.00     0.015 C 
HETATM   13  C20 UNL     1      64.446  47.516  33.381  1.00  0.00    -0.001 C 
HETATM   14  C21 UNL     1      65.335  49.018  31.773  1.00  0.00     0.020 C 
ENDROOT
BRANCH   1  15
HETATM   15  C2  UNL     1      63.092  48.428  35.381  1.00  0.00    -0.012 C 
HETATM   16  C1  UNL     1      63.434  49.517  36.351  1.00  0.00     0.010 C 
BRANCH  15  17
HETATM   17  C3  UNL     1      63.201  47.076  35.981  1.00  0.00     0.030 C 
BRANCH  17  18
HETATM   18  C4  UNL     1      64.313  47.072  37.006  1.00  0.00     0.164 C 
BRANCH  18  19
HETATM   19  O1  UNL     1      65.518  46.597  36.541  1.00  0.00    -0.401 OA
ATOM     20  H1  UNL     1      66.203  46.545  37.198  1.00  0.00     0.209 HD
ENDBRANCH  18  19
ENDBRANCH  17  18
ENDBRANCH  15  17
ENDBRANCH   1  15
BRANCH  11  21
HETATM   21  C16 UNL     1      63.720  48.629  30.025  1.00  0.00    -0.014 C 
HETATM   22  C17 UNL     1      62.675  47.669  29.536  1.00  0.00     0.010 C 
HETATM   23  C18 UNL     1      64.444  49.266  28.890  1.00  0.00     0.010 C 
ENDBRANCH  11  21
TORSDOF 5
ENDMDL
MODEL 5
REMARK VINA RESULT: -7.475995779      3.184      5.496
REMARK  5 active torsions:
REMARK  status: ('A' for Active; 'I' for Inactive)
REMARK    1  A    between atoms: C2_2  and  C3_3 
REMARK    2  A    between atoms: C2_2  and  C5_7 
REMARK    3  A    between atoms: C3_3  and  C4_4 
REMARK    4  A    between atoms: C4_4  and  O1_5 
REMARK    5  A    between atoms: C15_17  and  C16_18 
ROOT
HETATM    1  C5  UNL     1      62.071  47.450  29.586  1.00  0.00    -0.005 C 
HETATM    2  C6  UNL     1      62.509  47.812  30.964  1.00  0.00     0.015 C 
HETATM    3  C7  UNL     1      63.962  47.680  30.465  1.00  0.00    -0.035 C 
HETATM    4  C8  UNL     1      64.779  47.086  31.501  1.00  0.00     0.019 C 
HETATM    5  C9  UNL     1      66.131  46.587  31.279  1.00  0.00    -0.043 C 
HETATM    6  C10 UNL     1      66.537  45.712  32.484  1.00  0.00     0.015 C 
HETATM    7  C11 UNL     1      66.499  45.968  29.995  1.00  0.00     0.014 C 
HETATM    8  C12 UNL     1      67.156  47.230  29.585  1.00  0.00    -0.012 C 
HETATM    9  C13 UNL     1      67.188  47.635  31.017  1.00  0.00     0.014 C 
HETATM   10  C14 UNL     1      66.506  48.095  28.620  1.00  0.00     0.014 C 
HETATM   11  C15 UNL     1      65.099  48.421  28.585  1.00  0.00    -0.036 C 
HETATM   12  C19 UNL     1      64.142  47.343  28.129  1.00  0.00     0.015 C 
HETATM   13  C20 UNL     1      63.406  46.839  29.354  1.00  0.00    -0.001 C 
HETATM   14  C21 UNL     1      64.439  48.925  29.818  1.00  0.00     0.020 C 
ENDROOT
BRANCH   1  15
HETATM   15  C2  UNL     1      60.836  46.628  29.453  1.00  0.00    -0.012 C 
HETATM   16  C1  UNL     1      59.944  47.288  28.447  1.00  0.00     0.010 C 
BRANCH  15  17
HETATM   17  C3  UNL     1      60.125  46.294  30.712  1.00  0.00     0.030 C 
BRANCH  17  18
HETATM   18  C4  UNL     1      58.670  46.016  30.406  1.00  0.00     0.164 C 
BRANCH  18  19
HETATM   19  O1  UNL     1      57.778  46.696  31.204  1.00  0.00    -0.401 OA
ATOM     20  H1  UNL     1      58.112  47.508  31.567  1.00  0.00     0.209 HD
ENDBRANCH  18  19
ENDBRANCH  17  18
ENDBRANCH  15  17
ENDBRANCH   1  15
BRANCH  11  21
HETATM   21  C16 UNL     1      64.946  49.558  27.547  1.00  0.00    -0.014 C 
HETATM   22  C17 UNL     1      63.650  49.428  26.801  1.00  0.00     0.010 C 
HETATM   23  C18 UNL     1      66.106  49.592  26.613  1.00  0.00     0.010 C 
ENDBRANCH  11  21
TORSDOF 5
ENDMDL
