MODEL 1
REMARK VINA RESULT: -9.714219288      0.000      0.000
REMARK  4 active torsions:
REMARK  status: ('A' for Active; 'I' for Inactive)
REMARK       I    between atoms: C1_2  and  N1_3 
REMARK       I    between atoms: C1_2  and  N2_18 
REMARK    1  A    between atoms: N1_3  and  C2_5 
REMARK    2  A    between atoms: C2_5  and  C3_6 
REMARK    3  A    between atoms: C3_6  and  C4_7 
REMARK    4  A    between atoms: C4_7  and  C5_8 
ROOT
HETATM    1  C3  UNL     1      65.746  47.565  28.827  1.00  0.00     0.020 C 
ENDROOT
BRANCH   1   2
HETATM    2  C2  UNL     1      64.475  48.281  28.405  1.00  0.00     0.124 C 
BRANCH   2   3
HETATM    3  N1  UNL     1      63.278  47.707  28.932  1.00  0.00    -0.343 N 
HETATM    4  C1  UNL     1      61.998  47.949  28.386  1.00  0.00     0.318 C 
HETATM    5  O1  UNL     1      61.872  48.707  27.376  1.00  0.00    -0.247 OA
HETATM    6  N2  UNL     1      60.824  47.366  28.934  1.00  0.00    -0.334 N 
HETATM    7  C15 UNL     1      60.993  46.507  30.085  1.00  0.00     0.127 C 
HETATM    8  C19 UNL     1      59.558  47.656  28.328  1.00  0.00     0.127 C 
HETATM    9  C16 UNL     1      59.745  46.089  30.758  1.00  0.00     0.020 C 
HETATM   10  C17 UNL     1      58.505  46.797  30.341  1.00  0.00     0.003 C 
HETATM   11  C18 UNL     1      58.455  46.752  28.808  1.00  0.00     0.020 C 
ATOM     12  H1  UNL     1      63.351  47.093  29.742  1.00  0.00     0.164 HD
ENDBRANCH   2   3
ENDBRANCH   1   2
BRANCH   1  13
HETATM   13  C4  UNL     1      65.645  46.979  30.193  1.00  0.00     0.006 C 
BRANCH  13  14
HETATM   14  C5  UNL     1      65.989  47.894  31.312  1.00  0.00    -0.014 C 
HETATM   15  C6  UNL     1      64.792  48.146  32.177  1.00  0.00     0.004 C 
HETATM   16  C7  UNL     1      65.064  49.076  33.322  1.00  0.00     0.000 C 
HETATM   17  C8  UNL     1      64.722  48.448  34.661  1.00  0.00     0.000 C 
HETATM   18  C9  UNL     1      65.941  48.331  35.541  1.00  0.00     0.000 C 
HETATM   19  C10 UNL     1      66.425  46.899  35.639  1.00  0.00     0.000 C 
HETATM   20  C11 UNL     1      67.750  46.725  34.960  1.00  0.00     0.000 C 
HETATM   21  C12 UNL     1      67.732  45.681  33.884  1.00  0.00     0.000 C 
HETATM   22  C13 UNL     1      66.869  46.018  32.717  1.00  0.00     0.000 C 
HETATM   23  C14 UNL     1      67.162  47.332  32.082  1.00  0.00     0.004 C 
ENDBRANCH  13  14
ENDBRANCH   1  13
TORSDOF 4
ENDMDL
MODEL 2
REMARK VINA RESULT: -9.641712318      1.553      3.121
REMARK  4 active torsions:
REMARK  status: ('A' for Active; 'I' for Inactive)
REMARK       I    between atoms: C1_2  and  N1_3 
REMARK       I    between atoms: C1_2  and  N2_18 
REMARK    1  A    between atoms: N1_3  and  C2_5 
REMARK    2  A    between atoms: C2_5  and  C3_6 
REMARK    3  A    between atoms: C3_6  and  C4_7 
REMARK    4  A    between atoms: C4_7  and  C5_8 
ROOT
HETATM    1  C3  UNL     1      63.498  49.461  27.625  1.00  0.00     0.020 C 
ENDROOT
BRANCH   1   2
HETATM    2  C2  UNL     1      62.811  48.117  27.456  1.00  0.00     0.124 C 
BRANCH   2   3
HETATM    3  N1  UNL     1      61.451  48.097  27.893  1.00  0.00    -0.343 N 
HETATM    4  C1  UNL     1      60.974  47.227  28.899  1.00  0.00     0.318 C 
HETATM    5  O1  UNL     1      61.768  46.414  29.463  1.00  0.00    -0.247 OA
HETATM    6  N2  UNL     1      59.614  47.229  29.310  1.00  0.00    -0.334 N 
HETATM    7  C15 UNL     1      58.729  48.163  28.653  1.00  0.00     0.127 C 
HETATM    8  C19 UNL     1      59.201  46.318  30.337  1.00  0.00     0.127 C 
HETATM    9  C16 UNL     1      57.290  47.996  28.948  1.00  0.00     0.020 C 
HETATM   10  C17 UNL     1      56.907  46.749  29.662  1.00  0.00     0.003 C 
HETATM   11  C18 UNL     1      57.832  46.628  30.881  1.00  0.00     0.020 C 
ATOM     12  H1  UNL     1      60.792  48.742  27.458  1.00  0.00     0.164 HD
ENDBRANCH   2   3
ENDBRANCH   1   2
BRANCH   1  13
HETATM   13  C4  UNL     1      64.552  49.435  28.678  1.00  0.00     0.006 C 
BRANCH  13  14
HETATM   14  C5  UNL     1      64.752  48.128  29.356  1.00  0.00    -0.014 C 
HETATM   15  C6  UNL     1      66.201  47.751  29.362  1.00  0.00     0.004 C 
HETATM   16  C7  UNL     1      66.475  46.431  30.021  1.00  0.00     0.000 C 
HETATM   17  C8  UNL     1      67.475  46.556  31.156  1.00  0.00     0.000 C 
HETATM   18  C9  UNL     1      66.863  46.155  32.475  1.00  0.00     0.000 C 
HETATM   19  C10 UNL     1      66.584  47.360  33.351  1.00  0.00     0.000 C 
HETATM   20  C11 UNL     1      65.110  47.578  33.521  1.00  0.00     0.000 C 
HETATM   21  C12 UNL     1      64.658  48.939  33.083  1.00  0.00     0.000 C 
HETATM   22  C13 UNL     1      64.805  49.193  31.622  1.00  0.00     0.000 C 
HETATM   23  C14 UNL     1      64.153  48.183  30.743  1.00  0.00     0.004 C 
ENDBRANCH  13  14
ENDBRANCH   1  13
TORSDOF 4
ENDMDL
MODEL 3
REMARK VINA RESULT: -9.557477745      0.850      2.116
REMARK  4 active torsions:
REMARK  status: ('A' for Active; 'I' for Inactive)
REMARK       I    between atoms: C1_2  and  N1_3 
REMARK       I    between atoms: C1_2  and  N2_18 
REMARK    1  A    between atoms: N1_3  and  C2_5 
REMARK    2  A    between atoms: C2_5  and  C3_6 
REMARK    3  A    between atoms: C3_6  and  C4_7 
REMARK    4  A    between atoms: C4_7  and  C5_8 
ROOT
HETATM    1  C3  UNL     1      65.694  47.569  28.785  1.00  0.00     0.020 C 
ENDROOT
BRANCH   1   2
HETATM    2  C2  UNL     1      64.538  48.534  28.976  1.00  0.00     0.124 C 
BRANCH   2   3
HETATM    3  N1  UNL     1      63.301  47.906  29.314  1.00  0.00    -0.343 N 
HETATM    4  C1  UNL     1      62.098  48.134  28.609  1.00  0.00     0.318 C 
HETATM    5  O1  UNL     1      62.083  48.930  27.620  1.00  0.00    -0.247 OA
HETATM    6  N2  UNL     1      60.882  47.496  28.971  1.00  0.00    -0.334 N 
HETATM    7  C15 UNL     1      60.923  46.595  30.101  1.00  0.00     0.127 C 
HETATM    8  C19 UNL     1      59.700  47.775  28.210  1.00  0.00     0.127 C 
HETATM    9  C16 UNL     1      59.610  46.114  30.582  1.00  0.00     0.020 C 
HETATM   10  C17 UNL     1      58.415  46.804  30.028  1.00  0.00     0.003 C 
HETATM   11  C18 UNL     1      58.573  46.821  28.502  1.00  0.00     0.020 C 
ATOM     12  H1  UNL     1      63.284  47.260  30.103  1.00  0.00     0.164 HD
ENDBRANCH   2   3
ENDBRANCH   1   2
BRANCH   1  13
HETATM   13  C4  UNL     1      66.601  47.522  29.966  1.00  0.00     0.006 C 
BRANCH  13  14
HETATM   14  C5  UNL     1      66.213  46.566  31.036  1.00  0.00    -0.014 C 
HETATM   15  C6  UNL     1      67.403  45.788  31.508  1.00  0.00     0.004 C 
HETATM   16  C7  UNL     1      67.082  44.792  32.582  1.00  0.00     0.000 C 
HETATM   17  C8  UNL     1      67.914  45.011  33.833  1.00  0.00     0.000 C 
HETATM   18  C9  UNL     1      67.044  45.338  35.021  1.00  0.00     0.000 C 
HETATM   19  C10 UNL     1      67.136  46.803  35.395  1.00  0.00     0.000 C 
HETATM   20  C11 UNL     1      65.842  47.514  35.128  1.00  0.00     0.000 C 
HETATM   21  C12 UNL     1      65.990  48.684  34.201  1.00  0.00     0.000 C 
HETATM   22  C13 UNL     1      66.394  48.320  32.814  1.00  0.00     0.000 C 
HETATM   23  C14 UNL     1      65.519  47.313  32.152  1.00  0.00     0.004 C 
ENDBRANCH  13  14
ENDBRANCH   1  13
TORSDOF 4
ENDMDL
MODEL 4
REMARK VINA RESULT: -9.331125870      1.416      2.186
REMARK  4 active torsions:
REMARK  status: ('A' for Active; 'I' for Inactive)
REMARK       I    between atoms: C1_2  and  N1_3 
REMARK       I    between atoms: C1_2  and  N2_18 
REMARK    1  A    between atoms: N1_3  and  C2_5 
REMARK    2  A    between atoms: C2_5  and  C3_6 
REMARK    3  A    between atoms: C3_6  and  C4_7 
REMARK    4  A    between atoms: C4_7  and  C5_8 
ROOT
HETATM    1  C3  UNL     1      63.687  48.982  28.295  1.00  0.00     0.020 C 
ENDROOT
BRANCH   1   2
HETATM    2  C2  UNL     1      62.734  48.250  27.367  1.00  0.00     0.124 C 
BRANCH   2   3
HETATM    3  N1  UNL     1      61.392  48.173  27.848  1.00  0.00    -0.343 N 
HETATM    4  C1  UNL     1      60.988  47.295  28.878  1.00  0.00     0.318 C 
HETATM    5  O1  UNL     1      61.837  46.526  29.426  1.00  0.00    -0.247 OA
HETATM    6  N2  UNL     1      59.644  47.239  29.334  1.00  0.00    -0.334 N 
HETATM    7  C15 UNL     1      58.695  48.123  28.696  1.00  0.00     0.127 C 
HETATM    8  C19 UNL     1      59.306  46.323  30.384  1.00  0.00     0.127 C 
HETATM    9  C16 UNL     1      57.276  47.893  29.040  1.00  0.00     0.020 C 
HETATM   10  C17 UNL     1      56.975  46.639  29.781  1.00  0.00     0.003 C 
HETATM   11  C18 UNL     1      57.943  46.575  30.970  1.00  0.00     0.020 C 
ATOM     12  H1  UNL     1      60.690  48.781  27.428  1.00  0.00     0.164 HD
ENDBRANCH   2   3
ENDBRANCH   1   2
BRANCH   1  13
HETATM   13  C4  UNL     1      64.763  48.096  28.824  1.00  0.00     0.006 C 
BRANCH  13  14
HETATM   14  C5  UNL     1      65.361  48.515  30.118  1.00  0.00    -0.014 C 
HETATM   15  C6  UNL     1      64.387  48.322  31.239  1.00  0.00     0.004 C 
HETATM   16  C7  UNL     1      64.922  48.738  32.578  1.00  0.00     0.000 C 
HETATM   17  C8  UNL     1      64.866  47.610  33.591  1.00  0.00     0.000 C 
HETATM   18  C9  UNL     1      66.244  47.236  34.076  1.00  0.00     0.000 C 
HETATM   19  C10 UNL     1      66.705  45.918  33.488  1.00  0.00     0.000 C 
HETATM   20  C11 UNL     1      67.847  46.117  32.537  1.00  0.00     0.000 C 
HETATM   21  C12 UNL     1      67.572  45.586  31.162  1.00  0.00     0.000 C 
HETATM   22  C13 UNL     1      66.484  46.298  30.436  1.00  0.00     0.000 C 
HETATM   23  C14 UNL     1      66.661  47.773  30.335  1.00  0.00     0.004 C 
ENDBRANCH  13  14
ENDBRANCH   1  13
TORSDOF 4
ENDMDL
MODEL 5
REMARK VINA RESULT: -9.137430469      2.118      7.336
REMARK  4 active torsions:
REMARK  status: ('A' for Active; 'I' for Inactive)
REMARK       I    between atoms: C1_2  and  N1_3 
REMARK       I    between atoms: C1_2  and  N2_18 
REMARK    1  A    between atoms: N1_3  and  C2_5 
REMARK    2  A    between atoms: C2_5  and  C3_6 
REMARK    3  A    between atoms: C3_6  and  C4_7 
REMARK    4  A    between atoms: C4_7  and  C5_8 
ROOT
HETATM    1  C3  UNL     1      63.010  48.793  27.159  1.00  0.00     0.020 C 
ENDROOT
BRANCH   1   2
HETATM    2  C2  UNL     1      64.194  49.552  27.732  1.00  0.00     0.124 C 
BRANCH   2   3
HETATM    3  N1  UNL     1      65.095  48.744  28.490  1.00  0.00    -0.343 N 
HETATM    4  C1  UNL     1      65.058  48.657  29.900  1.00  0.00     0.318 C 
HETATM    5  O1  UNL     1      64.192  49.314  30.554  1.00  0.00    -0.247 OA
HETATM    6  N2  UNL     1      65.971  47.845  30.626  1.00  0.00    -0.334 N 
HETATM    7  C15 UNL     1      66.948  47.106  29.860  1.00  0.00     0.127 C 
HETATM    8  C19 UNL     1      65.875  47.805  32.056  1.00  0.00     0.127 C 
HETATM    9  C16 UNL     1      68.010  46.444  30.648  1.00  0.00     0.020 C 
HETATM   10  C17 UNL     1      68.097  46.826  32.082  1.00  0.00     0.003 C 
HETATM   11  C18 UNL     1      66.685  46.696  32.669  1.00  0.00     0.020 C 
ATOM     12  H1  UNL     1      65.800  48.203  27.990  1.00  0.00     0.164 HD
ENDBRANCH   2   3
ENDBRANCH   1   2
BRANCH   1  13
HETATM   13  C4  UNL     1      61.801  48.882  28.025  1.00  0.00     0.006 C 
BRANCH  13  14
HETATM   14  C5  UNL     1      61.215  47.583  28.446  1.00  0.00    -0.014 C 
HETATM   15  C6  UNL     1      61.387  47.378  29.920  1.00  0.00     0.004 C 
HETATM   16  C7  UNL     1      60.829  46.076  30.414  1.00  0.00     0.000 C 
HETATM   17  C8  UNL     1      59.806  46.274  31.517  1.00  0.00     0.000 C 
HETATM   18  C9  UNL     1      58.450  45.755  31.109  1.00  0.00     0.000 C 
HETATM   19  C10 UNL     1      57.489  46.885  30.798  1.00  0.00     0.000 C 
HETATM   20  C11 UNL     1      57.148  46.921  29.338  1.00  0.00     0.000 C 
HETATM   21  C12 UNL     1      57.464  48.236  28.689  1.00  0.00     0.000 C 
HETATM   22  C13 UNL     1      58.917  48.560  28.639  1.00  0.00     0.000 C 
HETATM   23  C14 UNL     1      59.770  47.515  28.008  1.00  0.00     0.004 C 
ENDBRANCH  13  14
ENDBRANCH   1  13
TORSDOF 4
ENDMDL
