MODEL 1
REMARK VINA RESULT: -9.822656018      0.000      0.000
REMARK  4 active torsions:
REMARK  status: ('A' for Active; 'I' for Inactive)
REMARK    1  A    between atoms: C2_2  and  C3_3 
REMARK    2  A    between atoms: C2_2  and  C14_17 
REMARK    3  A    between atoms: C3_3  and  C4_4 
REMARK    4  A    between atoms: C4_4  and  C5_5 
ROOT
HETATM    1  C5  UNL     1      65.657  48.322  28.924  1.00  0.00    -0.014 C 
HETATM    2  C6  UNL     1      64.849  48.793  30.113  1.00  0.00     0.007 C 
HETATM    3  C7  UNL     1      63.385  48.992  29.810  1.00  0.00     0.039 C 
HETATM    4  C8  UNL     1      62.741  47.765  29.218  1.00  0.00     0.126 C 
HETATM    5  C9  UNL     1      61.924  48.195  28.033  1.00  0.00     0.040 C 
HETATM    6  C10 UNL     1      60.511  47.736  28.308  1.00  0.00     0.030 C 
HETATM    7  C11 UNL     1      60.603  46.901  29.539  1.00  0.00     0.233 C 
HETATM    8  N1  UNL     1      61.884  47.093  30.140  1.00  0.00    -0.066 N 
ATOM      9  H11 UNL     1      61.823  47.579  31.035  1.00  0.00     0.278 HD
ATOM     10  H12 UNL     1      62.288  46.220  30.477  1.00  0.00     0.278 HD
HETATM   11  C12 UNL     1      63.786  46.777  28.721  1.00  0.00     0.039 C 
HETATM   12  C13 UNL     1      64.775  47.578  27.910  1.00  0.00     0.007 C 
ENDROOT
BRANCH   1  13
HETATM   13  C4  UNL     1      66.713  47.352  29.347  1.00  0.00     0.005 C 
BRANCH  13  14
HETATM   14  C3  UNL     1      66.466  46.452  30.484  1.00  0.00     0.005 C 
BRANCH  14  15
HETATM   15  C2  UNL     1      67.355  46.512  31.678  1.00  0.00    -0.014 C 
HETATM   16  C1  UNL     1      68.333  47.592  31.741  1.00  0.00     0.010 C 
BRANCH  15  17
HETATM   17  C14 UNL     1      66.494  46.372  32.928  1.00  0.00    -0.010 C 
HETATM   18  C15 UNL     1      67.258  46.312  34.201  1.00  0.00     0.010 C 
HETATM   19  C16 UNL     1      66.228  46.782  35.228  1.00  0.00    -0.006 C 
HETATM   20  C17 UNL     1      66.735  47.897  36.117  1.00  0.00     0.006 C 
HETATM   21  C19 UNL     1      65.384  47.782  34.508  1.00  0.00    -0.040 C 
HETATM   22  C18 UNL     1      66.244  48.876  35.070  1.00  0.00     0.010 C 
HETATM   23  C20 UNL     1      63.966  47.923  35.019  1.00  0.00     0.015 C 
HETATM   24  C21 UNL     1      65.511  47.517  33.043  1.00  0.00     0.014 C 
ENDBRANCH  15  17
ENDBRANCH  14  15
ENDBRANCH  13  14
ENDBRANCH   1  13
TORSDOF 4
ENDMDL
MODEL 2
REMARK VINA RESULT: -9.570571980      0.892      1.240
REMARK  4 active torsions:
REMARK  status: ('A' for Active; 'I' for Inactive)
REMARK    1  A    between atoms: C2_2  and  C3_3 
REMARK    2  A    between atoms: C2_2  and  C14_17 
REMARK    3  A    between atoms: C3_3  and  C4_4 
REMARK    4  A    between atoms: C4_4  and  C5_5 
ROOT
HETATM    1  C5  UNL     1      65.826  48.204  29.391  1.00  0.00    -0.014 C 
HETATM    2  C6  UNL     1      64.892  48.782  30.431  1.00  0.00     0.007 C 
HETATM    3  C7  UNL     1      63.491  49.015  29.926  1.00  0.00     0.039 C 
HETATM    4  C8  UNL     1      62.874  47.775  29.330  1.00  0.00     0.126 C 
HETATM    5  C9  UNL     1      62.237  48.155  28.024  1.00  0.00     0.040 C 
HETATM    6  C10 UNL     1      60.781  47.767  28.138  1.00  0.00     0.030 C 
HETATM    7  C11 UNL     1      60.676  47.013  29.419  1.00  0.00     0.233 C 
HETATM    8  N1  UNL     1      61.876  47.198  30.171  1.00  0.00    -0.066 N 
ATOM      9  H11 UNL     1      61.721  47.744  31.018  1.00  0.00     0.278 HD
ATOM     10  H12 UNL     1      62.193  46.335  30.611  1.00  0.00     0.278 HD
HETATM   11  C12 UNL     1      63.929  46.718  29.038  1.00  0.00     0.039 C 
HETATM   12  C13 UNL     1      65.050  47.427  28.317  1.00  0.00     0.007 C 
ENDROOT
BRANCH   1  13
HETATM   13  C4  UNL     1      66.773  47.226  30.008  1.00  0.00     0.005 C 
BRANCH  13  14
HETATM   14  C3  UNL     1      66.992  47.239  31.463  1.00  0.00     0.005 C 
BRANCH  14  15
HETATM   15  C2  UNL     1      66.424  46.147  32.303  1.00  0.00    -0.014 C 
HETATM   16  C1  UNL     1      67.210  44.928  32.451  1.00  0.00     0.010 C 
BRANCH  15  17
HETATM   17  C14 UNL     1      65.947  46.750  33.619  1.00  0.00    -0.010 C 
HETATM   18  C15 UNL     1      66.895  47.715  34.235  1.00  0.00     0.010 C 
HETATM   19  C16 UNL     1      65.977  48.567  35.111  1.00  0.00    -0.006 C 
HETATM   20  C17 UNL     1      66.144  50.055  34.883  1.00  0.00     0.006 C 
HETATM   21  C19 UNL     1      64.680  48.632  34.375  1.00  0.00    -0.040 C 
HETATM   22  C18 UNL     1      65.109  49.943  33.783  1.00  0.00     0.010 C 
HETATM   23  C20 UNL     1      63.452  48.829  35.238  1.00  0.00     0.015 C 
HETATM   24  C21 UNL     1      64.624  47.464  33.444  1.00  0.00     0.014 C 
ENDBRANCH  15  17
ENDBRANCH  14  15
ENDBRANCH  13  14
ENDBRANCH   1  13
TORSDOF 4
ENDMDL
MODEL 3
REMARK VINA RESULT: -9.419360326      1.568      6.093
REMARK  4 active torsions:
REMARK  status: ('A' for Active; 'I' for Inactive)
REMARK    1  A    between atoms: C2_2  and  C3_3 
REMARK    2  A    between atoms: C2_2  and  C14_17 
REMARK    3  A    between atoms: C3_3  and  C4_4 
REMARK    4  A    between atoms: C4_4  and  C5_5 
ROOT
HETATM    1  C5  UNL     1      67.829  46.740  32.678  1.00  0.00    -0.014 C 
HETATM    2  C6  UNL     1      67.097  45.993  33.770  1.00  0.00     0.007 C 
HETATM    3  C7  UNL     1      66.552  46.886  34.856  1.00  0.00     0.039 C 
HETATM    4  C8  UNL     1      65.670  47.984  34.318  1.00  0.00     0.126 C 
HETATM    5  C9  UNL     1      66.078  49.272  34.975  1.00  0.00     0.040 C 
HETATM    6  C10 UNL     1      64.841  49.806  35.658  1.00  0.00     0.030 C 
HETATM    7  C11 UNL     1      63.733  48.914  35.215  1.00  0.00     0.233 C 
HETATM    8  N1  UNL     1      64.286  47.758  34.584  1.00  0.00    -0.066 N 
ATOM      9  H11 UNL     1      64.131  46.909  35.128  1.00  0.00     0.278 HD
ATOM     10  H12 UNL     1      63.770  47.491  33.746  1.00  0.00     0.278 HD
HETATM   11  C12 UNL     1      65.852  48.155  32.817  1.00  0.00     0.039 C 
HETATM   12  C13 UNL     1      67.341  48.193  32.572  1.00  0.00     0.007 C 
ENDROOT
BRANCH   1  13
HETATM   13  C4  UNL     1      67.575  46.119  31.342  1.00  0.00     0.005 C 
BRANCH  13  14
HETATM   14  C3  UNL     1      67.136  46.959  30.217  1.00  0.00     0.005 C 
BRANCH  14  15
HETATM   15  C2  UNL     1      66.031  46.489  29.334  1.00  0.00    -0.014 C 
HETATM   16  C1  UNL     1      65.682  45.074  29.380  1.00  0.00     0.010 C 
BRANCH  15  17
HETATM   17  C14 UNL     1      64.847  47.433  29.502  1.00  0.00    -0.010 C 
HETATM   18  C15 UNL     1      65.042  48.781  28.908  1.00  0.00     0.010 C 
HETATM   19  C16 UNL     1      63.607  49.251  28.673  1.00  0.00    -0.006 C 
HETATM   20  C17 UNL     1      63.360  49.742  27.262  1.00  0.00     0.006 C 
HETATM   21  C19 UNL     1      62.838  48.015  28.343  1.00  0.00    -0.040 C 
HETATM   22  C18 UNL     1      63.030  48.312  26.885  1.00  0.00     0.010 C 
HETATM   23  C20 UNL     1      61.364  48.053  28.690  1.00  0.00     0.015 C 
HETATM   24  C21 UNL     1      63.591  46.847  28.893  1.00  0.00     0.014 C 
ENDBRANCH  15  17
ENDBRANCH  14  15
ENDBRANCH  13  14
ENDBRANCH   1  13
TORSDOF 4
ENDMDL
MODEL 4
REMARK VINA RESULT: -9.406896520      1.502      2.499
REMARK  4 active torsions:
REMARK  status: ('A' for Active; 'I' for Inactive)
REMARK    1  A    between atoms: C2_2  and  C3_3 
REMARK    2  A    between atoms: C2_2  and  C14_17 
REMARK    3  A    between atoms: C3_3  and  C4_4 
REMARK    4  A    between atoms: C4_4  and  C5_5 
ROOT
HETATM    1  C5  UNL     1      65.863  46.839  30.612  1.00  0.00    -0.014 C 
HETATM    2  C6  UNL     1      65.925  46.452  29.152  1.00  0.00     0.007 C 
HETATM    3  C7  UNL     1      64.672  46.784  28.382  1.00  0.00     0.039 C 
HETATM    4  C8  UNL     1      64.285  48.237  28.501  1.00  0.00     0.126 C 
HETATM    5  C9  UNL     1      62.813  48.302  28.793  1.00  0.00     0.040 C 
HETATM    6  C10 UNL     1      62.202  49.132  27.689  1.00  0.00     0.030 C 
HETATM    7  C11 UNL     1      63.358  49.667  26.915  1.00  0.00     0.233 C 
HETATM    8  N1  UNL     1      64.544  48.975  27.308  1.00  0.00    -0.066 N 
ATOM      9  H11 UNL     1      64.913  48.386  26.561  1.00  0.00     0.278 HD
ATOM     10  H12 UNL     1      65.342  49.602  27.407  1.00  0.00     0.278 HD
HETATM   11  C12 UNL     1      65.014  48.911  29.654  1.00  0.00     0.039 C 
HETATM   12  C13 UNL     1      64.871  47.990  30.842  1.00  0.00     0.007 C 
ENDROOT
BRANCH   1  13
HETATM   13  C4  UNL     1      67.190  47.333  31.091  1.00  0.00     0.005 C 
BRANCH  13  14
HETATM   14  C3  UNL     1      67.688  46.925  32.414  1.00  0.00     0.005 C 
BRANCH  14  15
HETATM   15  C2  UNL     1      66.875  46.001  33.254  1.00  0.00    -0.014 C 
HETATM   16  C1  UNL     1      67.499  44.759  33.692  1.00  0.00     0.010 C 
BRANCH  15  17
HETATM   17  C14 UNL     1      66.232  46.810  34.375  1.00  0.00    -0.010 C 
HETATM   18  C15 UNL     1      67.026  47.983  34.824  1.00  0.00     0.010 C 
HETATM   19  C16 UNL     1      65.959  48.891  35.435  1.00  0.00    -0.006 C 
HETATM   20  C17 UNL     1      66.000  50.307  34.900  1.00  0.00     0.006 C 
HETATM   21  C19 UNL     1      64.729  48.653  34.623  1.00  0.00    -0.040 C 
HETATM   22  C18 UNL     1      65.077  49.850  33.788  1.00  0.00     0.010 C 
HETATM   23  C20 UNL     1      63.419  48.887  35.345  1.00  0.00     0.015 C 
HETATM   24  C21 UNL     1      64.866  47.317  33.968  1.00  0.00     0.014 C 
ENDBRANCH  15  17
ENDBRANCH  14  15
ENDBRANCH  13  14
ENDBRANCH   1  13
TORSDOF 4
ENDMDL
MODEL 5
REMARK VINA RESULT: -9.301587200      1.371      1.968
REMARK  4 active torsions:
REMARK  status: ('A' for Active; 'I' for Inactive)
REMARK    1  A    between atoms: C2_2  and  C3_3 
REMARK    2  A    between atoms: C2_2  and  C14_17 
REMARK    3  A    between atoms: C3_3  and  C4_4 
REMARK    4  A    between atoms: C4_4  and  C5_5 
ROOT
HETATM    1  C5  UNL     1      66.761  47.582  30.558  1.00  0.00    -0.014 C 
HETATM    2  C6  UNL     1      65.411  47.915  31.152  1.00  0.00     0.007 C 
HETATM    3  C7  UNL     1      64.571  48.816  30.282  1.00  0.00     0.039 C 
HETATM    4  C8  UNL     1      64.387  48.271  28.889  1.00  0.00     0.126 C 
HETATM    5  C9  UNL     1      64.638  49.389  27.917  1.00  0.00     0.040 C 
HETATM    6  C10 UNL     1      63.379  49.520  27.092  1.00  0.00     0.030 C 
HETATM    7  C11 UNL     1      62.530  48.361  27.487  1.00  0.00     0.233 C 
HETATM    8  N1  UNL     1      63.072  47.763  28.666  1.00  0.00    -0.066 N 
ATOM      9  H11 UNL     1      62.466  47.889  29.477  1.00  0.00     0.278 HD
ATOM     10  H12 UNL     1      63.053  46.745  28.627  1.00  0.00     0.278 HD
HETATM   11  C12 UNL     1      65.389  47.167  28.589  1.00  0.00     0.039 C 
HETATM   12  C13 UNL     1      66.737  47.688  29.025  1.00  0.00     0.007 C 
ENDROOT
BRANCH   1  13
HETATM   13  C4  UNL     1      67.149  46.172  30.870  1.00  0.00     0.005 C 
BRANCH  13  14
HETATM   14  C3  UNL     1      66.722  45.560  32.138  1.00  0.00     0.005 C 
BRANCH  14  15
HETATM   15  C2  UNL     1      67.544  45.760  33.365  1.00  0.00    -0.014 C 
HETATM   16  C1  UNL     1      68.843  46.404  33.213  1.00  0.00     0.010 C 
BRANCH  15  17
HETATM   17  C14 UNL     1      66.660  46.379  34.441  1.00  0.00    -0.010 C 
HETATM   18  C15 UNL     1      67.273  47.526  35.159  1.00  0.00     0.010 C 
HETATM   19  C16 UNL     1      66.050  48.287  35.673  1.00  0.00    -0.006 C 
HETATM   20  C17 UNL     1      66.071  49.760  35.325  1.00  0.00     0.006 C 
HETATM   21  C19 UNL     1      64.998  48.088  34.633  1.00  0.00    -0.040 C 
HETATM   22  C18 UNL     1      65.389  49.401  34.021  1.00  0.00     0.010 C 
HETATM   23  C20 UNL     1      63.570  48.153  35.132  1.00  0.00     0.015 C 
HETATM   24  C21 UNL     1      65.347  46.858  33.859  1.00  0.00     0.014 C 
ENDBRANCH  15  17
ENDBRANCH  14  15
ENDBRANCH  13  14
ENDBRANCH   1  13
TORSDOF 4
ENDMDL
