MODEL 1
REMARK VINA RESULT: -8.474451568      0.000      0.000
REMARK  5 active torsions:
REMARK  status: ('A' for Active; 'I' for Inactive)
REMARK    1  A    between atoms: C3_3  and  O1_4 
REMARK    2  A    between atoms: C9_11  and  C10_12 
REMARK    3  A    between atoms: C10_12  and  C11_13 
REMARK    4  A    between atoms: C11_13  and  C13_15 
REMARK    5  A    between atoms: C18_20  and  C20_22 
ROOT
HETATM    1  C10 UNL     1      65.757  46.781  30.737  1.00  0.00     0.014 C 
ENDROOT
BRANCH   1   2
HETATM    2  C9  UNL     1      65.432  47.278  29.389  1.00  0.00     0.024 C 
HETATM    3  C2  UNL     1      64.942  48.666  29.267  1.00  0.00    -0.056 C 
HETATM    4  C1  UNL     1      64.399  49.385  30.222  1.00  0.00     0.017 C 
HETATM    5  C3  UNL     1      65.064  49.275  27.900  1.00  0.00     0.146 C 
HETATM    6  C4  UNL     1      64.587  48.319  26.837  1.00  0.00     0.037 C 
HETATM    7  C5  UNL     1      64.789  46.880  27.107  1.00  0.00     0.012 C 
HETATM    8  C6  UNL     1      64.532  46.441  28.538  1.00  0.00    -0.040 C 
HETATM    9  C7  UNL     1      63.063  46.713  28.821  1.00  0.00     0.015 C 
HETATM   10  C8  UNL     1      64.826  44.970  28.615  1.00  0.00     0.015 C 
BRANCH   5  11
HETATM   11  O1  UNL     1      64.236  50.389  27.859  1.00  0.00    -0.391 OA
ATOM     12  H1  UNL     1      64.159  50.658  26.952  1.00  0.00     0.210 HD
ENDBRANCH   5  11
ENDBRANCH   1   2
BRANCH   1  13
HETATM   13  C11 UNL     1      67.062  47.310  31.284  1.00  0.00    -0.013 C 
HETATM   14  C12 UNL     1      68.120  46.846  30.329  1.00  0.00     0.010 C 
BRANCH  13  15
HETATM   15  C13 UNL     1      67.241  47.088  32.701  1.00  0.00    -0.002 C 
HETATM   16  C14 UNL     1      67.231  45.594  33.087  1.00  0.00     0.006 C 
HETATM   17  C15 UNL     1      67.095  45.574  34.601  1.00  0.00     0.005 C 
HETATM   18  C16 UNL     1      67.169  47.009  34.938  1.00  0.00    -0.010 C 
HETATM   19  C17 UNL     1      66.881  47.454  36.281  1.00  0.00     0.011 C 
HETATM   20  C18 UNL     1      66.384  47.635  33.773  1.00  0.00    -0.037 C 
HETATM   21  C19 UNL     1      66.408  49.111  33.984  1.00  0.00     0.016 C 
BRANCH  20  22
HETATM   22  C20 UNL     1      64.959  47.191  33.703  1.00  0.00     0.005 C 
HETATM   23  C21 UNL     1      63.915  48.216  33.911  1.00  0.00     0.006 C 
ENDBRANCH  20  22
ENDBRANCH  13  15
ENDBRANCH   1  13
TORSDOF 5
ENDMDL
MODEL 2
REMARK VINA RESULT: -8.471508584      1.579      2.972
REMARK  5 active torsions:
REMARK  status: ('A' for Active; 'I' for Inactive)
REMARK    1  A    between atoms: C3_3  and  O1_4 
REMARK    2  A    between atoms: C9_11  and  C10_12 
REMARK    3  A    between atoms: C10_12  and  C11_13 
REMARK    4  A    between atoms: C11_13  and  C13_15 
REMARK    5  A    between atoms: C18_20  and  C20_22 
ROOT
HETATM    1  C10 UNL     1      64.454  47.672  31.133  1.00  0.00     0.014 C 
ENDROOT
BRANCH   1   2
HETATM    2  C9  UNL     1      64.025  48.108  29.793  1.00  0.00     0.024 C 
HETATM    3  C2  UNL     1      62.647  47.784  29.371  1.00  0.00    -0.056 C 
HETATM    4  C1  UNL     1      61.885  46.839  29.869  1.00  0.00     0.017 C 
HETATM    5  C3  UNL     1      62.107  48.615  28.244  1.00  0.00     0.146 C 
HETATM    6  C4  UNL     1      63.115  48.742  27.132  1.00  0.00     0.037 C 
HETATM    7  C5  UNL     1      64.539  48.741  27.532  1.00  0.00     0.012 C 
HETATM    8  C6  UNL     1      64.907  47.766  28.635  1.00  0.00    -0.040 C 
HETATM    9  C7  UNL     1      64.629  46.372  28.097  1.00  0.00     0.015 C 
HETATM   10  C8  UNL     1      66.372  47.945  28.920  1.00  0.00     0.015 C 
BRANCH   5  11
HETATM   11  O1  UNL     1      60.999  47.955  27.728  1.00  0.00    -0.391 OA
ATOM     12  H1  UNL     1      60.384  48.614  27.430  1.00  0.00     0.210 HD
ENDBRANCH   5  11
ENDBRANCH   1   2
BRANCH   1  13
HETATM   13  C11 UNL     1      64.186  48.686  32.220  1.00  0.00    -0.013 C 
HETATM   14  C12 UNL     1      64.501  50.020  31.615  1.00  0.00     0.010 C 
BRANCH  13  15
HETATM   15  C13 UNL     1      64.754  48.339  33.504  1.00  0.00    -0.002 C 
HETATM   16  C14 UNL     1      64.860  49.542  34.465  1.00  0.00     0.006 C 
HETATM   17  C15 UNL     1      65.759  49.070  35.595  1.00  0.00     0.005 C 
HETATM   18  C16 UNL     1      65.969  47.650  35.254  1.00  0.00    -0.010 C 
HETATM   19  C17 UNL     1      66.942  46.866  35.978  1.00  0.00     0.011 C 
HETATM   20  C18 UNL     1      66.077  47.720  33.721  1.00  0.00    -0.037 C 
HETATM   21  C19 UNL     1      66.267  46.321  33.240  1.00  0.00     0.016 C 
BRANCH  20  22
HETATM   22  C20 UNL     1      67.225  48.545  33.238  1.00  0.00     0.005 C 
HETATM   23  C21 UNL     1      68.281  47.859  32.466  1.00  0.00     0.006 C 
ENDBRANCH  20  22
ENDBRANCH  13  15
ENDBRANCH   1  13
TORSDOF 5
ENDMDL
MODEL 3
REMARK VINA RESULT: -8.205572021      1.697      3.044
REMARK  5 active torsions:
REMARK  status: ('A' for Active; 'I' for Inactive)
REMARK    1  A    between atoms: C3_3  and  O1_4 
REMARK    2  A    between atoms: C9_11  and  C10_12 
REMARK    3  A    between atoms: C10_12  and  C11_13 
REMARK    4  A    between atoms: C11_13  and  C13_15 
REMARK    5  A    between atoms: C18_20  and  C20_22 
ROOT
HETATM    1  C10 UNL     1      64.849  47.316  30.119  1.00  0.00     0.014 C 
ENDROOT
BRANCH   1   2
HETATM    2  C9  UNL     1      64.031  48.177  29.248  1.00  0.00     0.024 C 
HETATM    3  C2  UNL     1      62.599  47.846  29.100  1.00  0.00    -0.056 C 
HETATM    4  C1  UNL     1      62.044  46.679  29.333  1.00  0.00     0.017 C 
HETATM    5  C3  UNL     1      61.726  48.964  28.608  1.00  0.00     0.146 C 
HETATM    6  C4  UNL     1      62.356  49.667  27.434  1.00  0.00     0.037 C 
HETATM    7  C5  UNL     1      63.834  49.719  27.414  1.00  0.00     0.012 C 
HETATM    8  C6  UNL     1      64.539  48.454  27.870  1.00  0.00    -0.040 C 
HETATM    9  C7  UNL     1      64.151  47.360  26.887  1.00  0.00     0.015 C 
HETATM   10  C8  UNL     1      66.017  48.720  27.814  1.00  0.00     0.015 C 
BRANCH   5  11
HETATM   11  O1  UNL     1      60.534  48.405  28.168  1.00  0.00    -0.391 OA
ATOM     12  H1  UNL     1      59.879  49.093  28.159  1.00  0.00     0.210 HD
ENDBRANCH   5  11
ENDBRANCH   1   2
BRANCH   1  13
HETATM   13  C11 UNL     1      65.123  47.911  31.480  1.00  0.00    -0.013 C 
HETATM   14  C12 UNL     1      64.507  49.276  31.457  1.00  0.00     0.010 C 
BRANCH  13  15
HETATM   15  C13 UNL     1      66.490  47.759  31.926  1.00  0.00    -0.002 C 
HETATM   16  C14 UNL     1      67.475  47.468  30.773  1.00  0.00     0.006 C 
HETATM   17  C15 UNL     1      68.759  47.018  31.450  1.00  0.00     0.005 C 
HETATM   18  C16 UNL     1      68.442  47.213  32.878  1.00  0.00    -0.010 C 
HETATM   19  C17 UNL     1      69.338  46.714  33.894  1.00  0.00     0.011 C 
HETATM   20  C18 UNL     1      66.967  46.779  32.923  1.00  0.00    -0.037 C 
HETATM   21  C19 UNL     1      66.511  46.957  34.332  1.00  0.00     0.016 C 
BRANCH  20  22
HETATM   22  C20 UNL     1      66.749  45.354  32.533  1.00  0.00     0.005 C 
HETATM   23  C21 UNL     1      67.110  44.314  33.518  1.00  0.00     0.006 C 
ENDBRANCH  20  22
ENDBRANCH  13  15
ENDBRANCH   1  13
TORSDOF 5
ENDMDL
MODEL 4
REMARK VINA RESULT: -7.895646759      2.335      6.330
REMARK  5 active torsions:
REMARK  status: ('A' for Active; 'I' for Inactive)
REMARK    1  A    between atoms: C3_3  and  O1_4 
REMARK    2  A    between atoms: C9_11  and  C10_12 
REMARK    3  A    between atoms: C10_12  and  C11_13 
REMARK    4  A    between atoms: C11_13  and  C13_15 
REMARK    5  A    between atoms: C18_20  and  C20_22 
ROOT
HETATM    1  C10 UNL     1      65.347  49.082  32.072  1.00  0.00     0.014 C 
ENDROOT
BRANCH   1   2
HETATM    2  C9  UNL     1      65.945  47.998  32.870  1.00  0.00     0.024 C 
HETATM    3  C2  UNL     1      66.115  48.223  34.320  1.00  0.00    -0.056 C 
HETATM    4  C1  UNL     1      66.158  49.388  34.925  1.00  0.00     0.017 C 
HETATM    5  C3  UNL     1      66.280  46.983  35.150  1.00  0.00     0.146 C 
HETATM    6  C4  UNL     1      67.267  46.036  34.518  1.00  0.00     0.037 C 
HETATM    7  C5  UNL     1      67.330  46.041  33.041  1.00  0.00     0.012 C 
HETATM    8  C6  UNL     1      67.230  47.407  32.387  1.00  0.00    -0.040 C 
HETATM    9  C7  UNL     1      68.438  48.204  32.854  1.00  0.00     0.015 C 
HETATM   10  C8  UNL     1      67.274  47.196  30.899  1.00  0.00     0.015 C 
BRANCH   5  11
HETATM   11  O1  UNL     1      66.799  47.366  36.380  1.00  0.00    -0.391 OA
ATOM     12  H1  UNL     1      67.728  47.166  36.375  1.00  0.00     0.210 HD
ENDBRANCH   5  11
ENDBRANCH   1   2
BRANCH   1  13
HETATM   13  C11 UNL     1      64.152  48.649  31.254  1.00  0.00    -0.013 C 
HETATM   14  C12 UNL     1      63.404  47.677  32.114  1.00  0.00     0.010 C 
BRANCH  13  15
HETATM   15  C13 UNL     1      64.471  48.288  29.890  1.00  0.00    -0.002 C 
HETATM   16  C14 UNL     1      65.023  49.469  29.064  1.00  0.00     0.006 C 
HETATM   17  C15 UNL     1      64.981  48.999  27.620  1.00  0.00     0.005 C 
HETATM   18  C16 UNL     1      64.548  47.595  27.762  1.00  0.00    -0.010 C 
HETATM   19  C17 UNL     1      64.187  46.825  26.595  1.00  0.00     0.011 C 
HETATM   20  C18 UNL     1      63.531  47.707  28.911  1.00  0.00    -0.037 C 
HETATM   21  C19 UNL     1      63.029  46.328  29.176  1.00  0.00     0.016 C 
BRANCH  20  22
HETATM   22  C20 UNL     1      62.362  48.581  28.593  1.00  0.00     0.005 C 
HETATM   23  C21 UNL     1      61.033  47.940  28.512  1.00  0.00     0.006 C 
ENDBRANCH  20  22
ENDBRANCH  13  15
ENDBRANCH   1  13
TORSDOF 5
ENDMDL
MODEL 5
REMARK VINA RESULT: -7.895256339      1.382      2.249
REMARK  5 active torsions:
REMARK  status: ('A' for Active; 'I' for Inactive)
REMARK    1  A    between atoms: C3_3  and  O1_4 
REMARK    2  A    between atoms: C9_11  and  C10_12 
REMARK    3  A    between atoms: C10_12  and  C11_13 
REMARK    4  A    between atoms: C11_13  and  C13_15 
REMARK    5  A    between atoms: C18_20  and  C20_22 
ROOT
HETATM    1  C10 UNL     1      64.019  48.053  30.917  1.00  0.00     0.014 C 
ENDROOT
BRANCH   1   2
HETATM    2  C9  UNL     1      64.459  48.581  29.615  1.00  0.00     0.024 C 
HETATM    3  C2  UNL     1      63.418  48.940  28.630  1.00  0.00    -0.056 C 
HETATM    4  C1  UNL     1      62.181  48.501  28.612  1.00  0.00     0.017 C 
HETATM    5  C3  UNL     1      63.857  49.876  27.541  1.00  0.00     0.146 C 
HETATM    6  C4  UNL     1      65.182  49.452  26.963  1.00  0.00     0.037 C 
HETATM    7  C5  UNL     1      66.121  48.786  27.890  1.00  0.00     0.012 C 
HETATM    8  C6  UNL     1      65.493  47.805  28.864  1.00  0.00    -0.040 C 
HETATM    9  C7  UNL     1      64.879  46.693  28.028  1.00  0.00     0.015 C 
HETATM   10  C8  UNL     1      66.595  47.270  29.735  1.00  0.00     0.015 C 
BRANCH   5  11
HETATM   11  O1  UNL     1      62.916  49.807  26.522  1.00  0.00    -0.391 OA
ATOM     12  H1  UNL     1      62.067  50.002  26.900  1.00  0.00     0.210 HD
ENDBRANCH   5  11
ENDBRANCH   1   2
BRANCH   1  13
HETATM   13  C11 UNL     1      64.371  48.943  32.086  1.00  0.00    -0.013 C 
HETATM   14  C12 UNL     1      64.674  50.286  31.496  1.00  0.00     0.010 C 
BRANCH  13  15
HETATM   15  C13 UNL     1      65.307  48.351  33.017  1.00  0.00    -0.002 C 
HETATM   16  C14 UNL     1      65.253  46.808  33.032  1.00  0.00     0.006 C 
HETATM   17  C15 UNL     1      66.035  46.395  34.269  1.00  0.00     0.005 C 
HETATM   18  C16 UNL     1      66.555  47.688  34.754  1.00  0.00    -0.010 C 
HETATM   19  C17 UNL     1      67.202  47.773  36.042  1.00  0.00     0.011 C 
HETATM   20  C18 UNL     1      65.365  48.620  34.468  1.00  0.00    -0.037 C 
HETATM   21  C19 UNL     1      65.779  49.988  34.895  1.00  0.00     0.016 C 
BRANCH  20  22
HETATM   22  C20 UNL     1      64.122  48.250  35.209  1.00  0.00     0.005 C 
HETATM   23  C21 UNL     1      63.231  49.349  35.636  1.00  0.00     0.006 C 
ENDBRANCH  20  22
ENDBRANCH  13  15
ENDBRANCH   1  13
TORSDOF 5
ENDMDL
