MODEL 1
REMARK VINA RESULT: -7.731565227      0.000      0.000
REMARK  4 active torsions:
REMARK  status: ('A' for Active; 'I' for Inactive)
REMARK    1  A    between atoms: C2_2  and  C3_3 
REMARK    2  A    between atoms: C13_13  and  C15_15 
REMARK    3  A    between atoms: C15_15  and  C16_16 
REMARK    4  A    between atoms: C16_16  and  N1_17 
ROOT
HETATM    1  C3  UNL     1      67.664  45.982  32.205  1.00  0.00    -0.006 C 
HETATM    2  C4  UNL     1      67.136  44.737  31.666  1.00  0.00     0.006 C 
HETATM    3  C5  UNL     1      66.427  45.133  30.435  1.00  0.00     0.011 C 
HETATM    4  C6  UNL     1      66.161  46.650  30.451  1.00  0.00    -0.029 C 
HETATM    5  C7  UNL     1      67.072  47.250  29.406  1.00  0.00     0.011 C 
HETATM    6  C8  UNL     1      66.519  48.456  28.723  1.00  0.00     0.006 C 
HETATM    7  C9  UNL     1      65.092  48.332  28.277  1.00  0.00    -0.006 C 
HETATM    8  C10 UNL     1      64.916  47.017  27.557  1.00  0.00     0.006 C 
HETATM    9  C11 UNL     1      64.653  46.012  28.664  1.00  0.00     0.006 C 
HETATM   10  C12 UNL     1      64.774  46.812  29.983  1.00  0.00     0.003 C 
HETATM   11  C13 UNL     1      64.245  48.078  29.512  1.00  0.00    -0.034 C 
HETATM   12  C14 UNL     1      64.146  49.263  30.374  1.00  0.00     0.016 C 
HETATM   13  C19 UNL     1      66.571  47.009  31.810  1.00  0.00    -0.036 C 
HETATM   14  C20 UNL     1      65.528  46.782  32.871  1.00  0.00     0.016 C 
HETATM   15  C21 UNL     1      67.353  48.267  32.017  1.00  0.00     0.016 C 
ENDROOT
BRANCH  11  16
HETATM   16  C15 UNL     1      62.826  47.875  28.993  1.00  0.00     0.040 C 
BRANCH  16  17
HETATM   17  C16 UNL     1      61.921  47.355  30.085  1.00  0.00     0.272 C 
BRANCH  17  18
HETATM   18  N1  UNL     1      60.786  46.633  29.560  1.00  0.00     0.080 N 
HETATM   19  C17 UNL     1      60.104  47.527  28.644  1.00  0.00     0.309 C 
HETATM   20  C18 UNL     1      59.861  46.171  30.543  1.00  0.00     0.309 C 
ENDBRANCH  17  18
ENDBRANCH  16  17
ENDBRANCH  11  16
BRANCH   1  21
HETATM   21  C2  UNL     1      67.884  45.918  33.671  1.00  0.00     0.001 C 
HETATM   22  C1  UNL     1      67.666  44.451  34.067  1.00  0.00     0.005 C 
ENDBRANCH   1  21
TORSDOF 4
ENDMDL
MODEL 2
REMARK VINA RESULT: -7.072170190      1.395      2.063
REMARK  4 active torsions:
REMARK  status: ('A' for Active; 'I' for Inactive)
REMARK    1  A    between atoms: C2_2  and  C3_3 
REMARK    2  A    between atoms: C13_13  and  C15_15 
REMARK    3  A    between atoms: C15_15  and  C16_16 
REMARK    4  A    between atoms: C16_16  and  N1_17 
ROOT
HETATM    1  C3  UNL     1      66.009  48.125  32.215  1.00  0.00    -0.006 C 
HETATM    2  C4  UNL     1      66.179  46.737  31.807  1.00  0.00     0.006 C 
HETATM    3  C5  UNL     1      65.704  46.698  30.411  1.00  0.00     0.011 C 
HETATM    4  C6  UNL     1      64.857  47.949  30.111  1.00  0.00    -0.029 C 
HETATM    5  C7  UNL     1      65.682  48.804  29.178  1.00  0.00     0.011 C 
HETATM    6  C8  UNL     1      64.882  49.600  28.201  1.00  0.00     0.006 C 
HETATM    7  C9  UNL     1      63.787  48.841  27.512  1.00  0.00    -0.006 C 
HETATM    8  C10 UNL     1      64.341  47.530  27.010  1.00  0.00     0.006 C 
HETATM    9  C11 UNL     1      64.234  46.594  28.201  1.00  0.00     0.006 C 
HETATM   10  C12 UNL     1      63.688  47.463  29.359  1.00  0.00     0.003 C 
HETATM   11  C13 UNL     1      62.832  48.339  28.581  1.00  0.00    -0.034 C 
HETATM   12  C14 UNL     1      62.053  49.426  29.189  1.00  0.00     0.016 C 
HETATM   13  C19 UNL     1      64.733  48.549  31.441  1.00  0.00    -0.036 C 
HETATM   14  C20 UNL     1      63.639  47.973  32.300  1.00  0.00     0.016 C 
HETATM   15  C21 UNL     1      64.865  50.032  31.577  1.00  0.00     0.016 C 
ENDROOT
BRANCH  11  16
HETATM   16  C15 UNL     1      61.794  47.507  27.837  1.00  0.00     0.040 C 
BRANCH  16  17
HETATM   17  C16 UNL     1      60.413  47.734  28.404  1.00  0.00     0.272 C 
BRANCH  17  18
HETATM   18  N1  UNL     1      59.878  46.552  29.039  1.00  0.00     0.080 N 
HETATM   19  C17 UNL     1      58.433  46.663  28.988  1.00  0.00     0.309 C 
HETATM   20  C18 UNL     1      60.289  46.358  30.391  1.00  0.00     0.309 C 
ENDBRANCH  17  18
ENDBRANCH  16  17
ENDBRANCH  11  16
BRANCH   1  21
HETATM   21  C2  UNL     1      65.860  48.271  33.684  1.00  0.00     0.001 C 
HETATM   22  C1  UNL     1      66.688  47.137  34.307  1.00  0.00     0.005 C 
ENDBRANCH   1  21
TORSDOF 4
ENDMDL
MODEL 3
REMARK VINA RESULT: -6.675053367      2.297      5.960
REMARK  4 active torsions:
REMARK  status: ('A' for Active; 'I' for Inactive)
REMARK    1  A    between atoms: C2_2  and  C3_3 
REMARK    2  A    between atoms: C13_13  and  C15_15 
REMARK    3  A    between atoms: C15_15  and  C16_16 
REMARK    4  A    between atoms: C16_16  and  N1_17 
ROOT
HETATM    1  C3  UNL     1      63.676  48.112  27.764  1.00  0.00    -0.006 C 
HETATM    2  C4  UNL     1      64.887  48.774  27.299  1.00  0.00     0.006 C 
HETATM    3  C5  UNL     1      65.974  48.159  28.082  1.00  0.00     0.011 C 
HETATM    4  C6  UNL     1      65.389  47.438  29.312  1.00  0.00    -0.029 C 
HETATM    5  C7  UNL     1      65.548  45.959  29.050  1.00  0.00     0.011 C 
HETATM    6  C8  UNL     1      65.773  45.136  30.274  1.00  0.00     0.006 C 
HETATM    7  C9  UNL     1      66.787  45.689  31.231  1.00  0.00    -0.006 C 
HETATM    8  C10 UNL     1      68.021  46.091  30.460  1.00  0.00     0.006 C 
HETATM    9  C11 UNL     1      67.721  47.497  29.972  1.00  0.00     0.006 C 
HETATM   10  C12 UNL     1      66.274  47.793  30.434  1.00  0.00     0.003 C 
HETATM   11  C13 UNL     1      66.296  47.054  31.683  1.00  0.00    -0.034 C 
HETATM   12  C14 UNL     1      65.127  46.962  32.567  1.00  0.00     0.016 C 
HETATM   13  C19 UNL     1      63.987  47.859  29.263  1.00  0.00    -0.036 C 
HETATM   14  C20 UNL     1      63.704  49.204  29.875  1.00  0.00     0.016 C 
HETATM   15  C21 UNL     1      62.923  46.848  29.550  1.00  0.00     0.016 C 
ENDROOT
BRANCH  11  16
HETATM   16  C15 UNL     1      67.399  47.604  32.580  1.00  0.00     0.040 C 
BRANCH  16  17
HETATM   17  C16 UNL     1      67.126  47.283  34.030  1.00  0.00     0.272 C 
BRANCH  17  18
HETATM   18  N1  UNL     1      68.040  46.296  34.556  1.00  0.00     0.080 N 
HETATM   19  C17 UNL     1      69.281  46.435  33.818  1.00  0.00     0.309 C 
HETATM   20  C18 UNL     1      67.586  44.947  34.463  1.00  0.00     0.309 C 
ENDBRANCH  17  18
ENDBRANCH  16  17
ENDBRANCH  11  16
BRANCH   1  21
HETATM   21  C2  UNL     1      62.463  48.943  27.566  1.00  0.00     0.001 C 
HETATM   22  C1  UNL     1      62.819  49.954  26.467  1.00  0.00     0.005 C 
ENDBRANCH   1  21
TORSDOF 4
ENDMDL
MODEL 4
REMARK VINA RESULT: -6.511709669      1.025      1.162
REMARK  4 active torsions:
REMARK  status: ('A' for Active; 'I' for Inactive)
REMARK    1  A    between atoms: C2_2  and  C3_3 
REMARK    2  A    between atoms: C13_13  and  C15_15 
REMARK    3  A    between atoms: C15_15  and  C16_16 
REMARK    4  A    between atoms: C16_16  and  N1_17 
ROOT
HETATM    1  C3  UNL     1      67.506  47.185  31.922  1.00  0.00    -0.006 C 
HETATM    2  C4  UNL     1      67.596  45.858  31.328  1.00  0.00     0.006 C 
HETATM    3  C5  UNL     1      66.769  45.937  30.109  1.00  0.00     0.011 C 
HETATM    4  C6  UNL     1      65.842  47.166  30.185  1.00  0.00    -0.029 C 
HETATM    5  C7  UNL     1      66.368  48.156  29.173  1.00  0.00     0.011 C 
HETATM    6  C8  UNL     1      65.319  49.004  28.536  1.00  0.00     0.006 C 
HETATM    7  C9  UNL     1      64.099  48.262  28.074  1.00  0.00    -0.006 C 
HETATM    8  C10 UNL     1      64.532  47.041  27.299  1.00  0.00     0.006 C 
HETATM    9  C11 UNL     1      64.768  45.983  28.362  1.00  0.00     0.006 C 
HETATM   10  C12 UNL     1      64.528  46.697  29.714  1.00  0.00     0.003 C 
HETATM   11  C13 UNL     1      63.475  47.601  29.291  1.00  0.00    -0.034 C 
HETATM   12  C14 UNL     1      62.858  48.575  30.201  1.00  0.00     0.016 C 
HETATM   13  C19 UNL     1      66.060  47.617  31.561  1.00  0.00    -0.036 C 
HETATM   14  C20 UNL     1      65.248  46.897  32.604  1.00  0.00     0.016 C 
HETATM   15  C21 UNL     1      66.186  49.083  31.826  1.00  0.00     0.016 C 
ENDROOT
BRANCH  11  16
HETATM   16  C15 UNL     1      62.298  46.795  28.754  1.00  0.00     0.040 C 
BRANCH  16  17
HETATM   17  C16 UNL     1      61.057  47.651  28.657  1.00  0.00     0.272 C 
BRANCH  17  18
HETATM   18  N1  UNL     1      59.846  46.885  28.838  1.00  0.00     0.080 N 
HETATM   19  C17 UNL     1      58.745  47.731  28.419  1.00  0.00     0.309 C 
HETATM   20  C18 UNL     1      59.614  46.436  30.172  1.00  0.00     0.309 C 
ENDBRANCH  17  18
ENDBRANCH  16  17
ENDBRANCH  11  16
BRANCH   1  21
HETATM   21  C2  UNL     1      67.749  47.170  33.386  1.00  0.00     0.001 C 
HETATM   22  C1  UNL     1      68.934  46.219  33.607  1.00  0.00     0.005 C 
ENDBRANCH   1  21
TORSDOF 4
ENDMDL
MODEL 5
REMARK VINA RESULT: -6.464815161      2.325      5.615
REMARK  4 active torsions:
REMARK  status: ('A' for Active; 'I' for Inactive)
REMARK    1  A    between atoms: C2_2  and  C3_3 
REMARK    2  A    between atoms: C13_13  and  C15_15 
REMARK    3  A    between atoms: C15_15  and  C16_16 
REMARK    4  A    between atoms: C16_16  and  N1_17 
ROOT
HETATM    1  C3  UNL     1      64.650  47.744  28.090  1.00  0.00    -0.006 C 
HETATM    2  C4  UNL     1      65.821  48.601  27.967  1.00  0.00     0.006 C 
HETATM    3  C5  UNL     1      66.722  48.160  29.048  1.00  0.00     0.011 C 
HETATM    4  C6  UNL     1      65.932  47.338  30.084  1.00  0.00    -0.029 C 
HETATM    5  C7  UNL     1      66.393  45.908  29.929  1.00  0.00     0.011 C 
HETATM    6  C8  UNL     1      66.387  45.116  31.194  1.00  0.00     0.006 C 
HETATM    7  C9  UNL     1      66.982  45.815  32.380  1.00  0.00    -0.006 C 
HETATM    8  C10 UNL     1      68.305  46.422  31.980  1.00  0.00     0.006 C 
HETATM    9  C11 UNL     1      67.936  47.767  31.378  1.00  0.00     0.006 C 
HETATM   10  C12 UNL     1      66.390  47.817  31.399  1.00  0.00     0.003 C 
HETATM   11  C13 UNL     1      66.171  47.075  32.627  1.00  0.00    -0.034 C 
HETATM   12  C14 UNL     1      64.828  46.782  33.144  1.00  0.00     0.016 C 
HETATM   13  C19 UNL     1      64.555  47.525  29.623  1.00  0.00    -0.036 C 
HETATM   14  C20 UNL     1      63.897  48.798  30.083  1.00  0.00     0.016 C 
HETATM   15  C21 UNL     1      63.628  46.351  29.630  1.00  0.00     0.016 C 
ENDROOT
BRANCH  11  16
HETATM   16  C15 UNL     1      66.868  47.785  33.782  1.00  0.00     0.040 C 
BRANCH  16  17
HETATM   17  C16 UNL     1      65.990  47.807  35.011  1.00  0.00     0.272 C 
BRANCH  17  18
HETATM   18  N1  UNL     1      65.683  49.151  35.443  1.00  0.00     0.080 N 
HETATM   19  C17 UNL     1      64.238  49.260  35.486  1.00  0.00     0.309 C 
HETATM   20  C18 UNL     1      66.209  50.184  34.610  1.00  0.00     0.309 C 
ENDBRANCH  17  18
ENDBRANCH  16  17
ENDBRANCH  11  16
BRANCH   1  21
HETATM   21  C2  UNL     1      63.427  48.369  27.527  1.00  0.00     0.001 C 
HETATM   22  C1  UNL     1      63.883  49.691  26.892  1.00  0.00     0.005 C 
ENDBRANCH   1  21
TORSDOF 4
ENDMDL
