MODEL 1
REMARK VINA RESULT: -6.500171585      0.000      0.000
REMARK  4 active torsions:
REMARK  status: ('A' for Active; 'I' for Inactive)
REMARK    1  A    between atoms: N2_3  and  C2_5 
REMARK    2  A    between atoms: C2_5  and  C3_6 
REMARK    3  A    between atoms: C2_5  and  C8_14 
REMARK    4  A    between atoms: N3_10  and  O1_11 
ROOT
HETATM    1  N1  UNL     1      17.859  24.185  -8.491  1.00  0.00    -0.172 NA
HETATM    2  C1  UNL     1      18.086  23.141  -8.028  1.00  0.00     0.178 C 
HETATM    3  N2  UNL     1      18.335  21.884  -7.475  1.00  0.00    -0.314 N 
ATOM      4  H2  UNL     1      18.952  21.249  -7.982  1.00  0.00     0.172 HD
ENDROOT
BRANCH   3   5
HETATM    5  C2  UNL     1      17.770  21.435  -6.229  1.00  0.00     0.176 C 
BRANCH   5   6
HETATM    6  C3  UNL     1      18.276  20.099  -5.835  1.00  0.00    -0.011 A 
HETATM    7  C4  UNL     1      18.221  19.680  -4.517  1.00  0.00     0.012 A 
HETATM    8  C5  UNL     1      18.694  18.443  -4.174  1.00  0.00     0.020 A 
HETATM    9  C6  UNL     1      19.225  17.612  -5.136  1.00  0.00     0.122 A 
HETATM   10  N3  UNL     1      19.280  18.012  -6.411  1.00  0.00    -0.247 N 
HETATM   11  C7  UNL     1      18.818  19.221  -6.750  1.00  0.00     0.132 A 
BRANCH  10  12
HETATM   12  O1  UNL     1      19.826  17.130  -7.334  1.00  0.00    -0.284 OA
ATOM     13  H1  UNL     1      20.585  16.628  -7.062  1.00  0.00     0.245 HD
ENDBRANCH  10  12
ENDBRANCH   5   6
BRANCH   5  14
HETATM   14  C8  UNL     1      16.287  21.466  -6.279  1.00  0.00     0.037 A 
HETATM   15  C9  UNL     1      15.454  22.071  -5.363  1.00  0.00     0.029 A 
HETATM   16  C10 UNL     1      14.130  21.901  -5.725  1.00  0.00     0.019 A 
HETATM   17  C11 UNL     1      14.180  21.168  -6.899  1.00  0.00     0.088 A 
HETATM   18  N4  UNL     1      15.475  20.917  -7.213  1.00  0.00    -0.367 N 
ATOM     19  H4  UNL     1      15.790  20.395  -8.031  1.00  0.00     0.165 HD
ENDBRANCH   5  14
ENDBRANCH   3   5
TORSDOF 4
ENDMDL
MODEL 2
REMARK VINA RESULT: -6.352537068      2.162      3.112
REMARK  4 active torsions:
REMARK  status: ('A' for Active; 'I' for Inactive)
REMARK    1  A    between atoms: N2_3  and  C2_5 
REMARK    2  A    between atoms: C2_5  and  C3_6 
REMARK    3  A    between atoms: C2_5  and  C8_14 
REMARK    4  A    between atoms: N3_10  and  O1_11 
ROOT
HETATM    1  N1  UNL     1      18.588  20.635  -2.114  1.00  0.00    -0.172 NA
HETATM    2  C1  UNL     1      17.827  20.788  -2.982  1.00  0.00     0.178 C 
HETATM    3  N2  UNL     1      16.902  20.954  -4.014  1.00  0.00    -0.314 N 
ATOM      4  H2  UNL     1      16.421  21.850  -4.090  1.00  0.00     0.172 HD
ENDROOT
BRANCH   3   5
HETATM    5  C2  UNL     1      16.589  19.929  -4.976  1.00  0.00     0.176 C 
BRANCH   5   6
HETATM    6  C3  UNL     1      17.654  19.775  -5.995  1.00  0.00    -0.011 A 
HETATM    7  C4  UNL     1      18.080  20.857  -6.745  1.00  0.00     0.012 A 
HETATM    8  C5  UNL     1      19.065  20.693  -7.681  1.00  0.00     0.020 A 
HETATM    9  C6  UNL     1      19.634  19.455  -7.879  1.00  0.00     0.122 A 
HETATM   10  N3  UNL     1      19.227  18.406  -7.156  1.00  0.00    -0.247 N 
HETATM   11  C7  UNL     1      18.265  18.563  -6.240  1.00  0.00     0.132 A 
BRANCH  10  12
HETATM   12  O1  UNL     1      19.840  17.185  -7.401  1.00  0.00    -0.284 OA
ATOM     13  H1  UNL     1      20.214  16.727  -6.658  1.00  0.00     0.245 HD
ENDBRANCH  10  12
ENDBRANCH   5   6
BRANCH   5  14
HETATM   14  C8  UNL     1      15.266  20.176  -5.601  1.00  0.00     0.037 A 
HETATM   15  C9  UNL     1      14.604  21.384  -5.653  1.00  0.00     0.029 A 
HETATM   16  C10 UNL     1      13.395  21.245  -6.312  1.00  0.00     0.019 A 
HETATM   17  C11 UNL     1      13.339  19.907  -6.662  1.00  0.00     0.088 A 
HETATM   18  N4  UNL     1      14.463  19.286  -6.229  1.00  0.00    -0.367 N 
ATOM     19  H4  UNL     1      14.673  18.295  -6.358  1.00  0.00     0.165 HD
ENDBRANCH   5  14
ENDBRANCH   3   5
TORSDOF 4
ENDMDL
MODEL 3
REMARK VINA RESULT: -6.314410263      2.540      5.072
REMARK  4 active torsions:
REMARK  status: ('A' for Active; 'I' for Inactive)
REMARK    1  A    between atoms: N2_3  and  C2_5 
REMARK    2  A    between atoms: C2_5  and  C3_6 
REMARK    3  A    between atoms: C2_5  and  C8_14 
REMARK    4  A    between atoms: N3_10  and  O1_11 
ROOT
HETATM    1  N1  UNL     1      20.142  16.991  -6.638  1.00  0.00    -0.172 NA
HETATM    2  C1  UNL     1      19.883  17.995  -6.109  1.00  0.00     0.178 C 
HETATM    3  N2  UNL     1      19.567  19.187  -5.455  1.00  0.00    -0.314 N 
ATOM      4  H2  UNL     1      20.299  19.891  -5.356  1.00  0.00     0.172 HD
ENDROOT
BRANCH   3   5
HETATM    5  C2  UNL     1      18.265  19.478  -4.911  1.00  0.00     0.176 C 
BRANCH   5   6
HETATM    6  C3  UNL     1      17.532  20.479  -5.722  1.00  0.00    -0.011 A 
HETATM    7  C4  UNL     1      16.214  20.268  -6.086  1.00  0.00     0.012 A 
HETATM    8  C5  UNL     1      15.555  21.205  -6.835  1.00  0.00     0.020 A 
HETATM    9  C6  UNL     1      16.199  22.357  -7.228  1.00  0.00     0.122 A 
HETATM   10  N3  UNL     1      17.473  22.566  -6.878  1.00  0.00    -0.247 N 
HETATM   11  C7  UNL     1      18.120  21.652  -6.146  1.00  0.00     0.132 A 
BRANCH  10  12
HETATM   12  O1  UNL     1      18.067  23.747  -7.304  1.00  0.00    -0.284 OA
ATOM     13  H1  UNL     1      18.386  24.341  -6.636  1.00  0.00     0.245 HD
ENDBRANCH  10  12
ENDBRANCH   5   6
BRANCH   5  14
HETATM   14  C8  UNL     1      18.366  19.892  -3.490  1.00  0.00     0.037 A 
HETATM   15  C9  UNL     1      17.461  20.675  -2.805  1.00  0.00     0.029 A 
HETATM   16  C10 UNL     1      17.874  20.860  -1.497  1.00  0.00     0.019 A 
HETATM   17  C11 UNL     1      19.066  20.161  -1.404  1.00  0.00     0.088 A 
HETATM   18  N4  UNL     1      19.343  19.591  -2.603  1.00  0.00    -0.367 N 
ATOM     19  H4  UNL     1      20.164  19.021  -2.805  1.00  0.00     0.165 HD
ENDBRANCH   5  14
ENDBRANCH   3   5
TORSDOF 4
ENDMDL
MODEL 4
REMARK VINA RESULT: -6.271677106      2.273      4.870
REMARK  4 active torsions:
REMARK  status: ('A' for Active; 'I' for Inactive)
REMARK    1  A    between atoms: N2_3  and  C2_5 
REMARK    2  A    between atoms: C2_5  and  C3_6 
REMARK    3  A    between atoms: C2_5  and  C8_14 
REMARK    4  A    between atoms: N3_10  and  O1_11 
ROOT
HETATM    1  N1  UNL     1      20.141  16.762  -6.561  1.00  0.00    -0.172 NA
HETATM    2  C1  UNL     1      19.857  17.871  -6.352  1.00  0.00     0.178 C 
HETATM    3  N2  UNL     1      19.509  19.196  -6.081  1.00  0.00    -0.314 N 
ATOM      4  H2  UNL     1      20.248  19.899  -6.091  1.00  0.00     0.172 HD
ENDROOT
BRANCH   3   5
HETATM    5  C2  UNL     1      18.165  19.623  -5.789  1.00  0.00     0.176 C 
BRANCH   5   6
HETATM    6  C3  UNL     1      17.813  20.880  -6.492  1.00  0.00    -0.011 A 
HETATM    7  C4  UNL     1      16.624  21.534  -6.222  1.00  0.00     0.012 A 
HETATM    8  C5  UNL     1      16.318  22.693  -6.882  1.00  0.00     0.020 A 
HETATM    9  C6  UNL     1      17.189  23.211  -7.815  1.00  0.00     0.122 A 
HETATM   10  N3  UNL     1      18.340  22.583  -8.078  1.00  0.00    -0.247 N 
HETATM   11  C7  UNL     1      18.643  21.450  -7.435  1.00  0.00     0.132 A 
BRANCH  10  12
HETATM   12  O1  UNL     1      19.177  23.155  -9.028  1.00  0.00    -0.284 OA
ATOM     13  H1  UNL     1      19.246  24.102  -9.034  1.00  0.00     0.245 HD
ENDBRANCH  10  12
ENDBRANCH   5   6
BRANCH   5  14
HETATM   14  C8  UNL     1      17.953  19.737  -4.324  1.00  0.00     0.037 A 
HETATM   15  C9  UNL     1      17.024  19.042  -3.580  1.00  0.00     0.029 A 
HETATM   16  C10 UNL     1      17.107  19.400  -2.246  1.00  0.00     0.019 A 
HETATM   17  C11 UNL     1      18.123  20.340  -2.198  1.00  0.00     0.088 A 
HETATM   18  N4  UNL     1      18.615  20.529  -3.447  1.00  0.00    -0.367 N 
ATOM     19  H4  UNL     1      19.370  21.170  -3.690  1.00  0.00     0.165 HD
ENDBRANCH   5  14
ENDBRANCH   3   5
TORSDOF 4
ENDMDL
MODEL 5
REMARK VINA RESULT: -6.232061932      3.597      6.013
REMARK  4 active torsions:
REMARK  status: ('A' for Active; 'I' for Inactive)
REMARK    1  A    between atoms: N2_3  and  C2_5 
REMARK    2  A    between atoms: C2_5  and  C3_6 
REMARK    3  A    between atoms: C2_5  and  C8_14 
REMARK    4  A    between atoms: N3_10  and  O1_11 
ROOT
HETATM    1  N1  UNL     1      14.924  18.190  -2.112  1.00  0.00    -0.172 NA
HETATM    2  C1  UNL     1      16.043  17.930  -2.307  1.00  0.00     0.178 C 
HETATM    3  N2  UNL     1      17.389  17.632  -2.523  1.00  0.00    -0.314 N 
ATOM      4  H2  UNL     1      17.682  16.657  -2.460  1.00  0.00     0.172 HD
ENDROOT
BRANCH   3   5
HETATM    5  C2  UNL     1      18.386  18.624  -2.829  1.00  0.00     0.176 C 
BRANCH   5   6
HETATM    6  C3  UNL     1      18.775  18.603  -4.260  1.00  0.00    -0.011 A 
HETATM    7  C4  UNL     1      18.576  19.709  -5.065  1.00  0.00     0.012 A 
HETATM    8  C5  UNL     1      18.942  19.669  -6.384  1.00  0.00     0.020 A 
HETATM    9  C6  UNL     1      19.509  18.530  -6.911  1.00  0.00     0.122 A 
HETATM   10  N3  UNL     1      19.705  17.458  -6.136  1.00  0.00    -0.247 N 
HETATM   11  C7  UNL     1      19.348  17.494  -4.847  1.00  0.00     0.132 A 
BRANCH  10  12
HETATM   12  O1  UNL     1      20.282  16.340  -6.725  1.00  0.00    -0.284 OA
ATOM     13  H1  UNL     1      20.716  15.719  -6.152  1.00  0.00     0.245 HD
ENDBRANCH  10  12
ENDBRANCH   5   6
BRANCH   5  14
HETATM   14  C8  UNL     1      19.565  18.483  -1.939  1.00  0.00     0.037 A 
HETATM   15  C9  UNL     1      19.611  17.778  -0.755  1.00  0.00     0.029 A 
HETATM   16  C10 UNL     1      20.871  17.862  -0.191  1.00  0.00     0.019 A 
HETATM   17  C11 UNL     1      21.598  18.644  -1.072  1.00  0.00     0.088 A 
HETATM   18  N4  UNL     1      20.803  19.005  -2.108  1.00  0.00    -0.367 N 
ATOM     19  H4  UNL     1      21.093  19.583  -2.897  1.00  0.00     0.165 HD
ENDBRANCH   5  14
ENDBRANCH   3   5
TORSDOF 4
ENDMDL
