MODEL 1
REMARK VINA RESULT: -6.637986443      0.000      0.000
REMARK  4 active torsions:
REMARK  status: ('A' for Active; 'I' for Inactive)
REMARK    1  A    between atoms: C2_2  and  C3_3 
REMARK    2  A    between atoms: C3_3  and  N1_4 
REMARK    3  A    between atoms: N1_4  and  C4_6 
REMARK    4  A    between atoms: C6_8  and  C7_9 
ROOT
HETATM    1  C4  UNL     1      18.086  21.502  -6.347  1.00  0.00     0.107 A 
HETATM    2  C5  UNL     1      16.743  21.136  -6.433  1.00  0.00     0.078 A 
HETATM    3  C6  UNL     1      15.874  21.866  -7.241  1.00  0.00     0.050 A 
HETATM    4  N3  UNL     1      16.333  22.915  -7.932  1.00  0.00    -0.308 N 
ATOM      5  H3  UNL     1      15.700  23.451  -8.525  1.00  0.00     0.170 HD
HETATM    6  C12 UNL     1      17.651  23.267  -7.841  1.00  0.00     0.326 A 
HETATM    7  O1  UNL     1      18.029  24.264  -8.513  1.00  0.00    -0.247 OA
HETATM    8  N4  UNL     1      18.477  22.567  -7.067  1.00  0.00    -0.295 N 
ATOM      9  H4  UNL     1      19.456  22.852  -7.017  1.00  0.00     0.172 HD
ENDROOT
BRANCH   3  10
HETATM   10  C7  UNL     1      14.465  21.475  -7.327  1.00  0.00    -0.007 A 
HETATM   11  C8  UNL     1      13.710  21.138  -6.217  1.00  0.00     0.030 A 
HETATM   12  C9  UNL     1      12.365  20.773  -6.362  1.00  0.00     0.088 A 
HETATM   13  N2  UNL     1      11.771  20.736  -7.552  1.00  0.00    -0.375 N 
HETATM   14  C10 UNL     1      12.460  21.052  -8.639  1.00  0.00     0.088 A 
ATOM     15  H2  UNL     1      10.791  20.466  -7.627  1.00  0.00     0.164 HD
HETATM   16  C11 UNL     1      13.794  21.418  -8.528  1.00  0.00     0.030 A 
ENDBRANCH   3  10
BRANCH   1  17
HETATM   17  N1  UNL     1      18.936  20.889  -5.635  1.00  0.00    -0.373 N 
ATOM     18  H1  UNL     1      19.612  21.455  -5.122  1.00  0.00     0.161 HD
BRANCH  17  19
HETATM   19  C3  UNL     1      19.025  19.458  -5.490  1.00  0.00     0.147 C 
BRANCH  19  20
HETATM   20  C2  UNL     1      19.844  18.834  -6.560  1.00  0.00    -0.018 C 
HETATM   21  C1  UNL     1      19.345  18.130  -7.551  1.00  0.00     0.008 C 
ENDBRANCH  19  20
ENDBRANCH  17  19
ENDBRANCH   1  17
TORSDOF 4
ENDMDL
MODEL 2
REMARK VINA RESULT: -6.626686850      0.045      1.122
REMARK  4 active torsions:
REMARK  status: ('A' for Active; 'I' for Inactive)
REMARK    1  A    between atoms: C2_2  and  C3_3 
REMARK    2  A    between atoms: C3_3  and  N1_4 
REMARK    3  A    between atoms: N1_4  and  C4_6 
REMARK    4  A    between atoms: C6_8  and  C7_9 
ROOT
HETATM    1  C4  UNL     1      18.095  21.513  -6.355  1.00  0.00     0.107 A 
HETATM    2  C5  UNL     1      16.754  21.138  -6.446  1.00  0.00     0.078 A 
HETATM    3  C6  UNL     1      15.883  21.864  -7.255  1.00  0.00     0.050 A 
HETATM    4  N3  UNL     1      16.337  22.916  -7.943  1.00  0.00    -0.308 N 
ATOM      5  H3  UNL     1      15.703  23.449  -8.538  1.00  0.00     0.170 HD
HETATM    6  C12 UNL     1      17.653  23.277  -7.849  1.00  0.00     0.326 A 
HETATM    7  O1  UNL     1      18.026  24.277  -8.519  1.00  0.00    -0.247 OA
HETATM    8  N4  UNL     1      18.482  22.581  -7.072  1.00  0.00    -0.295 N 
ATOM      9  H4  UNL     1      19.458  22.873  -7.020  1.00  0.00     0.172 HD
ENDROOT
BRANCH   3  10
HETATM   10  C7  UNL     1      14.477  21.464  -7.346  1.00  0.00    -0.007 A 
HETATM   11  C8  UNL     1      13.784  21.423  -8.543  1.00  0.00     0.030 A 
HETATM   12  C9  UNL     1      12.439  21.032  -8.568  1.00  0.00     0.088 A 
HETATM   13  N2  UNL     1      11.786  20.690  -7.461  1.00  0.00    -0.375 N 
HETATM   14  C10 UNL     1      12.415  20.716  -6.294  1.00  0.00     0.088 A 
ATOM     15  H2  UNL     1      10.807  20.410  -7.509  1.00  0.00     0.164 HD
HETATM   16  C11 UNL     1      13.747  21.099  -6.237  1.00  0.00     0.030 A 
ENDBRANCH   3  10
BRANCH   1  17
HETATM   17  N1  UNL     1      18.946  20.905  -5.641  1.00  0.00    -0.373 N 
ATOM     18  H1  UNL     1      19.619  21.475  -5.127  1.00  0.00     0.161 HD
BRANCH  17  19
HETATM   19  C3  UNL     1      19.043  19.474  -5.495  1.00  0.00     0.147 C 
BRANCH  19  20
HETATM   20  C2  UNL     1      19.855  18.853  -6.572  1.00  0.00    -0.018 C 
HETATM   21  C1  UNL     1      19.350  18.146  -7.558  1.00  0.00     0.008 C 
ENDBRANCH  19  20
ENDBRANCH  17  19
ENDBRANCH   1  17
TORSDOF 4
ENDMDL
MODEL 3
REMARK VINA RESULT: -6.571537865      1.462      5.513
REMARK  4 active torsions:
REMARK  status: ('A' for Active; 'I' for Inactive)
REMARK    1  A    between atoms: C2_2  and  C3_3 
REMARK    2  A    between atoms: C3_3  and  N1_4 
REMARK    3  A    between atoms: N1_4  and  C4_6 
REMARK    4  A    between atoms: C6_8  and  C7_9 
ROOT
HETATM    1  C4  UNL     1      16.057  22.042  -7.284  1.00  0.00     0.107 A 
HETATM    2  C5  UNL     1      16.626  20.894  -6.732  1.00  0.00     0.078 A 
HETATM    3  C6  UNL     1      17.987  20.646  -6.897  1.00  0.00     0.050 A 
HETATM    4  N3  UNL     1      18.741  21.511  -7.582  1.00  0.00    -0.308 N 
ATOM      5  H3  UNL     1      19.738  21.334  -7.703  1.00  0.00     0.170 HD
HETATM    6  C12 UNL     1      18.175  22.634  -8.120  1.00  0.00     0.326 A 
HETATM    7  O1  UNL     1      18.933  23.413  -8.756  1.00  0.00    -0.247 OA
HETATM    8  N4  UNL     1      16.873  22.865  -7.961  1.00  0.00    -0.295 N 
ATOM      9  H4  UNL     1      16.477  23.710  -8.374  1.00  0.00     0.172 HD
ENDROOT
BRANCH   3  10
HETATM   10  C7  UNL     1      18.578  19.440  -6.314  1.00  0.00    -0.007 A 
HETATM   11  C8  UNL     1      19.527  18.675  -6.972  1.00  0.00     0.030 A 
HETATM   12  C9  UNL     1      20.058  17.530  -6.363  1.00  0.00     0.088 A 
HETATM   13  N2  UNL     1      19.678  17.139  -5.150  1.00  0.00    -0.375 N 
HETATM   14  C10 UNL     1      18.772  17.845  -4.487  1.00  0.00     0.088 A 
ATOM     15  H2  UNL     1      20.082  16.301  -4.732  1.00  0.00     0.164 HD
HETATM   16  C11 UNL     1      18.228  18.983  -5.063  1.00  0.00     0.030 A 
ENDBRANCH   3  10
BRANCH   1  17
HETATM   17  N1  UNL     1      14.829  22.335  -7.179  1.00  0.00    -0.373 N 
ATOM     18  H1  UNL     1      14.589  23.150  -6.613  1.00  0.00     0.161 HD
BRANCH  17  19
HETATM   19  C3  UNL     1      13.743  21.612  -7.792  1.00  0.00     0.147 C 
BRANCH  19  20
HETATM   20  C2  UNL     1      13.758  21.723  -9.273  1.00  0.00    -0.018 C 
HETATM   21  C1  UNL     1      13.590  22.851  -9.927  1.00  0.00     0.008 C 
ENDBRANCH  19  20
ENDBRANCH  17  19
ENDBRANCH   1  17
TORSDOF 4
ENDMDL
MODEL 4
REMARK VINA RESULT: -6.559844626      1.466      5.428
REMARK  4 active torsions:
REMARK  status: ('A' for Active; 'I' for Inactive)
REMARK    1  A    between atoms: C2_2  and  C3_3 
REMARK    2  A    between atoms: C3_3  and  N1_4 
REMARK    3  A    between atoms: N1_4  and  C4_6 
REMARK    4  A    between atoms: C6_8  and  C7_9 
ROOT
HETATM    1  C4  UNL     1      16.011  22.027  -7.322  1.00  0.00     0.107 A 
HETATM    2  C5  UNL     1      16.577  20.886  -6.752  1.00  0.00     0.078 A 
HETATM    3  C6  UNL     1      17.943  20.650  -6.883  1.00  0.00     0.050 A 
HETATM    4  N3  UNL     1      18.706  21.518  -7.554  1.00  0.00    -0.308 N 
ATOM      5  H3  UNL     1      19.707  21.349  -7.651  1.00  0.00     0.170 HD
HETATM    6  C12 UNL     1      18.143  22.634  -8.110  1.00  0.00     0.326 A 
HETATM    7  O1  UNL     1      18.909  23.417  -8.732  1.00  0.00    -0.247 OA
HETATM    8  N4  UNL     1      16.836  22.855  -7.983  1.00  0.00    -0.295 N 
ATOM      9  H4  UNL     1      16.442  23.694  -8.409  1.00  0.00     0.172 HD
ENDROOT
BRANCH   3  10
HETATM   10  C7  UNL     1      18.531  19.451  -6.281  1.00  0.00    -0.007 A 
HETATM   11  C8  UNL     1      18.180  18.993  -5.023  1.00  0.00     0.030 A 
HETATM   12  C9  UNL     1      18.777  17.839  -4.499  1.00  0.00     0.088 A 
HETATM   13  N2  UNL     1      19.688  17.149  -5.179  1.00  0.00    -0.375 N 
HETATM   14  C10 UNL     1      20.051  17.554  -6.388  1.00  0.00     0.088 A 
ATOM     15  H2  UNL     1      20.106  16.312  -4.772  1.00  0.00     0.164 HD
HETATM   16  C11 UNL     1      19.478  18.694  -6.933  1.00  0.00     0.030 A 
ENDBRANCH   3  10
BRANCH   1  17
HETATM   17  N1  UNL     1      14.778  22.310  -7.247  1.00  0.00    -0.373 N 
ATOM     18  H1  UNL     1      14.517  23.119  -6.683  1.00  0.00     0.161 HD
BRANCH  17  19
HETATM   19  C3  UNL     1      13.714  21.583  -7.894  1.00  0.00     0.147 C 
BRANCH  19  20
HETATM   20  C2  UNL     1      13.733  21.752  -9.369  1.00  0.00    -0.018 C 
HETATM   21  C1  UNL     1      13.558  22.903  -9.979  1.00  0.00     0.008 C 
ENDBRANCH  19  20
ENDBRANCH  17  19
ENDBRANCH   1  17
TORSDOF 4
ENDMDL
MODEL 5
REMARK VINA RESULT: -6.553486478      2.361      2.715
REMARK  4 active torsions:
REMARK  status: ('A' for Active; 'I' for Inactive)
REMARK    1  A    between atoms: C2_2  and  C3_3 
REMARK    2  A    between atoms: C3_3  and  N1_4 
REMARK    3  A    between atoms: N1_4  and  C4_6 
REMARK    4  A    between atoms: C6_8  and  C7_9 
ROOT
HETATM    1  C4  UNL     1      18.547  21.249  -5.834  1.00  0.00     0.107 A 
HETATM    2  C5  UNL     1      17.423  21.480  -6.627  1.00  0.00     0.078 A 
HETATM    3  C6  UNL     1      16.150  21.382  -6.071  1.00  0.00     0.050 A 
HETATM    4  N3  UNL     1      16.011  21.068  -4.779  1.00  0.00    -0.308 N 
ATOM      5  H3  UNL     1      15.081  20.997  -4.368  1.00  0.00     0.170 HD
HETATM    6  C12 UNL     1      17.119  20.842  -4.009  1.00  0.00     0.326 A 
HETATM    7  O1  UNL     1      16.929  20.549  -2.798  1.00  0.00    -0.247 OA
HETATM    8  N4  UNL     1      18.334  20.936  -4.546  1.00  0.00    -0.295 N 
ATOM      9  H4  UNL     1      19.143  20.762  -3.948  1.00  0.00     0.172 HD
ENDROOT
BRANCH   3  10
HETATM   10  C7  UNL     1      14.974  21.627  -6.909  1.00  0.00    -0.007 A 
HETATM   11  C8  UNL     1      13.677  21.497  -6.441  1.00  0.00     0.030 A 
HETATM   12  C9  UNL     1      12.591  21.745  -7.289  1.00  0.00     0.088 A 
HETATM   13  N2  UNL     1      12.759  22.110  -8.557  1.00  0.00    -0.375 N 
HETATM   14  C10 UNL     1      13.985  22.246  -9.044  1.00  0.00     0.088 A 
ATOM     15  H2  UNL     1      11.949  22.284  -9.152  1.00  0.00     0.164 HD
HETATM   16  C11 UNL     1      15.081  22.007  -8.228  1.00  0.00     0.030 A 
ENDBRANCH   3  10
BRANCH   1  17
HETATM   17  N1  UNL     1      19.736  21.318  -6.266  1.00  0.00    -0.373 N 
ATOM     18  H1  UNL     1      20.239  22.192  -6.116  1.00  0.00     0.161 HD
BRANCH  17  19
HETATM   19  C3  UNL     1      20.436  20.262  -6.954  1.00  0.00     0.147 C 
BRANCH  19  20
HETATM   20  C2  UNL     1      20.478  20.478  -8.423  1.00  0.00    -0.018 C 
HETATM   21  C1  UNL     1      19.577  20.015  -9.260  1.00  0.00     0.008 C 
ENDBRANCH  19  20
ENDBRANCH  17  19
ENDBRANCH   1  17
TORSDOF 4
ENDMDL
