MODEL 1
REMARK VINA RESULT: -9.925894031      0.000      0.000
REMARK  2 active torsions:
REMARK  status: ('A' for Active; 'I' for Inactive)
REMARK    1  A    between atoms: N1_1  and  C1_4 
REMARK    2  A    between atoms: C3_10  and  C4_11 
ROOT
HETATM    1  C4  UNL     1      12.096  -0.943  17.265  1.00  0.00    -0.020 A 
HETATM    2  C5  UNL     1      10.904  -1.550  17.669  1.00  0.00     0.013 A 
HETATM    3  C6  UNL     1      10.109  -0.997  18.655  1.00  0.00     0.018 A 
HETATM    4  C7  UNL     1      10.491   0.180  19.261  1.00  0.00     0.040 A 
HETATM    5  C8  UNL     1      11.666   0.822  18.893  1.00  0.00     0.031 A 
HETATM    6  C9  UNL     1      12.423   0.233  17.909  1.00  0.00     0.029 A 
HETATM    7  C10 UNL     1      12.249   2.061  19.402  1.00  0.00     0.194 C 
HETATM    8  O1  UNL     1      12.967   2.667  18.567  1.00  0.00    -0.287 OA
HETATM    9  C11 UNL     1      12.136   2.695  20.698  1.00  0.00     0.037 A 
HETATM   10  C12 UNL     1      13.191   3.540  20.990  1.00  0.00     0.017 A 
HETATM   11  C13 UNL     1      13.238   4.223  22.185  1.00  0.00     0.001 A 
HETATM   12  C14 UNL     1      12.251   4.103  23.138  1.00  0.00     0.002 A 
HETATM   13  C15 UNL     1      11.200   3.264  22.850  1.00  0.00     0.025 A 
HETATM   14  C16 UNL     1      11.141   2.561  21.634  1.00  0.00     0.081 A 
HETATM   15  S1  UNL     1       9.682   1.623  21.645  1.00  0.00     0.246 S 
HETATM   16  O2  UNL     1       9.634   0.842  22.939  1.00  0.00    -0.214 OA
HETATM   17  O3  UNL     1       8.485   2.563  21.679  1.00  0.00    -0.214 OA
HETATM   18  C17 UNL     1       9.535   0.608  20.261  1.00  0.00     0.281 C 
HETATM   19  O4  UNL     1       8.360   0.157  20.107  1.00  0.00    -0.274 OA
ENDROOT
BRANCH   1  20
HETATM   20  C3  UNL     1      12.926  -1.545  16.227  1.00  0.00     0.036 A 
HETATM   21  C1  UNL     1      14.067  -2.298  16.310  1.00  0.00     0.126 A 
HETATM   22  N2  UNL     1      14.486  -2.653  15.065  1.00  0.00    -0.285 N 
HETATM   23  N3  UNL     1      13.626  -2.133  14.205  1.00  0.00    -0.309 N 
ATOM     24  H2  UNL     1      15.308  -3.213  14.839  1.00  0.00     0.188 HD
HETATM   25  C2  UNL     1      12.657  -1.449  14.861  1.00  0.00     0.123 A 
ATOM     26  H3  UNL     1      13.684  -2.233  13.192  1.00  0.00     0.186 HD
BRANCH  21  27
HETATM   27  N1  UNL     1      14.656  -2.619  17.400  1.00  0.00    -0.384 N 
ATOM     28  H12 UNL     1      15.626  -2.928  17.470  1.00  0.00     0.157 HD
ATOM     29  H11 UNL     1      14.223  -2.605  18.324  1.00  0.00     0.157 HD
ENDBRANCH  21  27
ENDBRANCH   1  20
TORSDOF 2
ENDMDL
MODEL 2
REMARK VINA RESULT: -9.697106931      4.694      7.103
REMARK  2 active torsions:
REMARK  status: ('A' for Active; 'I' for Inactive)
REMARK    1  A    between atoms: N1_1  and  C1_4 
REMARK    2  A    between atoms: C3_10  and  C4_11 
ROOT
HETATM    1  C4  UNL     1      11.076   2.408  23.143  1.00  0.00    -0.020 A 
HETATM    2  C5  UNL     1       9.803   1.832  23.105  1.00  0.00     0.013 A 
HETATM    3  C6  UNL     1       9.496   0.817  22.219  1.00  0.00     0.018 A 
HETATM    4  C7  UNL     1      10.458   0.355  21.348  1.00  0.00     0.040 A 
HETATM    5  C8  UNL     1      11.737   0.895  21.347  1.00  0.00     0.031 A 
HETATM    6  C9  UNL     1      11.995   1.902  22.246  1.00  0.00     0.029 A 
HETATM    7  C10 UNL     1      12.890   0.557  20.517  1.00  0.00     0.194 C 
HETATM    8  O1  UNL     1      13.998   0.785  21.067  1.00  0.00    -0.287 OA
HETATM    9  C11 UNL     1      12.963   0.010  19.179  1.00  0.00     0.037 A 
HETATM   10  C12 UNL     1      14.151   0.298  18.532  1.00  0.00     0.017 A 
HETATM   11  C13 UNL     1      14.382  -0.149  17.250  1.00  0.00     0.001 A 
HETATM   12  C14 UNL     1      13.456  -0.895  16.555  1.00  0.00     0.002 A 
HETATM   13  C15 UNL     1      12.274  -1.183  17.197  1.00  0.00     0.025 A 
HETATM   14  C16 UNL     1      12.026  -0.732  18.505  1.00  0.00     0.081 A 
HETATM   15  S1  UNL     1      10.449  -1.293  18.959  1.00  0.00     0.246 S 
HETATM   16  O2  UNL     1       9.480  -0.911  17.863  1.00  0.00    -0.214 OA
HETATM   17  O3  UNL     1      10.453  -2.815  19.002  1.00  0.00    -0.214 OA
HETATM   18  C17 UNL     1       9.955  -0.709  20.502  1.00  0.00     0.281 C 
HETATM   19  O4  UNL     1       8.961  -1.341  20.971  1.00  0.00    -0.274 OA
ENDROOT
BRANCH   1  20
HETATM   20  C3  UNL     1      11.380   3.483  24.081  1.00  0.00     0.036 A 
HETATM   21  C1  UNL     1      11.346   3.522  25.449  1.00  0.00     0.126 A 
HETATM   22  N2  UNL     1      11.726   4.750  25.894  1.00  0.00    -0.285 N 
HETATM   23  N3  UNL     1      11.997   5.481  24.826  1.00  0.00    -0.309 N 
ATOM     24  H2  UNL     1      11.790   5.049  26.867  1.00  0.00     0.188 HD
HETATM   25  C2  UNL     1      11.802   4.756  23.696  1.00  0.00     0.123 A 
ATOM     26  H3  UNL     1      12.309   6.452  24.849  1.00  0.00     0.186 HD
BRANCH  21  27
HETATM   27  N1  UNL     1      11.002   2.545  26.202  1.00  0.00    -0.384 N 
ATOM     28  H12 UNL     1      10.859   2.606  27.210  1.00  0.00     0.157 HD
ATOM     29  H11 UNL     1      10.834   1.591  25.880  1.00  0.00     0.157 HD
ENDBRANCH  21  27
ENDBRANCH   1  20
TORSDOF 2
ENDMDL
MODEL 3
REMARK VINA RESULT: -9.598713108      4.827      7.628
REMARK  2 active torsions:
REMARK  status: ('A' for Active; 'I' for Inactive)
REMARK    1  A    between atoms: N1_1  and  C1_4 
REMARK    2  A    between atoms: C3_10  and  C4_11 
ROOT
HETATM    1  C4  UNL     1      11.197   3.998  23.874  1.00  0.00    -0.020 A 
HETATM    2  C5  UNL     1      10.108   3.163  24.138  1.00  0.00     0.013 A 
HETATM    3  C6  UNL     1       9.935   1.967  23.470  1.00  0.00     0.018 A 
HETATM    4  C7  UNL     1      10.853   1.577  22.518  1.00  0.00     0.040 A 
HETATM    5  C8  UNL     1      11.952   2.371  22.221  1.00  0.00     0.031 A 
HETATM    6  C9  UNL     1      12.080   3.552  22.912  1.00  0.00     0.029 A 
HETATM    7  C10 UNL     1      13.028   2.149  21.260  1.00  0.00     0.194 C 
HETATM    8  O1  UNL     1      14.113   2.703  21.571  1.00  0.00    -0.287 OA
HETATM    9  C11 UNL     1      13.048   1.403  20.019  1.00  0.00     0.037 A 
HETATM   10  C12 UNL     1      14.032   1.822  19.142  1.00  0.00     0.017 A 
HETATM   11  C13 UNL     1      14.187   1.216  17.914  1.00  0.00     0.001 A 
HETATM   12  C14 UNL     1      13.382   0.178  17.502  1.00  0.00     0.002 A 
HETATM   13  C15 UNL     1      12.403  -0.240  18.372  1.00  0.00     0.025 A 
HETATM   14  C16 UNL     1      12.234   0.370  19.628  1.00  0.00     0.081 A 
HETATM   15  S1  UNL     1      10.915  -0.429  20.422  1.00  0.00     0.246 S 
HETATM   16  O2  UNL     1       9.743  -0.464  19.468  1.00  0.00    -0.214 OA
HETATM   17  O3  UNL     1      11.292  -1.882  20.676  1.00  0.00    -0.214 OA
HETATM   18  C17 UNL     1      10.511   0.298  21.930  1.00  0.00     0.281 C 
HETATM   19  O4  UNL     1       9.771  -0.442  22.648  1.00  0.00    -0.274 OA
ENDROOT
BRANCH   1  20
HETATM   20  C3  UNL     1      11.359   5.261  24.586  1.00  0.00     0.036 A 
HETATM   21  C1  UNL     1      10.878   6.515  24.316  1.00  0.00     0.126 A 
HETATM   22  N2  UNL     1      11.282   7.389  25.276  1.00  0.00    -0.285 N 
HETATM   23  N3  UNL     1      12.010   6.704  26.142  1.00  0.00    -0.309 N 
ATOM     24  H2  UNL     1      11.066   8.385  25.319  1.00  0.00     0.188 HD
HETATM   25  C2  UNL     1      12.087   5.403  25.767  1.00  0.00     0.123 A 
ATOM     26  H3  UNL     1      12.450   7.098  26.973  1.00  0.00     0.186 HD
BRANCH  21  27
HETATM   27  N1  UNL     1      10.154   6.821  23.304  1.00  0.00    -0.384 N 
ATOM     28  H12 UNL     1       9.387   6.255  22.942  1.00  0.00     0.157 HD
ATOM     29  H11 UNL     1      10.265   7.666  22.742  1.00  0.00     0.157 HD
ENDBRANCH  21  27
ENDBRANCH   1  20
TORSDOF 2
ENDMDL
MODEL 4
REMARK VINA RESULT: -9.474624395      5.109      7.700
REMARK  2 active torsions:
REMARK  status: ('A' for Active; 'I' for Inactive)
REMARK    1  A    between atoms: N1_1  and  C1_4 
REMARK    2  A    between atoms: C3_10  and  C4_11 
ROOT
HETATM    1  C4  UNL     1      11.095   4.329  23.930  1.00  0.00    -0.020 A 
HETATM    2  C5  UNL     1      10.053   3.450  24.243  1.00  0.00     0.013 A 
HETATM    3  C6  UNL     1       9.920   2.232  23.607  1.00  0.00     0.018 A 
HETATM    4  C7  UNL     1      10.830   1.863  22.639  1.00  0.00     0.040 A 
HETATM    5  C8  UNL     1      11.882   2.699  22.295  1.00  0.00     0.031 A 
HETATM    6  C9  UNL     1      11.972   3.901  22.955  1.00  0.00     0.029 A 
HETATM    7  C10 UNL     1      12.943   2.505  21.310  1.00  0.00     0.194 C 
HETATM    8  O1  UNL     1      14.008   3.117  21.579  1.00  0.00    -0.287 OA
HETATM    9  C11 UNL     1      12.965   1.732  20.086  1.00  0.00     0.037 A 
HETATM   10  C12 UNL     1      13.905   2.175  19.174  1.00  0.00     0.017 A 
HETATM   11  C13 UNL     1      14.056   1.548  17.956  1.00  0.00     0.001 A 
HETATM   12  C14 UNL     1      13.291   0.464  17.589  1.00  0.00     0.002 A 
HETATM   13  C15 UNL     1      12.356   0.021  18.495  1.00  0.00     0.025 A 
HETATM   14  C16 UNL     1      12.191   0.653  19.741  1.00  0.00     0.081 A 
HETATM   15  S1  UNL     1      10.933  -0.188  20.587  1.00  0.00     0.246 S 
HETATM   16  O2  UNL     1       9.739  -0.300  19.667  1.00  0.00    -0.214 OA
HETATM   17  O3  UNL     1      11.384  -1.615  20.864  1.00  0.00    -0.214 OA
HETATM   18  C17 UNL     1      10.533   0.555  22.090  1.00  0.00     0.281 C 
HETATM   19  O4  UNL     1       9.848  -0.200  22.843  1.00  0.00    -0.274 OA
ENDROOT
BRANCH   1  20
HETATM   20  C3  UNL     1      11.214   5.615  24.608  1.00  0.00     0.036 A 
HETATM   21  C1  UNL     1      11.699   5.939  25.848  1.00  0.00     0.126 A 
HETATM   22  N2  UNL     1      11.620   7.281  26.047  1.00  0.00    -0.285 N 
HETATM   23  N3  UNL     1      11.092   7.804  24.952  1.00  0.00    -0.309 N 
ATOM     24  H2  UNL     1      11.912   7.789  26.882  1.00  0.00     0.188 HD
HETATM   25  C2  UNL     1      10.826   6.831  24.046  1.00  0.00     0.123 A 
ATOM     26  H3  UNL     1      10.910   8.798  24.811  1.00  0.00     0.186 HD
BRANCH  21  27
HETATM   27  N1  UNL     1      12.158   5.098  26.698  1.00  0.00    -0.384 N 
ATOM     28  H12 UNL     1      11.730   4.888  27.600  1.00  0.00     0.157 HD
ATOM     29  H11 UNL     1      13.006   4.544  26.572  1.00  0.00     0.157 HD
ENDBRANCH  21  27
ENDBRANCH   1  20
TORSDOF 2
ENDMDL
MODEL 5
REMARK VINA RESULT: -9.466583048      4.323      7.105
REMARK  2 active torsions:
REMARK  status: ('A' for Active; 'I' for Inactive)
REMARK    1  A    between atoms: N1_1  and  C1_4 
REMARK    2  A    between atoms: C3_10  and  C4_11 
ROOT
HETATM    1  C4  UNL     1      10.998   2.501  23.074  1.00  0.00    -0.020 A 
HETATM    2  C5  UNL     1       9.757   1.857  23.097  1.00  0.00     0.013 A 
HETATM    3  C6  UNL     1       9.481   0.789  22.266  1.00  0.00     0.018 A 
HETATM    4  C7  UNL     1      10.445   0.339  21.389  1.00  0.00     0.040 A 
HETATM    5  C8  UNL     1      11.692   0.944  21.329  1.00  0.00     0.031 A 
HETATM    6  C9  UNL     1      11.919   2.003  22.176  1.00  0.00     0.029 A 
HETATM    7  C10 UNL     1      12.840   0.629  20.483  1.00  0.00     0.194 C 
HETATM    8  O1  UNL     1      13.949   0.939  20.991  1.00  0.00    -0.287 OA
HETATM    9  C11 UNL     1      12.908   0.027  19.169  1.00  0.00     0.037 A 
HETATM   10  C12 UNL     1      14.062   0.346  18.477  1.00  0.00     0.017 A 
HETATM   11  C13 UNL     1      14.283  -0.146  17.210  1.00  0.00     0.001 A 
HETATM   12  C14 UNL     1      13.382  -0.970  16.575  1.00  0.00     0.002 A 
HETATM   13  C15 UNL     1      12.234  -1.289  17.261  1.00  0.00     0.025 A 
HETATM   14  C16 UNL     1      11.995  -0.793  18.555  1.00  0.00     0.081 A 
HETATM   15  S1  UNL     1      10.462  -1.414  19.076  1.00  0.00     0.246 S 
HETATM   16  O2  UNL     1       9.446  -1.133  17.992  1.00  0.00    -0.214 OA
HETATM   17  O3  UNL     1      10.549  -2.930  19.186  1.00  0.00    -0.214 OA
HETATM   18  C17 UNL     1       9.978  -0.787  20.606  1.00  0.00     0.281 C 
HETATM   19  O4  UNL     1       9.031  -1.448  21.129  1.00  0.00    -0.274 OA
ENDROOT
BRANCH   1  20
HETATM   20  C3  UNL     1      11.268   3.632  23.955  1.00  0.00     0.036 A 
HETATM   21  C1  UNL     1      11.402   4.969  23.690  1.00  0.00     0.126 A 
HETATM   22  N2  UNL     1      11.641   5.654  24.840  1.00  0.00    -0.285 N 
HETATM   23  N3  UNL     1      11.660   4.767  25.822  1.00  0.00    -0.309 N 
ATOM     24  H2  UNL     1      11.780   6.661  24.929  1.00  0.00     0.188 HD
HETATM   25  C2  UNL     1      11.438   3.521  25.336  1.00  0.00     0.123 A 
ATOM     26  H3  UNL     1      11.819   4.990  26.804  1.00  0.00     0.186 HD
BRANCH  21  27
HETATM   27  N1  UNL     1      11.318   5.498  22.527  1.00  0.00    -0.384 N 
ATOM     28  H12 UNL     1      12.029   6.094  22.104  1.00  0.00     0.157 HD
ATOM     29  H11 UNL     1      10.528   5.385  21.890  1.00  0.00     0.157 HD
ENDBRANCH  21  27
ENDBRANCH   1  20
TORSDOF 2
ENDMDL
