MODEL 1
REMARK VINA RESULT: -9.187153287      0.000      0.000
REMARK  3 active torsions:
REMARK  status: ('A' for Active; 'I' for Inactive)
REMARK    1  A    between atoms: O1_2  and  C2_3 
REMARK    2  A    between atoms: C6_9  and  N2_10 
REMARK    3  A    between atoms: N2_10  and  C7_12 
ROOT
HETATM    1  N2  UNL     1       9.563   3.457  20.725  1.00  0.00    -0.021 N 
ATOM      2  H2  UNL     1       8.956   4.159  20.303  1.00  0.00     0.203 HD
ENDROOT
BRANCH   1   3
HETATM    3  C6  UNL     1       9.925   3.569  21.965  1.00  0.00     0.698 A 
HETATM    4  N1  UNL     1       9.626   2.665  22.907  1.00  0.00    -0.189 N 
HETATM    5  C5  UNL     1      10.137   3.054  24.094  1.00  0.00     0.076 A 
ATOM      6  H1  UNL     1       9.093   1.810  22.751  1.00  0.00     0.184 HD
HETATM    7  C4  UNL     1      10.137   2.527  25.370  1.00  0.00     0.035 A 
HETATM    8  C14 UNL     1      10.785   4.254  23.889  1.00  0.00     0.079 A 
HETATM    9  C3  UNL     1      10.769   3.174  26.435  1.00  0.00     0.039 A 
HETATM   10  C2  UNL     1      11.416   4.374  26.231  1.00  0.00     0.070 A 
HETATM   11  C15 UNL     1      11.404   4.880  24.951  1.00  0.00     0.069 A 
HETATM   12  N5  UNL     1      10.629   4.528  22.575  1.00  0.00    -0.189 N 
ATOM     13  H5  UNL     1      10.999   5.357  22.110  1.00  0.00     0.184 HD
BRANCH  10  14
HETATM   14  O1  UNL     1      12.040   5.009  27.292  1.00  0.00    -0.356 OA
HETATM   15  C1  UNL     1      11.301   5.306  28.459  1.00  0.00     0.210 C 
ENDBRANCH  10  14
ENDBRANCH   1   3
BRANCH   1  16
HETATM   16  C7  UNL     1      10.025   2.331  19.945  1.00  0.00     0.707 A 
HETATM   17  N3  UNL     1       9.215   1.392  19.715  1.00  0.00    -0.112 N 
HETATM   18  S1  UNL     1       9.664   0.019  18.806  1.00  0.00     0.278 S 
ATOM     19  H3  UNL     1       8.265   1.454  20.083  1.00  0.00     0.197 HD
HETATM   20  O2  UNL     1       9.456  -1.241  19.597  1.00  0.00    -0.200 OA
HETATM   21  O3  UNL     1       8.821  -0.049  17.544  1.00  0.00    -0.200 OA
HETATM   22  C8  UNL     1      11.328   0.216  18.331  1.00  0.00     0.107 A 
HETATM   23  C9  UNL     1      11.985  -0.720  17.589  1.00  0.00     0.028 A 
HETATM   24  C13 UNL     1      11.992   1.358  18.725  1.00  0.00     0.072 A 
HETATM   25  C10 UNL     1      13.318  -0.540  17.221  1.00  0.00     0.002 A 
HETATM   26  C11 UNL     1      13.989   0.578  17.598  1.00  0.00     0.002 A 
HETATM   27  C12 UNL     1      13.337   1.533  18.349  1.00  0.00     0.031 A 
HETATM   28  N4  UNL     1      11.349   2.349  19.492  1.00  0.00    -0.189 N 
ATOM     29  H4  UNL     1      11.907   3.165  19.743  1.00  0.00     0.184 HD
ENDBRANCH   1  16
TORSDOF 3
ENDMDL
MODEL 2
REMARK VINA RESULT: -9.137399473      0.523      1.228
REMARK  3 active torsions:
REMARK  status: ('A' for Active; 'I' for Inactive)
REMARK    1  A    between atoms: O1_2  and  C2_3 
REMARK    2  A    between atoms: C6_9  and  N2_10 
REMARK    3  A    between atoms: N2_10  and  C7_12 
ROOT
HETATM    1  N2  UNL     1       9.459   3.466  20.625  1.00  0.00    -0.021 N 
ATOM      2  H2  UNL     1       8.788   4.108  20.206  1.00  0.00     0.203 HD
ENDROOT
BRANCH   1   3
HETATM    3  C6  UNL     1       9.880   3.661  21.836  1.00  0.00     0.698 A 
HETATM    4  N1  UNL     1      10.885   4.491  22.144  1.00  0.00    -0.189 N 
HETATM    5  C5  UNL     1      11.093   4.484  23.478  1.00  0.00     0.076 A 
ATOM      6  H1  UNL     1      11.415   5.045  21.472  1.00  0.00     0.184 HD
HETATM    7  C4  UNL     1      11.971   5.129  24.326  1.00  0.00     0.035 A 
HETATM    8  C14 UNL     1      10.178   3.614  24.031  1.00  0.00     0.079 A 
HETATM    9  C3  UNL     1      11.950   4.917  25.707  1.00  0.00     0.039 A 
HETATM   10  C2  UNL     1      11.036   4.047  26.261  1.00  0.00     0.070 A 
HETATM   11  C15 UNL     1      10.171   3.416  25.396  1.00  0.00     0.069 A 
HETATM   12  N5  UNL     1       9.460   3.135  22.991  1.00  0.00    -0.189 N 
ATOM     13  H5  UNL     1       8.698   2.462  23.075  1.00  0.00     0.184 HD
BRANCH  10  14
HETATM   14  O1  UNL     1      11.022   3.843  27.631  1.00  0.00    -0.356 OA
HETATM   15  C1  UNL     1      11.224   4.938  28.501  1.00  0.00     0.210 C 
ENDBRANCH  10  14
ENDBRANCH   1   3
BRANCH   1  16
HETATM   16  C7  UNL     1       9.947   2.331  19.874  1.00  0.00     0.707 A 
HETATM   17  N3  UNL     1       9.155   1.372  19.660  1.00  0.00    -0.112 N 
HETATM   18  S1  UNL     1       9.635  -0.013  18.785  1.00  0.00     0.278 S 
ATOM     19  H3  UNL     1       8.202   1.426  20.019  1.00  0.00     0.197 HD
HETATM   20  O2  UNL     1       9.444  -1.258  19.603  1.00  0.00    -0.200 OA
HETATM   21  O3  UNL     1       8.803  -0.123  17.519  1.00  0.00    -0.200 OA
HETATM   22  C8  UNL     1      11.299   0.204  18.317  1.00  0.00     0.107 A 
HETATM   23  C9  UNL     1      11.978  -0.736  17.601  1.00  0.00     0.028 A 
HETATM   24  C13 UNL     1      11.940   1.366  18.690  1.00  0.00     0.072 A 
HETATM   25  C10 UNL     1      13.310  -0.541  17.239  1.00  0.00     0.002 A 
HETATM   26  C11 UNL     1      13.959   0.597  17.595  1.00  0.00     0.002 A 
HETATM   27  C12 UNL     1      13.285   1.557  18.320  1.00  0.00     0.031 A 
HETATM   28  N4  UNL     1      11.274   2.362  19.430  1.00  0.00    -0.189 N 
ATOM     29  H4  UNL     1      11.815   3.194  19.667  1.00  0.00     0.184 HD
ENDBRANCH   1  16
TORSDOF 3
ENDMDL
MODEL 3
REMARK VINA RESULT: -9.066020504      1.459      1.535
REMARK  3 active torsions:
REMARK  status: ('A' for Active; 'I' for Inactive)
REMARK    1  A    between atoms: O1_2  and  C2_3 
REMARK    2  A    between atoms: C6_9  and  N2_10 
REMARK    3  A    between atoms: N2_10  and  C7_12 
ROOT
HETATM    1  N2  UNL     1      10.880   3.307  21.075  1.00  0.00    -0.021 N 
ATOM      2  H2  UNL     1      10.958   4.143  20.496  1.00  0.00     0.203 HD
ENDROOT
BRANCH   1   3
HETATM    3  C6  UNL     1      10.910   3.404  22.368  1.00  0.00     0.698 A 
HETATM    4  N1  UNL     1      10.260   2.568  23.187  1.00  0.00    -0.189 N 
HETATM    5  C5  UNL     1      10.482   2.920  24.471  1.00  0.00     0.076 A 
ATOM      6  H1  UNL     1       9.684   1.782  22.886  1.00  0.00     0.184 HD
HETATM    7  C4  UNL     1      10.076   2.428  25.696  1.00  0.00     0.035 A 
HETATM    8  C14 UNL     1      11.307   4.024  24.458  1.00  0.00     0.079 A 
HETATM    9  C3  UNL     1      10.478   3.018  26.897  1.00  0.00     0.039 A 
HETATM   10  C2  UNL     1      11.302   4.122  26.884  1.00  0.00     0.070 A 
HETATM   11  C15 UNL     1      11.695   4.595  25.652  1.00  0.00     0.069 A 
HETATM   12  N5  UNL     1      11.542   4.283  23.152  1.00  0.00    -0.189 N 
ATOM     13  H5  UNL     1      12.124   5.048  22.811  1.00  0.00     0.184 HD
BRANCH  10  14
HETATM   14  O1  UNL     1      11.696   4.701  28.079  1.00  0.00    -0.356 OA
HETATM   15  C1  UNL     1      11.001   5.829  28.570  1.00  0.00     0.210 C 
ENDBRANCH  10  14
ENDBRANCH   1   3
BRANCH   1  16
HETATM   16  C7  UNL     1      10.734   2.008  20.460  1.00  0.00     0.707 A 
HETATM   17  N3  UNL     1       9.633   1.727  19.911  1.00  0.00    -0.112 N 
HETATM   18  S1  UNL     1       9.361   0.219  19.158  1.00  0.00     0.278 S 
ATOM     19  H3  UNL     1       8.885   2.420  19.917  1.00  0.00     0.197 HD
HETATM   20  O2  UNL     1       8.174  -0.476  19.762  1.00  0.00    -0.200 OA
HETATM   21  O3  UNL     1       9.104   0.434  17.676  1.00  0.00    -0.200 OA
HETATM   22  C8  UNL     1      10.815  -0.726  19.320  1.00  0.00     0.107 A 
HETATM   23  C9  UNL     1      10.916  -1.989  18.819  1.00  0.00     0.028 A 
HETATM   24  C13 UNL     1      11.890  -0.170  19.979  1.00  0.00     0.072 A 
HETATM   25  C10 UNL     1      12.091  -2.727  18.961  1.00  0.00     0.002 A 
HETATM   26  C11 UNL     1      13.161  -2.197  19.606  1.00  0.00     0.002 A 
HETATM   27  C12 UNL     1      13.073  -0.920  20.119  1.00  0.00     0.031 A 
HETATM   28  N4  UNL     1      11.825   1.133  20.512  1.00  0.00    -0.189 N 
ATOM     29  H4  UNL     1      12.662   1.475  20.985  1.00  0.00     0.184 HD
ENDBRANCH   1  16
TORSDOF 3
ENDMDL
MODEL 4
REMARK VINA RESULT: -9.054538384      2.238      3.056
REMARK  3 active torsions:
REMARK  status: ('A' for Active; 'I' for Inactive)
REMARK    1  A    between atoms: O1_2  and  C2_3 
REMARK    2  A    between atoms: C6_9  and  N2_10 
REMARK    3  A    between atoms: N2_10  and  C7_12 
ROOT
HETATM    1  N2  UNL     1      10.077   1.687  24.159  1.00  0.00    -0.021 N 
ATOM      2  H2  UNL     1       9.742   0.776  24.471  1.00  0.00     0.203 HD
ENDROOT
BRANCH   1   3
HETATM    3  C6  UNL     1      10.246   2.647  25.014  1.00  0.00     0.698 A 
HETATM    4  N1  UNL     1      11.037   2.547  26.091  1.00  0.00    -0.189 N 
HETATM    5  C5  UNL     1      11.011   3.703  26.788  1.00  0.00     0.076 A 
ATOM      6  H1  UNL     1      11.578   1.722  26.346  1.00  0.00     0.184 HD
HETATM    7  C4  UNL     1      11.615   4.152  27.944  1.00  0.00     0.035 A 
HETATM    8  C14 UNL     1      10.168   4.566  26.120  1.00  0.00     0.079 A 
HETATM    9  C3  UNL     1      11.393   5.439  28.440  1.00  0.00     0.039 A 
HETATM   10  C2  UNL     1      10.550   6.302  27.774  1.00  0.00     0.070 A 
HETATM   11  C15 UNL     1       9.959   5.833  26.623  1.00  0.00     0.069 A 
HETATM   12  N5  UNL     1       9.725   3.878  25.044  1.00  0.00    -0.189 N 
ATOM     13  H5  UNL     1       9.079   4.248  24.347  1.00  0.00     0.184 HD
BRANCH  10  14
HETATM   14  O1  UNL     1      10.334   7.576  28.273  1.00  0.00    -0.356 OA
HETATM   15  C1  UNL     1      10.345   8.681  27.392  1.00  0.00     0.210 C 
ENDBRANCH  10  14
ENDBRANCH   1   3
BRANCH   1  16
HETATM   16  C7  UNL     1      10.366   1.917  22.762  1.00  0.00     0.707 A 
HETATM   17  N3  UNL     1       9.418   2.267  22.006  1.00  0.00    -0.112 N 
HETATM   18  S1  UNL     1       9.656   2.562  20.342  1.00  0.00     0.278 S 
ATOM     19  H3  UNL     1       8.483   2.376  22.400  1.00  0.00     0.197 HD
HETATM   20  O2  UNL     1       8.763   1.687  19.508  1.00  0.00    -0.200 OA
HETATM   21  O3  UNL     1       9.342   4.017  20.037  1.00  0.00    -0.200 OA
HETATM   22  C8  UNL     1      11.339   2.289  19.988  1.00  0.00     0.107 A 
HETATM   23  C9  UNL     1      11.850   2.443  18.734  1.00  0.00     0.028 A 
HETATM   24  C13 UNL     1      12.172   1.906  21.017  1.00  0.00     0.072 A 
HETATM   25  C10 UNL     1      13.202   2.219  18.476  1.00  0.00     0.002 A 
HETATM   26  C11 UNL     1      14.039   1.841  19.475  1.00  0.00     0.002 A 
HETATM   27  C12 UNL     1      13.536   1.681  20.749  1.00  0.00     0.031 A 
HETATM   28  N4  UNL     1      11.684   1.736  22.328  1.00  0.00    -0.189 N 
ATOM     29  H4  UNL     1      12.362   1.451  23.035  1.00  0.00     0.184 HD
ENDBRANCH   1  16
TORSDOF 3
ENDMDL
MODEL 5
REMARK VINA RESULT: -9.026166393      1.917      2.356
REMARK  3 active torsions:
REMARK  status: ('A' for Active; 'I' for Inactive)
REMARK    1  A    between atoms: O1_2  and  C2_3 
REMARK    2  A    between atoms: C6_9  and  N2_10 
REMARK    3  A    between atoms: N2_10  and  C7_12 
ROOT
HETATM    1  N2  UNL     1      10.087   1.427  23.428  1.00  0.00    -0.021 N 
ATOM      2  H2  UNL     1       9.634   0.746  24.036  1.00  0.00     0.203 HD
ENDROOT
BRANCH   1   3
HETATM    3  C6  UNL     1      10.349   2.619  23.866  1.00  0.00     0.698 A 
HETATM    4  N1  UNL     1      11.245   2.873  24.829  1.00  0.00    -0.189 N 
HETATM    5  C5  UNL     1      11.298   4.200  25.068  1.00  0.00     0.076 A 
ATOM      6  H1  UNL     1      11.803   2.168  25.310  1.00  0.00     0.184 HD
HETATM    7  C4  UNL     1      12.021   5.002  25.928  1.00  0.00     0.035 A 
HETATM    8  C14 UNL     1      10.398   4.807  24.218  1.00  0.00     0.079 A 
HETATM    9  C3  UNL     1      11.859   6.390  25.952  1.00  0.00     0.039 A 
HETATM   10  C2  UNL     1      10.959   6.997  25.104  1.00  0.00     0.070 A 
HETATM   11  C15 UNL     1      10.250   6.177  24.255  1.00  0.00     0.069 A 
HETATM   12  N5  UNL     1       9.843   3.802  23.504  1.00  0.00    -0.189 N 
ATOM     13  H5  UNL     1       9.132   3.930  22.784  1.00  0.00     0.184 HD
BRANCH  10  14
HETATM   14  O1  UNL     1      10.804   8.373  25.134  1.00  0.00    -0.356 OA
HETATM   15  C1  UNL     1      11.757   9.168  25.810  1.00  0.00     0.210 C 
ENDBRANCH  10  14
ENDBRANCH   1   3
BRANCH   1  16
HETATM   16  C7  UNL     1      10.440   1.071  22.072  1.00  0.00     0.707 A 
HETATM   17  N3  UNL     1       9.591   0.446  21.379  1.00  0.00    -0.112 N 
HETATM   18  S1  UNL     1       9.912  -0.020  19.768  1.00  0.00     0.278 S 
ATOM     19  H3  UNL     1       8.688   0.213  21.792  1.00  0.00     0.197 HD
HETATM   20  O2  UNL     1       9.766  -1.506  19.600  1.00  0.00    -0.200 OA
HETATM   21  O3  UNL     1       8.938   0.679  18.836  1.00  0.00    -0.200 OA
HETATM   22  C8  UNL     1      11.520   0.520  19.369  1.00  0.00     0.107 A 
HETATM   23  C9  UNL     1      12.074   0.297  18.144  1.00  0.00     0.028 A 
HETATM   24  C13 UNL     1      12.245   1.190  20.330  1.00  0.00     0.072 A 
HETATM   25  C10 UNL     1      13.363   0.739  17.847  1.00  0.00     0.002 A 
HETATM   26  C11 UNL     1      14.093   1.402  18.780  1.00  0.00     0.002 A 
HETATM   27  C12 UNL     1      13.545   1.634  20.024  1.00  0.00     0.031 A 
HETATM   28  N4  UNL     1      11.708   1.440  21.608  1.00  0.00    -0.189 N 
ATOM     29  H4  UNL     1      12.306   1.943  22.264  1.00  0.00     0.184 HD
ENDBRANCH   1  16
TORSDOF 3
ENDMDL
