MODEL 1
REMARK VINA RESULT: -6.581864902      0.000      0.000
REMARK  5 active torsions:
REMARK  status: ('A' for Active; 'I' for Inactive)
REMARK    1  A    between atoms: C2_2  and  C3_3 
REMARK    2  A    between atoms: C4_4  and  O1_5 
REMARK    3  A    between atoms: C5_7  and  O2_8 
REMARK    4  A    between atoms: C6_10  and  O3_11 
REMARK    5  A    between atoms: C7_13  and  O4_14 
ROOT
HETATM    1  C3  UNL     1     104.714  16.501  18.302  1.00  0.00     0.021 C 
HETATM    2  C4  UNL     1     104.896  16.786  16.858  1.00  0.00     0.154 C 
HETATM    3  C5  UNL     1     105.162  18.270  16.575  1.00  0.00     0.178 C 
HETATM    4  C6  UNL     1     106.648  18.573  16.641  1.00  0.00     0.178 C 
HETATM    5  C7  UNL     1     107.119  18.860  18.036  1.00  0.00     0.154 C 
HETATM    6  C8  UNL     1     106.794  17.630  18.886  1.00  0.00     0.021 C 
HETATM    7  C9  UNL     1     107.551  17.618  20.177  1.00  0.00     0.007 C 
HETATM    8  C10 UNL     1     106.495  17.755  21.255  1.00  0.00     0.001 C 
HETATM    9  C11 UNL     1     105.300  17.060  20.623  1.00  0.00     0.005 C 
HETATM   10  C12 UNL     1     105.334  17.567  19.191  1.00  0.00    -0.001 C 
ENDROOT
BRANCH   1  11
HETATM   11  C2  UNL     1     103.310  16.206  18.727  1.00  0.00     0.003 C 
HETATM   12  C1  UNL     1     103.011  14.790  19.042  1.00  0.00     0.005 C 
ENDBRANCH   1  11
BRANCH   2  13
HETATM   13  O1  UNL     1     103.841  16.324  16.067  1.00  0.00    -0.393 OA
ATOM     14  H1  UNL     1     104.077  16.213  15.154  1.00  0.00     0.210 HD
ENDBRANCH   2  13
BRANCH   3  15
HETATM   15  O2  UNL     1     104.785  18.519  15.234  1.00  0.00    -0.390 OA
ATOM     16  H2  UNL     1     103.943  18.957  15.254  1.00  0.00     0.210 HD
ENDBRANCH   3  15
BRANCH   4  17
HETATM   17  O3  UNL     1     106.964  19.638  15.793  1.00  0.00    -0.390 OA
ATOM     18  H3  UNL     1     107.862  19.915  15.932  1.00  0.00     0.210 HD
ENDBRANCH   4  17
BRANCH   5  19
HETATM   19  O4  UNL     1     108.508  18.948  18.002  1.00  0.00    -0.393 OA
ATOM     20  H4  UNL     1     108.816  18.971  18.900  1.00  0.00     0.210 HD
ENDBRANCH   5  19
TORSDOF 5
ENDMDL
MODEL 2
REMARK VINA RESULT: -6.449127319      2.585      5.022
REMARK  5 active torsions:
REMARK  status: ('A' for Active; 'I' for Inactive)
REMARK    1  A    between atoms: C2_2  and  C3_3 
REMARK    2  A    between atoms: C4_4  and  O1_5 
REMARK    3  A    between atoms: C5_7  and  O2_8 
REMARK    4  A    between atoms: C6_10  and  O3_11 
REMARK    5  A    between atoms: C7_13  and  O4_14 
ROOT
HETATM    1  C3  UNL     1     105.093  17.076  17.947  1.00  0.00     0.021 C 
HETATM    2  C4  UNL     1     104.029  16.259  18.579  1.00  0.00     0.154 C 
HETATM    3  C5  UNL     1     102.617  16.727  18.200  1.00  0.00     0.178 C 
HETATM    4  C6  UNL     1     102.145  16.041  16.931  1.00  0.00     0.178 C 
HETATM    5  C7  UNL     1     102.603  16.745  15.688  1.00  0.00     0.154 C 
HETATM    6  C8  UNL     1     104.131  16.787  15.726  1.00  0.00     0.021 C 
HETATM    7  C9  UNL     1     104.723  17.097  14.388  1.00  0.00     0.007 C 
HETATM    8  C10 UNL     1     105.395  18.445  14.556  1.00  0.00     0.001 C 
HETATM    9  C11 UNL     1     105.822  18.409  16.015  1.00  0.00     0.005 C 
HETATM   10  C12 UNL     1     104.609  17.807  16.705  1.00  0.00    -0.001 C 
ENDROOT
BRANCH   1  11
HETATM   11  C2  UNL     1     105.817  18.010  18.865  1.00  0.00     0.003 C 
HETATM   12  C1  UNL     1     107.208  17.635  19.209  1.00  0.00     0.005 C 
ENDBRANCH   1  11
BRANCH   2  13
HETATM   13  O1  UNL     1     104.152  16.170  19.968  1.00  0.00    -0.393 OA
ATOM     14  H1  UNL     1     103.321  16.230  20.423  1.00  0.00     0.210 HD
ENDBRANCH   2  13
BRANCH   3  15
HETATM   15  O2  UNL     1     101.739  16.286  19.218  1.00  0.00    -0.390 OA
ATOM     16  H2  UNL     1     101.605  17.015  19.812  1.00  0.00     0.210 HD
ENDBRANCH   3  15
BRANCH   4  17
HETATM   17  O3  UNL     1     100.754  15.918  16.936  1.00  0.00    -0.390 OA
ATOM     18  H3  UNL     1     100.453  15.534  16.120  1.00  0.00     0.210 HD
ENDBRANCH   4  17
BRANCH   5  19
HETATM   19  O4  UNL     1     102.266  15.942  14.601  1.00  0.00    -0.393 OA
ATOM     20  H4  UNL     1     101.548  15.381  14.871  1.00  0.00     0.210 HD
ENDBRANCH   5  19
TORSDOF 5
ENDMDL
MODEL 3
REMARK VINA RESULT: -6.142031620      2.126      3.874
REMARK  5 active torsions:
REMARK  status: ('A' for Active; 'I' for Inactive)
REMARK    1  A    between atoms: C2_2  and  C3_3 
REMARK    2  A    between atoms: C4_4  and  O1_5 
REMARK    3  A    between atoms: C5_7  and  O2_8 
REMARK    4  A    between atoms: C6_10  and  O3_11 
REMARK    5  A    between atoms: C7_13  and  O4_14 
ROOT
HETATM    1  C3  UNL     1     104.709  18.591  16.445  1.00  0.00     0.021 C 
HETATM    2  C4  UNL     1     103.399  17.899  16.518  1.00  0.00     0.154 C 
HETATM    3  C5  UNL     1     103.536  16.394  16.786  1.00  0.00     0.178 C 
HETATM    4  C6  UNL     1     103.568  16.113  18.277  1.00  0.00     0.178 C 
HETATM    5  C7  UNL     1     104.945  16.239  18.860  1.00  0.00     0.154 C 
HETATM    6  C8  UNL     1     105.426  17.664  18.583  1.00  0.00     0.021 C 
HETATM    7  C9  UNL     1     106.593  18.044  19.438  1.00  0.00     0.007 C 
HETATM    8  C10 UNL     1     107.746  18.232  18.473  1.00  0.00     0.001 C 
HETATM    9  C11 UNL     1     107.038  18.723  17.221  1.00  0.00     0.005 C 
HETATM   10  C12 UNL     1     105.816  17.823  17.150  1.00  0.00    -0.001 C 
ENDROOT
BRANCH   1  11
HETATM   11  C2  UNL     1     105.141  19.006  15.074  1.00  0.00     0.003 C 
HETATM   12  C1  UNL     1     105.685  17.932  14.212  1.00  0.00     0.005 C 
ENDBRANCH   1  11
BRANCH   2  13
HETATM   13  O1  UNL     1     102.596  18.120  15.396  1.00  0.00    -0.393 OA
ATOM     14  H1  UNL     1     101.700  17.824  15.512  1.00  0.00     0.210 HD
ENDBRANCH   2  13
BRANCH   3  15
HETATM   15  O2  UNL     1     102.359  15.771  16.308  1.00  0.00    -0.390 OA
ATOM     16  H2  UNL     1     102.547  14.845  16.214  1.00  0.00     0.210 HD
ENDBRANCH   3  15
BRANCH   4  17
HETATM   17  O3  UNL     1     103.042  14.847  18.542  1.00  0.00    -0.390 OA
ATOM     18  H3  UNL     1     103.040  14.318  17.753  1.00  0.00     0.210 HD
ENDBRANCH   4  17
BRANCH   5  19
HETATM   19  O4  UNL     1     104.826  16.134  20.244  1.00  0.00    -0.393 OA
ATOM     20  H4  UNL     1     105.578  15.647  20.559  1.00  0.00     0.210 HD
ENDBRANCH   5  19
TORSDOF 5
ENDMDL
MODEL 4
REMARK VINA RESULT: -6.021778572      1.661      3.673
REMARK  5 active torsions:
REMARK  status: ('A' for Active; 'I' for Inactive)
REMARK    1  A    between atoms: C2_2  and  C3_3 
REMARK    2  A    between atoms: C4_4  and  O1_5 
REMARK    3  A    between atoms: C5_7  and  O2_8 
REMARK    4  A    between atoms: C6_10  and  O3_11 
REMARK    5  A    between atoms: C7_13  and  O4_14 
ROOT
HETATM    1  C3  UNL     1     104.317  17.157  18.106  1.00  0.00     0.021 C 
HETATM    2  C4  UNL     1     105.243  17.626  19.166  1.00  0.00     0.154 C 
HETATM    3  C5  UNL     1     106.719  17.474  18.774  1.00  0.00     0.178 C 
HETATM    4  C6  UNL     1     107.213  18.710  18.044  1.00  0.00     0.178 C 
HETATM    5  C7  UNL     1     106.922  18.667  16.573  1.00  0.00     0.154 C 
HETATM    6  C8  UNL     1     105.407  18.531  16.413  1.00  0.00     0.021 C 
HETATM    7  C9  UNL     1     104.951  18.872  15.029  1.00  0.00     0.007 C 
HETATM    8  C10 UNL     1     104.408  17.576  14.461  1.00  0.00     0.001 C 
HETATM    9  C11 UNL     1     103.873  16.882  15.704  1.00  0.00     0.005 C 
HETATM   10  C12 UNL     1     104.964  17.141  16.730  1.00  0.00    -0.001 C 
ENDROOT
BRANCH   1  11
HETATM   11  C2  UNL     1     103.625  15.860  18.383  1.00  0.00     0.003 C 
HETATM   12  C1  UNL     1     102.152  15.925  18.516  1.00  0.00     0.005 C 
ENDBRANCH   1  11
BRANCH   2  13
HETATM   13  O1  UNL     1     105.008  17.028  20.407  1.00  0.00    -0.393 OA
ATOM     14  H1  UNL     1     104.658  16.147  20.339  1.00  0.00     0.210 HD
ENDBRANCH   2  13
BRANCH   3  15
HETATM   15  O2  UNL     1     107.470  17.416  19.972  1.00  0.00    -0.390 OA
ATOM     16  H2  UNL     1     107.763  16.519  20.079  1.00  0.00     0.210 HD
ENDBRANCH   3  15
BRANCH   4  17
HETATM   17  O3  UNL     1     108.580  18.889  18.265  1.00  0.00    -0.390 OA
ATOM     18  H3  UNL     1     108.876  19.698  17.864  1.00  0.00     0.210 HD
ENDBRANCH   4  17
BRANCH   5  19
HETATM   19  O4  UNL     1     107.256  19.911  16.043  1.00  0.00    -0.393 OA
ATOM     20  H4  UNL     1     106.469  20.443  16.043  1.00  0.00     0.210 HD
ENDBRANCH   5  19
TORSDOF 5
ENDMDL
MODEL 5
REMARK VINA RESULT: -5.937538134      2.256      3.988
REMARK  5 active torsions:
REMARK  status: ('A' for Active; 'I' for Inactive)
REMARK    1  A    between atoms: C2_2  and  C3_3 
REMARK    2  A    between atoms: C4_4  and  O1_5 
REMARK    3  A    between atoms: C5_7  and  O2_8 
REMARK    4  A    between atoms: C6_10  and  O3_11 
REMARK    5  A    between atoms: C7_13  and  O4_14 
ROOT
HETATM    1  C3  UNL     1     103.145  17.066  16.750  1.00  0.00     0.021 C 
HETATM    2  C4  UNL     1     103.365  17.197  18.211  1.00  0.00     0.154 C 
HETATM    3  C5  UNL     1     104.756  16.717  18.647  1.00  0.00     0.178 C 
HETATM    4  C6  UNL     1     105.765  17.849  18.573  1.00  0.00     0.178 C 
HETATM    5  C7  UNL     1     106.359  18.005  17.204  1.00  0.00     0.154 C 
HETATM    6  C8  UNL     1     105.204  18.264  16.235  1.00  0.00     0.021 C 
HETATM    7  C9  UNL     1     105.675  18.823  14.930  1.00  0.00     0.007 C 
HETATM    8  C10 UNL     1     105.354  17.756  13.903  1.00  0.00     0.001 C 
HETATM    9  C11 UNL     1     104.106  17.114  14.489  1.00  0.00     0.005 C 
HETATM   10  C12 UNL     1     104.446  17.006  15.966  1.00  0.00    -0.001 C 
ENDROOT
BRANCH   1  11
HETATM   11  C2  UNL     1     102.224  15.962  16.336  1.00  0.00     0.003 C 
HETATM   12  C1  UNL     1     100.880  16.378  15.871  1.00  0.00     0.005 C 
ENDBRANCH   1  11
BRANCH   2  13
HETATM   13  O1  UNL     1     102.376  16.573  18.977  1.00  0.00    -0.393 OA
ATOM     14  H1  UNL     1     102.630  15.713  19.288  1.00  0.00     0.210 HD
ENDBRANCH   2  13
BRANCH   3  15
HETATM   15  O2  UNL     1     104.674  16.373  20.017  1.00  0.00    -0.390 OA
ATOM     16  H2  UNL     1     105.498  16.618  20.421  1.00  0.00     0.210 HD
ENDBRANCH   3  15
BRANCH   4  17
HETATM   17  O3  UNL     1     106.772  17.664  19.522  1.00  0.00    -0.390 OA
ATOM     18  H3  UNL     1     107.320  16.926  19.282  1.00  0.00     0.210 HD
ENDBRANCH   4  17
BRANCH   5  19
HETATM   19  O4  UNL     1     107.126  19.167  17.209  1.00  0.00    -0.393 OA
ATOM     20  H4  UNL     1     107.828  19.050  16.579  1.00  0.00     0.210 HD
ENDBRANCH   5  19
TORSDOF 5
ENDMDL
