MODEL 1
REMARK VINA RESULT: -6.196514420      0.000      0.000
REMARK  6 active torsions:
REMARK  status: ('A' for Active; 'I' for Inactive)
REMARK    1  A    between atoms: C2_2  and  C3_3 
REMARK    2  A    between atoms: C5_5  and  O1_6 
REMARK    3  A    between atoms: C5_5  and  C6_8 
REMARK    4  A    between atoms: C10_12  and  O2_13 
REMARK    5  A    between atoms: C11_15  and  O3_16 
REMARK    6  A    between atoms: C12_18  and  O4_19 
ROOT
HETATM    1  C3  UNL     1     105.237  17.553  18.396  1.00  0.00     0.041 C 
HETATM    2  C4  UNL     1     104.899  17.170  16.974  1.00  0.00     0.052 C 
HETATM    3  C5  UNL     1     103.374  17.262  16.860  1.00  0.00     0.093 C 
HETATM    4  C10 UNL     1     102.665  16.721  18.032  1.00  0.00     0.184 C 
HETATM    5  C11 UNL     1     103.470  15.915  18.998  1.00  0.00     0.179 C 
HETATM    6  C12 UNL     1     104.851  16.390  19.245  1.00  0.00     0.157 C 
ENDROOT
BRANCH   3   7
HETATM    7  O1  UNL     1     103.157  18.659  16.797  1.00  0.00    -0.386 OA
ATOM      8  H1  UNL     1     102.341  18.761  17.272  1.00  0.00     0.210 HD
ENDBRANCH   3   7
BRANCH   3   9
HETATM    9  C6  UNL     1     102.911  16.773  15.522  1.00  0.00    -0.018 C 
HETATM   10  C7  UNL     1     102.114  15.530  15.516  1.00  0.00     0.018 C 
HETATM   11  C8  UNL     1     104.189  16.502  14.707  1.00  0.00     0.018 C 
HETATM   12  C9  UNL     1     102.173  17.860  14.773  1.00  0.00     0.018 C 
ENDBRANCH   3   9
BRANCH   4  13
HETATM   13  O2  UNL     1     101.540  15.927  17.692  1.00  0.00    -0.390 OA
ATOM     14  H2  UNL     1     101.056  16.261  16.946  1.00  0.00     0.210 HD
ENDBRANCH   4  13
BRANCH   1  15
HETATM   15  C2  UNL     1     106.676  17.868  18.596  1.00  0.00    -0.030 C 
HETATM   16  C1  UNL     1     107.403  18.602  17.774  1.00  0.00     0.007 C 
ENDBRANCH   1  15
BRANCH   5  17
HETATM   17  O3  UNL     1     103.529  14.552  18.642  1.00  0.00    -0.390 OA
ATOM     18  H3  UNL     1     103.666  13.987  19.394  1.00  0.00     0.210 HD
ENDBRANCH   5  17
BRANCH   6  19
HETATM   19  O4  UNL     1     105.068  16.738  20.598  1.00  0.00    -0.392 OA
ATOM     20  H4  UNL     1     105.003  15.948  21.122  1.00  0.00     0.210 HD
ENDBRANCH   6  19
TORSDOF 6
ENDMDL
MODEL 2
REMARK VINA RESULT: -5.940372861      1.647      2.464
REMARK  6 active torsions:
REMARK  status: ('A' for Active; 'I' for Inactive)
REMARK    1  A    between atoms: C2_2  and  C3_3 
REMARK    2  A    between atoms: C5_5  and  O1_6 
REMARK    3  A    between atoms: C5_5  and  C6_8 
REMARK    4  A    between atoms: C10_12  and  O2_13 
REMARK    5  A    between atoms: C11_15  and  O3_16 
REMARK    6  A    between atoms: C12_18  and  O4_19 
ROOT
HETATM    1  C3  UNL     1     103.783  17.300  18.186  1.00  0.00     0.041 C 
HETATM    2  C4  UNL     1     104.658  17.235  16.955  1.00  0.00     0.052 C 
HETATM    3  C5  UNL     1     103.842  17.865  15.821  1.00  0.00     0.093 C 
HETATM    4  C10 UNL     1     102.425  17.465  15.826  1.00  0.00     0.184 C 
HETATM    5  C11 UNL     1     102.049  16.318  16.705  1.00  0.00     0.179 C 
HETATM    6  C12 UNL     1     102.740  16.250  18.012  1.00  0.00     0.157 C 
ENDROOT
BRANCH   3   7
HETATM    7  O1  UNL     1     103.931  19.247  16.114  1.00  0.00    -0.386 OA
ATOM      8  H1  UNL     1     104.457  19.575  15.394  1.00  0.00     0.210 HD
ENDBRANCH   3   7
BRANCH   3   9
HETATM    9  C6  UNL     1     104.563  17.735  14.514  1.00  0.00    -0.018 C 
HETATM   10  C7  UNL     1     104.650  16.376  13.944  1.00  0.00     0.018 C 
HETATM   11  C8  UNL     1     106.002  18.215  14.777  1.00  0.00     0.018 C 
HETATM   12  C9  UNL     1     103.997  18.689  13.486  1.00  0.00     0.018 C 
ENDBRANCH   3   9
BRANCH   4  13
HETATM   13  O2  UNL     1     101.923  17.160  14.536  1.00  0.00    -0.390 OA
ATOM     14  H2  UNL     1     102.200  17.776  13.868  1.00  0.00     0.210 HD
ENDBRANCH   4  13
BRANCH   1  15
HETATM   15  C2  UNL     1     104.527  17.068  19.451  1.00  0.00    -0.030 C 
HETATM   16  C1  UNL     1     105.776  17.439  19.664  1.00  0.00     0.007 C 
ENDBRANCH   1  15
BRANCH   5  17
HETATM   17  O3  UNL     1     102.200  15.074  16.059  1.00  0.00    -0.390 OA
ATOM     18  H3  UNL     1     102.719  14.462  16.568  1.00  0.00     0.210 HD
ENDBRANCH   5  17
BRANCH   6  19
HETATM   19  O4  UNL     1     101.843  16.331  19.102  1.00  0.00    -0.392 OA
ATOM     20  H4  UNL     1     101.371  17.153  19.038  1.00  0.00     0.210 HD
ENDBRANCH   6  19
TORSDOF 6
ENDMDL
MODEL 3
REMARK VINA RESULT: -5.939439138      0.107      1.029
REMARK  6 active torsions:
REMARK  status: ('A' for Active; 'I' for Inactive)
REMARK    1  A    between atoms: C2_2  and  C3_3 
REMARK    2  A    between atoms: C5_5  and  O1_6 
REMARK    3  A    between atoms: C5_5  and  C6_8 
REMARK    4  A    between atoms: C10_12  and  O2_13 
REMARK    5  A    between atoms: C11_15  and  O3_16 
REMARK    6  A    between atoms: C12_18  and  O4_19 
ROOT
HETATM    1  C3  UNL     1     105.225  17.559  18.399  1.00  0.00     0.041 C 
HETATM    2  C4  UNL     1     104.903  17.160  16.977  1.00  0.00     0.052 C 
HETATM    3  C5  UNL     1     103.377  17.229  16.852  1.00  0.00     0.093 C 
HETATM    4  C10 UNL     1     102.668  16.686  18.022  1.00  0.00     0.184 C 
HETATM    5  C11 UNL     1     103.478  15.899  19.000  1.00  0.00     0.179 C 
HETATM    6  C12 UNL     1     104.849  16.397  19.253  1.00  0.00     0.157 C 
ENDROOT
BRANCH   3   7
HETATM    7  O1  UNL     1     103.140  18.622  16.776  1.00  0.00    -0.386 OA
ATOM      8  H1  UNL     1     103.084  18.770  15.840  1.00  0.00     0.210 HD
ENDBRANCH   3   7
BRANCH   3   9
HETATM    9  C6  UNL     1     102.931  16.723  15.513  1.00  0.00    -0.018 C 
HETATM   10  C7  UNL     1     103.996  16.306  14.580  1.00  0.00     0.018 C 
HETATM   11  C8  UNL     1     102.174  17.890  14.854  1.00  0.00     0.018 C 
HETATM   12  C9  UNL     1     101.916  15.613  15.664  1.00  0.00     0.018 C 
ENDBRANCH   3   9
BRANCH   4  13
HETATM   13  O2  UNL     1     101.557  15.873  17.680  1.00  0.00    -0.390 OA
ATOM     14  H2  UNL     1     100.843  15.930  18.303  1.00  0.00     0.210 HD
ENDBRANCH   4  13
BRANCH   1  15
HETATM   15  C2  UNL     1     106.657  17.896  18.607  1.00  0.00    -0.030 C 
HETATM   16  C1  UNL     1     107.384  18.620  17.776  1.00  0.00     0.007 C 
ENDBRANCH   1  15
BRANCH   5  17
HETATM   17  O3  UNL     1     103.559  14.535  18.655  1.00  0.00    -0.390 OA
ATOM     18  H3  UNL     1     102.878  14.016  19.067  1.00  0.00     0.210 HD
ENDBRANCH   5  17
BRANCH   6  19
HETATM   19  O4  UNL     1     105.051  16.757  20.605  1.00  0.00    -0.392 OA
ATOM     20  H4  UNL     1     105.424  17.630  20.627  1.00  0.00     0.210 HD
ENDBRANCH   6  19
TORSDOF 6
ENDMDL
MODEL 4
REMARK VINA RESULT: -5.848610289      1.307      1.586
REMARK  6 active torsions:
REMARK  status: ('A' for Active; 'I' for Inactive)
REMARK    1  A    between atoms: C2_2  and  C3_3 
REMARK    2  A    between atoms: C5_5  and  O1_6 
REMARK    3  A    between atoms: C5_5  and  C6_8 
REMARK    4  A    between atoms: C10_12  and  O2_13 
REMARK    5  A    between atoms: C11_15  and  O3_16 
REMARK    6  A    between atoms: C12_18  and  O4_19 
ROOT
HETATM    1  C3  UNL     1     105.530  17.902  18.123  1.00  0.00     0.041 C 
HETATM    2  C4  UNL     1     105.690  17.569  16.657  1.00  0.00     0.052 C 
HETATM    3  C5  UNL     1     104.402  18.037  15.972  1.00  0.00     0.093 C 
HETATM    4  C10 UNL     1     103.184  17.729  16.741  1.00  0.00     0.184 C 
HETATM    5  C11 UNL     1     103.327  16.779  17.884  1.00  0.00     0.179 C 
HETATM    6  C12 UNL     1     104.573  16.902  18.675  1.00  0.00     0.157 C 
ENDROOT
BRANCH   3   7
HETATM    7  O1  UNL     1     104.574  19.441  15.926  1.00  0.00    -0.386 OA
ATOM      8  H1  UNL     1     104.081  19.682  15.150  1.00  0.00     0.210 HD
ENDBRANCH   3   7
BRANCH   3   9
HETATM    9  C6  UNL     1     104.392  17.636  14.528  1.00  0.00    -0.018 C 
HETATM   10  C7  UNL     1     104.036  16.232  14.239  1.00  0.00     0.018 C 
HETATM   11  C8  UNL     1     105.828  17.858  14.020  1.00  0.00     0.018 C 
HETATM   12  C9  UNL     1     103.523  18.566  13.713  1.00  0.00     0.018 C 
ENDBRANCH   3   9
BRANCH   4  13
HETATM   13  O2  UNL     1     102.124  17.233  15.941  1.00  0.00    -0.390 OA
ATOM     14  H2  UNL     1     101.943  16.312  16.085  1.00  0.00     0.210 HD
ENDBRANCH   4  13
BRANCH   1  15
HETATM   15  C2  UNL     1     106.806  17.852  18.882  1.00  0.00    -0.030 C 
HETATM   16  C1  UNL     1     107.888  18.544  18.574  1.00  0.00     0.007 C 
ENDBRANCH   1  15
BRANCH   5  17
HETATM   17  O3  UNL     1     103.186  15.435  17.486  1.00  0.00    -0.390 OA
ATOM     18  H3  UNL     1     102.745  14.907  18.142  1.00  0.00     0.210 HD
ENDBRANCH   5  17
BRANCH   6  19
HETATM   19  O4  UNL     1     104.324  17.228  20.028  1.00  0.00    -0.392 OA
ATOM     20  H4  UNL     1     104.456  18.162  20.138  1.00  0.00     0.210 HD
ENDBRANCH   6  19
TORSDOF 6
ENDMDL
MODEL 5
REMARK VINA RESULT: -5.633851985      2.483      4.007
REMARK  6 active torsions:
REMARK  status: ('A' for Active; 'I' for Inactive)
REMARK    1  A    between atoms: C2_2  and  C3_3 
REMARK    2  A    between atoms: C5_5  and  O1_6 
REMARK    3  A    between atoms: C5_5  and  C6_8 
REMARK    4  A    between atoms: C10_12  and  O2_13 
REMARK    5  A    between atoms: C11_15  and  O3_16 
REMARK    6  A    between atoms: C12_18  and  O4_19 
ROOT
HETATM    1  C3  UNL     1     106.151  17.736  17.892  1.00  0.00     0.041 C 
HETATM    2  C4  UNL     1     104.909  18.281  17.224  1.00  0.00     0.052 C 
HETATM    3  C5  UNL     1     105.030  17.916  15.741  1.00  0.00     0.093 C 
HETATM    4  C10 UNL     1     106.386  18.104  15.200  1.00  0.00     0.184 C 
HETATM    5  C11 UNL     1     107.350  18.877  16.040  1.00  0.00     0.179 C 
HETATM    6  C12 UNL     1     107.268  18.642  17.500  1.00  0.00     0.157 C 
ENDROOT
BRANCH   3   7
HETATM    7  O1  UNL     1     104.723  16.534  15.742  1.00  0.00    -0.386 OA
ATOM      8  H1  UNL     1     105.016  16.259  14.881  1.00  0.00     0.210 HD
ENDBRANCH   3   7
BRANCH   3   9
HETATM    9  C6  UNL     1     103.911  18.525  14.952  1.00  0.00    -0.018 C 
HETATM   10  C7  UNL     1     103.786  19.994  15.016  1.00  0.00     0.018 C 
HETATM   11  C8  UNL     1     102.615  17.929  15.531  1.00  0.00     0.018 C 
HETATM   12  C9  UNL     1     103.957  18.074  13.509  1.00  0.00     0.018 C 
ENDBRANCH   3   9
BRANCH   4  13
HETATM   13  O2  UNL     1     106.401  18.711  13.918  1.00  0.00    -0.390 OA
ATOM     14  H2  UNL     1     106.884  19.528  13.894  1.00  0.00     0.210 HD
ENDBRANCH   4  13
BRANCH   1  15
HETATM   15  C2  UNL     1     106.046  17.676  19.373  1.00  0.00    -0.030 C 
HETATM   16  C1  UNL     1     105.053  17.106  20.031  1.00  0.00     0.007 C 
ENDBRANCH   1  15
BRANCH   5  17
HETATM   17  O3  UNL     1     107.271  20.265  15.810  1.00  0.00    -0.390 OA
ATOM     18  H3  UNL     1     107.139  20.758  16.611  1.00  0.00     0.210 HD
ENDBRANCH   5  17
BRANCH   6  19
HETATM   19  O4  UNL     1     108.469  18.121  18.031  1.00  0.00    -0.392 OA
ATOM     20  H4  UNL     1     108.984  18.844  18.367  1.00  0.00     0.210 HD
ENDBRANCH   6  19
TORSDOF 6
ENDMDL
