MODEL 1
REMARK VINA RESULT: -5.661131312      0.000      0.000
REMARK  5 active torsions:
REMARK  status: ('A' for Active; 'I' for Inactive)
REMARK    1  A    between atoms: C3_3  and  C4_4 
REMARK    2  A    between atoms: C7_7  and  O1_8 
REMARK    3  A    between atoms: C8_10  and  O2_11 
REMARK    4  A    between atoms: C10_14  and  O3_15 
REMARK    5  A    between atoms: C11_17  and  O4_18 
ROOT
HETATM    1  C4  UNL     1     105.994  16.774  19.930  1.00  0.00     0.011 C 
HETATM    2  C5  UNL     1     106.571  17.512  18.777  1.00  0.00     0.018 C 
HETATM    3  C6  UNL     1     105.362  17.894  17.998  1.00  0.00     0.054 C 
HETATM    4  C7  UNL     1     105.551  18.160  16.557  1.00  0.00     0.154 C 
HETATM    5  C8  UNL     1     104.210  18.654  16.054  1.00  0.00     0.149 C 
HETATM    6  C9  UNL     1     103.035  18.101  16.739  1.00  0.00     0.069 C 
HETATM    7  C10 UNL     1     103.191  16.841  17.500  1.00  0.00     0.155 C 
HETATM    8  C11 UNL     1     104.558  16.591  18.061  1.00  0.00     0.090 C 
HETATM    9  C12 UNL     1     104.591  16.321  19.521  1.00  0.00     0.049 C 
ENDROOT
BRANCH   1  10
HETATM   10  C3  UNL     1     105.846  17.517  21.185  1.00  0.00    -0.026 C 
HETATM   11  C2  UNL     1     106.642  17.532  22.221  1.00  0.00    -0.035 C 
HETATM   12  C1  UNL     1     106.303  18.364  23.408  1.00  0.00     0.036 C 
ENDBRANCH   1  10
BRANCH   8  13
HETATM   13  O4  UNL     1     105.138  15.558  17.384  1.00  0.00    -0.387 OA
ATOM     14  H4  UNL     1     105.549  14.916  17.949  1.00  0.00     0.210 HD
ENDBRANCH   8  13
BRANCH   4  15
HETATM   15  O1  UNL     1     106.514  19.126  16.282  1.00  0.00    -0.393 OA
ATOM     16  H1  UNL     1     106.224  19.800  15.679  1.00  0.00     0.210 HD
ENDBRANCH   4  15
BRANCH   7  17
HETATM   17  O3  UNL     1     102.795  15.743  16.732  1.00  0.00    -0.392 OA
ATOM     18  H3  UNL     1     103.268  14.962  16.990  1.00  0.00     0.210 HD
ENDBRANCH   7  17
BRANCH   5  19
HETATM   19  O2  UNL     1     104.176  18.488  14.655  1.00  0.00    -0.393 OA
ATOM     20  H2  UNL     1     103.570  19.125  14.294  1.00  0.00     0.210 HD
ENDBRANCH   5  19
TORSDOF 5
ENDMDL
MODEL 2
REMARK VINA RESULT: -5.623266301      2.411      5.651
REMARK  5 active torsions:
REMARK  status: ('A' for Active; 'I' for Inactive)
REMARK    1  A    between atoms: C3_3  and  C4_4 
REMARK    2  A    between atoms: C7_7  and  O1_8 
REMARK    3  A    between atoms: C8_10  and  O2_11 
REMARK    4  A    between atoms: C10_14  and  O3_15 
REMARK    5  A    between atoms: C11_17  and  O4_18 
ROOT
HETATM    1  C4  UNL     1     101.493  16.415  15.284  1.00  0.00     0.011 C 
HETATM    2  C5  UNL     1     101.962  15.894  16.594  1.00  0.00     0.018 C 
HETATM    3  C6  UNL     1     103.090  16.808  16.922  1.00  0.00     0.054 C 
HETATM    4  C7  UNL     1     104.117  16.296  17.853  1.00  0.00     0.154 C 
HETATM    5  C8  UNL     1     105.049  17.461  18.114  1.00  0.00     0.149 C 
HETATM    6  C9  UNL     1     105.208  18.404  17.000  1.00  0.00     0.069 C 
HETATM    7  C10 UNL     1     104.852  17.952  15.636  1.00  0.00     0.155 C 
HETATM    8  C11 UNL     1     103.791  16.896  15.563  1.00  0.00     0.090 C 
HETATM    9  C12 UNL     1     102.642  17.229  14.684  1.00  0.00     0.049 C 
ENDROOT
BRANCH   1  10
HETATM   10  C3  UNL     1     100.320  17.294  15.301  1.00  0.00    -0.026 C 
HETATM   11  C2  UNL     1     100.059  18.318  14.532  1.00  0.00    -0.035 C 
HETATM   12  C1  UNL     1      98.796  19.084  14.718  1.00  0.00     0.036 C 
ENDBRANCH   1  10
BRANCH   8  13
HETATM   13  O4  UNL     1     104.357  15.720  15.163  1.00  0.00    -0.387 OA
ATOM     14  H4  UNL     1     105.053  15.830  14.527  1.00  0.00     0.210 HD
ENDBRANCH   8  13
BRANCH   4  15
HETATM   15  O1  UNL     1     103.606  15.852  19.069  1.00  0.00    -0.393 OA
ATOM     16  H1  UNL     1     103.315  14.947  19.058  1.00  0.00     0.210 HD
ENDBRANCH   4  15
BRANCH   7  17
HETATM   17  O3  UNL     1     105.986  17.522  14.943  1.00  0.00    -0.392 OA
ATOM     18  H3  UNL     1     106.358  18.230  14.431  1.00  0.00     0.210 HD
ENDBRANCH   7  17
BRANCH   5  19
HETATM   19  O2  UNL     1     106.270  16.949  18.597  1.00  0.00    -0.393 OA
ATOM     20  H2  UNL     1     106.969  17.272  18.040  1.00  0.00     0.210 HD
ENDBRANCH   5  19
TORSDOF 5
ENDMDL
MODEL 3
REMARK VINA RESULT: -5.583117391      2.657      5.518
REMARK  5 active torsions:
REMARK  status: ('A' for Active; 'I' for Inactive)
REMARK    1  A    between atoms: C3_3  and  C4_4 
REMARK    2  A    between atoms: C7_7  and  O1_8 
REMARK    3  A    between atoms: C8_10  and  O2_11 
REMARK    4  A    between atoms: C10_14  and  O3_15 
REMARK    5  A    between atoms: C11_17  and  O4_18 
ROOT
HETATM    1  C4  UNL     1     103.070  18.464  14.553  1.00  0.00     0.011 C 
HETATM    2  C5  UNL     1     102.101  17.405  14.936  1.00  0.00     0.018 C 
HETATM    3  C6  UNL     1     102.359  17.239  16.392  1.00  0.00     0.054 C 
HETATM    4  C7  UNL     1     101.983  15.943  16.995  1.00  0.00     0.154 C 
HETATM    5  C8  UNL     1     102.221  16.101  18.482  1.00  0.00     0.149 C 
HETATM    6  C9  UNL     1     103.319  17.002  18.854  1.00  0.00     0.069 C 
HETATM    7  C10 UNL     1     104.351  17.313  17.840  1.00  0.00     0.155 C 
HETATM    8  C11 UNL     1     103.891  17.259  16.414  1.00  0.00     0.090 C 
HETATM    9  C12 UNL     1     104.159  18.490  15.629  1.00  0.00     0.049 C 
ENDROOT
BRANCH   1  10
HETATM   10  C3  UNL     1     102.551  19.831  14.448  1.00  0.00    -0.026 C 
HETATM   11  C2  UNL     1     102.590  20.786  15.339  1.00  0.00    -0.035 C 
HETATM   12  C1  UNL     1     101.998  22.117  15.028  1.00  0.00     0.036 C 
ENDBRANCH   1  10
BRANCH   8  13
HETATM   13  O4  UNL     1     104.460  16.182  15.800  1.00  0.00    -0.387 OA
ATOM     14  H4  UNL     1     104.018  15.362  15.984  1.00  0.00     0.210 HD
ENDBRANCH   8  13
BRANCH   4  15
HETATM   15  O1  UNL     1     100.652  15.591  16.790  1.00  0.00    -0.393 OA
ATOM     16  H1  UNL     1     100.380  15.620  15.880  1.00  0.00     0.210 HD
ENDBRANCH   4  15
BRANCH   7  17
HETATM   17  O3  UNL     1     105.469  16.491  18.000  1.00  0.00    -0.392 OA
ATOM     18  H3  UNL     1     105.802  16.542  18.888  1.00  0.00     0.210 HD
ENDBRANCH   7  17
BRANCH   5  19
HETATM   19  O2  UNL     1     102.331  14.815  19.049  1.00  0.00    -0.393 OA
ATOM     20  H2  UNL     1     102.363  14.908  19.994  1.00  0.00     0.210 HD
ENDBRANCH   5  19
TORSDOF 5
ENDMDL
MODEL 4
REMARK VINA RESULT: -5.551918851      4.495      6.373
REMARK  5 active torsions:
REMARK  status: ('A' for Active; 'I' for Inactive)
REMARK    1  A    between atoms: C3_3  and  C4_4 
REMARK    2  A    between atoms: C7_7  and  O1_8 
REMARK    3  A    between atoms: C8_10  and  O2_11 
REMARK    4  A    between atoms: C10_14  and  O3_15 
REMARK    5  A    between atoms: C11_17  and  O4_18 
ROOT
HETATM    1  C4  UNL     1     104.951  18.470  14.101  1.00  0.00     0.011 C 
HETATM    2  C5  UNL     1     104.372  17.303  14.814  1.00  0.00     0.018 C 
HETATM    3  C6  UNL     1     102.910  17.485  14.602  1.00  0.00     0.054 C 
HETATM    4  C7  UNL     1     102.008  16.846  15.582  1.00  0.00     0.154 C 
HETATM    5  C8  UNL     1     100.606  17.071  15.054  1.00  0.00     0.149 C 
HETATM    6  C9  UNL     1     100.408  18.313  14.297  1.00  0.00     0.069 C 
HETATM    7  C10 UNL     1     101.382  19.413  14.479  1.00  0.00     0.155 C 
HETATM    8  C11 UNL     1     102.770  18.990  14.853  1.00  0.00     0.090 C 
HETATM    9  C12 UNL     1     103.839  19.514  13.966  1.00  0.00     0.049 C 
ENDROOT
BRANCH   1  10
HETATM   10  C3  UNL     1     105.468  18.232  12.750  1.00  0.00    -0.026 C 
HETATM   11  C2  UNL     1     105.997  19.090  11.919  1.00  0.00    -0.035 C 
HETATM   12  C1  UNL     1     106.465  18.637  10.580  1.00  0.00     0.036 C 
ENDBRANCH   1  10
BRANCH   8  13
HETATM   13  O4  UNL     1     103.017  19.354  16.144  1.00  0.00    -0.387 OA
ATOM     14  H4  UNL     1     103.870  19.750  16.271  1.00  0.00     0.210 HD
ENDBRANCH   8  13
BRANCH   4  15
HETATM   15  O1  UNL     1     102.214  15.478  15.733  1.00  0.00    -0.393 OA
ATOM     16  H1  UNL     1     101.922  15.133  16.569  1.00  0.00     0.210 HD
ENDBRANCH   4  15
BRANCH   7  17
HETATM   17  O3  UNL     1     100.912  20.344  15.409  1.00  0.00    -0.392 OA
ATOM     18  H3  UNL     1     101.127  20.075  16.294  1.00  0.00     0.210 HD
ENDBRANCH   7  17
BRANCH   5  19
HETATM   19  O2  UNL     1      99.701  16.912  16.123  1.00  0.00    -0.393 OA
ATOM     20  H2  UNL     1     100.142  16.437  16.817  1.00  0.00     0.210 HD
ENDBRANCH   5  19
TORSDOF 5
ENDMDL
MODEL 5
REMARK VINA RESULT: -5.457164731      1.411      1.908
REMARK  5 active torsions:
REMARK  status: ('A' for Active; 'I' for Inactive)
REMARK    1  A    between atoms: C3_3  and  C4_4 
REMARK    2  A    between atoms: C7_7  and  O1_8 
REMARK    3  A    between atoms: C8_10  and  O2_11 
REMARK    4  A    between atoms: C10_14  and  O3_15 
REMARK    5  A    between atoms: C11_17  and  O4_18 
ROOT
HETATM    1  C4  UNL     1     105.476  17.004  18.155  1.00  0.00     0.011 C 
HETATM    2  C5  UNL     1     105.614  18.137  17.204  1.00  0.00     0.018 C 
HETATM    3  C6  UNL     1     104.262  18.210  16.587  1.00  0.00     0.054 C 
HETATM    4  C7  UNL     1     104.168  18.838  15.253  1.00  0.00     0.154 C 
HETATM    5  C8  UNL     1     102.688  18.903  14.936  1.00  0.00     0.149 C 
HETATM    6  C9  UNL     1     101.873  17.820  15.500  1.00  0.00     0.069 C 
HETATM    7  C10 UNL     1     102.549  16.571  15.916  1.00  0.00     0.155 C 
HETATM    8  C11 UNL     1     103.976  16.723  16.349  1.00  0.00     0.090 C 
HETATM    9  C12 UNL     1     104.280  16.170  17.693  1.00  0.00     0.049 C 
ENDROOT
BRANCH   1  10
HETATM   10  C3  UNL     1     105.234  17.343  19.560  1.00  0.00    -0.026 C 
HETATM   11  C2  UNL     1     105.971  17.066  20.603  1.00  0.00    -0.035 C 
HETATM   12  C1  UNL     1     105.539  17.508  21.957  1.00  0.00     0.036 C 
ENDBRANCH   1  10
BRANCH   8  13
HETATM   13  O4  UNL     1     104.791  16.153  15.416  1.00  0.00    -0.387 OA
ATOM     14  H4  UNL     1     105.366  15.486  15.770  1.00  0.00     0.210 HD
ENDBRANCH   8  13
BRANCH   4  15
HETATM   15  O1  UNL     1     104.693  20.125  15.196  1.00  0.00    -0.393 OA
ATOM     16  H1  UNL     1     105.631  20.167  15.347  1.00  0.00     0.210 HD
ENDBRANCH   4  15
BRANCH   7  17
HETATM   17  O3  UNL     1     102.468  15.604  14.911  1.00  0.00    -0.392 OA
ATOM     18  H3  UNL     1     102.709  15.971  14.069  1.00  0.00     0.210 HD
ENDBRANCH   7  17
BRANCH   5  19
HETATM   19  O2  UNL     1     102.542  19.050  13.541  1.00  0.00    -0.393 OA
ATOM     20  H2  UNL     1     101.617  19.001  13.333  1.00  0.00     0.210 HD
ENDBRANCH   5  19
TORSDOF 5
ENDMDL
