MODEL 1
REMARK VINA RESULT: -5.868421130      0.000      0.000
REMARK  8 active torsions:
REMARK  status: ('A' for Active; 'I' for Inactive)
REMARK    1  A    between atoms: C2_2  and  C3_6 
REMARK    2  A    between atoms: C3_6  and  C4_7 
REMARK    3  A    between atoms: C4_7  and  C5_8 
REMARK    4  A    between atoms: C7_10  and  N2_11 
REMARK    5  A    between atoms: N2_11  and  N3_13 
REMARK    6  A    between atoms: C8_18  and  O1_19 
REMARK    7  A    between atoms: C9_21  and  O2_22 
REMARK    8  A    between atoms: C10_24  and  O3_25 
ROOT
HETATM    1  C5  UNL     1     104.557  18.059  16.722  1.00  0.00     0.099 C 
HETATM    2  C6  UNL     1     104.298  16.690  16.198  1.00  0.00     0.049 C 
HETATM    3  C7  UNL     1     103.466  16.789  14.914  1.00  0.00     0.133 C 
HETATM    4  C8  UNL     1     104.230  17.540  13.842  1.00  0.00     0.173 C 
HETATM    5  C9  UNL     1     105.395  18.292  14.391  1.00  0.00     0.178 C 
HETATM    6  C10 UNL     1     105.109  19.004  15.683  1.00  0.00     0.165 C 
ENDROOT
BRANCH   1   7
HETATM    7  C4  UNL     1     105.457  17.932  17.875  1.00  0.00    -0.092 C 
BRANCH   7   8
HETATM    8  C3  UNL     1     106.205  17.846  18.835  1.00  0.00    -0.054 C 
BRANCH   8   9
HETATM    9  C2  UNL     1     107.092  17.769  19.964  1.00  0.00     0.053 C 
HETATM   10  C1  UNL     1     106.510  17.620  21.330  1.00  0.00     0.078 C 
HETATM   11  N1  UNL     1     108.377  17.823  19.860  1.00  0.00    -0.396 N 
ATOM     12  H12 UNL     1     109.006  17.768  20.661  1.00  0.00     0.156 HD
ATOM     13  H11 UNL     1     108.774  17.925  18.926  1.00  0.00     0.156 HD
ENDBRANCH   8   9
ENDBRANCH   7   8
ENDBRANCH   1   7
BRANCH   6  14
HETATM   14  O3  UNL     1     104.319  20.135  15.511  1.00  0.00    -0.392 OA
ATOM     15  H3  UNL     1     103.418  19.999  15.778  1.00  0.00     0.210 HD
ENDBRANCH   6  14
BRANCH   3  16
HETATM   16  N2  UNL     1     102.240  17.483  15.290  1.00  0.00    -0.315 N 
ATOM     17  H2  UNL     1     102.287  18.465  15.560  1.00  0.00     0.182 HD
BRANCH  16  18
HETATM   18  N3  UNL     1     101.136  16.902  15.288  1.00  0.00    -0.253 N 
HETATM   19  N4  UNL     1     100.005  16.686  15.762  1.00  0.00    -0.331 N 
ATOM     20  H42 UNL     1      99.993  17.317  16.562  1.00  0.00     0.178 HD
ATOM     21  H41 UNL     1      99.102  16.211  15.762  1.00  0.00     0.178 HD
ATOM     22  H3  UNL     1     101.186  16.283  14.479  1.00  0.00     0.207 HD
ENDBRANCH  16  18
ENDBRANCH   3  16
BRANCH   5  23
HETATM   23  O2  UNL     1     105.848  19.225  13.473  1.00  0.00    -0.390 OA
ATOM     24  H2  UNL     1     106.004  20.061  13.897  1.00  0.00     0.210 HD
ENDBRANCH   5  23
BRANCH   4  25
HETATM   25  O1  UNL     1     104.748  16.575  12.946  1.00  0.00    -0.391 OA
ATOM     26  H1  UNL     1     105.663  16.787  12.804  1.00  0.00     0.210 HD
ENDBRANCH   4  25
TORSDOF 8
ENDMDL
MODEL 2
REMARK VINA RESULT: -5.857677020      3.289      4.269
REMARK  8 active torsions:
REMARK  status: ('A' for Active; 'I' for Inactive)
REMARK    1  A    between atoms: C2_2  and  C3_6 
REMARK    2  A    between atoms: C3_6  and  C4_7 
REMARK    3  A    between atoms: C4_7  and  C5_8 
REMARK    4  A    between atoms: C7_10  and  N2_11 
REMARK    5  A    between atoms: N2_11  and  N3_13 
REMARK    6  A    between atoms: C8_18  and  O1_19 
REMARK    7  A    between atoms: C9_21  and  O2_22 
REMARK    8  A    between atoms: C10_24  and  O3_25 
ROOT
HETATM    1  C5  UNL     1     104.829  16.320  18.701  1.00  0.00     0.099 C 
HETATM    2  C6  UNL     1     104.271  17.413  17.859  1.00  0.00     0.049 C 
HETATM    3  C7  UNL     1     103.416  16.804  16.741  1.00  0.00     0.133 C 
HETATM    4  C8  UNL     1     102.241  16.045  17.324  1.00  0.00     0.173 C 
HETATM    5  C9  UNL     1     102.404  15.770  18.781  1.00  0.00     0.178 C 
HETATM    6  C10 UNL     1     103.789  15.332  19.168  1.00  0.00     0.165 C 
ENDROOT
BRANCH   1   7
HETATM    7  C4  UNL     1     105.535  16.942  19.828  1.00  0.00    -0.092 C 
BRANCH   7   8
HETATM    8  C3  UNL     1     106.129  17.441  20.769  1.00  0.00    -0.054 C 
BRANCH   8   9
HETATM    9  C2  UNL     1     106.844  18.010  21.880  1.00  0.00     0.053 C 
HETATM   10  C1  UNL     1     106.229  17.955  23.239  1.00  0.00     0.078 C 
HETATM   11  N1  UNL     1     108.000  18.571  21.766  1.00  0.00    -0.396 N 
ATOM     12  H12 UNL     1     108.507  18.974  22.553  1.00  0.00     0.156 HD
ATOM     13  H11 UNL     1     108.420  18.608  20.837  1.00  0.00     0.156 HD
ENDBRANCH   8   9
ENDBRANCH   7   8
ENDBRANCH   1   7
BRANCH   6  14
HETATM   14  O3  UNL     1     104.071  14.028  18.777  1.00  0.00    -0.392 OA
ATOM     15  H3  UNL     1     104.937  13.936  18.398  1.00  0.00     0.210 HD
ENDBRANCH   6  14
BRANCH   3  16
HETATM   16  N2  UNL     1     104.309  15.926  15.994  1.00  0.00    -0.315 N 
ATOM     17  H2  UNL     1     104.846  15.219  16.496  1.00  0.00     0.182 HD
BRANCH  16  18
HETATM   18  N3  UNL     1     104.430  16.021  14.756  1.00  0.00    -0.253 N 
HETATM   19  N4  UNL     1     104.639  16.675  13.717  1.00  0.00    -0.331 N 
ATOM     20  H42 UNL     1     104.782  17.613  14.089  1.00  0.00     0.178 HD
ATOM     21  H41 UNL     1     104.738  16.753  12.705  1.00  0.00     0.178 HD
ATOM     22  H3  UNL     1     104.282  15.069  14.422  1.00  0.00     0.207 HD
ENDBRANCH  16  18
ENDBRANCH   3  16
BRANCH   5  23
HETATM   23  O2  UNL     1     101.511  14.796  19.195  1.00  0.00    -0.390 OA
ATOM     24  H2  UNL     1     101.076  15.062  19.997  1.00  0.00     0.210 HD
ENDBRANCH   5  23
BRANCH   4  25
HETATM   25  O1  UNL     1     101.101  16.872  17.186  1.00  0.00    -0.391 OA
ATOM     26  H1  UNL     1     100.582  16.518  16.473  1.00  0.00     0.210 HD
ENDBRANCH   4  25
TORSDOF 8
ENDMDL
MODEL 3
REMARK VINA RESULT: -5.840016252      1.335      1.560
REMARK  8 active torsions:
REMARK  status: ('A' for Active; 'I' for Inactive)
REMARK    1  A    between atoms: C2_2  and  C3_6 
REMARK    2  A    between atoms: C3_6  and  C4_7 
REMARK    3  A    between atoms: C4_7  and  C5_8 
REMARK    4  A    between atoms: C7_10  and  N2_11 
REMARK    5  A    between atoms: N2_11  and  N3_13 
REMARK    6  A    between atoms: C8_18  and  O1_19 
REMARK    7  A    between atoms: C9_21  and  O2_22 
REMARK    8  A    between atoms: C10_24  and  O3_25 
ROOT
HETATM    1  C5  UNL     1     103.761  17.321  17.532  1.00  0.00     0.099 C 
HETATM    2  C6  UNL     1     103.595  15.858  17.310  1.00  0.00     0.049 C 
HETATM    3  C7  UNL     1     102.485  15.626  16.278  1.00  0.00     0.133 C 
HETATM    4  C8  UNL     1     102.860  16.240  14.945  1.00  0.00     0.173 C 
HETATM    5  C9  UNL     1     103.995  17.201  15.058  1.00  0.00     0.178 C 
HETATM    6  C10 UNL     1     103.912  18.108  16.254  1.00  0.00     0.165 C 
ENDROOT
BRANCH   1   7
HETATM    7  C4  UNL     1     104.911  17.508  18.426  1.00  0.00    -0.092 C 
BRANCH   7   8
HETATM    8  C3  UNL     1     105.877  17.653  19.156  1.00  0.00    -0.054 C 
BRANCH   8   9
HETATM    9  C2  UNL     1     107.031  17.813  19.998  1.00  0.00     0.053 C 
HETATM   10  C1  UNL     1     106.851  17.799  21.480  1.00  0.00     0.078 C 
HETATM   11  N1  UNL     1     108.227  17.970  19.540  1.00  0.00    -0.396 N 
ATOM     12  H12 UNL     1     109.045  18.084  20.138  1.00  0.00     0.156 HD
ATOM     13  H11 UNL     1     108.350  17.980  18.528  1.00  0.00     0.156 HD
ENDBRANCH   8   9
ENDBRANCH   7   8
ENDBRANCH   1   7
BRANCH   6  14
HETATM   14  O3  UNL     1     102.944  19.096  16.113  1.00  0.00    -0.392 OA
ATOM     15  H3  UNL     1     103.069  19.822  16.713  1.00  0.00     0.210 HD
ENDBRANCH   6  14
BRANCH   3  16
HETATM   16  N2  UNL     1     101.289  16.244  16.839  1.00  0.00    -0.315 N 
ATOM     17  H2  UNL     1     101.282  16.513  17.823  1.00  0.00     0.182 HD
BRANCH  16  18
HETATM   18  N3  UNL     1     100.274  16.450  16.143  1.00  0.00    -0.253 N 
HETATM   19  N4  UNL     1      99.530  17.190  15.472  1.00  0.00    -0.331 N 
ATOM     20  H42 UNL     1     100.018  18.083  15.536  1.00  0.00     0.178 HD
ATOM     21  H41 UNL     1      98.701  17.359  14.904  1.00  0.00     0.178 HD
ATOM     22  H3  UNL     1      99.816  15.539  16.103  1.00  0.00     0.207 HD
ENDBRANCH  16  18
ENDBRANCH   3  16
BRANCH   5  23
HETATM   23  O2  UNL     1     104.081  17.989  13.923  1.00  0.00    -0.390 OA
ATOM     24  H2  UNL     1     104.966  18.317  13.810  1.00  0.00     0.210 HD
ENDBRANCH   5  23
BRANCH   4  25
HETATM   25  O1  UNL     1     103.295  15.185  14.108  1.00  0.00    -0.391 OA
ATOM     26  H1  UNL     1     102.912  15.332  13.251  1.00  0.00     0.210 HD
ENDBRANCH   4  25
TORSDOF 8
ENDMDL
MODEL 4
REMARK VINA RESULT: -5.826121881      1.257      1.734
REMARK  8 active torsions:
REMARK  status: ('A' for Active; 'I' for Inactive)
REMARK    1  A    between atoms: C2_2  and  C3_6 
REMARK    2  A    between atoms: C3_6  and  C4_7 
REMARK    3  A    between atoms: C4_7  and  C5_8 
REMARK    4  A    between atoms: C7_10  and  N2_11 
REMARK    5  A    between atoms: N2_11  and  N3_13 
REMARK    6  A    between atoms: C8_18  and  O1_19 
REMARK    7  A    between atoms: C9_21  and  O2_22 
REMARK    8  A    between atoms: C10_24  and  O3_25 
ROOT
HETATM    1  C5  UNL     1     104.802  18.089  16.724  1.00  0.00     0.099 C 
HETATM    2  C6  UNL     1     103.729  17.062  16.836  1.00  0.00     0.049 C 
HETATM    3  C7  UNL     1     102.888  17.069  15.555  1.00  0.00     0.133 C 
HETATM    4  C8  UNL     1     103.738  16.697  14.357  1.00  0.00     0.173 C 
HETATM    5  C9  UNL     1     105.199  16.780  14.646  1.00  0.00     0.178 C 
HETATM    6  C10 UNL     1     105.596  17.989  15.446  1.00  0.00     0.165 C 
ENDROOT
BRANCH   1   7
HETATM    7  C4  UNL     1     105.660  17.968  17.910  1.00  0.00    -0.092 C 
BRANCH   7   8
HETATM    8  C3  UNL     1     106.382  17.884  18.890  1.00  0.00    -0.054 C 
BRANCH   8   9
HETATM    9  C2  UNL     1     107.241  17.809  20.040  1.00  0.00     0.053 C 
HETATM   10  C1  UNL     1     106.626  17.703  21.395  1.00  0.00     0.078 C 
HETATM   11  N1  UNL     1     108.530  17.827  19.964  1.00  0.00    -0.396 N 
ATOM     12  H12 UNL     1     109.139  17.773  20.780  1.00  0.00     0.156 HD
ATOM     13  H11 UNL     1     108.950  17.899  19.038  1.00  0.00     0.156 HD
ENDBRANCH   8   9
ENDBRANCH   7   8
ENDBRANCH   1   7
BRANCH   6  14
HETATM   14  O3  UNL     1     105.565  19.162  14.700  1.00  0.00    -0.392 OA
ATOM     15  H3  UNL     1     104.779  19.242  14.172  1.00  0.00     0.210 HD
ENDBRANCH   6  14
BRANCH   3  16
HETATM   16  N2  UNL     1     102.354  18.421  15.440  1.00  0.00    -0.315 N 
ATOM     17  H2  UNL     1     101.963  18.874  16.266  1.00  0.00     0.182 HD
BRANCH  16  18
HETATM   18  N3  UNL     1     102.365  19.036  14.354  1.00  0.00    -0.253 N 
HETATM   19  N4  UNL     1     102.740  19.970  13.621  1.00  0.00    -0.331 N 
ATOM     20  H42 UNL     1     103.354  20.489  14.247  1.00  0.00     0.178 HD
ATOM     21  H41 UNL     1     102.749  20.472  12.733  1.00  0.00     0.178 HD
ATOM     22  H3  UNL     1     101.744  18.489  13.757  1.00  0.00     0.207 HD
ENDBRANCH  16  18
ENDBRANCH   3  16
BRANCH   5  23
HETATM   23  O2  UNL     1     105.928  16.781  13.469  1.00  0.00    -0.390 OA
ATOM     24  H2  UNL     1     106.451  17.571  13.401  1.00  0.00     0.210 HD
ENDBRANCH   5  23
BRANCH   4  25
HETATM   25  O1  UNL     1     103.455  15.346  14.049  1.00  0.00    -0.391 OA
ATOM     26  H1  UNL     1     102.733  15.345  13.430  1.00  0.00     0.210 HD
ENDBRANCH   4  25
TORSDOF 8
ENDMDL
MODEL 5
REMARK VINA RESULT: -5.797173788      0.828      1.183
REMARK  8 active torsions:
REMARK  status: ('A' for Active; 'I' for Inactive)
REMARK    1  A    between atoms: C2_2  and  C3_6 
REMARK    2  A    between atoms: C3_6  and  C4_7 
REMARK    3  A    between atoms: C4_7  and  C5_8 
REMARK    4  A    between atoms: C7_10  and  N2_11 
REMARK    5  A    between atoms: N2_11  and  N3_13 
REMARK    6  A    between atoms: C8_18  and  O1_19 
REMARK    7  A    between atoms: C9_21  and  O2_22 
REMARK    8  A    between atoms: C10_24  and  O3_25 
ROOT
HETATM    1  C5  UNL     1     104.806  18.185  16.746  1.00  0.00     0.099 C 
HETATM    2  C6  UNL     1     104.324  16.838  16.335  1.00  0.00     0.049 C 
HETATM    3  C7  UNL     1     103.513  16.966  15.039  1.00  0.00     0.133 C 
HETATM    4  C8  UNL     1     104.384  17.491  13.916  1.00  0.00     0.173 C 
HETATM    5  C9  UNL     1     105.660  18.085  14.412  1.00  0.00     0.178 C 
HETATM    6  C10 UNL     1     105.500  18.938  15.639  1.00  0.00     0.165 C 
ENDROOT
BRANCH   1   7
HETATM    7  C4  UNL     1     105.678  18.008  17.914  1.00  0.00    -0.092 C 
BRANCH   7   8
HETATM    8  C3  UNL     1     106.403  17.880  18.887  1.00  0.00    -0.054 C 
BRANCH   8   9
HETATM    9  C2  UNL     1     107.256  17.755  20.037  1.00  0.00     0.053 C 
HETATM   10  C1  UNL     1     106.635  17.658  21.390  1.00  0.00     0.078 C 
HETATM   11  N1  UNL     1     108.545  17.720  19.964  1.00  0.00    -0.396 N 
ATOM     12  H12 UNL     1     109.149  17.631  20.780  1.00  0.00     0.156 HD
ATOM     13  H11 UNL     1     108.969  17.786  19.039  1.00  0.00     0.156 HD
ENDBRANCH   8   9
ENDBRANCH   7   8
ENDBRANCH   1   7
BRANCH   6  14
HETATM   14  O3  UNL     1     104.906  20.165  15.367  1.00  0.00    -0.392 OA
ATOM     15  H3  UNL     1     105.356  20.892  15.780  1.00  0.00     0.210 HD
ENDBRANCH   6  14
BRANCH   3  16
HETATM   16  N2  UNL     1     102.420  17.880  15.346  1.00  0.00    -0.315 N 
ATOM     17  H2  UNL     1     101.883  17.745  16.203  1.00  0.00     0.182 HD
BRANCH  16  18
HETATM   18  N3  UNL     1     102.125  18.824  14.584  1.00  0.00    -0.253 N 
HETATM   19  N4  UNL     1     101.952  20.034  14.346  1.00  0.00    -0.331 N 
ATOM     20  H42 UNL     1     102.163  20.454  15.250  1.00  0.00     0.178 HD
ATOM     21  H41 UNL     1     101.711  20.805  13.723  1.00  0.00     0.178 HD
ATOM     22  H3  UNL     1     101.921  18.366  13.696  1.00  0.00     0.207 HD
ENDBRANCH  16  18
ENDBRANCH   3  16
BRANCH   5  23
HETATM   23  O2  UNL     1     106.255  18.852  13.425  1.00  0.00    -0.390 OA
ATOM     24  H2  UNL     1     107.185  18.663  13.370  1.00  0.00     0.210 HD
ENDBRANCH   5  23
BRANCH   4  25
HETATM   25  O1  UNL     1     104.733  16.384  13.107  1.00  0.00    -0.391 OA
ATOM     26  H1  UNL     1     103.958  15.839  13.029  1.00  0.00     0.210 HD
ENDBRANCH   4  25
TORSDOF 8
ENDMDL
