MODEL 1
REMARK VINA RESULT: -10.563807520      0.000      0.000
REMARK  4 active torsions:
REMARK  status: ('A' for Active; 'I' for Inactive)
REMARK    1  A    between atoms: N1_7  and  C7_9 
REMARK    2  A    between atoms: C17_21  and  O1_22 
REMARK    3  A    between atoms: C19_25  and  C20_26 
REMARK    4  A    between atoms: C21_27  and  C22_28 
ROOT
HETATM    1  C7  UNL     1      11.317   3.108  24.945  1.00  0.00     0.033 A 
HETATM    2  C8  UNL     1      11.589   3.913  23.894  1.00  0.00     0.030 A 
HETATM    3  C9  UNL     1      10.620   4.653  23.256  1.00  0.00     0.014 A 
HETATM    4  C10 UNL     1       9.322   4.556  23.726  1.00  0.00    -0.024 A 
HETATM    5  C11 UNL     1       8.290   5.271  23.134  1.00  0.00     0.013 A 
HETATM    6  C12 UNL     1       6.981   5.207  23.563  1.00  0.00     0.011 A 
HETATM    7  C13 UNL     1       6.656   4.400  24.633  1.00  0.00    -0.027 A 
HETATM    8  C14 UNL     1       7.664   3.674  25.246  1.00  0.00     0.048 A 
HETATM    9  C15 UNL     1       8.972   3.749  24.802  1.00  0.00     0.003 A 
HETATM   10  C16 UNL     1       9.993   3.029  25.400  1.00  0.00     0.044 A 
HETATM   11  N2  UNL     1       7.375   2.835  26.358  1.00  0.00    -0.359 N 
ATOM     12  H2  UNL     1       8.097   2.577  27.031  1.00  0.00     0.162 HD
HETATM   13  C17 UNL     1       6.013   2.365  26.491  1.00  0.00     0.249 C 
HETATM   14  C18 UNL     1       5.152   3.570  26.356  1.00  0.00    -0.020 C 
HETATM   15  C19 UNL     1       4.364   3.897  27.344  1.00  0.00     0.072 C 
HETATM   16  C30 UNL     1       5.244   4.336  25.086  1.00  0.00     0.080 C 
ENDROOT
BRANCH  13  17
HETATM   17  O1  UNL     1       5.739   1.524  25.415  1.00  0.00    -0.373 OA
ATOM     18  H1  UNL     1       5.162   0.834  25.719  1.00  0.00     0.212 HD
ENDBRANCH  13  17
BRANCH  15  19
HETATM   19  C20 UNL     1       4.335   3.105  28.534  1.00  0.00    -0.071 C 
HETATM   20  C21 UNL     1       4.332   2.433  29.545  1.00  0.00    -0.043 C 
BRANCH  20  21
HETATM   21  C22 UNL     1       4.353   1.628  30.746  1.00  0.00     0.098 A 
HETATM   22  N3  UNL     1       4.145   2.055  32.007  1.00  0.00    -0.357 N 
HETATM   23  C23 UNL     1       4.238   1.034  32.878  1.00  0.00     0.101 A 
ATOM     24  H3  UNL     1       3.944   3.021  32.266  1.00  0.00     0.166 HD
HETATM   25  C24 UNL     1       4.520  -0.131  32.177  1.00  0.00    -0.008 A 
HETATM   26  C25 UNL     1       4.717  -1.443  32.548  1.00  0.00     0.014 A 
HETATM   27  C29 UNL     1       4.586   0.271  30.851  1.00  0.00     0.011 A 
HETATM   28  C26 UNL     1       4.988  -2.408  31.606  1.00  0.00     0.001 A 
HETATM   29  C27 UNL     1       5.057  -2.029  30.281  1.00  0.00     0.001 A 
HETATM   30  C28 UNL     1       4.857  -0.702  29.920  1.00  0.00     0.015 A 
ENDBRANCH  20  21
ENDBRANCH  15  19
BRANCH   1  31
HETATM   31  N1  UNL     1      12.292   2.326  25.629  1.00  0.00    -0.359 N 
HETATM   32  C6  UNL     1      13.144   1.569  25.009  1.00  0.00     0.013 A 
HETATM   33  C5  UNL     1      14.144   0.771  25.736  1.00  0.00     0.091 A 
HETATM   34  C31 UNL     1      13.057   1.556  23.559  1.00  0.00     0.026 A 
HETATM   35  C3  UNL     1      15.025  -0.006  24.853  1.00  0.00    -0.072 A 
HETATM   36  C2  UNL     1      14.906   0.015  23.543  1.00  0.00    -0.060 A 
HETATM   37  C4  UNL     1      16.095  -0.856  25.464  1.00  0.00     0.044 C 
HETATM   38  C1  UNL     1      15.840  -0.808  22.707  1.00  0.00     0.048 C 
HETATM   39  C32 UNL     1      13.895   0.816  22.858  1.00  0.00     0.009 A 
ATOM     40  H1  UNL     1      12.321   2.364  26.648  1.00  0.00     0.166 HD
ENDBRANCH   1  31
TORSDOF 4
ENDMDL
MODEL 2
REMARK VINA RESULT: -10.073891646      1.667      9.540
REMARK  4 active torsions:
REMARK  status: ('A' for Active; 'I' for Inactive)
REMARK    1  A    between atoms: N1_7  and  C7_9 
REMARK    2  A    between atoms: C17_21  and  O1_22 
REMARK    3  A    between atoms: C19_25  and  C20_26 
REMARK    4  A    between atoms: C21_27  and  C22_28 
ROOT
HETATM    1  C7  UNL     1       5.293   2.165  26.823  1.00  0.00     0.033 A 
HETATM    2  C8  UNL     1       4.207   2.960  26.686  1.00  0.00     0.030 A 
HETATM    3  C9  UNL     1       4.225   4.119  25.945  1.00  0.00     0.014 A 
HETATM    4  C10 UNL     1       5.410   4.467  25.320  1.00  0.00    -0.024 A 
HETATM    5  C11 UNL     1       5.506   5.622  24.557  1.00  0.00     0.013 A 
HETATM    6  C12 UNL     1       6.663   6.013  23.917  1.00  0.00     0.011 A 
HETATM    7  C13 UNL     1       7.795   5.233  24.027  1.00  0.00    -0.027 A 
HETATM    8  C14 UNL     1       7.733   4.074  24.782  1.00  0.00     0.048 A 
HETATM    9  C15 UNL     1       6.562   3.697  25.418  1.00  0.00     0.003 A 
HETATM   10  C16 UNL     1       6.481   2.543  26.179  1.00  0.00     0.044 A 
HETATM   11  N2  UNL     1       8.874   3.236  24.915  1.00  0.00    -0.359 N 
ATOM     12  H2  UNL     1       8.784   2.247  25.147  1.00  0.00     0.162 HD
HETATM   13  C17 UNL     1      10.168   3.850  24.709  1.00  0.00     0.249 C 
HETATM   14  C18 UNL     1      10.065   4.594  23.425  1.00  0.00    -0.020 C 
HETATM   15  C19 UNL     1      10.870   4.280  22.447  1.00  0.00     0.072 C 
HETATM   16  C30 UNL     1       9.038   5.664  23.337  1.00  0.00     0.080 C 
ENDROOT
BRANCH  13  17
HETATM   17  O1  UNL     1      10.372   4.781  25.725  1.00  0.00    -0.373 OA
ATOM     18  H1  UNL     1      10.348   5.649  25.339  1.00  0.00     0.212 HD
ENDBRANCH  13  17
BRANCH  15  19
HETATM   19  C20 UNL     1      11.832   3.235  22.613  1.00  0.00    -0.071 C 
HETATM   20  C21 UNL     1      12.666   2.363  22.754  1.00  0.00    -0.043 C 
BRANCH  20  21
HETATM   21  C22 UNL     1      13.675   1.341  22.916  1.00  0.00     0.098 A 
HETATM   22  N3  UNL     1      14.362   0.724  21.935  1.00  0.00    -0.357 N 
HETATM   23  C23 UNL     1      15.223  -0.174  22.448  1.00  0.00     0.101 A 
ATOM     24  H3  UNL     1      14.245   0.911  20.939  1.00  0.00     0.166 HD
HETATM   25  C24 UNL     1      15.114  -0.163  23.832  1.00  0.00    -0.008 A 
HETATM   26  C25 UNL     1      15.738  -0.858  24.843  1.00  0.00     0.014 A 
HETATM   27  C29 UNL     1      14.141   0.792  24.094  1.00  0.00     0.011 A 
HETATM   28  C26 UNL     1      15.414  -0.627  26.160  1.00  0.00     0.001 A 
HETATM   29  C27 UNL     1      14.450   0.318  26.442  1.00  0.00     0.001 A 
HETATM   30  C28 UNL     1      13.827   1.013  25.413  1.00  0.00     0.015 A 
ENDBRANCH  20  21
ENDBRANCH  15  19
BRANCH   1  31
HETATM   31  N1  UNL     1       5.313   0.961  27.582  1.00  0.00    -0.359 N 
HETATM   32  C6  UNL     1       4.997   0.920  28.840  1.00  0.00     0.013 A 
HETATM   33  C5  UNL     1       5.025  -0.336  29.606  1.00  0.00     0.091 A 
HETATM   34  C31 UNL     1       4.615   2.183  29.448  1.00  0.00     0.026 A 
HETATM   35  C3  UNL     1       4.619  -0.175  31.009  1.00  0.00    -0.072 A 
HETATM   36  C2  UNL     1       4.281   0.993  31.514  1.00  0.00    -0.060 A 
HETATM   37  C4  UNL     1       4.594  -1.378  31.898  1.00  0.00     0.044 C 
HETATM   38  C1  UNL     1       3.881   1.080  32.957  1.00  0.00     0.048 C 
HETATM   39  C32 UNL     1       4.273   2.219  30.723  1.00  0.00     0.009 A 
ATOM     40  H1  UNL     1       5.588   0.095  27.118  1.00  0.00     0.166 HD
ENDBRANCH   1  31
TORSDOF 4
ENDMDL
MODEL 3
REMARK VINA RESULT: -9.888092490      1.225      1.840
REMARK  4 active torsions:
REMARK  status: ('A' for Active; 'I' for Inactive)
REMARK    1  A    between atoms: N1_7  and  C7_9 
REMARK    2  A    between atoms: C17_21  and  O1_22 
REMARK    3  A    between atoms: C19_25  and  C20_26 
REMARK    4  A    between atoms: C21_27  and  C22_28 
ROOT
HETATM    1  C7  UNL     1      11.122   2.803  24.109  1.00  0.00     0.033 A 
HETATM    2  C8  UNL     1      11.330   3.693  23.112  1.00  0.00     0.030 A 
HETATM    3  C9  UNL     1      10.388   4.622  22.738  1.00  0.00     0.014 A 
HETATM    4  C10 UNL     1       9.185   4.632  23.422  1.00  0.00    -0.024 A 
HETATM    5  C11 UNL     1       8.184   5.539  23.101  1.00  0.00     0.013 A 
HETATM    6  C12 UNL     1       6.969   5.588  23.750  1.00  0.00     0.011 A 
HETATM    7  C13 UNL     1       6.711   4.701  24.774  1.00  0.00    -0.027 A 
HETATM    8  C14 UNL     1       7.689   3.783  25.120  1.00  0.00     0.048 A 
HETATM    9  C15 UNL     1       8.904   3.748  24.457  1.00  0.00     0.003 A 
HETATM   10  C16 UNL     1       9.893   2.836  24.785  1.00  0.00     0.044 A 
HETATM   11  N2  UNL     1       7.469   2.856  26.175  1.00  0.00    -0.359 N 
ATOM     12  H2  UNL     1       8.246   2.426  26.678  1.00  0.00     0.162 HD
HETATM   13  C17 UNL     1       6.094   2.547  26.504  1.00  0.00     0.249 C 
HETATM   14  C18 UNL     1       5.407   3.859  26.649  1.00  0.00    -0.020 C 
HETATM   15  C19 UNL     1       4.850   4.157  27.790  1.00  0.00     0.072 C 
HETATM   16  C30 UNL     1       5.399   4.759  25.466  1.00  0.00     0.080 C 
ENDROOT
BRANCH  13  17
HETATM   17  O1  UNL     1       5.527   1.888  25.416  1.00  0.00    -0.373 OA
ATOM     18  H1  UNL     1       5.540   2.479  24.673  1.00  0.00     0.212 HD
ENDBRANCH  13  17
BRANCH  15  19
HETATM   19  C20 UNL     1       4.902   3.233  28.881  1.00  0.00    -0.071 C 
HETATM   20  C21 UNL     1       4.926   2.444  29.803  1.00  0.00    -0.043 C 
BRANCH  20  21
HETATM   21  C22 UNL     1       4.930   1.503  30.902  1.00  0.00     0.098 A 
HETATM   22  N3  UNL     1       4.937   1.799  32.216  1.00  0.00    -0.357 N 
HETATM   23  C23 UNL     1       4.939   0.676  32.957  1.00  0.00     0.101 A 
ATOM     24  H3  UNL     1       4.941   2.745  32.598  1.00  0.00     0.166 HD
HETATM   25  C24 UNL     1       4.932  -0.423  32.109  1.00  0.00    -0.008 A 
HETATM   26  C25 UNL     1       4.930  -1.785  32.313  1.00  0.00     0.014 A 
HETATM   27  C29 UNL     1       4.927   0.124  30.834  1.00  0.00     0.011 A 
HETATM   28  C26 UNL     1       4.923  -2.657  31.248  1.00  0.00     0.001 A 
HETATM   29  C27 UNL     1       4.917  -2.133  29.972  1.00  0.00     0.001 A 
HETATM   30  C28 UNL     1       4.920  -0.756  29.779  1.00  0.00     0.015 A 
ENDBRANCH  20  21
ENDBRANCH  15  19
BRANCH   1  31
HETATM   31  N1  UNL     1      12.071   1.827  24.523  1.00  0.00    -0.359 N 
HETATM   32  C6  UNL     1      13.018   2.085  25.372  1.00  0.00     0.013 A 
HETATM   33  C5  UNL     1      13.988   1.059  25.787  1.00  0.00     0.091 A 
HETATM   34  C31 UNL     1      13.064   3.441  25.891  1.00  0.00     0.026 A 
HETATM   35  C3  UNL     1      14.970   1.545  26.766  1.00  0.00    -0.072 A 
HETATM   36  C2  UNL     1      14.971   2.786  27.206  1.00  0.00    -0.060 A 
HETATM   37  C4  UNL     1      16.010   0.600  27.279  1.00  0.00     0.044 C 
HETATM   38  C1  UNL     1      16.007   3.211  28.203  1.00  0.00     0.048 C 
HETATM   39  C32 UNL     1      13.994   3.777  26.765  1.00  0.00     0.009 A 
ATOM     40  H1  UNL     1      12.005   0.885  24.136  1.00  0.00     0.166 HD
ENDBRANCH   1  31
TORSDOF 4
ENDMDL
MODEL 4
REMARK VINA RESULT: -9.887353753      1.291      1.807
REMARK  4 active torsions:
REMARK  status: ('A' for Active; 'I' for Inactive)
REMARK    1  A    between atoms: N1_7  and  C7_9 
REMARK    2  A    between atoms: C17_21  and  O1_22 
REMARK    3  A    between atoms: C19_25  and  C20_26 
REMARK    4  A    between atoms: C21_27  and  C22_28 
ROOT
HETATM    1  C7  UNL     1      10.268   4.763  25.084  1.00  0.00     0.033 A 
HETATM    2  C8  UNL     1      10.145   5.797  24.221  1.00  0.00     0.030 A 
HETATM    3  C9  UNL     1       8.926   6.324  23.863  1.00  0.00     0.014 A 
HETATM    4  C10 UNL     1       7.791   5.761  24.421  1.00  0.00    -0.024 A 
HETATM    5  C11 UNL     1       6.526   6.237  24.108  1.00  0.00     0.013 A 
HETATM    6  C12 UNL     1       5.366   5.710  24.635  1.00  0.00     0.011 A 
HETATM    7  C13 UNL     1       5.442   4.655  25.520  1.00  0.00    -0.027 A 
HETATM    8  C14 UNL     1       6.690   4.156  25.854  1.00  0.00     0.048 A 
HETATM    9  C15 UNL     1       7.844   4.698  25.315  1.00  0.00     0.003 A 
HETATM   10  C16 UNL     1       9.101   4.212  25.634  1.00  0.00     0.044 A 
HETATM   11  N2  UNL     1       6.815   3.076  26.770  1.00  0.00    -0.359 N 
ATOM     12  H2  UNL     1       7.676   2.919  27.295  1.00  0.00     0.162 HD
HETATM   13  C17 UNL     1       5.667   2.207  26.923  1.00  0.00     0.249 C 
HETATM   14  C18 UNL     1       4.504   3.107  27.148  1.00  0.00    -0.020 C 
HETATM   15  C19 UNL     1       3.823   2.994  28.254  1.00  0.00     0.072 C 
HETATM   16  C30 UNL     1       4.187   4.092  26.081  1.00  0.00     0.080 C 
ENDROOT
BRANCH  13  17
HETATM   17  O1  UNL     1       5.464   1.543  25.716  1.00  0.00    -0.373 OA
ATOM     18  H1  UNL     1       4.802   0.876  25.854  1.00  0.00     0.212 HD
ENDBRANCH  13  17
BRANCH  15  19
HETATM   19  C20 UNL     1       4.194   2.018  29.232  1.00  0.00    -0.071 C 
HETATM   20  C21 UNL     1       4.528   1.201  30.066  1.00  0.00    -0.043 C 
BRANCH  20  21
HETATM   21  C22 UNL     1       4.947   0.239  31.060  1.00  0.00     0.098 A 
HETATM   22  N3  UNL     1       5.392   0.506  32.303  1.00  0.00    -0.357 N 
HETATM   23  C23 UNL     1       5.695  -0.632  32.956  1.00  0.00     0.101 A 
ATOM     24  H3  UNL     1       5.487   1.442  32.697  1.00  0.00     0.166 HD
HETATM   25  C24 UNL     1       5.443  -1.711  32.119  1.00  0.00    -0.008 A 
HETATM   26  C25 UNL     1       5.567  -3.075  32.260  1.00  0.00     0.014 A 
HETATM   27  C29 UNL     1       4.978  -1.137  30.945  1.00  0.00     0.011 A 
HETATM   28  C26 UNL     1       5.232  -3.923  31.229  1.00  0.00     0.001 A 
HETATM   29  C27 UNL     1       4.767  -3.372  30.053  1.00  0.00     0.001 A 
HETATM   30  C28 UNL     1       4.646  -1.994  29.924  1.00  0.00     0.015 A 
ENDBRANCH  20  21
ENDBRANCH  15  19
BRANCH   1  31
HETATM   31  N1  UNL     1      11.511   4.190  25.476  1.00  0.00    -0.359 N 
HETATM   32  C6  UNL     1      12.165   3.354  24.730  1.00  0.00     0.013 A 
HETATM   33  C5  UNL     1      13.449   2.775  25.155  1.00  0.00     0.091 A 
HETATM   34  C31 UNL     1      11.558   3.024  23.452  1.00  0.00     0.026 A 
HETATM   35  C3  UNL     1      14.036   1.864  24.163  1.00  0.00    -0.072 A 
HETATM   36  C2  UNL     1      13.447   1.596  23.017  1.00  0.00    -0.060 A 
HETATM   37  C4  UNL     1      15.349   1.213  24.466  1.00  0.00     0.044 C 
HETATM   38  C1  UNL     1      14.105   0.653  22.055  1.00  0.00     0.048 C 
HETATM   39  C32 UNL     1      12.167   2.186  22.634  1.00  0.00     0.009 A 
ATOM     40  H1  UNL     1      11.904   4.448  26.382  1.00  0.00     0.166 HD
ENDBRANCH   1  31
TORSDOF 4
ENDMDL
MODEL 5
REMARK VINA RESULT: -9.816985160      1.672      9.791
REMARK  4 active torsions:
REMARK  status: ('A' for Active; 'I' for Inactive)
REMARK    1  A    between atoms: N1_7  and  C7_9 
REMARK    2  A    between atoms: C17_21  and  O1_22 
REMARK    3  A    between atoms: C19_25  and  C20_26 
REMARK    4  A    between atoms: C21_27  and  C22_28 
ROOT
HETATM    1  C7  UNL     1       5.223   2.170  26.590  1.00  0.00     0.033 A 
HETATM    2  C8  UNL     1       4.220   2.993  26.208  1.00  0.00     0.030 A 
HETATM    3  C9  UNL     1       4.428   4.096  25.412  1.00  0.00     0.014 A 
HETATM    4  C10 UNL     1       5.722   4.356  24.996  1.00  0.00    -0.024 A 
HETATM    5  C11 UNL     1       6.011   5.451  24.193  1.00  0.00     0.013 A 
HETATM    6  C12 UNL     1       7.283   5.753  23.755  1.00  0.00     0.011 A 
HETATM    7  C13 UNL     1       8.337   4.942  24.119  1.00  0.00    -0.027 A 
HETATM    8  C14 UNL     1       8.082   3.841  24.920  1.00  0.00     0.048 A 
HETATM    9  C15 UNL     1       6.799   3.552  25.351  1.00  0.00     0.003 A 
HETATM   10  C16 UNL     1       6.525   2.458  26.154  1.00  0.00     0.044 A 
HETATM   11  N2  UNL     1       9.138   2.974  25.312  1.00  0.00    -0.359 N 
ATOM     12  H2  UNL     1       8.960   2.006  25.584  1.00  0.00     0.162 HD
HETATM   13  C17 UNL     1      10.477   3.524  25.310  1.00  0.00     0.249 C 
HETATM   14  C18 UNL     1      10.645   4.179  23.985  1.00  0.00    -0.020 C 
HETATM   15  C19 UNL     1      11.597   3.769  23.194  1.00  0.00     0.072 C 
HETATM   16  C30 UNL     1       9.704   5.278  23.644  1.00  0.00     0.080 C 
ENDROOT
BRANCH  13  17
HETATM   17  O1  UNL     1      10.538   4.515  26.287  1.00  0.00    -0.373 OA
ATOM     18  H1  UNL     1      11.396   4.475  26.694  1.00  0.00     0.212 HD
ENDBRANCH  13  17
BRANCH  15  19
HETATM   19  C20 UNL     1      12.461   2.704  23.598  1.00  0.00    -0.071 C 
HETATM   20  C21 UNL     1      13.212   1.812  23.937  1.00  0.00    -0.043 C 
BRANCH  20  21
HETATM   21  C22 UNL     1      14.125   0.763  24.332  1.00  0.00     0.098 A 
HETATM   22  N3  UNL     1      14.173   0.143  25.527  1.00  0.00    -0.357 N 
HETATM   23  C23 UNL     1      15.148  -0.783  25.545  1.00  0.00     0.101 A 
ATOM     24  H3  UNL     1      13.554   0.348  26.312  1.00  0.00     0.166 HD
HETATM   25  C24 UNL     1      15.786  -0.790  24.312  1.00  0.00    -0.008 A 
HETATM   26  C25 UNL     1      16.828  -1.517  23.781  1.00  0.00     0.014 A 
HETATM   27  C29 UNL     1      15.126   0.184  23.577  1.00  0.00     0.011 A 
HETATM   28  C26 UNL     1      17.254  -1.298  22.492  1.00  0.00     0.001 A 
HETATM   29  C27 UNL     1      16.612  -0.334  21.744  1.00  0.00     0.001 A 
HETATM   30  C28 UNL     1      15.561   0.393  22.291  1.00  0.00     0.015 A 
ENDBRANCH  20  21
ENDBRANCH  15  19
BRANCH   1  31
HETATM   31  N1  UNL     1       5.046   1.022  27.414  1.00  0.00    -0.359 N 
HETATM   32  C6  UNL     1       4.918   1.096  28.703  1.00  0.00     0.013 A 
HETATM   33  C5  UNL     1       4.736  -0.104  29.534  1.00  0.00     0.091 A 
HETATM   34  C31 UNL     1       4.964   2.429  29.277  1.00  0.00     0.026 A 
HETATM   35  C3  UNL     1       4.595   0.192  30.966  1.00  0.00    -0.072 A 
HETATM   36  C2  UNL     1       4.643   1.420  31.439  1.00  0.00    -0.060 A 
HETATM   37  C4  UNL     1       4.394  -0.940  31.924  1.00  0.00     0.044 C 
HETATM   38  C1  UNL     1       4.495   1.645  32.914  1.00  0.00     0.048 C 
HETATM   39  C32 UNL     1       4.833   2.586  30.581  1.00  0.00     0.009 A 
ATOM     40  H1  UNL     1       5.020   0.103  26.971  1.00  0.00     0.166 HD
ENDBRANCH   1  31
TORSDOF 4
ENDMDL
