MODEL 1
REMARK VINA RESULT: -10.669626885      0.000      0.000
REMARK  1 active torsions:
REMARK  status: ('A' for Active; 'I' for Inactive)
REMARK    1  A    between atoms: C10_14  and  C11_15 
ROOT
HETATM    1  C11 UNL     1       9.246   6.082  24.270  1.00  0.00     0.010 A 
HETATM    2  C12 UNL     1       9.249   7.429  23.963  1.00  0.00     0.022 A 
HETATM    3  C13 UNL     1      10.225   8.003  23.180  1.00  0.00    -0.060 A 
HETATM    4  C14 UNL     1      10.265   9.444  22.826  1.00  0.00     0.048 C 
HETATM    5  C15 UNL     1      11.212   7.177  22.705  1.00  0.00     0.021 A 
HETATM    6  C16 UNL     1      11.231   5.809  23.002  1.00  0.00     0.008 A 
HETATM    7  C17 UNL     1      12.232   5.000  22.514  1.00  0.00    -0.010 A 
HETATM    8  C18 UNL     1      12.200   3.651  22.841  1.00  0.00     0.061 A 
HETATM    9  C19 UNL     1      11.207   3.130  23.624  1.00  0.00     0.300 A 
HETATM   10  O1  UNL     1      11.108   1.937  23.960  1.00  0.00    -0.259 OA
HETATM   11  O2  UNL     1      10.269   3.975  24.061  1.00  0.00    -0.273 OA
HETATM   12  C20 UNL     1      10.245   5.249  23.789  1.00  0.00     0.101 A 
HETATM   13  C21 UNL     1      13.268   2.806  22.315  1.00  0.00     0.007 A 
HETATM   14  C22 UNL     1      13.307   1.469  22.593  1.00  0.00     0.015 A 
HETATM   15  C23 UNL     1      14.354   0.688  22.068  1.00  0.00     0.001 A 
HETATM   16  C24 UNL     1      15.315   1.274  21.291  1.00  0.00     0.002 A 
HETATM   17  C25 UNL     1      15.295   2.612  21.001  1.00  0.00     0.030 A 
HETATM   18  C26 UNL     1      14.271   3.384  21.511  1.00  0.00     0.041 A 
HETATM   19  N3  UNL     1      14.253   4.778  21.205  1.00  0.00    -0.380 N 
HETATM   20  C27 UNL     1      15.309   5.324  20.364  1.00  0.00     0.150 C 
HETATM   21  C28 UNL     1      13.249   5.656  21.686  1.00  0.00     0.163 A 
ENDROOT
BRANCH   1  22
HETATM   22  C10 UNL     1       8.195   5.478  25.113  1.00  0.00    -0.021 A 
HETATM   23  C9  UNL     1       6.971   5.140  24.625  1.00  0.00     0.042 A 
HETATM   24  C8  UNL     1       6.025   4.574  25.482  1.00  0.00     0.044 A 
HETATM   25  N2  UNL     1       4.759   4.143  25.300  1.00  0.00    -0.353 N 
HETATM   26  C31 UNL     1       6.304   4.351  26.813  1.00  0.00     0.003 A 
HETATM   27  C7  UNL     1       4.246   3.669  26.445  1.00  0.00     0.070 A 
ATOM     28  H2  UNL     1       4.260   4.175  24.411  1.00  0.00     0.166 HD
HETATM   29  C2  UNL     1       2.947   3.095  26.797  1.00  0.00     0.050 A 
HETATM   30  C6  UNL     1       5.210   3.782  27.454  1.00  0.00     0.007 A 
HETATM   31  C1  UNL     1       2.007   2.971  25.867  1.00  0.00     0.045 C 
HETATM   32  N1  UNL     1       2.719   2.680  28.133  1.00  0.00    -0.359 N 
HETATM   33  C3  UNL     1       3.752   2.825  29.117  1.00  0.00     0.006 A 
ATOM     34  H1  UNL     1       1.819   2.277  28.395  1.00  0.00     0.166 HD
HETATM   35  C4  UNL     1       3.473   2.383  30.488  1.00  0.00     0.068 C 
HETATM   36  C5  UNL     1       4.925   3.340  28.810  1.00  0.00     0.039 A 
HETATM   37  C30 UNL     1       7.551   4.693  27.318  1.00  0.00     0.015 A 
HETATM   38  C29 UNL     1       8.467   5.250  26.452  1.00  0.00     0.013 A 
ENDBRANCH   1  22
TORSDOF 1
ENDMDL
MODEL 2
REMARK VINA RESULT: -9.871334886      1.627      1.956
REMARK  1 active torsions:
REMARK  status: ('A' for Active; 'I' for Inactive)
REMARK    1  A    between atoms: C10_14  and  C11_15 
ROOT
HETATM    1  C11 UNL     1       8.682   4.379  24.281  1.00  0.00     0.010 A 
HETATM    2  C12 UNL     1       8.397   5.372  23.362  1.00  0.00     0.022 A 
HETATM    3  C13 UNL     1       9.289   5.742  22.380  1.00  0.00    -0.060 A 
HETATM    4  C14 UNL     1       9.023   6.801  21.374  1.00  0.00     0.048 C 
HETATM    5  C15 UNL     1      10.489   5.079  22.342  1.00  0.00     0.021 A 
HETATM    6  C16 UNL     1      10.800   4.070  23.262  1.00  0.00     0.008 A 
HETATM    7  C17 UNL     1      12.012   3.420  23.204  1.00  0.00    -0.010 A 
HETATM    8  C18 UNL     1      12.266   2.428  24.141  1.00  0.00     0.061 A 
HETATM    9  C19 UNL     1      11.347   2.098  25.098  1.00  0.00     0.300 A 
HETATM   10  O1  UNL     1      11.499   1.224  25.970  1.00  0.00    -0.259 OA
HETATM   11  O2  UNL     1      10.193   2.771  25.093  1.00  0.00    -0.273 OA
HETATM   12  C20 UNL     1       9.897   3.711  24.241  1.00  0.00     0.101 A 
HETATM   13  C21 UNL     1      13.555   1.746  24.066  1.00  0.00     0.007 A 
HETATM   14  C22 UNL     1      13.881   0.760  24.954  1.00  0.00     0.015 A 
HETATM   15  C23 UNL     1      15.135   0.127  24.849  1.00  0.00     0.001 A 
HETATM   16  C24 UNL     1      16.007   0.507  23.866  1.00  0.00     0.002 A 
HETATM   17  C25 UNL     1      15.701   1.493  22.968  1.00  0.00     0.030 A 
HETATM   18  C26 UNL     1      14.474   2.118  23.063  1.00  0.00     0.041 A 
HETATM   19  N3  UNL     1      14.158   3.144  22.123  1.00  0.00    -0.380 N 
HETATM   20  C27 UNL     1      15.139   3.485  21.103  1.00  0.00     0.150 C 
HETATM   21  C28 UNL     1      12.928   3.848  22.142  1.00  0.00     0.163 A 
ENDROOT
BRANCH   1  22
HETATM   22  C10 UNL     1       7.719   3.993  25.332  1.00  0.00    -0.021 A 
HETATM   23  C9  UNL     1       6.584   3.295  25.061  1.00  0.00     0.042 A 
HETATM   24  C8  UNL     1       5.718   2.965  26.106  1.00  0.00     0.044 A 
HETATM   25  N2  UNL     1       4.546   2.297  26.154  1.00  0.00    -0.353 N 
HETATM   26  C31 UNL     1       5.989   3.332  27.406  1.00  0.00     0.003 A 
HETATM   27  C7  UNL     1       4.083   2.234  27.412  1.00  0.00     0.070 A 
ATOM     28  H2  UNL     1       4.076   1.895  25.343  1.00  0.00     0.166 HD
HETATM   29  C2  UNL     1       2.887   1.641  28.009  1.00  0.00     0.050 A 
HETATM   30  C6  UNL     1       4.985   2.890  28.259  1.00  0.00     0.007 A 
HETATM   31  C1  UNL     1       2.009   1.010  27.238  1.00  0.00     0.045 C 
HETATM   32  N1  UNL     1       2.690   1.753  29.408  1.00  0.00    -0.359 N 
HETATM   33  C3  UNL     1       3.655   2.440  30.217  1.00  0.00     0.006 A 
ATOM     34  H1  UNL     1       1.861   1.345  29.841  1.00  0.00     0.166 HD
HETATM   35  C4  UNL     1       3.410   2.532  31.661  1.00  0.00     0.068 C 
HETATM   36  C5  UNL     1       4.735   2.977  29.689  1.00  0.00     0.039 A 
HETATM   37  C30 UNL     1       7.147   4.044  27.689  1.00  0.00     0.015 A 
HETATM   38  C29 UNL     1       7.984   4.357  26.641  1.00  0.00     0.013 A 
ENDBRANCH   1  22
TORSDOF 1
ENDMDL
MODEL 3
REMARK VINA RESULT: -9.381030378      2.108      4.657
REMARK  1 active torsions:
REMARK  status: ('A' for Active; 'I' for Inactive)
REMARK    1  A    between atoms: C10_14  and  C11_15 
ROOT
HETATM    1  C11 UNL     1       9.812   4.304  24.387  1.00  0.00     0.010 A 
HETATM    2  C12 UNL     1      10.373   3.316  23.601  1.00  0.00     0.022 A 
HETATM    3  C13 UNL     1      11.484   3.541  22.820  1.00  0.00    -0.060 A 
HETATM    4  C14 UNL     1      12.118   2.508  21.961  1.00  0.00     0.048 C 
HETATM    5  C15 UNL     1      12.027   4.799  22.851  1.00  0.00     0.021 A 
HETATM    6  C16 UNL     1      11.477   5.817  23.640  1.00  0.00     0.008 A 
HETATM    7  C17 UNL     1      12.040   7.074  23.654  1.00  0.00    -0.010 A 
HETATM    8  C18 UNL     1      11.452   8.044  24.456  1.00  0.00     0.061 A 
HETATM    9  C19 UNL     1      10.347   7.770  25.212  1.00  0.00     0.300 A 
HETATM   10  O1  UNL     1       9.764   8.580  25.953  1.00  0.00    -0.259 OA
HETATM   11  O2  UNL     1       9.856   6.529  25.149  1.00  0.00    -0.273 OA
HETATM   12  C20 UNL     1      10.362   5.577  24.416  1.00  0.00     0.101 A 
HETATM   13  C21 UNL     1      12.061   9.370  24.461  1.00  0.00     0.007 A 
HETATM   14  C22 UNL     1      11.540  10.379  25.222  1.00  0.00     0.015 A 
HETATM   15  C23 UNL     1      12.155  11.645  25.199  1.00  0.00     0.001 A 
HETATM   16  C24 UNL     1      13.260  11.850  24.418  1.00  0.00     0.002 A 
HETATM   17  C25 UNL     1      13.797  10.853  23.648  1.00  0.00     0.030 A 
HETATM   18  C26 UNL     1      13.200   9.609  23.665  1.00  0.00     0.041 A 
HETATM   19  N3  UNL     1      13.764   8.573  22.862  1.00  0.00    -0.380 N 
HETATM   20  C27 UNL     1      14.945   8.870  22.065  1.00  0.00     0.150 C 
HETATM   21  C28 UNL     1      13.221   7.265  22.807  1.00  0.00     0.163 A 
ENDROOT
BRANCH   1  22
HETATM   22  C10 UNL     1       8.618   4.053  25.219  1.00  0.00    -0.021 A 
HETATM   23  C9  UNL     1       7.374   3.913  24.687  1.00  0.00     0.042 A 
HETATM   24  C8  UNL     1       6.289   3.678  25.536  1.00  0.00     0.044 A 
HETATM   25  N2  UNL     1       4.970   3.499  25.315  1.00  0.00    -0.353 N 
HETATM   26  C31 UNL     1       6.453   3.586  26.901  1.00  0.00     0.003 A 
HETATM   27  C7  UNL     1       4.315   3.303  26.470  1.00  0.00     0.070 A 
ATOM     28  H2  UNL     1       4.531   3.512  24.395  1.00  0.00     0.166 HD
HETATM   29  C2  UNL     1       2.909   3.065  26.793  1.00  0.00     0.050 A 
HETATM   30  C6  UNL     1       5.234   3.350  27.525  1.00  0.00     0.007 A 
HETATM   31  C1  UNL     1       2.007   3.013  25.819  1.00  0.00     0.045 C 
HETATM   32  N1  UNL     1       2.536   2.892  28.150  1.00  0.00    -0.359 N 
HETATM   33  C3  UNL     1       3.530   2.953  29.182  1.00  0.00     0.006 A 
ATOM     34  H1  UNL     1       1.559   2.725  28.393  1.00  0.00     0.166 HD
HETATM   35  C4  UNL     1       3.099   2.769  30.573  1.00  0.00     0.068 C 
HETATM   36  C5  UNL     1       4.798   3.166  28.901  1.00  0.00     0.039 A 
HETATM   37  C30 UNL     1       7.720   3.727  27.450  1.00  0.00     0.015 A 
HETATM   38  C29 UNL     1       8.773   3.959  26.592  1.00  0.00     0.013 A 
ENDBRANCH   1  22
TORSDOF 1
ENDMDL
MODEL 4
REMARK VINA RESULT: -9.372611316      1.509      2.418
REMARK  1 active torsions:
REMARK  status: ('A' for Active; 'I' for Inactive)
REMARK    1  A    between atoms: C10_14  and  C11_15 
ROOT
HETATM    1  C11 UNL     1       8.711   6.728  25.236  1.00  0.00     0.010 A 
HETATM    2  C12 UNL     1       8.608   8.087  25.466  1.00  0.00     0.022 A 
HETATM    3  C13 UNL     1       9.533   8.986  24.984  1.00  0.00    -0.060 A 
HETATM    4  C14 UNL     1       9.460  10.452  25.208  1.00  0.00     0.048 C 
HETATM    5  C15 UNL     1      10.577   8.479  24.255  1.00  0.00     0.021 A 
HETATM    6  C16 UNL     1      10.703   7.106  24.008  1.00  0.00     0.008 A 
HETATM    7  C17 UNL     1      11.762   6.621  23.273  1.00  0.00    -0.010 A 
HETATM    8  C18 UNL     1      11.835   5.250  23.061  1.00  0.00     0.061 A 
HETATM    9  C19 UNL     1      10.890   4.399  23.561  1.00  0.00     0.300 A 
HETATM   10  O1  UNL     1      10.885   3.165  23.415  1.00  0.00    -0.259 OA
HETATM   11  O2  UNL     1       9.892   4.941  24.265  1.00  0.00    -0.273 OA
HETATM   12  C20 UNL     1       9.769   6.217  24.498  1.00  0.00     0.101 A 
HETATM   13  C21 UNL     1      12.962   4.752  22.278  1.00  0.00     0.007 A 
HETATM   14  C22 UNL     1      13.106   3.416  22.027  1.00  0.00     0.015 A 
HETATM   15  C23 UNL     1      14.207   2.974  21.269  1.00  0.00     0.001 A 
HETATM   16  C24 UNL     1      15.116   3.881  20.798  1.00  0.00     0.002 A 
HETATM   17  C25 UNL     1      14.991   5.223  21.039  1.00  0.00     0.030 A 
HETATM   18  C26 UNL     1      13.914   5.665  21.780  1.00  0.00     0.041 A 
HETATM   19  N3  UNL     1      13.787   7.064  22.028  1.00  0.00    -0.380 N 
HETATM   20  C27 UNL     1      14.793   7.966  21.485  1.00  0.00     0.150 C 
HETATM   21  C28 UNL     1      12.720   7.616  22.782  1.00  0.00     0.163 A 
ENDROOT
BRANCH   1  22
HETATM   22  C10 UNL     1       7.714   5.772  25.760  1.00  0.00    -0.021 A 
HETATM   23  C9  UNL     1       7.699   5.370  27.059  1.00  0.00     0.042 A 
HETATM   24  C8  UNL     1       6.727   4.462  27.483  1.00  0.00     0.044 A 
HETATM   25  N2  UNL     1       6.460   3.890  28.676  1.00  0.00    -0.353 N 
HETATM   26  C31 UNL     1       5.782   3.964  26.613  1.00  0.00     0.003 A 
HETATM   27  C7  UNL     1       5.403   3.068  28.586  1.00  0.00     0.070 A 
ATOM     28  H2  UNL     1       6.990   4.060  29.530  1.00  0.00     0.166 HD
HETATM   29  C2  UNL     1       4.711   2.220  29.556  1.00  0.00     0.050 A 
HETATM   30  C6  UNL     1       4.929   3.083  27.268  1.00  0.00     0.007 A 
HETATM   31  C1  UNL     1       5.130   2.180  30.815  1.00  0.00     0.045 C 
HETATM   32  N1  UNL     1       3.596   1.455  29.127  1.00  0.00    -0.359 N 
HETATM   33  C3  UNL     1       3.164   1.518  27.761  1.00  0.00     0.006 A 
ATOM     34  H1  UNL     1       3.101   0.859  29.791  1.00  0.00     0.166 HD
HETATM   35  C4  UNL     1       2.007   0.709  27.361  1.00  0.00     0.068 C 
HETATM   36  C5  UNL     1       3.781   2.278  26.880  1.00  0.00     0.039 A 
HETATM   37  C30 UNL     1       5.790   4.371  25.286  1.00  0.00     0.015 A 
HETATM   38  C29 UNL     1       6.760   5.267  24.892  1.00  0.00     0.013 A 
ENDBRANCH   1  22
TORSDOF 1
ENDMDL
MODEL 5
REMARK VINA RESULT: -9.311425481      3.270      4.425
REMARK  1 active torsions:
REMARK  status: ('A' for Active; 'I' for Inactive)
REMARK    1  A    between atoms: C10_14  and  C11_15 
ROOT
HETATM    1  C11 UNL     1      10.203   8.683  25.341  1.00  0.00     0.010 A 
HETATM    2  C12 UNL     1      10.333   9.733  26.230  1.00  0.00     0.022 A 
HETATM    3  C13 UNL     1      11.337  10.669  26.119  1.00  0.00    -0.060 A 
HETATM    4  C14 UNL     1      11.514  11.812  27.051  1.00  0.00     0.048 C 
HETATM    5  C15 UNL     1      12.217  10.523  25.078  1.00  0.00     0.021 A 
HETATM    6  C16 UNL     1      12.106   9.467  24.164  1.00  0.00     0.008 A 
HETATM    7  C17 UNL     1      13.002   9.341  23.127  1.00  0.00    -0.010 A 
HETATM    8  C18 UNL     1      12.842   8.275  22.252  1.00  0.00     0.061 A 
HETATM    9  C19 UNL     1      11.828   7.371  22.406  1.00  0.00     0.300 A 
HETATM   10  O1  UNL     1      11.618   6.393  21.668  1.00  0.00    -0.259 OA
HETATM   11  O2  UNL     1      10.996   7.557  23.435  1.00  0.00    -0.273 OA
HETATM   12  C20 UNL     1      11.095   8.537  24.289  1.00  0.00     0.101 A 
HETATM   13  C21 UNL     1      13.800   8.155  21.157  1.00  0.00     0.007 A 
HETATM   14  C22 UNL     1      13.711   7.133  20.255  1.00  0.00     0.015 A 
HETATM   15  C23 UNL     1      14.655   7.051  19.213  1.00  0.00     0.001 A 
HETATM   16  C24 UNL     1      15.645   7.990  19.118  1.00  0.00     0.002 A 
HETATM   17  C25 UNL     1      15.752   9.022  20.011  1.00  0.00     0.030 A 
HETATM   18  C26 UNL     1      14.831   9.109  21.035  1.00  0.00     0.041 A 
HETATM   19  N3  UNL     1      14.946  10.187  21.963  1.00  0.00    -0.380 N 
HETATM   20  C27 UNL     1      16.024  11.150  21.788  1.00  0.00     0.150 C 
HETATM   21  C28 UNL     1      14.053  10.361  23.051  1.00  0.00     0.163 A 
ENDROOT
BRANCH   1  22
HETATM   22  C10 UNL     1       9.123   7.683  25.471  1.00  0.00    -0.021 A 
HETATM   23  C9  UNL     1       9.370   6.372  25.730  1.00  0.00     0.042 A 
HETATM   24  C8  UNL     1       8.299   5.482  25.838  1.00  0.00     0.044 A 
HETATM   25  N2  UNL     1       8.224   4.157  26.083  1.00  0.00    -0.353 N 
HETATM   26  C31 UNL     1       6.996   5.905  25.687  1.00  0.00     0.003 A 
HETATM   27  C7  UNL     1       6.947   3.744  26.090  1.00  0.00     0.070 A 
ATOM     28  H2  UNL     1       9.029   3.551  26.241  1.00  0.00     0.166 HD
HETATM   29  C2  UNL     1       6.320   2.440  26.300  1.00  0.00     0.050 A 
HETATM   30  C6  UNL     1       6.115   4.841  25.838  1.00  0.00     0.007 A 
HETATM   31  C1  UNL     1       7.076   1.375  26.542  1.00  0.00     0.045 C 
HETATM   32  N1  UNL     1       4.906   2.340  26.242  1.00  0.00    -0.359 N 
HETATM   33  C3  UNL     1       4.114   3.506  25.979  1.00  0.00     0.006 A 
ATOM     34  H1  UNL     1       4.453   1.438  26.387  1.00  0.00     0.166 HD
HETATM   35  C4  UNL     1       2.655   3.357  25.927  1.00  0.00     0.068 C 
HETATM   36  C5  UNL     1       4.670   4.685  25.789  1.00  0.00     0.039 A 
HETATM   37  C30 UNL     1       6.737   7.244  25.422  1.00  0.00     0.015 A 
HETATM   38  C29 UNL     1       7.811   8.101  25.320  1.00  0.00     0.013 A 
ENDBRANCH   1  22
TORSDOF 1
ENDMDL
