MODEL 1
REMARK VINA RESULT: -9.294233503      0.000      0.000
REMARK  11 active torsions:
REMARK  status: ('A' for Active; 'I' for Inactive)
REMARK    1  A    between atoms: C2_2  and  C3_3 
REMARK    2  A    between atoms: C3_3  and  C4_4 
REMARK    3  A    between atoms: C4_4  and  C5_5 
REMARK    4  A    between atoms: C5_5  and  C6_6 
REMARK    5  A    between atoms: C6_6  and  C7_7 
REMARK    6  A    between atoms: N1_8  and  N2_10 
REMARK    7  A    between atoms: N2_10  and  C8_12 
REMARK    8  A    between atoms: C9_15  and  N4_16 
REMARK    9  A    between atoms: N6_22  and  C11_23 
REMARK   10  A    between atoms: C14_29  and  O1_30 
REMARK   11  A    between atoms: C15_32  and  O2_33 
ROOT
HETATM    1  C8  UNL     1      12.630  31.258  -8.383  1.00  0.00     0.699 C 
HETATM    2  N3  UNL     1      11.861  32.013  -9.164  1.00  0.00    -0.173 N 
ATOM      3  H3  UNL     1      11.677  31.633 -10.093  1.00  0.00     0.186 HD
HETATM    4  C9  UNL     1      11.297  33.191  -8.910  1.00  0.00     0.145 C 
HETATM    5  C10 UNL     1      11.132  33.857  -7.688  1.00  0.00     0.124 A 
HETATM    6  N5  UNL     1      10.501  34.862  -7.090  1.00  0.00    -0.290 N 
ATOM      7  H5  UNL     1       9.832  35.572  -7.389  1.00  0.00     0.187 HD
HETATM    8  N6  UNL     1      11.105  34.560  -5.930  1.00  0.00    -0.252 N 
HETATM    9  C16 UNL     1      11.759  33.533  -6.512  1.00  0.00     0.123 A 
HETATM   10  C17 UNL     1      12.664  32.499  -6.300  1.00  0.00     0.147 C 
HETATM   11  S1  UNL     1      13.426  32.624  -4.854  1.00  0.00    -0.057 SA
HETATM   12  N8  UNL     1      12.972  31.462  -7.099  1.00  0.00    -0.178 N 
ATOM     13  H8  UNL     1      13.543  30.731  -6.674  1.00  0.00     0.185 HD
ENDROOT
BRANCH   8  14
HETATM   14  C11 UNL     1      11.091  35.092  -4.582  1.00  0.00     0.338 C 
HETATM   15  N7  UNL     1      11.097  36.535  -4.660  1.00  0.00    -0.043 N 
HETATM   16  C12 UNL     1      10.255  37.035  -3.621  1.00  0.00     0.215 C 
ATOM     17  H72 UNL     1      12.038  36.929  -4.630  1.00  0.00     0.280 HD
ATOM     18  H71 UNL     1      10.834  36.882  -5.583  1.00  0.00     0.280 HD
HETATM   19  C13 UNL     1       9.201  38.002  -4.125  1.00  0.00     0.043 C 
HETATM   20  C14 UNL     1       9.567  35.884  -2.962  1.00  0.00     0.181 C 
HETATM   21  C15 UNL     1       9.860  34.677  -3.860  1.00  0.00     0.201 C 
BRANCH  20  22
HETATM   22  O1  UNL     1      10.136  35.702  -1.698  1.00  0.00    -0.391 OA
ATOM     23  H1  UNL     1      10.395  34.792  -1.617  1.00  0.00     0.210 HD
ENDBRANCH  20  22
BRANCH  21  24
HETATM   24  O2  UNL     1       8.789  34.384  -4.689  1.00  0.00    -0.389 OA
ATOM     25  H2  UNL     1       8.426  35.140  -5.136  1.00  0.00     0.210 HD
ENDBRANCH  21  24
ENDBRANCH   8  14
BRANCH   4  26
HETATM   26  N4  UNL     1      10.818  33.837  -9.946  1.00  0.00    -0.383 N 
ATOM     27  H42 UNL     1      10.300  33.254 -10.602  1.00  0.00     0.157 HD
ATOM     28  H41 UNL     1      11.015  34.837  -9.982  1.00  0.00     0.157 HD
ENDBRANCH   4  26
BRANCH   1  29
HETATM   29  N2  UNL     1      13.115  30.174  -8.937  1.00  0.00    -0.133 N 
ATOM     30  H2  UNL     1      12.580  29.306  -8.941  1.00  0.00     0.205 HD
BRANCH  29  31
HETATM   31  N1  UNL     1      14.361  30.234  -9.514  1.00  0.00    -0.301 N 
HETATM   32  C7  UNL     1      15.388  29.586  -9.122  1.00  0.00     0.080 C 
ATOM     33  H1  UNL     1      14.474  30.847 -10.321  1.00  0.00     0.186 HD
BRANCH  32  34
HETATM   34  C6  UNL     1      15.305  28.682  -7.966  1.00  0.00     0.046 C 
BRANCH  34  35
HETATM   35  C5  UNL     1      16.129  29.302  -6.821  1.00  0.00     0.005 C 
BRANCH  35  36
HETATM   36  C4  UNL     1      17.186  28.323  -6.419  1.00  0.00     0.000 C 
BRANCH  36  37
HETATM   37  C3  UNL     1      17.233  27.009  -7.076  1.00  0.00    -0.000 C 
BRANCH  37  38
HETATM   38  C2  UNL     1      17.753  25.856  -6.327  1.00  0.00    -0.005 C 
HETATM   39  C1  UNL     1      18.490  26.210  -5.072  1.00  0.00     0.005 C 
ENDBRANCH  37  38
ENDBRANCH  36  37
ENDBRANCH  35  36
ENDBRANCH  34  35
ENDBRANCH  32  34
ENDBRANCH  29  31
ENDBRANCH   1  29
TORSDOF 11
ENDMDL
MODEL 2
REMARK VINA RESULT: -9.085424502      2.109      3.356
REMARK  11 active torsions:
REMARK  status: ('A' for Active; 'I' for Inactive)
REMARK    1  A    between atoms: C2_2  and  C3_3 
REMARK    2  A    between atoms: C3_3  and  C4_4 
REMARK    3  A    between atoms: C4_4  and  C5_5 
REMARK    4  A    between atoms: C5_5  and  C6_6 
REMARK    5  A    between atoms: C6_6  and  C7_7 
REMARK    6  A    between atoms: N1_8  and  N2_10 
REMARK    7  A    between atoms: N2_10  and  C8_12 
REMARK    8  A    between atoms: C9_15  and  N4_16 
REMARK    9  A    between atoms: N6_22  and  C11_23 
REMARK   10  A    between atoms: C14_29  and  O1_30 
REMARK   11  A    between atoms: C15_32  and  O2_33 
ROOT
HETATM    1  C8  UNL     1      15.859  29.883  -7.933  1.00  0.00     0.699 C 
HETATM    2  N3  UNL     1      15.284  30.233  -9.082  1.00  0.00    -0.173 N 
ATOM      3  H3  UNL     1      15.457  29.604  -9.866  1.00  0.00     0.186 HD
HETATM    4  C9  UNL     1      14.516  31.285  -9.356  1.00  0.00     0.145 C 
HETATM    5  C10 UNL     1      13.884  32.181  -8.483  1.00  0.00     0.124 A 
HETATM    6  N5  UNL     1      12.967  33.140  -8.408  1.00  0.00    -0.290 N 
ATOM      7  H5  UNL     1      12.339  33.589  -9.075  1.00  0.00     0.187 HD
HETATM    8  N6  UNL     1      13.206  33.275  -7.094  1.00  0.00    -0.252 N 
HETATM    9  C16 UNL     1      14.143  32.305  -7.142  1.00  0.00     0.123 A 
HETATM   10  C17 UNL     1      15.064  31.579  -6.394  1.00  0.00     0.147 C 
HETATM   11  S1  UNL     1      15.304  32.224  -4.906  1.00  0.00    -0.057 SA
HETATM   12  N8  UNL     1      15.746  30.470  -6.730  1.00  0.00    -0.178 N 
ATOM     13  H8  UNL     1      16.245  30.011  -5.967  1.00  0.00     0.185 HD
ENDROOT
BRANCH   8  14
HETATM   14  C11 UNL     1      12.694  34.109  -6.025  1.00  0.00     0.338 C 
HETATM   15  N7  UNL     1      12.103  35.291  -6.612  1.00  0.00    -0.043 N 
HETATM   16  C12 UNL     1      10.937  35.620  -5.857  1.00  0.00     0.215 C 
ATOM     17  H72 UNL     1      12.760  36.068  -6.681  1.00  0.00     0.280 HD
ATOM     18  H71 UNL     1      11.912  35.184  -7.608  1.00  0.00     0.280 HD
HETATM   19  C13 UNL     1       9.699  35.782  -6.718  1.00  0.00     0.043 C 
HETATM   20  C14 UNL     1      10.684  34.533  -4.863  1.00  0.00     0.181 C 
HETATM   21  C15 UNL     1      11.637  33.399  -5.259  1.00  0.00     0.201 C 
BRANCH  20  22
HETATM   22  O1  UNL     1      11.005  35.020  -3.592  1.00  0.00    -0.391 OA
ATOM     23  H1  UNL     1      10.232  34.954  -3.045  1.00  0.00     0.210 HD
ENDBRANCH  20  22
BRANCH  21  24
HETATM   24  O2  UNL     1      10.985  32.410  -5.976  1.00  0.00    -0.389 OA
ATOM     25  H2  UNL     1      10.401  32.739  -6.650  1.00  0.00     0.210 HD
ENDBRANCH  21  24
ENDBRANCH   8  14
BRANCH   4  26
HETATM   26  N4  UNL     1      14.309  31.532 -10.627  1.00  0.00    -0.383 N 
ATOM     27  H42 UNL     1      15.108  31.337 -11.229  1.00  0.00     0.157 HD
ATOM     28  H41 UNL     1      13.384  31.888 -10.871  1.00  0.00     0.157 HD
ENDBRANCH   4  26
BRANCH   1  29
HETATM   29  N2  UNL     1      16.636  28.829  -7.984  1.00  0.00    -0.133 N 
ATOM     30  H2  UNL     1      16.521  28.132  -8.720  1.00  0.00     0.205 HD
BRANCH  29  31
HETATM   31  N1  UNL     1      17.608  28.684  -7.023  1.00  0.00    -0.301 N 
HETATM   32  C7  UNL     1      17.941  27.584  -6.470  1.00  0.00     0.080 C 
ATOM     33  H1  UNL     1      18.103  29.526  -6.729  1.00  0.00     0.186 HD
BRANCH  32  34
HETATM   34  C6  UNL     1      17.274  26.328  -6.842  1.00  0.00     0.046 C 
BRANCH  34  35
HETATM   35  C5  UNL     1      18.016  25.173  -6.142  1.00  0.00     0.005 C 
BRANCH  35  36
HETATM   36  C4  UNL     1      18.697  25.720  -4.928  1.00  0.00     0.000 C 
BRANCH  36  37
HETATM   37  C3  UNL     1      18.684  24.939  -3.684  1.00  0.00    -0.000 C 
BRANCH  37  38
HETATM   38  C2  UNL     1      19.815  24.046  -3.392  1.00  0.00    -0.005 C 
HETATM   39  C1  UNL     1      21.104  24.441  -4.042  1.00  0.00     0.005 C 
ENDBRANCH  37  38
ENDBRANCH  36  37
ENDBRANCH  35  36
ENDBRANCH  34  35
ENDBRANCH  32  34
ENDBRANCH  29  31
ENDBRANCH   1  29
TORSDOF 11
ENDMDL
MODEL 3
REMARK VINA RESULT: -9.055252727      2.180      2.923
REMARK  11 active torsions:
REMARK  status: ('A' for Active; 'I' for Inactive)
REMARK    1  A    between atoms: C2_2  and  C3_3 
REMARK    2  A    between atoms: C3_3  and  C4_4 
REMARK    3  A    between atoms: C4_4  and  C5_5 
REMARK    4  A    between atoms: C5_5  and  C6_6 
REMARK    5  A    between atoms: C6_6  and  C7_7 
REMARK    6  A    between atoms: N1_8  and  N2_10 
REMARK    7  A    between atoms: N2_10  and  C8_12 
REMARK    8  A    between atoms: C9_15  and  N4_16 
REMARK    9  A    between atoms: N6_22  and  C11_23 
REMARK   10  A    between atoms: C14_29  and  O1_30 
REMARK   11  A    between atoms: C15_32  and  O2_33 
ROOT
HETATM    1  C8  UNL     1      16.041  31.125  -8.230  1.00  0.00     0.699 C 
HETATM    2  N3  UNL     1      15.963  32.036  -9.198  1.00  0.00    -0.173 N 
ATOM      3  H3  UNL     1      16.502  31.826 -10.039  1.00  0.00     0.186 HD
HETATM    4  C9  UNL     1      15.285  33.181  -9.228  1.00  0.00     0.145 C 
HETATM    5  C10 UNL     1      14.270  33.640  -8.378  1.00  0.00     0.124 A 
HETATM    6  N5  UNL     1      13.321  34.559  -8.238  1.00  0.00    -0.290 N 
ATOM      7  H5  UNL     1      12.987  35.340  -8.803  1.00  0.00     0.187 HD
HETATM    8  N6  UNL     1      12.982  34.039  -7.048  1.00  0.00    -0.252 N 
HETATM    9  C16 UNL     1      13.939  33.094  -7.164  1.00  0.00     0.123 A 
HETATM   10  C17 UNL     1      14.530  31.997  -6.546  1.00  0.00     0.147 C 
HETATM   11  S1  UNL     1      14.074  31.842  -4.980  1.00  0.00    -0.057 SA
HETATM   12  N8  UNL     1      15.388  31.095  -7.057  1.00  0.00    -0.178 N 
ATOM     13  H8  UNL     1      15.567  30.278  -6.473  1.00  0.00     0.185 HD
ENDROOT
BRANCH   8  14
HETATM   14  C11 UNL     1      12.000  34.338  -6.025  1.00  0.00     0.338 C 
HETATM   15  N7  UNL     1      11.710  35.753  -6.070  1.00  0.00    -0.043 N 
HETATM   16  C12 UNL     1      10.315  35.923  -5.818  1.00  0.00     0.215 C 
ATOM     17  H72 UNL     1      12.295  36.298  -5.436  1.00  0.00     0.280 HD
ATOM     18  H71 UNL     1      12.010  36.190  -6.942  1.00  0.00     0.280 HD
HETATM   19  C13 UNL     1       9.617  36.755  -6.878  1.00  0.00     0.043 C 
HETATM   20  C14 UNL     1       9.667  34.578  -5.768  1.00  0.00     0.181 C 
HETATM   21  C15 UNL     1      10.734  33.601  -6.273  1.00  0.00     0.201 C 
BRANCH  20  22
HETATM   22  O1  UNL     1       9.339  34.300  -4.437  1.00  0.00    -0.391 OA
ATOM     23  H1  UNL     1       9.660  33.431  -4.228  1.00  0.00     0.210 HD
ENDBRANCH  20  22
BRANCH  21  24
HETATM   24  O2  UNL     1      10.529  33.258  -7.599  1.00  0.00    -0.389 OA
ATOM     25  H2  UNL     1       9.840  32.617  -7.733  1.00  0.00     0.210 HD
ENDBRANCH  21  24
ENDBRANCH   8  14
BRANCH   4  26
HETATM   26  N4  UNL     1      15.600  34.013 -10.191  1.00  0.00    -0.383 N 
ATOM     27  H42 UNL     1      16.598  34.208 -10.268  1.00  0.00     0.157 HD
ATOM     28  H41 UNL     1      14.824  34.369 -10.749  1.00  0.00     0.157 HD
ENDBRANCH   4  26
BRANCH   1  29
HETATM   29  N2  UNL     1      16.862  30.128  -8.452  1.00  0.00    -0.133 N 
ATOM     30  H2  UNL     1      17.862  30.226  -8.272  1.00  0.00     0.205 HD
BRANCH  29  31
HETATM   31  N1  UNL     1      16.347  28.949  -8.932  1.00  0.00    -0.301 N 
HETATM   32  C7  UNL     1      16.322  27.841  -8.299  1.00  0.00     0.080 C 
ATOM     33  H1  UNL     1      15.951  28.960  -9.872  1.00  0.00     0.186 HD
BRANCH  32  34
HETATM   34  C6  UNL     1      16.873  27.745  -6.940  1.00  0.00     0.046 C 
BRANCH  34  35
HETATM   35  C5  UNL     1      17.263  26.275  -6.691  1.00  0.00     0.005 C 
BRANCH  35  36
HETATM   36  C4  UNL     1      18.621  26.249  -6.066  1.00  0.00     0.000 C 
BRANCH  36  37
HETATM   37  C3  UNL     1      18.740  26.328  -4.603  1.00  0.00    -0.000 C 
BRANCH  37  38
HETATM   38  C2  UNL     1      18.520  25.113  -3.805  1.00  0.00    -0.005 C 
HETATM   39  C1  UNL     1      19.098  23.866  -4.396  1.00  0.00     0.005 C 
ENDBRANCH  37  38
ENDBRANCH  36  37
ENDBRANCH  35  36
ENDBRANCH  34  35
ENDBRANCH  32  34
ENDBRANCH  29  31
ENDBRANCH   1  29
TORSDOF 11
ENDMDL
MODEL 4
REMARK VINA RESULT: -9.049243848      2.408      3.723
REMARK  11 active torsions:
REMARK  status: ('A' for Active; 'I' for Inactive)
REMARK    1  A    between atoms: C2_2  and  C3_3 
REMARK    2  A    between atoms: C3_3  and  C4_4 
REMARK    3  A    between atoms: C4_4  and  C5_5 
REMARK    4  A    between atoms: C5_5  and  C6_6 
REMARK    5  A    between atoms: C6_6  and  C7_7 
REMARK    6  A    between atoms: N1_8  and  N2_10 
REMARK    7  A    between atoms: N2_10  and  C8_12 
REMARK    8  A    between atoms: C9_15  and  N4_16 
REMARK    9  A    between atoms: N6_22  and  C11_23 
REMARK   10  A    between atoms: C14_29  and  O1_30 
REMARK   11  A    between atoms: C15_32  and  O2_33 
ROOT
HETATM    1  C8  UNL     1      16.320  30.150  -7.747  1.00  0.00     0.699 C 
HETATM    2  N3  UNL     1      16.463  31.040  -8.727  1.00  0.00    -0.173 N 
ATOM      3  H3  UNL     1      17.060  30.745  -9.500  1.00  0.00     0.186 HD
HETATM    4  C9  UNL     1      15.941  32.259  -8.845  1.00  0.00     0.145 C 
HETATM    5  C10 UNL     1      14.904  32.860  -8.118  1.00  0.00     0.124 A 
HETATM    6  N5  UNL     1      14.068  33.893  -8.095  1.00  0.00    -0.290 N 
ATOM      7  H5  UNL     1      13.898  34.695  -8.702  1.00  0.00     0.187 HD
HETATM    8  N6  UNL     1      13.539  33.447  -6.945  1.00  0.00    -0.252 N 
HETATM    9  C16 UNL     1      14.377  32.389  -6.943  1.00  0.00     0.123 A 
HETATM   10  C17 UNL     1      14.754  31.243  -6.252  1.00  0.00     0.147 C 
HETATM   11  S1  UNL     1      14.113  31.184  -4.744  1.00  0.00    -0.057 SA
HETATM   12  N8  UNL     1      15.543  30.230  -6.653  1.00  0.00    -0.178 N 
ATOM     13  H8  UNL     1      15.553  29.411  -6.045  1.00  0.00     0.185 HD
ENDROOT
BRANCH   8  14
HETATM   14  C11 UNL     1      12.496  33.890  -6.041  1.00  0.00     0.338 C 
HETATM   15  N7  UNL     1      12.183  35.268  -6.345  1.00  0.00    -0.043 N 
HETATM   16  C12 UNL     1      10.774  35.441  -6.199  1.00  0.00     0.215 C 
ATOM     17  H72 UNL     1      12.722  35.929  -5.784  1.00  0.00     0.280 HD
ATOM     18  H71 UNL     1      12.524  35.558  -7.261  1.00  0.00     0.280 HD
HETATM   19  C13 UNL     1      10.122  36.061  -7.421  1.00  0.00     0.043 C 
HETATM   20  C14 UNL     1      10.147  34.107  -5.952  1.00  0.00     0.181 C 
HETATM   21  C15 UNL     1      11.258  33.087  -6.225  1.00  0.00     0.201 C 
BRANCH  20  22
HETATM   22  O1  UNL     1       9.751  34.053  -4.612  1.00  0.00    -0.391 OA
ATOM     23  H1  UNL     1      10.038  33.222  -4.252  1.00  0.00     0.210 HD
ENDBRANCH  20  22
BRANCH  21  24
HETATM   24  O2  UNL     1      11.134  32.518  -7.482  1.00  0.00    -0.389 OA
ATOM     25  H2  UNL     1      11.316  31.586  -7.505  1.00  0.00     0.210 HD
ENDBRANCH  21  24
ENDBRANCH   8  14
BRANCH   4  26
HETATM   26  N4  UNL     1      16.462  33.022  -9.775  1.00  0.00    -0.383 N 
ATOM     27  H42 UNL     1      17.451  32.852  -9.952  1.00  0.00     0.157 HD
ATOM     28  H41 UNL     1      15.829  33.692 -10.213  1.00  0.00     0.157 HD
ENDBRANCH   4  26
BRANCH   1  29
HETATM   29  N2  UNL     1      17.028  29.054  -7.865  1.00  0.00    -0.133 N 
ATOM     30  H2  UNL     1      16.987  28.496  -8.718  1.00  0.00     0.205 HD
BRANCH  29  31
HETATM   31  N1  UNL     1      17.828  28.674  -6.814  1.00  0.00    -0.301 N 
HETATM   32  C7  UNL     1      17.878  27.502  -6.311  1.00  0.00     0.080 C 
ATOM     33  H1  UNL     1      18.430  29.387  -6.403  1.00  0.00     0.186 HD
BRANCH  32  34
HETATM   34  C6  UNL     1      17.040  26.421  -6.849  1.00  0.00     0.046 C 
BRANCH  34  35
HETATM   35  C5  UNL     1      17.772  25.088  -6.602  1.00  0.00     0.005 C 
BRANCH  35  36
HETATM   36  C4  UNL     1      18.598  25.229  -5.363  1.00  0.00     0.000 C 
BRANCH  36  37
HETATM   37  C3  UNL     1      18.755  24.072  -4.470  1.00  0.00    -0.000 C 
BRANCH  37  38
HETATM   38  C2  UNL     1      19.770  24.125  -3.409  1.00  0.00    -0.005 C 
HETATM   39  C1  UNL     1      21.155  24.433  -3.885  1.00  0.00     0.005 C 
ENDBRANCH  37  38
ENDBRANCH  36  37
ENDBRANCH  35  36
ENDBRANCH  34  35
ENDBRANCH  32  34
ENDBRANCH  29  31
ENDBRANCH   1  29
TORSDOF 11
ENDMDL
MODEL 5
REMARK VINA RESULT: -8.893266603      2.029      2.956
REMARK  11 active torsions:
REMARK  status: ('A' for Active; 'I' for Inactive)
REMARK    1  A    between atoms: C2_2  and  C3_3 
REMARK    2  A    between atoms: C3_3  and  C4_4 
REMARK    3  A    between atoms: C4_4  and  C5_5 
REMARK    4  A    between atoms: C5_5  and  C6_6 
REMARK    5  A    between atoms: C6_6  and  C7_7 
REMARK    6  A    between atoms: N1_8  and  N2_10 
REMARK    7  A    between atoms: N2_10  and  C8_12 
REMARK    8  A    between atoms: C9_15  and  N4_16 
REMARK    9  A    between atoms: N6_22  and  C11_23 
REMARK   10  A    between atoms: C14_29  and  O1_30 
REMARK   11  A    between atoms: C15_32  and  O2_33 
ROOT
HETATM    1  C8  UNL     1      15.740  30.856  -8.112  1.00  0.00     0.699 C 
HETATM    2  N3  UNL     1      14.605  30.226  -8.407  1.00  0.00    -0.173 N 
ATOM      3  H3  UNL     1      14.705  29.241  -8.656  1.00  0.00     0.186 HD
HETATM    4  C9  UNL     1      13.359  30.693  -8.423  1.00  0.00     0.145 C 
HETATM    5  C10 UNL     1      12.846  31.888  -7.902  1.00  0.00     0.124 A 
HETATM    6  N5  UNL     1      11.725  32.530  -7.592  1.00  0.00    -0.290 N 
ATOM      7  H5  UNL     1      10.730  32.310  -7.650  1.00  0.00     0.187 HD
HETATM    8  N6  UNL     1      12.437  33.588  -7.173  1.00  0.00    -0.252 N 
HETATM    9  C16 UNL     1      13.592  32.959  -7.479  1.00  0.00     0.123 A 
HETATM   10  C17 UNL     1      14.978  33.070  -7.481  1.00  0.00     0.147 C 
HETATM   11  S1  UNL     1      15.480  34.604  -7.196  1.00  0.00    -0.057 SA
HETATM   12  N8  UNL     1      15.907  32.117  -7.679  1.00  0.00    -0.178 N 
ATOM     13  H8  UNL     1      16.868  32.389  -7.473  1.00  0.00     0.185 HD
ENDROOT
BRANCH   8  14
HETATM   14  C11 UNL     1      12.134  34.890  -6.616  1.00  0.00     0.338 C 
HETATM   15  N7  UNL     1      10.941  35.395  -7.259  1.00  0.00    -0.043 N 
HETATM   16  C12 UNL     1      10.169  36.081  -6.273  1.00  0.00     0.215 C 
ATOM     17  H72 UNL     1      11.145  35.973  -8.074  1.00  0.00     0.280 HD
ATOM     18  H71 UNL     1      10.411  34.666  -7.737  1.00  0.00     0.280 HD
HETATM   19  C13 UNL     1       8.732  35.602  -6.204  1.00  0.00     0.043 C 
HETATM   20  C14 UNL     1      10.803  35.876  -4.935  1.00  0.00     0.181 C 
HETATM   21  C15 UNL     1      11.865  34.794  -5.158  1.00  0.00     0.201 C 
BRANCH  20  22
HETATM   22  O1  UNL     1      11.402  37.079  -4.548  1.00  0.00    -0.391 OA
ATOM     23  H1  UNL     1      12.255  37.131  -4.963  1.00  0.00     0.210 HD
ENDBRANCH  20  22
BRANCH  21  24
HETATM   24  O2  UNL     1      11.421  33.549  -4.745  1.00  0.00    -0.389 OA
ATOM     25  H2  UNL     1      12.115  32.913  -4.616  1.00  0.00     0.210 HD
ENDBRANCH  21  24
ENDBRANCH   8  14
BRANCH   4  26
HETATM   26  N4  UNL     1      12.466  29.933  -9.011  1.00  0.00    -0.383 N 
ATOM     27  H42 UNL     1      11.637  30.431  -9.334  1.00  0.00     0.157 HD
ATOM     28  H41 UNL     1      12.696  28.941  -9.080  1.00  0.00     0.157 HD
ENDBRANCH   4  26
BRANCH   1  29
HETATM   29  N2  UNL     1      16.837  30.155  -8.262  1.00  0.00    -0.133 N 
ATOM     30  H2  UNL     1      17.753  30.603  -8.213  1.00  0.00     0.205 HD
BRANCH  29  31
HETATM   31  N1  UNL     1      16.726  28.805  -8.489  1.00  0.00    -0.301 N 
HETATM   32  C7  UNL     1      16.963  27.890  -7.631  1.00  0.00     0.080 C 
ATOM     33  H1  UNL     1      16.430  28.509  -9.419  1.00  0.00     0.186 HD
BRANCH  32  34
HETATM   34  C6  UNL     1      17.393  28.236  -6.269  1.00  0.00     0.046 C 
BRANCH  34  35
HETATM   35  C5  UNL     1      18.181  27.039  -5.703  1.00  0.00     0.005 C 
BRANCH  35  36
HETATM   36  C4  UNL     1      17.758  25.808  -6.440  1.00  0.00     0.000 C 
BRANCH  36  37
HETATM   37  C3  UNL     1      18.158  24.491  -5.926  1.00  0.00    -0.000 C 
BRANCH  37  38
HETATM   38  C2  UNL     1      18.451  24.346  -4.492  1.00  0.00    -0.005 C 
HETATM   39  C1  UNL     1      19.726  23.624  -4.187  1.00  0.00     0.005 C 
ENDBRANCH  37  38
ENDBRANCH  36  37
ENDBRANCH  35  36
ENDBRANCH  34  35
ENDBRANCH  32  34
ENDBRANCH  29  31
ENDBRANCH   1  29
TORSDOF 11
ENDMDL
