MODEL 1
REMARK VINA RESULT: -8.197474935      0.000      0.000
REMARK  10 active torsions:
REMARK  status: ('A' for Active; 'I' for Inactive)
REMARK    1  A    between atoms: C2_2  and  O1_3 
REMARK    2  A    between atoms: O1_3  and  C3_4 
REMARK    3  A    between atoms: C3_4  and  C4_5 
REMARK    4  A    between atoms: C4_5  and  C5_6 
REMARK    5  A    between atoms: C5_6  and  N1_7 
REMARK    6  A    between atoms: C6_8  and  S1_9 
REMARK    7  A    between atoms: S1_9  and  C7_10 
REMARK    8  A    between atoms: C11_22  and  N6_23 
REMARK    9  A    between atoms: C13_29  and  N8_30 
REMARK   10  A    between atoms: C14_35  and  N10_36 
ROOT
HETATM    1  N1  UNL     1      15.095  33.141  -8.302  1.00  0.00    -0.311 N 
HETATM    2  C6  UNL     1      16.161  33.076  -9.125  1.00  0.00     0.155 A 
HETATM    3  N7  UNL     1      16.796  31.915  -8.907  1.00  0.00    -0.330 N 
ATOM      4  H7  UNL     1      17.637  31.586  -9.381  1.00  0.00     0.168 HD
HETATM    5  C12 UNL     1      16.112  31.261  -7.940  1.00  0.00     0.124 A 
HETATM    6  C13 UNL     1      16.300  30.048  -7.328  1.00  0.00     0.145 A 
HETATM    7  N9  UNL     1      15.424  29.680  -6.385  1.00  0.00    -0.175 N 
ATOM      8  H9  UNL     1      15.561  28.779  -5.927  1.00  0.00     0.186 HD
HETATM    9  C14 UNL     1      14.367  30.432  -6.003  1.00  0.00     0.679 A 
HETATM   10  N11 UNL     1      14.175  31.609  -6.590  1.00  0.00    -0.174 N 
ATOM     11  H11 UNL     1      13.386  32.196  -6.320  1.00  0.00     0.186 HD
HETATM   12  C15 UNL     1      15.032  32.018  -7.542  1.00  0.00     0.156 A 
ENDROOT
BRANCH   2  13
HETATM   13  S1  UNL     1      16.577  34.375 -10.280  1.00  0.00    -0.032 SA
BRANCH  13  14
HETATM   14  C7  UNL     1      17.464  35.685  -9.450  1.00  0.00     0.123 A 
HETATM   15  N2  UNL     1      16.808  36.362  -8.492  1.00  0.00    -0.331 N 
HETATM   16  C8  UNL     1      17.410  37.361  -7.825  1.00  0.00     0.152 A 
ATOM     17  H2  UNL     1      15.844  36.116  -8.270  1.00  0.00     0.168 HD
HETATM   18  N3  UNL     1      16.967  38.172  -6.841  1.00  0.00    -0.335 N 
HETATM   19  C10 UNL     1      18.707  37.692  -8.124  1.00  0.00     0.152 A 
HETATM   20  C9  UNL     1      17.976  39.011  -6.518  1.00  0.00     0.183 A 
ATOM     21  H3  UNL     1      16.040  38.154  -6.418  1.00  0.00     0.168 HD
HETATM   22  N4  UNL     1      19.022  38.709  -7.304  1.00  0.00    -0.335 N 
ATOM     23  H4  UNL     1      19.925  39.182  -7.282  1.00  0.00     0.168 HD
HETATM   24  N5  UNL     1      19.355  37.011  -9.082  1.00  0.00    -0.324 N 
HETATM   25  C11 UNL     1      18.761  36.009  -9.757  1.00  0.00     0.135 A 
ATOM     26  H5  UNL     1      20.320  37.258  -9.304  1.00  0.00     0.169 HD
BRANCH  25  27
HETATM   27  N6  UNL     1      19.390  35.357 -10.679  1.00  0.00    -0.383 N 
ATOM     28  H62 UNL     1      20.108  34.671 -10.445  1.00  0.00     0.157 HD
ATOM     29  H61 UNL     1      19.171  35.522 -11.661  1.00  0.00     0.157 HD
ENDBRANCH  25  27
ENDBRANCH  13  14
ENDBRANCH   2  13
BRANCH   1  30
HETATM   30  C5  UNL     1      14.148  34.209  -8.207  1.00  0.00     0.135 C 
BRANCH  30  31
HETATM   31  C4  UNL     1      12.878  33.784  -8.946  1.00  0.00     0.046 C 
BRANCH  31  32
HETATM   32  C3  UNL     1      11.727  34.065  -8.034  1.00  0.00     0.169 C 
BRANCH  32  33
HETATM   33  O1  UNL     1      11.512  33.042  -7.110  1.00  0.00    -0.391 OA
BRANCH  33  34
HETATM   34  C2  UNL     1      11.210  33.527  -5.862  1.00  0.00     0.163 C 
HETATM   35  C1  UNL     1      10.175  34.609  -5.861  1.00  0.00     0.033 C 
ENDBRANCH  33  34
ENDBRANCH  32  33
ENDBRANCH  31  32
ENDBRANCH  30  31
ENDBRANCH   1  30
BRANCH   6  36
HETATM   36  N8  UNL     1      17.292  29.259  -7.634  1.00  0.00    -0.383 N 
ATOM     37  H82 UNL     1      17.125  28.260  -7.760  1.00  0.00     0.157 HD
ATOM     38  H81 UNL     1      18.244  29.603  -7.755  1.00  0.00     0.157 HD
ENDBRANCH   6  36
BRANCH   9  39
HETATM   39  N10 UNL     1      13.573  29.997  -5.085  1.00  0.00    -0.234 N 
ATOM     40 2H10 UNL     1      13.562  29.015  -4.809  1.00  0.00     0.174 HD
ATOM     41 1H10 UNL     1      12.937  30.644  -4.620  1.00  0.00     0.174 HD
ENDBRANCH   9  39
TORSDOF 10
ENDMDL
MODEL 2
REMARK VINA RESULT: -8.103181092      3.286      7.051
REMARK  10 active torsions:
REMARK  status: ('A' for Active; 'I' for Inactive)
REMARK    1  A    between atoms: C2_2  and  O1_3 
REMARK    2  A    between atoms: O1_3  and  C3_4 
REMARK    3  A    between atoms: C3_4  and  C4_5 
REMARK    4  A    between atoms: C4_5  and  C5_6 
REMARK    5  A    between atoms: C5_6  and  N1_7 
REMARK    6  A    between atoms: C6_8  and  S1_9 
REMARK    7  A    between atoms: S1_9  and  C7_10 
REMARK    8  A    between atoms: C11_22  and  N6_23 
REMARK    9  A    between atoms: C13_29  and  N8_30 
REMARK   10  A    between atoms: C14_35  and  N10_36 
ROOT
HETATM    1  N1  UNL     1      14.510  33.659  -7.937  1.00  0.00    -0.311 N 
HETATM    2  C6  UNL     1      14.683  32.644  -8.808  1.00  0.00     0.155 A 
HETATM    3  N7  UNL     1      13.500  32.362  -9.372  1.00  0.00    -0.330 N 
ATOM      4  H7  UNL     1      13.319  31.641 -10.071  1.00  0.00     0.168 HD
HETATM    5  C12 UNL     1      12.591  33.212  -8.841  1.00  0.00     0.124 A 
HETATM    6  C13 UNL     1      11.244  33.377  -9.044  1.00  0.00     0.145 A 
HETATM    7  N9  UNL     1      10.618  34.331  -8.344  1.00  0.00    -0.175 N 
ATOM      8  H9  UNL     1       9.616  34.456  -8.492  1.00  0.00     0.186 HD
HETATM    9  C14 UNL     1      11.235  35.140  -7.453  1.00  0.00     0.679 A 
HETATM   10  N11 UNL     1      12.539  34.989  -7.249  1.00  0.00    -0.174 N 
ATOM     11  H11 UNL     1      13.029  35.586  -6.582  1.00  0.00     0.186 HD
HETATM   12  C15 UNL     1      13.207  34.042  -7.931  1.00  0.00     0.156 A 
ENDROOT
BRANCH   2  13
HETATM   13  S1  UNL     1      16.269  31.871  -9.094  1.00  0.00    -0.032 SA
BRANCH  13  14
HETATM   14  C7  UNL     1      16.279  30.212  -8.429  1.00  0.00     0.123 A 
HETATM   15  N2  UNL     1      17.243  29.910  -7.543  1.00  0.00    -0.331 N 
HETATM   16  C8  UNL     1      17.315  28.683  -7.000  1.00  0.00     0.152 A 
ATOM     17  H2  UNL     1      17.927  30.619  -7.279  1.00  0.00     0.168 HD
HETATM   18  N3  UNL     1      18.175  28.151  -6.106  1.00  0.00    -0.335 N 
HETATM   19  C10 UNL     1      16.396  27.729  -7.355  1.00  0.00     0.152 A 
HETATM   20  C9  UNL     1      17.804  26.869  -5.894  1.00  0.00     0.183 A 
ATOM     21  H3  UNL     1      18.963  28.629  -5.669  1.00  0.00     0.168 HD
HETATM   22  N4  UNL     1      16.725  26.628  -6.658  1.00  0.00    -0.335 N 
ATOM     23  H4  UNL     1      16.229  25.739  -6.704  1.00  0.00     0.168 HD
HETATM   24  N5  UNL     1      15.437  28.039  -8.241  1.00  0.00    -0.324 N 
HETATM   25  C11 UNL     1      15.356  29.265  -8.791  1.00  0.00     0.135 A 
ATOM     26  H5  UNL     1      14.753  27.328  -8.505  1.00  0.00     0.169 HD
BRANCH  25  27
HETATM   27  N6  UNL     1      14.430  29.557  -9.644  1.00  0.00    -0.383 N 
ATOM     28  H62 UNL     1      14.392  30.474 -10.090  1.00  0.00     0.157 HD
ATOM     29  H61 UNL     1      13.719  28.866  -9.882  1.00  0.00     0.157 HD
ENDBRANCH  25  27
ENDBRANCH  13  14
ENDBRANCH   2  13
BRANCH   1  30
HETATM   30  C5  UNL     1      15.513  34.272  -7.121  1.00  0.00     0.135 C 
BRANCH  30  31
HETATM   31  C4  UNL     1      16.036  35.505  -7.858  1.00  0.00     0.046 C 
BRANCH  31  32
HETATM   32  C3  UNL     1      16.040  36.632  -6.876  1.00  0.00     0.169 C 
BRANCH  32  33
HETATM   33  O1  UNL     1      17.241  36.727  -6.172  1.00  0.00    -0.391 OA
BRANCH  33  34
HETATM   34  C2  UNL     1      17.677  38.023  -6.065  1.00  0.00     0.163 C 
HETATM   35  C1  UNL     1      17.659  38.561  -4.668  1.00  0.00     0.033 C 
ENDBRANCH  33  34
ENDBRANCH  32  33
ENDBRANCH  31  32
ENDBRANCH  30  31
ENDBRANCH   1  30
BRANCH   6  36
HETATM   36  N8  UNL     1      10.570  32.642  -9.883  1.00  0.00    -0.383 N 
ATOM     37  H82 UNL     1      11.056  31.949 -10.454  1.00  0.00     0.157 HD
ATOM     38  H81 UNL     1       9.561  32.731  -9.997  1.00  0.00     0.157 HD
ENDBRANCH   6  36
BRANCH   9  39
HETATM   39  N10 UNL     1      10.551  36.034  -6.824  1.00  0.00    -0.234 N 
ATOM     40 2H10 UNL     1      10.020  35.807  -5.983  1.00  0.00     0.174 HD
ATOM     41 1H10 UNL     1      10.537  36.993  -7.169  1.00  0.00     0.174 HD
ENDBRANCH   9  39
TORSDOF 10
ENDMDL
MODEL 3
REMARK VINA RESULT: -8.024139269      1.697      6.628
REMARK  10 active torsions:
REMARK  status: ('A' for Active; 'I' for Inactive)
REMARK    1  A    between atoms: C2_2  and  O1_3 
REMARK    2  A    between atoms: O1_3  and  C3_4 
REMARK    3  A    between atoms: C3_4  and  C4_5 
REMARK    4  A    between atoms: C4_5  and  C5_6 
REMARK    5  A    between atoms: C5_6  and  N1_7 
REMARK    6  A    between atoms: C6_8  and  S1_9 
REMARK    7  A    between atoms: S1_9  and  C7_10 
REMARK    8  A    between atoms: C11_22  and  N6_23 
REMARK    9  A    between atoms: C13_29  and  N8_30 
REMARK   10  A    between atoms: C14_35  and  N10_36 
ROOT
HETATM    1  N1  UNL     1      15.545  34.890  -8.685  1.00  0.00    -0.311 N 
HETATM    2  C6  UNL     1      15.620  33.894  -9.591  1.00  0.00     0.155 A 
HETATM    3  N7  UNL     1      16.801  33.983 -10.222  1.00  0.00    -0.330 N 
ATOM      4  H7  UNL     1      17.141  33.365 -10.959  1.00  0.00     0.168 HD
HETATM    5  C12 UNL     1      17.455  35.045  -9.699  1.00  0.00     0.124 A 
HETATM    6  C13 UNL     1      18.683  35.599  -9.958  1.00  0.00     0.145 A 
HETATM    7  N9  UNL     1      19.047  36.674  -9.248  1.00  0.00    -0.175 N 
ATOM      8  H9  UNL     1      19.960  37.089  -9.439  1.00  0.00     0.186 HD
HETATM    9  C14 UNL     1      18.277  37.243  -8.294  1.00  0.00     0.679 A 
HETATM   10  N11 UNL     1      17.085  36.715  -8.035  1.00  0.00    -0.174 N 
ATOM     11  H11 UNL     1      16.484  37.126  -7.320  1.00  0.00     0.186 HD
HETATM   12  C15 UNL     1      16.680  35.635  -8.724  1.00  0.00     0.156 A 
ENDROOT
BRANCH   2  13
HETATM   13  S1  UNL     1      14.312  32.702  -9.834  1.00  0.00    -0.032 SA
BRANCH  13  14
HETATM   14  C7  UNL     1      14.656  31.205  -8.920  1.00  0.00     0.123 A 
HETATM   15  N2  UNL     1      15.943  30.935  -8.645  1.00  0.00    -0.331 N 
HETATM   16  C8  UNL     1      16.280  29.828  -7.962  1.00  0.00     0.152 A 
ATOM     17  H2  UNL     1      16.672  31.576  -8.958  1.00  0.00     0.168 HD
HETATM   18  N3  UNL     1      17.480  29.349  -7.572  1.00  0.00    -0.335 N 
HETATM   19  C10 UNL     1      15.299  28.967  -7.541  1.00  0.00     0.152 A 
HETATM   20  C9  UNL     1      17.263  28.192  -6.909  1.00  0.00     0.183 A 
ATOM     21  H3  UNL     1      18.387  29.782  -7.748  1.00  0.00     0.168 HD
HETATM   22  N4  UNL     1      15.938  27.973  -6.898  1.00  0.00    -0.335 N 
ATOM     23  H4  UNL     1      15.482  27.170  -6.466  1.00  0.00     0.168 HD
HETATM   24  N5  UNL     1      14.016  29.244  -7.819  1.00  0.00    -0.324 N 
HETATM   25  C11 UNL     1      13.668  30.350  -8.503  1.00  0.00     0.135 A 
ATOM     26  H5  UNL     1      13.287  28.602  -7.506  1.00  0.00     0.169 HD
BRANCH  25  27
HETATM   27  N6  UNL     1      12.431  30.613  -8.769  1.00  0.00    -0.383 N 
ATOM     28  H62 UNL     1      12.150  31.524  -9.131  1.00  0.00     0.157 HD
ATOM     29  H61 UNL     1      11.715  29.903  -8.617  1.00  0.00     0.157 HD
ENDBRANCH  25  27
ENDBRANCH  13  14
ENDBRANCH   2  13
BRANCH   1  30
HETATM   30  C5  UNL     1      14.456  35.163  -7.797  1.00  0.00     0.135 C 
BRANCH  30  31
HETATM   31  C4  UNL     1      14.441  34.079  -6.719  1.00  0.00     0.046 C 
BRANCH  31  32
HETATM   32  C3  UNL     1      13.008  33.739  -6.463  1.00  0.00     0.169 C 
BRANCH  32  33
HETATM   33  O1  UNL     1      12.838  32.428  -6.017  1.00  0.00    -0.391 OA
BRANCH  33  34
HETATM   34  C2  UNL     1      13.477  32.200  -4.824  1.00  0.00     0.163 C 
HETATM   35  C1  UNL     1      14.446  31.059  -4.858  1.00  0.00     0.033 C 
ENDBRANCH  33  34
ENDBRANCH  32  33
ENDBRANCH  31  32
ENDBRANCH  30  31
ENDBRANCH   1  30
BRANCH   6  36
HETATM   36  N8  UNL     1      19.490  35.114 -10.860  1.00  0.00    -0.383 N 
ATOM     37  H82 UNL     1      19.168  34.374 -11.484  1.00  0.00     0.157 HD
ATOM     38  H81 UNL     1      20.447  35.449 -10.971  1.00  0.00     0.157 HD
ENDBRANCH   6  36
BRANCH   9  39
HETATM   39  N10 UNL     1      18.709  38.279  -7.659  1.00  0.00    -0.234 N 
ATOM     40 2H10 UNL     1      19.692  38.552  -7.688  1.00  0.00     0.174 HD
ATOM     41 1H10 UNL     1      18.060  38.843  -7.112  1.00  0.00     0.174 HD
ENDBRANCH   9  39
TORSDOF 10
ENDMDL
MODEL 4
REMARK VINA RESULT: -8.022432897      3.615      7.370
REMARK  10 active torsions:
REMARK  status: ('A' for Active; 'I' for Inactive)
REMARK    1  A    between atoms: C2_2  and  O1_3 
REMARK    2  A    between atoms: O1_3  and  C3_4 
REMARK    3  A    between atoms: C3_4  and  C4_5 
REMARK    4  A    between atoms: C4_5  and  C5_6 
REMARK    5  A    between atoms: C5_6  and  N1_7 
REMARK    6  A    between atoms: C6_8  and  S1_9 
REMARK    7  A    between atoms: S1_9  and  C7_10 
REMARK    8  A    between atoms: C11_22  and  N6_23 
REMARK    9  A    between atoms: C13_29  and  N8_30 
REMARK   10  A    between atoms: C14_35  and  N10_36 
ROOT
HETATM    1  N1  UNL     1      14.612  32.030  -8.462  1.00  0.00    -0.311 N 
HETATM    2  C6  UNL     1      15.318  31.020  -7.916  1.00  0.00     0.155 A 
HETATM    3  N7  UNL     1      14.960  30.899  -6.628  1.00  0.00    -0.330 N 
ATOM      4  H7  UNL     1      15.325  30.220  -5.960  1.00  0.00     0.168 HD
HETATM    5  C12 UNL     1      14.025  31.844  -6.383  1.00  0.00     0.124 A 
HETATM    6  C13 UNL     1      13.317  32.180  -5.257  1.00  0.00     0.145 A 
HETATM    7  N9  UNL     1      12.444  33.191  -5.345  1.00  0.00    -0.175 N 
ATOM      8  H9  UNL     1      11.916  33.444  -4.509  1.00  0.00     0.186 HD
HETATM    9  C14 UNL     1      12.220  33.898  -6.476  1.00  0.00     0.679 A 
HETATM   10  N11 UNL     1      12.901  33.582  -7.572  1.00  0.00    -0.174 N 
ATOM     11  H11 UNL     1      12.752  34.100  -8.438  1.00  0.00     0.186 HD
HETATM   12  C15 UNL     1      13.788  32.573  -7.528  1.00  0.00     0.156 A 
ENDROOT
BRANCH   2  13
HETATM   13  S1  UNL     1      16.511  30.060  -8.837  1.00  0.00    -0.032 SA
BRANCH  13  14
HETATM   14  C7  UNL     1      16.981  28.602  -7.916  1.00  0.00     0.123 A 
HETATM   15  N2  UNL     1      17.725  28.784  -6.812  1.00  0.00    -0.331 N 
HETATM   16  C8  UNL     1      18.116  27.736  -6.069  1.00  0.00     0.152 A 
ATOM     17  H2  UNL     1      17.995  29.728  -6.535  1.00  0.00     0.168 HD
HETATM   18  N3  UNL     1      18.853  27.666  -4.940  1.00  0.00    -0.335 N 
HETATM   19  C10 UNL     1      17.752  26.467  -6.441  1.00  0.00     0.152 A 
HETATM   20  C9  UNL     1      18.955  26.363  -4.598  1.00  0.00     0.183 A 
ATOM     21  H3  UNL     1      19.259  28.455  -4.437  1.00  0.00     0.168 HD
HETATM   22  N4  UNL     1      18.284  25.649  -5.517  1.00  0.00    -0.335 N 
ATOM     23  H4  UNL     1      18.192  24.634  -5.514  1.00  0.00     0.168 HD
HETATM   24  N5  UNL     1      17.009  26.294  -7.545  1.00  0.00    -0.324 N 
HETATM   25  C11 UNL     1      16.612  27.337  -8.297  1.00  0.00     0.135 A 
ATOM     26  H5  UNL     1      16.739  25.349  -7.822  1.00  0.00     0.169 HD
BRANCH  25  27
HETATM   27  N6  UNL     1      15.896  27.164  -9.360  1.00  0.00    -0.383 N 
ATOM     28  H62 UNL     1      15.206  27.857  -9.651  1.00  0.00     0.157 HD
ATOM     29  H61 UNL     1      16.016  26.324  -9.925  1.00  0.00     0.157 HD
ENDBRANCH  25  27
ENDBRANCH  13  14
ENDBRANCH   2  13
BRANCH   1  30
HETATM   30  C5  UNL     1      14.684  32.497  -9.813  1.00  0.00     0.135 C 
BRANCH  30  31
HETATM   31  C4  UNL     1      15.435  33.829  -9.814  1.00  0.00     0.046 C 
BRANCH  31  32
HETATM   32  C3  UNL     1      16.895  33.508  -9.797  1.00  0.00     0.169 C 
BRANCH  32  33
HETATM   33  O1  UNL     1      17.667  34.545  -9.272  1.00  0.00    -0.391 OA
BRANCH  33  34
HETATM   34  C2  UNL     1      18.162  35.368 -10.252  1.00  0.00     0.163 C 
HETATM   35  C1  UNL     1      18.948  34.656 -11.309  1.00  0.00     0.033 C 
ENDBRANCH  33  34
ENDBRANCH  32  33
ENDBRANCH  31  32
ENDBRANCH  30  31
ENDBRANCH   1  30
BRANCH   6  36
HETATM   36  N8  UNL     1      13.468  31.552  -4.125  1.00  0.00    -0.383 N 
ATOM     37  H82 UNL     1      13.343  32.054  -3.245  1.00  0.00     0.157 HD
ATOM     38  H81 UNL     1      13.711  30.563  -4.079  1.00  0.00     0.157 HD
ENDBRANCH   6  36
BRANCH   9  39
HETATM   39  N10 UNL     1      11.359  34.858  -6.468  1.00  0.00    -0.234 N 
ATOM     40 2H10 UNL     1      10.936  35.190  -5.602  1.00  0.00     0.174 HD
ATOM     41 1H10 UNL     1      11.089  35.300  -7.346  1.00  0.00     0.174 HD
ENDBRANCH   9  39
TORSDOF 10
ENDMDL
MODEL 5
REMARK VINA RESULT: -7.982009195      1.631      6.546
REMARK  10 active torsions:
REMARK  status: ('A' for Active; 'I' for Inactive)
REMARK    1  A    between atoms: C2_2  and  O1_3 
REMARK    2  A    between atoms: O1_3  and  C3_4 
REMARK    3  A    between atoms: C3_4  and  C4_5 
REMARK    4  A    between atoms: C4_5  and  C5_6 
REMARK    5  A    between atoms: C5_6  and  N1_7 
REMARK    6  A    between atoms: C6_8  and  S1_9 
REMARK    7  A    between atoms: S1_9  and  C7_10 
REMARK    8  A    between atoms: C11_22  and  N6_23 
REMARK    9  A    between atoms: C13_29  and  N8_30 
REMARK   10  A    between atoms: C14_35  and  N10_36 
ROOT
HETATM    1  N1  UNL     1      15.499  34.510  -8.700  1.00  0.00    -0.311 N 
HETATM    2  C6  UNL     1      15.698  33.585  -9.660  1.00  0.00     0.155 A 
HETATM    3  N7  UNL     1      16.861  33.852 -10.273  1.00  0.00    -0.330 N 
ATOM      4  H7  UNL     1      17.276  33.324 -11.041  1.00  0.00     0.168 HD
HETATM    5  C12 UNL     1      17.380  34.954  -9.683  1.00  0.00     0.124 A 
HETATM    6  C13 UNL     1      18.532  35.667  -9.897  1.00  0.00     0.145 A 
HETATM    7  N9  UNL     1      18.760  36.735  -9.124  1.00  0.00    -0.175 N 
ATOM      8  H9  UNL     1      19.616  37.268  -9.281  1.00  0.00     0.186 HD
HETATM    9  C14 UNL     1      17.923  37.151  -8.147  1.00  0.00     0.679 A 
HETATM   10  N11 UNL     1      16.803  36.468  -7.930  1.00  0.00    -0.174 N 
ATOM     11  H11 UNL     1      16.155  36.761  -7.200  1.00  0.00     0.186 HD
HETATM   12  C15 UNL     1      16.535  35.388  -8.685  1.00  0.00     0.156 A 
ENDROOT
BRANCH   2  13
HETATM   13  S1  UNL     1      14.544  32.259  -9.984  1.00  0.00    -0.032 SA
BRANCH  13  14
HETATM   14  C7  UNL     1      14.921  30.843  -8.961  1.00  0.00     0.123 A 
HETATM   15  N2  UNL     1      16.201  30.678  -8.585  1.00  0.00    -0.331 N 
HETATM   16  C8  UNL     1      16.560  29.637  -7.816  1.00  0.00     0.152 A 
ATOM     17  H2  UNL     1      16.907  31.350  -8.887  1.00  0.00     0.168 HD
HETATM   18  N3  UNL     1      17.759  29.265  -7.320  1.00  0.00    -0.335 N 
HETATM   19  C10 UNL     1      15.612  28.734  -7.410  1.00  0.00     0.152 A 
HETATM   20  C9  UNL     1      17.573  28.135  -6.604  1.00  0.00     0.183 A 
ATOM     21  H3  UNL     1      18.646  29.750  -7.460  1.00  0.00     0.168 HD
HETATM   22  N4  UNL     1      16.267  27.825  -6.668  1.00  0.00    -0.335 N 
ATOM     23  H4  UNL     1      15.836  27.017  -6.220  1.00  0.00     0.168 HD
HETATM   24  N5  UNL     1      14.336  28.906  -7.790  1.00  0.00    -0.324 N 
HETATM   25  C11 UNL     1      13.965  29.945  -8.561  1.00  0.00     0.135 A 
ATOM     26  H5  UNL     1      13.631  28.233  -7.488  1.00  0.00     0.169 HD
BRANCH  25  27
HETATM   27  N6  UNL     1      12.735  30.106  -8.923  1.00  0.00    -0.383 N 
ATOM     28  H62 UNL     1      11.964  29.793  -8.332  1.00  0.00     0.157 HD
ATOM     29  H61 UNL     1      12.519  30.553  -9.814  1.00  0.00     0.157 HD
ENDBRANCH  25  27
ENDBRANCH  13  14
ENDBRANCH   2  13
BRANCH   1  30
HETATM   30  C5  UNL     1      14.382  34.598  -7.809  1.00  0.00     0.135 C 
BRANCH  30  31
HETATM   31  C4  UNL     1      14.655  33.682  -6.616  1.00  0.00     0.046 C 
BRANCH  31  32
HETATM   32  C3  UNL     1      13.328  33.316  -6.033  1.00  0.00     0.169 C 
BRANCH  32  33
HETATM   33  O1  UNL     1      12.565  32.523  -6.890  1.00  0.00    -0.391 OA
BRANCH  33  34
HETATM   34  C2  UNL     1      11.349  33.091  -7.176  1.00  0.00     0.163 C 
HETATM   35  C1  UNL     1      11.090  33.274  -8.640  1.00  0.00     0.033 C 
ENDBRANCH  33  34
ENDBRANCH  32  33
ENDBRANCH  31  32
ENDBRANCH  30  31
ENDBRANCH   1  30
BRANCH   6  36
HETATM   36  N8  UNL     1      19.395  35.337 -10.817  1.00  0.00    -0.383 N 
ATOM     37  H82 UNL     1      20.393  35.361 -10.608  1.00  0.00     0.157 HD
ATOM     38  H81 UNL     1      19.110  35.050 -11.753  1.00  0.00     0.157 HD
ENDBRANCH   6  36
BRANCH   9  39
HETATM   39  N10 UNL     1      18.224  38.193  -7.449  1.00  0.00    -0.234 N 
ATOM     40 2H10 UNL     1      17.574  38.971  -7.344  1.00  0.00     0.174 HD
ATOM     41 1H10 UNL     1      19.133  38.248  -6.990  1.00  0.00     0.174 HD
ENDBRANCH   9  39
TORSDOF 10
ENDMDL
