MODEL 1
REMARK VINA RESULT: -8.763477218      0.000      0.000
REMARK  10 active torsions:
REMARK  status: ('A' for Active; 'I' for Inactive)
REMARK    1  A    between atoms: N1_1  and  C1_4 
REMARK    2  A    between atoms: C5_11  and  N4_12 
REMARK    3  A    between atoms: N4_12  and  C6_14 
REMARK    4  A    between atoms: C6_14  and  C7_15 
REMARK    5  A    between atoms: C7_15  and  C8_16 
REMARK       I    between atoms: C8_16  and  N5_18 
REMARK    6  A    between atoms: N5_18  and  C9_20 
REMARK    7  A    between atoms: C10_25  and  S1_26 
REMARK    8  A    between atoms: S1_26  and  C11_27 
REMARK    9  A    between atoms: C11_27  and  C12_28 
REMARK   10  A    between atoms: C12_28  and  O2_29 
ROOT
HETATM    1  C6  UNL     1      14.857  29.854  -6.608  1.00  0.00     0.129 C 
ENDROOT
BRANCH   1   2
HETATM    2  N4  UNL     1      16.073  29.335  -7.168  1.00  0.00    -0.388 N 
ATOM      3  H4  UNL     1      16.625  29.932  -7.783  1.00  0.00     0.159 HD
BRANCH   2   4
HETATM    4  C5  UNL     1      16.532  28.033  -6.900  1.00  0.00     0.053 A 
HETATM    5  C4  UNL     1      16.324  26.955  -7.729  1.00  0.00     0.074 A 
HETATM    6  C3  UNL     1      16.755  25.683  -7.496  1.00  0.00     0.059 A 
HETATM    7  N3  UNL     1      15.590  27.224  -8.929  1.00  0.00    -0.100 NA
HETATM    8  C2  UNL     1      17.485  25.399  -6.314  1.00  0.00     0.053 A 
HETATM    9  N2  UNL     1      17.965  24.225  -5.951  1.00  0.00    -0.336 N 
HETATM   10  C14 UNL     1      17.704  26.455  -5.475  1.00  0.00     0.037 A 
HETATM   11  C1  UNL     1      18.629  24.132  -4.804  1.00  0.00     0.143 A 
ATOM     12  H2  UNL     1      17.830  23.404  -6.540  1.00  0.00     0.168 HD
HETATM   13  S3  UNL     1      18.586  25.733  -4.204  1.00  0.00    -0.052 SA
HETATM   14  C13 UNL     1      17.243  27.757  -5.746  1.00  0.00     0.052 A 
BRANCH  11  15
HETATM   15  N1  UNL     1      19.182  23.068  -4.265  1.00  0.00    -0.380 N 
ATOM     16  H12 UNL     1      19.322  22.145  -4.676  1.00  0.00     0.158 HD
ATOM     17  H11 UNL     1      19.577  22.964  -3.330  1.00  0.00     0.158 HD
ENDBRANCH  11  15
ENDBRANCH   2   4
ENDBRANCH   1   2
BRANCH   1  18
HETATM   18  C7  UNL     1      13.699  29.744  -7.572  1.00  0.00     0.122 C 
BRANCH  18  19
HETATM   19  C8  UNL     1      13.749  30.857  -8.532  1.00  0.00     0.225 C 
HETATM   20  O1  UNL     1      14.432  30.707  -9.590  1.00  0.00    -0.273 OA
HETATM   21  N5  UNL     1      13.058  32.095  -8.313  1.00  0.00    -0.306 N 
ATOM     22  H5  UNL     1      12.040  32.138  -8.270  1.00  0.00     0.171 HD
BRANCH  21  23
HETATM   23  C9  UNL     1      13.797  33.171  -8.170  1.00  0.00     0.168 A 
HETATM   24  N6  UNL     1      14.568  33.785  -9.068  1.00  0.00    -0.278 N 
HETATM   25  N7  UNL     1      15.207  34.824  -8.724  1.00  0.00    -0.286 N 
ATOM     26  H6  UNL     1      14.641  33.424 -10.019  1.00  0.00     0.189 HD
HETATM   27  C10 UNL     1      15.110  35.292  -7.487  1.00  0.00     0.130 A 
ATOM     28  H7  UNL     1      15.800  35.303  -9.402  1.00  0.00     0.188 HD
HETATM   29  S2  UNL     1      14.028  34.156  -6.789  1.00  0.00    -0.026 SA
BRANCH  27  30
HETATM   30  S1  UNL     1      15.903  36.729  -6.753  1.00  0.00    -0.101 SA
BRANCH  30  31
HETATM   31  C11 UNL     1      17.146  37.423  -7.852  1.00  0.00     0.107 C 
BRANCH  31  32
HETATM   32  C12 UNL     1      18.296  38.062  -7.120  1.00  0.00     0.174 C 
BRANCH  32  33
HETATM   33  O2  UNL     1      18.573  39.340  -7.534  1.00  0.00    -0.400 OA
ATOM     34  H2  UNL     1      18.704  39.955  -6.820  1.00  0.00     0.209 HD
ENDBRANCH  32  33
ENDBRANCH  31  32
ENDBRANCH  30  31
ENDBRANCH  27  30
ENDBRANCH  21  23
ENDBRANCH  18  19
ENDBRANCH   1  18
TORSDOF 10
ENDMDL
MODEL 2
REMARK VINA RESULT: -8.687804224      3.098      9.103
REMARK  10 active torsions:
REMARK  status: ('A' for Active; 'I' for Inactive)
REMARK    1  A    between atoms: N1_1  and  C1_4 
REMARK    2  A    between atoms: C5_11  and  N4_12 
REMARK    3  A    between atoms: N4_12  and  C6_14 
REMARK    4  A    between atoms: C6_14  and  C7_15 
REMARK    5  A    between atoms: C7_15  and  C8_16 
REMARK       I    between atoms: C8_16  and  N5_18 
REMARK    6  A    between atoms: N5_18  and  C9_20 
REMARK    7  A    between atoms: C10_25  and  S1_26 
REMARK    8  A    between atoms: S1_26  and  C11_27 
REMARK    9  A    between atoms: C11_27  and  C12_28 
REMARK   10  A    between atoms: C12_28  and  O2_29 
ROOT
HETATM    1  C6  UNL     1      13.101  33.033  -6.897  1.00  0.00     0.129 C 
ENDROOT
BRANCH   1   2
HETATM    2  N4  UNL     1      13.666  33.504  -8.131  1.00  0.00    -0.388 N 
ATOM      3  H4  UNL     1      13.249  33.198  -9.010  1.00  0.00     0.159 HD
BRANCH   2   4
HETATM    4  C5  UNL     1      14.770  34.373  -8.172  1.00  0.00     0.053 A 
HETATM    5  C4  UNL     1      15.794  34.276  -9.086  1.00  0.00     0.074 A 
HETATM    6  C3  UNL     1      16.877  35.102  -9.151  1.00  0.00     0.059 A 
HETATM    7  N3  UNL     1      15.685  33.209 -10.035  1.00  0.00    -0.100 NA
HETATM    8  C2  UNL     1      17.002  36.164  -8.221  1.00  0.00     0.053 A 
HETATM    9  N2  UNL     1      17.985  37.041  -8.156  1.00  0.00    -0.336 N 
HETATM   10  C14 UNL     1      15.996  36.280  -7.303  1.00  0.00     0.037 A 
HETATM   11  C1  UNL     1      17.948  37.978  -7.216  1.00  0.00     0.143 A 
ATOM     12  H2  UNL     1      18.762  36.999  -8.817  1.00  0.00     0.168 HD
HETATM   13  S3  UNL     1      16.492  37.633  -6.388  1.00  0.00    -0.052 SA
HETATM   14  C13 UNL     1      14.891  35.409  -7.264  1.00  0.00     0.052 A 
BRANCH  11  15
HETATM   15  N1  UNL     1      18.818  38.936  -6.982  1.00  0.00    -0.380 N 
ATOM     16  H12 UNL     1      19.657  39.177  -7.510  1.00  0.00     0.158 HD
ATOM     17  H11 UNL     1      18.818  39.620  -6.226  1.00  0.00     0.158 HD
ENDBRANCH  11  15
ENDBRANCH   2   4
ENDBRANCH   1   2
BRANCH   1  18
HETATM   18  C7  UNL     1      13.714  31.723  -6.459  1.00  0.00     0.122 C 
BRANCH  18  19
HETATM   19  C8  UNL     1      13.920  30.859  -7.632  1.00  0.00     0.225 C 
HETATM   20  O1  UNL     1      12.901  30.407  -8.234  1.00  0.00    -0.273 OA
HETATM   21  N5  UNL     1      15.228  30.515  -8.114  1.00  0.00    -0.306 N 
ATOM     22  H5  UNL     1      15.864  31.222  -8.483  1.00  0.00     0.171 HD
BRANCH  21  23
HETATM   23  C9  UNL     1      15.568  29.249  -8.057  1.00  0.00     0.168 A 
HETATM   24  N6  UNL     1      15.455  28.307  -8.994  1.00  0.00    -0.278 N 
HETATM   25  N7  UNL     1      15.848  27.130  -8.735  1.00  0.00    -0.286 N 
ATOM     26  H6  UNL     1      15.059  28.530  -9.907  1.00  0.00     0.189 HD
HETATM   27  C10 UNL     1      16.364  26.841  -7.548  1.00  0.00     0.130 A 
ATOM     28  H7  UNL     1      15.768  26.401  -9.444  1.00  0.00     0.188 HD
HETATM   29  S2  UNL     1      16.270  28.368  -6.768  1.00  0.00    -0.026 SA
BRANCH  27  30
HETATM   30  S1  UNL     1      16.989  25.270  -6.935  1.00  0.00    -0.101 SA
BRANCH  30  31
HETATM   31  C11 UNL     1      18.551  25.481  -6.070  1.00  0.00     0.107 C 
BRANCH  31  32
HETATM   32  C12 UNL     1      18.392  26.054  -4.687  1.00  0.00     0.174 C 
BRANCH  32  33
HETATM   33  O2  UNL     1      18.897  27.322  -4.552  1.00  0.00    -0.400 OA
ATOM     34  H2  UNL     1      18.395  27.874  -3.964  1.00  0.00     0.209 HD
ENDBRANCH  32  33
ENDBRANCH  31  32
ENDBRANCH  30  31
ENDBRANCH  27  30
ENDBRANCH  21  23
ENDBRANCH  18  19
ENDBRANCH   1  18
TORSDOF 10
ENDMDL
MODEL 3
REMARK VINA RESULT: -8.567721867      4.115      4.991
REMARK  10 active torsions:
REMARK  status: ('A' for Active; 'I' for Inactive)
REMARK    1  A    between atoms: N1_1  and  C1_4 
REMARK    2  A    between atoms: C5_11  and  N4_12 
REMARK    3  A    between atoms: N4_12  and  C6_14 
REMARK    4  A    between atoms: C6_14  and  C7_15 
REMARK    5  A    between atoms: C7_15  and  C8_16 
REMARK       I    between atoms: C8_16  and  N5_18 
REMARK    6  A    between atoms: N5_18  and  C9_20 
REMARK    7  A    between atoms: C10_25  and  S1_26 
REMARK    8  A    between atoms: S1_26  and  C11_27 
REMARK    9  A    between atoms: C11_27  and  C12_28 
REMARK   10  A    between atoms: C12_28  and  O2_29 
ROOT
HETATM    1  C6  UNL     1      14.969  31.580  -5.166  1.00  0.00     0.129 C 
ENDROOT
BRANCH   1   2
HETATM    2  N4  UNL     1      14.862  30.996  -6.474  1.00  0.00    -0.388 N 
ATOM      3  H4  UNL     1      14.441  31.544  -7.224  1.00  0.00     0.159 HD
BRANCH   2   4
HETATM    4  C5  UNL     1      15.316  29.696  -6.761  1.00  0.00     0.053 A 
HETATM    5  C4  UNL     1      14.905  28.957  -7.845  1.00  0.00     0.074 A 
HETATM    6  C3  UNL     1      15.327  27.696  -8.148  1.00  0.00     0.059 A 
HETATM    7  N3  UNL     1      13.956  29.591  -8.709  1.00  0.00    -0.100 NA
HETATM    8  C2  UNL     1      16.268  27.053  -7.305  1.00  0.00     0.053 A 
HETATM    9  N2  UNL     1      16.767  25.843  -7.465  1.00  0.00    -0.336 N 
HETATM   10  C14 UNL     1      16.691  27.769  -6.221  1.00  0.00     0.037 A 
HETATM   11  C1  UNL     1      17.644  25.389  -6.577  1.00  0.00     0.143 A 
ATOM     12  H2  UNL     1      16.486  25.265  -8.257  1.00  0.00     0.168 HD
HETATM   13  S3  UNL     1      17.783  26.690  -5.475  1.00  0.00    -0.052 SA
HETATM   14  C13 UNL     1      16.234  29.070  -5.937  1.00  0.00     0.052 A 
BRANCH  11  15
HETATM   15  N1  UNL     1      18.254  24.224  -6.552  1.00  0.00    -0.380 N 
ATOM     16  H12 UNL     1      17.937  23.348  -6.137  1.00  0.00     0.158 HD
ATOM     17  H11 UNL     1      19.162  23.976  -6.945  1.00  0.00     0.158 HD
ENDBRANCH  11  15
ENDBRANCH   2   4
ENDBRANCH   1   2
BRANCH   1  18
HETATM   18  C7  UNL     1      13.687  32.258  -4.744  1.00  0.00     0.122 C 
BRANCH  18  19
HETATM   19  C8  UNL     1      13.246  33.180  -5.802  1.00  0.00     0.225 C 
HETATM   20  O1  UNL     1      14.024  34.119  -6.145  1.00  0.00    -0.273 OA
HETATM   21  N5  UNL     1      11.973  33.052  -6.453  1.00  0.00    -0.306 N 
ATOM     22  H5  UNL     1      11.745  32.238  -7.023  1.00  0.00     0.171 HD
BRANCH  21  23
HETATM   23  C9  UNL     1      11.116  34.030  -6.279  1.00  0.00     0.168 A 
HETATM   24  N6  UNL     1      10.679  34.571  -5.142  1.00  0.00    -0.278 N 
HETATM   25  N7  UNL     1       9.840  35.520  -5.193  1.00  0.00    -0.286 N 
ATOM     26  H6  UNL     1      11.015  34.227  -4.243  1.00  0.00     0.189 HD
HETATM   27  C10 UNL     1       9.404  35.967  -6.363  1.00  0.00     0.130 A 
ATOM     28  H7  UNL     1       9.498  35.942  -4.329  1.00  0.00     0.188 HD
HETATM   29  S2  UNL     1      10.264  34.950  -7.446  1.00  0.00    -0.026 SA
BRANCH  27  30
HETATM   30  S1  UNL     1       8.230  37.285  -6.707  1.00  0.00    -0.101 SA
BRANCH  30  31
HETATM   31  C11 UNL     1       8.582  38.080  -8.281  1.00  0.00     0.107 C 
BRANCH  31  32
HETATM   32  C12 UNL     1       7.411  38.069  -9.227  1.00  0.00     0.174 C 
BRANCH  32  33
HETATM   33  O2  UNL     1       7.614  37.306 -10.349  1.00  0.00    -0.400 OA
ATOM     34  H2  UNL     1       6.967  36.620 -10.468  1.00  0.00     0.209 HD
ENDBRANCH  32  33
ENDBRANCH  31  32
ENDBRANCH  30  31
ENDBRANCH  27  30
ENDBRANCH  21  23
ENDBRANCH  18  19
ENDBRANCH   1  18
TORSDOF 10
ENDMDL
MODEL 4
REMARK VINA RESULT: -8.560628970      3.029      9.357
REMARK  10 active torsions:
REMARK  status: ('A' for Active; 'I' for Inactive)
REMARK    1  A    between atoms: N1_1  and  C1_4 
REMARK    2  A    between atoms: C5_11  and  N4_12 
REMARK    3  A    between atoms: N4_12  and  C6_14 
REMARK    4  A    between atoms: C6_14  and  C7_15 
REMARK    5  A    between atoms: C7_15  and  C8_16 
REMARK       I    between atoms: C8_16  and  N5_18 
REMARK    6  A    between atoms: N5_18  and  C9_20 
REMARK    7  A    between atoms: C10_25  and  S1_26 
REMARK    8  A    between atoms: S1_26  and  C11_27 
REMARK    9  A    between atoms: C11_27  and  C12_28 
REMARK   10  A    between atoms: C12_28  and  O2_29 
ROOT
HETATM    1  C6  UNL     1      13.448  32.641  -6.117  1.00  0.00     0.129 C 
ENDROOT
BRANCH   1   2
HETATM    2  N4  UNL     1      13.568  32.965  -7.512  1.00  0.00    -0.388 N 
ATOM      3  H4  UNL     1      12.867  32.607  -8.161  1.00  0.00     0.159 HD
BRANCH   2   4
HETATM    4  C5  UNL     1      14.615  33.755  -8.016  1.00  0.00     0.053 A 
HETATM    5  C4  UNL     1      15.330  33.456  -9.153  1.00  0.00     0.074 A 
HETATM    6  C3  UNL     1      16.349  34.202  -9.666  1.00  0.00     0.059 A 
HETATM    7  N3  UNL     1      14.948  32.254  -9.832  1.00  0.00    -0.100 NA
HETATM    8  C2  UNL     1      16.741  35.395  -9.008  1.00  0.00     0.053 A 
HETATM    9  N2  UNL     1      17.703  36.217  -9.379  1.00  0.00    -0.336 N 
HETATM   10  C14 UNL     1      16.045  35.713  -7.876  1.00  0.00     0.037 A 
HETATM   11  C1  UNL     1      17.942  37.298  -8.644  1.00  0.00     0.143 A 
ATOM     12  H2  UNL     1      18.254  36.027 -10.216  1.00  0.00     0.168 HD
HETATM   13  S3  UNL     1      16.788  37.170  -7.388  1.00  0.00    -0.052 SA
HETATM   14  C13 UNL     1      14.996  34.919  -7.373  1.00  0.00     0.052 A 
BRANCH  11  15
HETATM   15  N1  UNL     1      18.845  38.234  -8.837  1.00  0.00    -0.380 N 
ATOM     16  H12 UNL     1      19.607  38.253  -9.516  1.00  0.00     0.158 HD
ATOM     17  H11 UNL     1      18.954  39.120  -8.344  1.00  0.00     0.158 HD
ENDBRANCH  11  15
ENDBRANCH   2   4
ENDBRANCH   1   2
BRANCH   1  18
HETATM   18  C7  UNL     1      14.104  31.322  -5.785  1.00  0.00     0.122 C 
BRANCH  18  19
HETATM   19  C8  UNL     1      14.301  30.545  -7.018  1.00  0.00     0.225 C 
HETATM   20  O1  UNL     1      13.277  30.154  -7.653  1.00  0.00    -0.273 OA
HETATM   21  N5  UNL     1      15.605  30.218  -7.521  1.00  0.00    -0.306 N 
ATOM     22  H5  UNL     1      16.253  30.941  -7.835  1.00  0.00     0.171 HD
BRANCH  21  23
HETATM   23  C9  UNL     1      15.927  28.946  -7.558  1.00  0.00     0.168 A 
HETATM   24  N6  UNL     1      15.769  28.069  -8.550  1.00  0.00    -0.278 N 
HETATM   25  N7  UNL     1      16.152  26.872  -8.381  1.00  0.00    -0.286 N 
ATOM     26  H6  UNL     1      15.348  28.357  -9.433  1.00  0.00     0.189 HD
HETATM   27  C10 UNL     1      16.700  26.500  -7.233  1.00  0.00     0.130 A 
ATOM     28  H7  UNL     1      16.037  26.192  -9.132  1.00  0.00     0.188 HD
HETATM   29  S2  UNL     1      16.656  27.973  -6.353  1.00  0.00    -0.026 SA
BRANCH  27  30
HETATM   30  S1  UNL     1      17.319  24.884  -6.743  1.00  0.00    -0.101 SA
BRANCH  30  31
HETATM   31  C11 UNL     1      18.551  25.022  -5.440  1.00  0.00     0.107 C 
BRANCH  31  32
HETATM   32  C12 UNL     1      18.690  23.768  -4.620  1.00  0.00     0.174 C 
BRANCH  32  33
HETATM   33  O2  UNL     1      19.839  23.063  -4.878  1.00  0.00    -0.400 OA
ATOM     34  H2  UNL     1      19.813  22.162  -4.575  1.00  0.00     0.209 HD
ENDBRANCH  32  33
ENDBRANCH  31  32
ENDBRANCH  30  31
ENDBRANCH  27  30
ENDBRANCH  21  23
ENDBRANCH  18  19
ENDBRANCH   1  18
TORSDOF 10
ENDMDL
MODEL 5
REMARK VINA RESULT: -8.474969559      3.427      4.680
REMARK  10 active torsions:
REMARK  status: ('A' for Active; 'I' for Inactive)
REMARK    1  A    between atoms: N1_1  and  C1_4 
REMARK    2  A    between atoms: C5_11  and  N4_12 
REMARK    3  A    between atoms: N4_12  and  C6_14 
REMARK    4  A    between atoms: C6_14  and  C7_15 
REMARK    5  A    between atoms: C7_15  and  C8_16 
REMARK       I    between atoms: C8_16  and  N5_18 
REMARK    6  A    between atoms: N5_18  and  C9_20 
REMARK    7  A    between atoms: C10_25  and  S1_26 
REMARK    8  A    between atoms: S1_26  and  C11_27 
REMARK    9  A    between atoms: C11_27  and  C12_28 
REMARK   10  A    between atoms: C12_28  and  O2_29 
ROOT
HETATM    1  C6  UNL     1      15.074  32.296  -6.583  1.00  0.00     0.129 C 
ENDROOT
BRANCH   1   2
HETATM    2  N4  UNL     1      14.358  31.078  -6.322  1.00  0.00    -0.388 N 
ATOM      3  H4  UNL     1      13.434  31.133  -5.894  1.00  0.00     0.159 HD
BRANCH   2   4
HETATM    4  C5  UNL     1      14.884  29.812  -6.635  1.00  0.00     0.053 A 
HETATM    5  C4  UNL     1      14.446  29.031  -7.679  1.00  0.00     0.074 A 
HETATM    6  C3  UNL     1      14.935  27.801  -8.006  1.00  0.00     0.059 A 
HETATM    7  N3  UNL     1      13.387  29.582  -8.469  1.00  0.00    -0.100 NA
HETATM    8  C2  UNL     1      15.984  27.239  -7.235  1.00  0.00     0.053 A 
HETATM    9  N2  UNL     1      16.558  26.067  -7.426  1.00  0.00    -0.336 N 
HETATM   10  C14 UNL     1      16.435  27.997  -6.193  1.00  0.00     0.037 A 
HETATM   11  C1  UNL     1      17.532  25.689  -6.606  1.00  0.00     0.143 A 
ATOM     12  H2  UNL     1      16.258  25.460  -8.190  1.00  0.00     0.168 HD
HETATM   13  S3  UNL     1      17.659  27.010  -5.528  1.00  0.00    -0.052 SA
HETATM   14  C13 UNL     1      15.907  29.265  -5.882  1.00  0.00     0.052 A 
BRANCH  11  15
HETATM   15  N1  UNL     1      18.227  24.573  -6.622  1.00  0.00    -0.380 N 
ATOM     16  H12 UNL     1      18.718  24.117  -5.853  1.00  0.00     0.158 HD
ATOM     17  H11 UNL     1      18.406  23.950  -7.410  1.00  0.00     0.158 HD
ENDBRANCH  11  15
ENDBRANCH   2   4
ENDBRANCH   1   2
BRANCH   1  18
HETATM   18  C7  UNL     1      15.489  32.408  -8.031  1.00  0.00     0.122 C 
BRANCH  18  19
HETATM   19  C8  UNL     1      14.535  33.264  -8.753  1.00  0.00     0.225 C 
HETATM   20  O1  UNL     1      14.917  34.416  -9.117  1.00  0.00    -0.273 OA
HETATM   21  N5  UNL     1      13.197  32.841  -9.055  1.00  0.00    -0.306 N 
ATOM     22  H5  UNL     1      13.014  32.057  -9.680  1.00  0.00     0.171 HD
BRANCH  21  23
HETATM   23  C9  UNL     1      12.220  33.510  -8.489  1.00  0.00     0.168 A 
HETATM   24  N6  UNL     1      11.204  34.157  -9.062  1.00  0.00    -0.278 N 
HETATM   25  N7  UNL     1      10.357  34.747  -8.326  1.00  0.00    -0.286 N 
ATOM     26  H6  UNL     1      11.110  34.176 -10.077  1.00  0.00     0.189 HD
HETATM   27  C10 UNL     1      10.481  34.721  -7.007  1.00  0.00     0.130 A 
ATOM     28  H7  UNL     1       9.575  35.245  -8.753  1.00  0.00     0.188 HD
HETATM   29  S2  UNL     1      11.910  33.786  -6.828  1.00  0.00    -0.026 SA
BRANCH  27  30
HETATM   30  S1  UNL     1       9.429  35.468  -5.754  1.00  0.00    -0.101 SA
BRANCH  30  31
HETATM   31  C11 UNL     1       9.936  34.980  -4.099  1.00  0.00     0.107 C 
BRANCH  31  32
HETATM   32  C12 UNL     1       8.790  34.902  -3.126  1.00  0.00     0.174 C 
BRANCH  32  33
HETATM   33  O2  UNL     1       8.870  33.841  -2.259  1.00  0.00    -0.400 OA
ATOM     34  H2  UNL     1       9.089  33.018  -2.681  1.00  0.00     0.209 HD
ENDBRANCH  32  33
ENDBRANCH  31  32
ENDBRANCH  30  31
ENDBRANCH  27  30
ENDBRANCH  21  23
ENDBRANCH  18  19
ENDBRANCH   1  18
TORSDOF 10
ENDMDL
