MODEL 1
REMARK VINA RESULT: -9.374484714      0.000      0.000
REMARK  9 active torsions:
REMARK  status: ('A' for Active; 'I' for Inactive)
REMARK    1  A    between atoms: C3_3  and  O1_4 
REMARK    2  A    between atoms: C4_7  and  C5_8 
REMARK    3  A    between atoms: C5_8  and  C6_9 
REMARK       I    between atoms: C6_9  and  N1_11 
REMARK    4  A    between atoms: N1_11  and  C7_13 
REMARK    5  A    between atoms: C7_13  and  C8_14 
REMARK    6  A    between atoms: C8_14  and  C9_15 
REMARK    7  A    between atoms: C9_15  and  C10_16 
REMARK    8  A    between atoms: C13_23  and  N4_24 
REMARK    9  A    between atoms: C17_34  and  O4_35 
ROOT
HETATM    1  C10 UNL     1      14.814  33.505  -7.519  1.00  0.00     0.102 C 
HETATM    2  C11 UNL     1      14.037  34.669  -6.878  1.00  0.00     0.146 C 
HETATM    3  N2  UNL     1      14.843  35.821  -6.709  1.00  0.00    -0.372 N 
ATOM      4  H2  UNL     1      14.607  36.483  -5.969  1.00  0.00     0.161 HD
HETATM    5  C12 UNL     1      15.962  36.087  -7.530  1.00  0.00     0.147 A 
HETATM    6  N3  UNL     1      16.735  37.179  -7.346  1.00  0.00    -0.175 N 
ATOM      7  H3  UNL     1      16.529  37.842  -6.599  1.00  0.00     0.186 HD
HETATM    8  C13 UNL     1      17.776  37.372  -8.162  1.00  0.00     0.678 A 
HETATM    9  N5  UNL     1      18.093  36.532  -9.160  1.00  0.00    -0.179 N 
ATOM     10  H5  UNL     1      18.897  36.719  -9.760  1.00  0.00     0.185 HD
HETATM   11  C14 UNL     1      17.324  35.430  -9.357  1.00  0.00     0.146 A 
HETATM   12  S1  UNL     1      17.661  34.370 -10.541  1.00  0.00    -0.057 SA
HETATM   13  C15 UNL     1      16.249  35.189  -8.549  1.00  0.00     0.114 A 
HETATM   14  N6  UNL     1      15.407  34.012  -8.748  1.00  0.00    -0.373 N 
HETATM   15  C16 UNL     1      15.243  33.563 -10.074  1.00  0.00     0.150 C 
ENDROOT
BRANCH   1  16
HETATM   16  C9  UNL     1      13.909  32.362  -7.573  1.00  0.00     0.028 C 
BRANCH  16  17
HETATM   17  C8  UNL     1      13.833  31.420  -6.433  1.00  0.00     0.022 C 
BRANCH  17  18
HETATM   18  C7  UNL     1      15.184  30.937  -5.966  1.00  0.00     0.122 C 
BRANCH  18  19
HETATM   19  N1  UNL     1      15.307  29.528  -6.280  1.00  0.00    -0.361 N 
HETATM   20  C6  UNL     1      15.671  29.013  -7.554  1.00  0.00     0.223 C 
HETATM   21  O3  UNL     1      15.933  29.711  -8.554  1.00  0.00    -0.273 OA
ATOM     22  H1  UNL     1      15.119  28.857  -5.534  1.00  0.00     0.162 HD
BRANCH  20  23
HETATM   23  C5  UNL     1      15.749  27.536  -7.723  1.00  0.00     0.170 C 
BRANCH  23  24
HETATM   24  C4  UNL     1      16.743  26.955  -6.807  1.00  0.00     0.098 A 
HETATM   25  O2  UNL     1      17.413  27.632  -5.900  1.00  0.00    -0.289 OA
HETATM   26  C3  UNL     1      18.222  26.848  -5.239  1.00  0.00     0.192 A 
HETATM   27  C2  UNL     1      18.073  25.575  -5.745  1.00  0.00     0.032 A 
HETATM   28  C1  UNL     1      18.821  24.381  -5.260  1.00  0.00     0.056 C 
HETATM   29  C17 UNL     1      17.129  25.624  -6.750  1.00  0.00     0.106 A 
BRANCH  26  30
HETATM   30  O1  UNL     1      19.090  27.188  -4.210  1.00  0.00    -0.340 OA
ATOM     31  H1  UNL     1      19.502  28.037  -4.113  1.00  0.00     0.220 HD
ENDBRANCH  26  30
BRANCH  29  32
HETATM   32  O4  UNL     1      16.683  24.566  -7.518  1.00  0.00    -0.357 OA
ATOM     33  H4  UNL     1      16.393  24.602  -8.422  1.00  0.00     0.217 HD
ENDBRANCH  29  32
ENDBRANCH  23  24
ENDBRANCH  20  23
ENDBRANCH  18  19
ENDBRANCH  17  18
ENDBRANCH  16  17
ENDBRANCH   1  16
BRANCH   8  34
HETATM   34  N4  UNL     1      18.504  38.415  -7.977  1.00  0.00    -0.234 N 
ATOM     35  H42 UNL     1      18.399  39.206  -8.612  1.00  0.00     0.174 HD
ATOM     36  H41 UNL     1      19.161  38.409  -7.196  1.00  0.00     0.174 HD
ENDBRANCH   8  34
TORSDOF 9
ENDMDL
MODEL 2
REMARK VINA RESULT: -9.188750125      5.937      9.753
REMARK  9 active torsions:
REMARK  status: ('A' for Active; 'I' for Inactive)
REMARK    1  A    between atoms: C3_3  and  O1_4 
REMARK    2  A    between atoms: C4_7  and  C5_8 
REMARK    3  A    between atoms: C5_8  and  C6_9 
REMARK       I    between atoms: C6_9  and  N1_11 
REMARK    4  A    between atoms: N1_11  and  C7_13 
REMARK    5  A    between atoms: C7_13  and  C8_14 
REMARK    6  A    between atoms: C8_14  and  C9_15 
REMARK    7  A    between atoms: C9_15  and  C10_16 
REMARK    8  A    between atoms: C13_23  and  N4_24 
REMARK    9  A    between atoms: C17_34  and  O4_35 
ROOT
HETATM    1  C10 UNL     1      13.163  32.634  -6.272  1.00  0.00     0.102 C 
HETATM    2  C11 UNL     1      13.500  32.168  -4.844  1.00  0.00     0.146 C 
HETATM    3  N2  UNL     1      14.149  30.909  -4.831  1.00  0.00    -0.372 N 
ATOM      4  H2  UNL     1      14.062  30.319  -4.003  1.00  0.00     0.161 HD
HETATM    5  C12 UNL     1      14.912  30.441  -5.925  1.00  0.00     0.147 A 
HETATM    6  N3  UNL     1      15.508  29.230  -5.909  1.00  0.00    -0.175 N 
ATOM      7  H3  UNL     1      15.417  28.616  -5.099  1.00  0.00     0.186 HD
HETATM    8  C13 UNL     1      16.220  28.853  -6.975  1.00  0.00     0.678 A 
HETATM    9  N5  UNL     1      16.372  29.619  -8.066  1.00  0.00    -0.179 N 
ATOM     10  H5  UNL     1      16.925  29.290  -8.858  1.00  0.00     0.185 HD
HETATM   11  C14 UNL     1      15.778  30.839  -8.096  1.00  0.00     0.146 A 
HETATM   12  S1  UNL     1      15.916  31.811  -9.391  1.00  0.00    -0.057 SA
HETATM   13  C15 UNL     1      15.040  31.272  -7.031  1.00  0.00     0.114 A 
HETATM   14  N6  UNL     1      14.398  32.583  -7.041  1.00  0.00    -0.373 N 
HETATM   15  C16 UNL     1      15.065  33.613  -7.735  1.00  0.00     0.150 C 
ENDROOT
BRANCH   1  16
HETATM   16  C9  UNL     1      12.439  33.894  -6.154  1.00  0.00     0.028 C 
BRANCH  16  17
HETATM   17  C8  UNL     1      11.443  34.279  -7.181  1.00  0.00     0.022 C 
BRANCH  17  18
HETATM   18  C7  UNL     1      10.260  35.026  -6.616  1.00  0.00     0.122 C 
BRANCH  18  19
HETATM   19  N1  UNL     1      10.366  35.039  -5.171  1.00  0.00    -0.361 N 
HETATM   20  C6  UNL     1       9.277  34.838  -4.280  1.00  0.00     0.223 C 
HETATM   21  O3  UNL     1       8.100  34.622  -4.632  1.00  0.00    -0.273 OA
ATOM     22  H1  UNL     1      11.288  35.204  -4.765  1.00  0.00     0.162 HD
BRANCH  20  23
HETATM   23  C5  UNL     1       9.545  34.887  -2.816  1.00  0.00     0.170 C 
BRANCH  23  24
HETATM   24  C4  UNL     1       9.772  36.270  -2.370  1.00  0.00     0.098 A 
HETATM   25  O2  UNL     1      10.919  36.907  -2.455  1.00  0.00    -0.289 OA
HETATM   26  C3  UNL     1      10.814  38.119  -1.979  1.00  0.00     0.192 A 
HETATM   27  C2  UNL     1       9.514  38.288  -1.554  1.00  0.00     0.032 A 
HETATM   28  C1  UNL     1       8.981  39.538  -0.944  1.00  0.00     0.056 C 
HETATM   29  C17 UNL     1       8.831  37.113  -1.796  1.00  0.00     0.106 A 
BRANCH  26  30
HETATM   30  O1  UNL     1      11.800  39.093  -1.896  1.00  0.00    -0.340 OA
ATOM     31  H1  UNL     1      12.236  39.349  -1.092  1.00  0.00     0.220 HD
ENDBRANCH  26  30
BRANCH  29  32
HETATM   32  O4  UNL     1       7.503  36.856  -1.520  1.00  0.00    -0.357 OA
ATOM     33  H4  UNL     1       6.848  36.533  -2.127  1.00  0.00     0.217 HD
ENDBRANCH  29  32
ENDBRANCH  23  24
ENDBRANCH  20  23
ENDBRANCH  18  19
ENDBRANCH  17  18
ENDBRANCH  16  17
ENDBRANCH   1  16
BRANCH   8  34
HETATM   34  N4  UNL     1      16.783  27.697  -6.947  1.00  0.00    -0.234 N 
ATOM     35  H42 UNL     1      17.594  27.532  -7.544  1.00  0.00     0.174 HD
ATOM     36  H41 UNL     1      16.394  26.988  -6.325  1.00  0.00     0.174 HD
ENDBRANCH   8  34
TORSDOF 9
ENDMDL
MODEL 3
REMARK VINA RESULT: -9.183353430      0.967      1.039
REMARK  9 active torsions:
REMARK  status: ('A' for Active; 'I' for Inactive)
REMARK    1  A    between atoms: C3_3  and  O1_4 
REMARK    2  A    between atoms: C4_7  and  C5_8 
REMARK    3  A    between atoms: C5_8  and  C6_9 
REMARK       I    between atoms: C6_9  and  N1_11 
REMARK    4  A    between atoms: N1_11  and  C7_13 
REMARK    5  A    between atoms: C7_13  and  C8_14 
REMARK    6  A    between atoms: C8_14  and  C9_15 
REMARK    7  A    between atoms: C9_15  and  C10_16 
REMARK    8  A    between atoms: C13_23  and  N4_24 
REMARK    9  A    between atoms: C17_34  and  O4_35 
ROOT
HETATM    1  C10 UNL     1      14.853  33.598  -7.452  1.00  0.00     0.102 C 
HETATM    2  C11 UNL     1      14.101  34.784  -6.822  1.00  0.00     0.146 C 
HETATM    3  N2  UNL     1      14.924  35.929  -6.687  1.00  0.00    -0.372 N 
ATOM      4  H2  UNL     1      14.707  36.607  -5.955  1.00  0.00     0.161 HD
HETATM    5  C12 UNL     1      16.034  36.164  -7.528  1.00  0.00     0.147 A 
HETATM    6  N3  UNL     1      16.824  37.249  -7.376  1.00  0.00    -0.175 N 
ATOM      7  H3  UNL     1      16.637  37.929  -6.638  1.00  0.00     0.186 HD
HETATM    8  C13 UNL     1      17.854  37.413  -8.211  1.00  0.00     0.678 A 
HETATM    9  N5  UNL     1      18.146  36.551  -9.196  1.00  0.00    -0.179 N 
ATOM     10  H5  UNL     1      18.944  36.716  -9.811  1.00  0.00     0.185 HD
HETATM   11  C14 UNL     1      17.361  35.456  -9.361  1.00  0.00     0.146 A 
HETATM   12  S1  UNL     1      17.667  34.370 -10.531  1.00  0.00    -0.057 SA
HETATM   13  C15 UNL     1      16.295  35.243  -8.534  1.00  0.00     0.114 A 
HETATM   14  N6  UNL     1      15.435  34.075  -8.699  1.00  0.00    -0.373 N 
HETATM   15  C16 UNL     1      15.246  33.603 -10.014  1.00  0.00     0.150 C 
ENDROOT
BRANCH   1  16
HETATM   16  C9  UNL     1      13.934  32.466  -7.472  1.00  0.00     0.028 C 
BRANCH  16  17
HETATM   17  C8  UNL     1      14.458  31.082  -7.422  1.00  0.00     0.022 C 
BRANCH  17  18
HETATM   18  C7  UNL     1      13.849  30.175  -8.464  1.00  0.00     0.122 C 
BRANCH  18  19
HETATM   19  N1  UNL     1      14.765  29.083  -8.722  1.00  0.00    -0.361 N 
HETATM   20  C6  UNL     1      14.916  27.942  -7.887  1.00  0.00     0.223 C 
HETATM   21  O3  UNL     1      14.276  27.740  -6.836  1.00  0.00    -0.273 OA
ATOM     22  H1  UNL     1      15.343  29.137  -9.561  1.00  0.00     0.162 HD
BRANCH  20  23
HETATM   23  C5  UNL     1      15.907  26.904  -8.283  1.00  0.00     0.170 C 
BRANCH  23  24
HETATM   24  C4  UNL     1      16.780  26.553  -7.152  1.00  0.00     0.098 A 
HETATM   25  O2  UNL     1      17.341  27.422  -6.340  1.00  0.00    -0.289 OA
HETATM   26  C3  UNL     1      18.060  26.815  -5.434  1.00  0.00     0.192 A 
HETATM   27  C2  UNL     1      17.964  25.460  -5.667  1.00  0.00     0.032 A 
HETATM   28  C1  UNL     1      18.640  24.413  -4.851  1.00  0.00     0.056 C 
HETATM   29  C17 UNL     1      17.148  25.273  -6.764  1.00  0.00     0.106 A 
BRANCH  26  30
HETATM   30  O1  UNL     1      18.800  27.385  -4.407  1.00  0.00    -0.340 OA
ATOM     31  H1  UNL     1      18.428  27.885  -3.690  1.00  0.00     0.220 HD
ENDBRANCH  26  30
BRANCH  29  32
HETATM   32  O4  UNL     1      16.790  24.067  -7.333  1.00  0.00    -0.357 OA
ATOM     33  H4  UNL     1      16.885  23.817  -8.245  1.00  0.00     0.217 HD
ENDBRANCH  29  32
ENDBRANCH  23  24
ENDBRANCH  20  23
ENDBRANCH  18  19
ENDBRANCH  17  18
ENDBRANCH  16  17
ENDBRANCH   1  16
BRANCH   8  34
HETATM   34  N4  UNL     1      18.599  38.451  -8.055  1.00  0.00    -0.234 N 
ATOM     35  H42 UNL     1      18.548  39.199  -8.746  1.00  0.00     0.174 HD
ATOM     36  H41 UNL     1      19.213  38.483  -7.241  1.00  0.00     0.174 HD
ENDBRANCH   8  34
TORSDOF 9
ENDMDL
MODEL 4
REMARK VINA RESULT: -9.038755812      1.094      1.215
REMARK  9 active torsions:
REMARK  status: ('A' for Active; 'I' for Inactive)
REMARK    1  A    between atoms: C3_3  and  O1_4 
REMARK    2  A    between atoms: C4_7  and  C5_8 
REMARK    3  A    between atoms: C5_8  and  C6_9 
REMARK       I    between atoms: C6_9  and  N1_11 
REMARK    4  A    between atoms: N1_11  and  C7_13 
REMARK    5  A    between atoms: C7_13  and  C8_14 
REMARK    6  A    between atoms: C8_14  and  C9_15 
REMARK    7  A    between atoms: C9_15  and  C10_16 
REMARK    8  A    between atoms: C13_23  and  N4_24 
REMARK    9  A    between atoms: C17_34  and  O4_35 
ROOT
HETATM    1  C10 UNL     1      14.886  33.793  -7.127  1.00  0.00     0.102 C 
HETATM    2  C11 UNL     1      14.258  35.111  -6.639  1.00  0.00     0.146 C 
HETATM    3  N2  UNL     1      15.148  36.205  -6.758  1.00  0.00    -0.372 N 
ATOM      4  H2  UNL     1      15.035  37.003  -6.131  1.00  0.00     0.161 HD
HETATM    5  C12 UNL     1      16.189  36.232  -7.714  1.00  0.00     0.147 A 
HETATM    6  N3  UNL     1      17.045  37.272  -7.804  1.00  0.00    -0.175 N 
ATOM      7  H3  UNL     1      16.962  38.070  -7.174  1.00  0.00     0.186 HD
HETATM    8  C13 UNL     1      18.002  37.234  -8.736  1.00  0.00     0.678 A 
HETATM    9  N5  UNL     1      18.158  36.211  -9.589  1.00  0.00    -0.179 N 
ATOM     10  H5  UNL     1      18.904  36.223 -10.286  1.00  0.00     0.185 HD
HETATM   11  C14 UNL     1      17.304  35.157  -9.510  1.00  0.00     0.146 A 
HETATM   12  S1  UNL     1      17.445  33.883 -10.509  1.00  0.00    -0.057 SA
HETATM   13  C15 UNL     1      16.308  35.149  -8.575  1.00  0.00     0.114 A 
HETATM   14  N6  UNL     1      15.376  34.029  -8.478  1.00  0.00    -0.373 N 
HETATM   15  C16 UNL     1      15.043  33.370  -9.679  1.00  0.00     0.150 C 
ENDROOT
BRANCH   1  16
HETATM   16  C9  UNL     1      13.910  32.736  -6.888  1.00  0.00     0.028 C 
BRANCH  16  17
HETATM   17  C8  UNL     1      13.409  32.483  -5.517  1.00  0.00     0.022 C 
BRANCH  17  18
HETATM   18  C7  UNL     1      13.817  31.136  -4.972  1.00  0.00     0.122 C 
BRANCH  18  19
HETATM   19  N1  UNL     1      14.912  30.624  -5.771  1.00  0.00    -0.361 N 
HETATM   20  C6  UNL     1      14.757  29.800  -6.919  1.00  0.00     0.223 C 
HETATM   21  O3  UNL     1      13.662  29.422  -7.381  1.00  0.00    -0.273 OA
ATOM     22  H1  UNL     1      15.861  30.872  -5.489  1.00  0.00     0.162 HD
BRANCH  20  23
HETATM   23  C5  UNL     1      15.983  29.347  -7.633  1.00  0.00     0.170 C 
BRANCH  23  24
HETATM   24  C4  UNL     1      16.519  28.119  -7.027  1.00  0.00     0.098 A 
HETATM   25  O2  UNL     1      17.083  28.052  -5.841  1.00  0.00    -0.289 OA
HETATM   26  C3  UNL     1      17.461  26.830  -5.574  1.00  0.00     0.192 A 
HETATM   27  C2  UNL     1      17.124  26.046  -6.655  1.00  0.00     0.032 A 
HETATM   28  C1  UNL     1      17.385  24.582  -6.750  1.00  0.00     0.056 C 
HETATM   29  C17 UNL     1      16.519  26.854  -7.596  1.00  0.00     0.106 A 
BRANCH  26  30
HETATM   30  O1  UNL     1      18.089  26.361  -4.428  1.00  0.00    -0.340 OA
ATOM     31  H1  UNL     1      18.821  26.790  -4.002  1.00  0.00     0.220 HD
ENDBRANCH  26  30
BRANCH  29  32
HETATM   32  O4  UNL     1      16.030  26.466  -8.828  1.00  0.00    -0.357 OA
ATOM     33  H4  UNL     1      16.459  26.570  -9.669  1.00  0.00     0.217 HD
ENDBRANCH  29  32
ENDBRANCH  23  24
ENDBRANCH  20  23
ENDBRANCH  18  19
ENDBRANCH  17  18
ENDBRANCH  16  17
ENDBRANCH   1  16
BRANCH   8  34
HETATM   34  N4  UNL     1      18.812  38.231  -8.812  1.00  0.00    -0.234 N 
ATOM     35  H42 UNL     1      18.589  38.996  -9.448  1.00  0.00     0.174 HD
ATOM     36  H41 UNL     1      19.648  38.215  -8.228  1.00  0.00     0.174 HD
ENDBRANCH   8  34
TORSDOF 9
ENDMDL
MODEL 5
REMARK VINA RESULT: -8.832373361      5.864     10.067
REMARK  9 active torsions:
REMARK  status: ('A' for Active; 'I' for Inactive)
REMARK    1  A    between atoms: C3_3  and  O1_4 
REMARK    2  A    between atoms: C4_7  and  C5_8 
REMARK    3  A    between atoms: C5_8  and  C6_9 
REMARK       I    between atoms: C6_9  and  N1_11 
REMARK    4  A    between atoms: N1_11  and  C7_13 
REMARK    5  A    between atoms: C7_13  and  C8_14 
REMARK    6  A    between atoms: C8_14  and  C9_15 
REMARK    7  A    between atoms: C9_15  and  C10_16 
REMARK    8  A    between atoms: C13_23  and  N4_24 
REMARK    9  A    between atoms: C17_34  and  O4_35 
ROOT
HETATM    1  C10 UNL     1      13.358  32.731  -6.491  1.00  0.00     0.102 C 
HETATM    2  C11 UNL     1      13.628  32.381  -5.016  1.00  0.00     0.146 C 
HETATM    3  N2  UNL     1      14.209  31.098  -4.869  1.00  0.00    -0.372 N 
ATOM      4  H2  UNL     1      14.067  30.590  -3.995  1.00  0.00     0.161 HD
HETATM    5  C12 UNL     1      14.979  30.495  -5.890  1.00  0.00     0.147 A 
HETATM    6  N3  UNL     1      15.510  29.263  -5.746  1.00  0.00    -0.175 N 
ATOM      7  H3  UNL     1      15.363  28.730  -4.888  1.00  0.00     0.186 HD
HETATM    8  C13 UNL     1      16.232  28.755  -6.749  1.00  0.00     0.678 A 
HETATM    9  N5  UNL     1      16.456  29.410  -7.898  1.00  0.00    -0.179 N 
ATOM     10  H5  UNL     1      17.014  28.984  -8.639  1.00  0.00     0.185 HD
HETATM   11  C14 UNL     1      15.928  30.651  -8.057  1.00  0.00     0.146 A 
HETATM   12  S1  UNL     1      16.155  31.493  -9.429  1.00  0.00    -0.057 SA
HETATM   13  C15 UNL     1      15.183  31.214  -7.060  1.00  0.00     0.114 A 
HETATM   14  N6  UNL     1      14.611  32.550  -7.210  1.00  0.00    -0.373 N 
HETATM   15  C16 UNL     1      15.351  33.478  -7.970  1.00  0.00     0.150 C 
ENDROOT
BRANCH   1  16
HETATM   16  C9  UNL     1      12.697  34.031  -6.510  1.00  0.00     0.028 C 
BRANCH  16  17
HETATM   17  C8  UNL     1      11.614  34.300  -7.484  1.00  0.00     0.022 C 
BRANCH  17  18
HETATM   18  C7  UNL     1      10.267  34.508  -6.836  1.00  0.00     0.122 C 
BRANCH  18  19
HETATM   19  N1  UNL     1      10.453  35.256  -5.610  1.00  0.00    -0.361 N 
HETATM   20  C6  UNL     1       9.899  34.894  -4.352  1.00  0.00     0.223 C 
HETATM   21  O3  UNL     1       9.192  33.886  -4.149  1.00  0.00    -0.273 OA
ATOM     22  H1  UNL     1      11.020  36.103  -5.652  1.00  0.00     0.162 HD
BRANCH  20  23
HETATM   23  C5  UNL     1      10.175  35.770  -3.179  1.00  0.00     0.170 C 
BRANCH  23  24
HETATM   24  C4  UNL     1       9.661  37.129  -3.408  1.00  0.00     0.098 A 
HETATM   25  O2  UNL     1      10.071  37.935  -4.363  1.00  0.00    -0.289 OA
HETATM   26  C3  UNL     1       9.433  39.074  -4.316  1.00  0.00     0.192 A 
HETATM   27  C2  UNL     1       8.547  39.010  -3.262  1.00  0.00     0.032 A 
HETATM   28  C1  UNL     1       7.626  40.112  -2.866  1.00  0.00     0.056 C 
HETATM   29  C17 UNL     1       8.680  37.771  -2.668  1.00  0.00     0.106 A 
BRANCH  26  30
HETATM   30  O1  UNL     1       9.583  40.173  -5.151  1.00  0.00    -0.340 OA
ATOM     31  H1  UNL     1      10.208  40.225  -5.864  1.00  0.00     0.220 HD
ENDBRANCH  26  30
BRANCH  29  32
HETATM   32  O4  UNL     1       7.978  37.298  -1.577  1.00  0.00    -0.357 OA
ATOM     33  H4  UNL     1       7.913  37.706  -0.722  1.00  0.00     0.217 HD
ENDBRANCH  29  32
ENDBRANCH  23  24
ENDBRANCH  20  23
ENDBRANCH  18  19
ENDBRANCH  17  18
ENDBRANCH  16  17
ENDBRANCH   1  16
BRANCH   8  34
HETATM   34  N4  UNL     1      16.733  27.580  -6.599  1.00  0.00    -0.234 N 
ATOM     35  H42 UNL     1      16.976  27.266  -5.659  1.00  0.00     0.174 HD
ATOM     36  H41 UNL     1      16.867  27.006  -7.432  1.00  0.00     0.174 HD
ENDBRANCH   8  34
TORSDOF 9
ENDMDL
