MODEL 1
REMARK VINA RESULT: -8.118800090      0.000      0.000
REMARK  12 active torsions:
REMARK  status: ('A' for Active; 'I' for Inactive)
REMARK    1  A    between atoms: S1_2  and  C2_3 
REMARK    2  A    between atoms: C2_3  and  C3_4 
REMARK    3  A    between atoms: C3_4  and  N2_7 
REMARK    4  A    between atoms: N2_7  and  C5_9 
REMARK    5  A    between atoms: C5_9  and  O1_10 
REMARK    6  A    between atoms: C5_9  and  C6_12 
REMARK    7  A    between atoms: C7_13  and  C8_14 
REMARK    8  A    between atoms: C8_14  and  O2_17 
REMARK    9  A    between atoms: C11_23  and  N5_24 
REMARK   10  A    between atoms: N5_24  and  C12_26 
REMARK   11  A    between atoms: C12_26  and  C13_27 
REMARK   12  A    between atoms: C14_29  and  N6_30 
ROOT
HETATM    1  C3  UNL     1      15.873  33.742  -9.131  1.00  0.00     0.200 C 
HETATM    2  C4  UNL     1      16.469  32.440  -9.476  1.00  0.00     0.085 C 
HETATM    3  N1  UNL     1      16.944  31.423  -9.766  1.00  0.00    -0.195 NA
ENDROOT
BRANCH   1   4
HETATM    4  C2  UNL     1      16.740  34.871  -9.553  1.00  0.00     0.113 C 
BRANCH   4   5
HETATM    5  S1  UNL     1      17.137  34.919 -11.303  1.00  0.00    -0.171 SA
HETATM    6  C1  UNL     1      18.777  34.309 -11.700  1.00  0.00     0.089 C 
ENDBRANCH   4   5
ENDBRANCH   1   4
BRANCH   1   7
HETATM    7  N2  UNL     1      15.719  33.668  -7.641  1.00  0.00    -0.352 N 
ATOM      8  H2  UNL     1      16.238  34.292  -7.023  1.00  0.00     0.163 HD
BRANCH   7   9
HETATM    9  C5  UNL     1      14.841  32.718  -7.137  1.00  0.00     0.153 C 
BRANCH   9  10
HETATM   10  O1  UNL     1      15.187  32.336  -5.930  1.00  0.00    -0.346 OA
ATOM     11  H1  UNL     1      15.530  31.450  -5.929  1.00  0.00     0.219 HD
ENDBRANCH   9  10
BRANCH   9  12
HETATM   12  C6  UNL     1      13.656  32.091  -7.682  1.00  0.00     0.086 A 
HETATM   13  C7  UNL     1      12.397  32.625  -7.824  1.00  0.00     0.077 A 
HETATM   14  N3  UNL     1      11.625  31.606  -8.348  1.00  0.00    -0.299 N 
HETATM   15  N4  UNL     1      12.336  30.540  -8.516  1.00  0.00    -0.285 N 
ATOM     16  H3  UNL     1      10.633  31.685  -8.571  1.00  0.00     0.186 HD
HETATM   17  C11 UNL     1      13.624  30.755  -8.124  1.00  0.00     0.133 A 
ATOM     18  H4  UNL     1      11.983  29.659  -8.890  1.00  0.00     0.188 HD
BRANCH  13  19
HETATM   19  C8  UNL     1      11.862  33.972  -7.512  1.00  0.00     0.095 C 
HETATM   20  C9  UNL     1      11.682  33.969  -5.942  1.00  0.00     0.052 C 
HETATM   21  C10 UNL     1      10.512  34.259  -8.061  1.00  0.00     0.052 C 
BRANCH  19  22
HETATM   22  O2  UNL     1      12.808  34.987  -7.662  1.00  0.00    -0.384 OA
ATOM     23  H2  UNL     1      13.407  35.050  -6.927  1.00  0.00     0.211 HD
ENDBRANCH  19  22
ENDBRANCH  13  19
BRANCH  17  24
HETATM   24  N5  UNL     1      14.669  29.822  -8.178  1.00  0.00    -0.370 N 
ATOM     25  H5  UNL     1      15.616  30.106  -8.431  1.00  0.00     0.161 HD
BRANCH  24  26
HETATM   26  C12 UNL     1      14.355  28.419  -7.857  1.00  0.00     0.171 C 
BRANCH  26  27
HETATM   27  C13 UNL     1      15.533  27.832  -7.123  1.00  0.00     0.045 A 
HETATM   28  S2  UNL     1      16.363  26.367  -7.401  1.00  0.00    -0.054 SA
HETATM   29  C14 UNL     1      17.516  26.496  -6.150  1.00  0.00     0.143 A 
HETATM   30  N7  UNL     1      17.207  27.662  -5.578  1.00  0.00    -0.325 N 
HETATM   31  C15 UNL     1      16.212  28.348  -6.054  1.00  0.00     0.133 A 
ATOM     32  H7  UNL     1      17.743  28.007  -4.782  1.00  0.00     0.169 HD
HETATM   33  N8  UNL     1      15.794  29.633  -5.503  1.00  0.00    -0.081 NA
BRANCH  29  34
HETATM   34  N6  UNL     1      18.478  25.661  -5.819  1.00  0.00    -0.380 N 
ATOM     35  H62 UNL     1      18.435  24.882  -5.161  1.00  0.00     0.158 HD
ATOM     36  H61 UNL     1      19.442  25.627  -6.151  1.00  0.00     0.158 HD
ENDBRANCH  29  34
ENDBRANCH  26  27
ENDBRANCH  24  26
ENDBRANCH  17  24
ENDBRANCH   9  12
ENDBRANCH   7   9
ENDBRANCH   1   7
TORSDOF 12
ENDMDL
MODEL 2
REMARK VINA RESULT: -8.018832373      2.405      4.430
REMARK  12 active torsions:
REMARK  status: ('A' for Active; 'I' for Inactive)
REMARK    1  A    between atoms: S1_2  and  C2_3 
REMARK    2  A    between atoms: C2_3  and  C3_4 
REMARK    3  A    between atoms: C3_4  and  N2_7 
REMARK    4  A    between atoms: N2_7  and  C5_9 
REMARK    5  A    between atoms: C5_9  and  O1_10 
REMARK    6  A    between atoms: C5_9  and  C6_12 
REMARK    7  A    between atoms: C7_13  and  C8_14 
REMARK    8  A    between atoms: C8_14  and  O2_17 
REMARK    9  A    between atoms: C11_23  and  N5_24 
REMARK   10  A    between atoms: N5_24  and  C12_26 
REMARK   11  A    between atoms: C12_26  and  C13_27 
REMARK   12  A    between atoms: C14_29  and  N6_30 
ROOT
HETATM    1  C3  UNL     1      13.292  32.448  -6.188  1.00  0.00     0.200 C 
HETATM    2  C4  UNL     1      13.514  31.426  -5.152  1.00  0.00     0.085 C 
HETATM    3  N1  UNL     1      13.689  30.637  -4.320  1.00  0.00    -0.195 NA
ENDROOT
BRANCH   1   4
HETATM    4  C2  UNL     1      12.385  33.523  -5.714  1.00  0.00     0.113 C 
BRANCH   4   5
HETATM    5  S1  UNL     1      11.396  34.310  -6.989  1.00  0.00    -0.171 SA
HETATM    6  C1  UNL     1       9.893  35.079  -6.381  1.00  0.00     0.089 C 
ENDBRANCH   4   5
ENDBRANCH   1   4
BRANCH   1   7
HETATM    7  N2  UNL     1      12.704  31.666  -7.325  1.00  0.00    -0.352 N 
ATOM      8  H2  UNL     1      11.707  31.707  -7.537  1.00  0.00     0.163 HD
BRANCH   7   9
HETATM    9  C5  UNL     1      13.571  30.885  -8.078  1.00  0.00     0.153 C 
BRANCH   9  10
HETATM   10  O1  UNL     1      12.994  29.775  -8.477  1.00  0.00    -0.346 OA
ATOM     11  H1  UNL     1      13.001  29.700  -9.424  1.00  0.00     0.219 HD
ENDBRANCH   9  10
BRANCH   9  12
HETATM   12  C6  UNL     1      14.947  31.064  -8.487  1.00  0.00     0.086 A 
HETATM   13  C7  UNL     1      15.542  32.185  -9.013  1.00  0.00     0.077 A 
HETATM   14  N3  UNL     1      16.848  31.818  -9.274  1.00  0.00    -0.299 N 
HETATM   15  N4  UNL     1      17.046  30.585  -8.943  1.00  0.00    -0.285 N 
ATOM     16  H3  UNL     1      17.556  32.434  -9.673  1.00  0.00     0.186 HD
HETATM   17  C11 UNL     1      15.906  30.033  -8.438  1.00  0.00     0.133 A 
ATOM     18  H4  UNL     1      17.934  30.092  -9.044  1.00  0.00     0.188 HD
BRANCH  13  19
HETATM   19  C8  UNL     1      15.007  33.540  -9.293  1.00  0.00     0.095 C 
HETATM   20  C9  UNL     1      15.846  34.043 -10.534  1.00  0.00     0.052 C 
HETATM   21  C10 UNL     1      15.242  34.546  -8.226  1.00  0.00     0.052 C 
BRANCH  19  22
HETATM   22  O2  UNL     1      13.723  33.521  -9.839  1.00  0.00    -0.384 OA
ATOM     23  H2  UNL     1      13.307  34.374  -9.846  1.00  0.00     0.211 HD
ENDBRANCH  19  22
ENDBRANCH  13  19
BRANCH  17  24
HETATM   24  N5  UNL     1      15.762  28.721  -7.970  1.00  0.00    -0.370 N 
ATOM     25  H5  UNL     1      15.484  27.965  -8.596  1.00  0.00     0.161 HD
BRANCH  24  26
HETATM   26  C12 UNL     1      16.026  28.467  -6.542  1.00  0.00     0.171 C 
BRANCH  26  27
HETATM   27  C13 UNL     1      16.805  27.183  -6.431  1.00  0.00     0.045 A 
HETATM   28  S2  UNL     1      17.924  26.693  -5.239  1.00  0.00    -0.054 SA
HETATM   29  C14 UNL     1      18.308  25.158  -5.877  1.00  0.00     0.143 A 
HETATM   30  N7  UNL     1      17.555  25.096  -6.977  1.00  0.00    -0.325 N 
HETATM   31  C15 UNL     1      16.793  26.105  -7.273  1.00  0.00     0.133 A 
ATOM     32  H7  UNL     1      17.579  24.270  -7.576  1.00  0.00     0.169 HD
HETATM   33  N8  UNL     1      15.932  26.137  -8.451  1.00  0.00    -0.081 NA
BRANCH  29  34
HETATM   34  N6  UNL     1      19.138  24.250  -5.410  1.00  0.00    -0.380 N 
ATOM     35  H62 UNL     1      19.713  24.297  -4.569  1.00  0.00     0.158 HD
ATOM     36  H61 UNL     1      19.366  23.331  -5.791  1.00  0.00     0.158 HD
ENDBRANCH  29  34
ENDBRANCH  26  27
ENDBRANCH  24  26
ENDBRANCH  17  24
ENDBRANCH   9  12
ENDBRANCH   7   9
ENDBRANCH   1   7
TORSDOF 12
ENDMDL
MODEL 3
REMARK VINA RESULT: -7.902793874      1.884      2.370
REMARK  12 active torsions:
REMARK  status: ('A' for Active; 'I' for Inactive)
REMARK    1  A    between atoms: S1_2  and  C2_3 
REMARK    2  A    between atoms: C2_3  and  C3_4 
REMARK    3  A    between atoms: C3_4  and  N2_7 
REMARK    4  A    between atoms: N2_7  and  C5_9 
REMARK    5  A    between atoms: C5_9  and  O1_10 
REMARK    6  A    between atoms: C5_9  and  C6_12 
REMARK    7  A    between atoms: C7_13  and  C8_14 
REMARK    8  A    between atoms: C8_14  and  O2_17 
REMARK    9  A    between atoms: C11_23  and  N5_24 
REMARK   10  A    between atoms: N5_24  and  C12_26 
REMARK   11  A    between atoms: C12_26  and  C13_27 
REMARK   12  A    between atoms: C14_29  and  N6_30 
ROOT
HETATM    1  C3  UNL     1      15.453  34.075  -8.215  1.00  0.00     0.200 C 
HETATM    2  C4  UNL     1      16.242  33.156  -9.053  1.00  0.00     0.085 C 
HETATM    3  N1  UNL     1      16.866  32.448  -9.728  1.00  0.00    -0.195 NA
ENDROOT
BRANCH   1   4
HETATM    4  C2  UNL     1      16.005  35.452  -8.242  1.00  0.00     0.113 C 
BRANCH   4   5
HETATM    5  S1  UNL     1      15.705  36.427  -6.764  1.00  0.00    -0.171 SA
HETATM    6  C1  UNL     1      17.121  37.384  -6.218  1.00  0.00     0.089 C 
ENDBRANCH   4   5
ENDBRANCH   1   4
BRANCH   1   7
HETATM    7  N2  UNL     1      15.534  33.454  -6.852  1.00  0.00    -0.352 N 
ATOM      8  H2  UNL     1      16.234  33.755  -6.174  1.00  0.00     0.163 HD
BRANCH   7   9
HETATM    9  C5  UNL     1      14.618  32.455  -6.550  1.00  0.00     0.153 C 
BRANCH   9  10
HETATM   10  O1  UNL     1      14.353  32.419  -5.265  1.00  0.00    -0.346 OA
ATOM     11  H1  UNL     1      14.057  31.557  -4.994  1.00  0.00     0.219 HD
ENDBRANCH   9  10
BRANCH   9  12
HETATM   12  C6  UNL     1      13.927  31.480  -7.365  1.00  0.00     0.086 A 
HETATM   13  C7  UNL     1      12.655  31.547  -7.882  1.00  0.00     0.077 A 
HETATM   14  N3  UNL     1      12.464  30.347  -8.541  1.00  0.00    -0.299 N 
HETATM   15  N4  UNL     1      13.518  29.605  -8.443  1.00  0.00    -0.285 N 
ATOM     16  H3  UNL     1      11.612  30.085  -9.035  1.00  0.00     0.186 HD
HETATM   17  C11 UNL     1      14.486  30.238  -7.721  1.00  0.00     0.133 A 
ATOM     18  H4  UNL     1      13.612  28.673  -8.849  1.00  0.00     0.188 HD
BRANCH  13  19
HETATM   19  C8  UNL     1      11.622  32.608  -7.811  1.00  0.00     0.095 C 
HETATM   20  C9  UNL     1      10.366  31.981  -8.537  1.00  0.00     0.052 C 
HETATM   21  C10 UNL     1      11.934  33.847  -8.568  1.00  0.00     0.052 C 
BRANCH  19  22
HETATM   22  O2  UNL     1      11.112  32.793  -6.525  1.00  0.00    -0.384 OA
ATOM     23  H2  UNL     1      10.297  33.280  -6.513  1.00  0.00     0.211 HD
ENDBRANCH  19  22
ENDBRANCH  13  19
BRANCH  17  24
HETATM   24  N5  UNL     1      15.760  29.731  -7.428  1.00  0.00    -0.370 N 
ATOM     25  H5  UNL     1      16.516  29.778  -8.112  1.00  0.00     0.161 HD
BRANCH  24  26
HETATM   26  C12 UNL     1      15.971  29.130  -6.099  1.00  0.00     0.171 C 
BRANCH  26  27
HETATM   27  C13 UNL     1      16.608  27.778  -6.294  1.00  0.00     0.045 A 
HETATM   28  S2  UNL     1      17.787  26.988  -5.346  1.00  0.00    -0.054 SA
HETATM   29  C14 UNL     1      17.922  25.556  -6.264  1.00  0.00     0.143 A 
HETATM   30  N7  UNL     1      17.052  25.755  -7.256  1.00  0.00    -0.325 N 
HETATM   31  C15 UNL     1      16.382  26.867  -7.288  1.00  0.00     0.133 A 
ATOM     32  H7  UNL     1      16.916  25.046  -7.977  1.00  0.00     0.169 HD
HETATM   33  N8  UNL     1      15.407  27.181  -8.328  1.00  0.00    -0.081 NA
BRANCH  29  34
HETATM   34  N6  UNL     1      18.689  24.507  -6.057  1.00  0.00    -0.380 N 
ATOM     35  H62 UNL     1      19.706  24.449  -6.124  1.00  0.00     0.158 HD
ATOM     36  H61 UNL     1      18.423  23.559  -5.790  1.00  0.00     0.158 HD
ENDBRANCH  29  34
ENDBRANCH  26  27
ENDBRANCH  24  26
ENDBRANCH  17  24
ENDBRANCH   9  12
ENDBRANCH   7   9
ENDBRANCH   1   7
TORSDOF 12
ENDMDL
MODEL 4
REMARK VINA RESULT: -7.865975062      3.056      7.067
REMARK  12 active torsions:
REMARK  status: ('A' for Active; 'I' for Inactive)
REMARK    1  A    between atoms: S1_2  and  C2_3 
REMARK    2  A    between atoms: C2_3  and  C3_4 
REMARK    3  A    between atoms: C3_4  and  N2_7 
REMARK    4  A    between atoms: N2_7  and  C5_9 
REMARK    5  A    between atoms: C5_9  and  O1_10 
REMARK    6  A    between atoms: C5_9  and  C6_12 
REMARK    7  A    between atoms: C7_13  and  C8_14 
REMARK    8  A    between atoms: C8_14  and  O2_17 
REMARK    9  A    between atoms: C11_23  and  N5_24 
REMARK   10  A    between atoms: N5_24  and  C12_26 
REMARK   11  A    between atoms: C12_26  and  C13_27 
REMARK   12  A    between atoms: C14_29  and  N6_30 
ROOT
HETATM    1  C3  UNL     1      12.136  32.116  -6.118  1.00  0.00     0.200 C 
HETATM    2  C4  UNL     1      12.016  31.652  -7.511  1.00  0.00     0.085 C 
HETATM    3  N1  UNL     1      11.911  31.306  -8.613  1.00  0.00    -0.195 NA
ENDROOT
BRANCH   1   4
HETATM    4  C2  UNL     1      12.464  33.562  -6.047  1.00  0.00     0.113 C 
BRANCH   4   5
HETATM    5  S1  UNL     1      11.085  34.642  -5.655  1.00  0.00    -0.171 SA
HETATM    6  C1  UNL     1      10.053  35.054  -7.064  1.00  0.00     0.089 C 
ENDBRANCH   4   5
ENDBRANCH   1   4
BRANCH   1   7
HETATM    7  N2  UNL     1      13.230  31.255  -5.561  1.00  0.00    -0.352 N 
ATOM      8  H2  UNL     1      13.025  30.484  -4.924  1.00  0.00     0.163 HD
BRANCH   7   9
HETATM    9  C5  UNL     1      14.532  31.547  -5.945  1.00  0.00     0.153 C 
BRANCH   9  10
HETATM   10  O1  UNL     1      15.213  32.090  -4.963  1.00  0.00    -0.346 OA
ATOM     11  H1  UNL     1      14.964  31.724  -4.122  1.00  0.00     0.219 HD
ENDBRANCH   9  10
BRANCH   9  12
HETATM   12  C6  UNL     1      15.250  31.371  -7.189  1.00  0.00     0.086 A 
HETATM   13  C7  UNL     1      15.588  30.197  -7.820  1.00  0.00     0.077 A 
HETATM   14  N3  UNL     1      16.303  30.577  -8.940  1.00  0.00    -0.299 N 
HETATM   15  N4  UNL     1      16.400  31.864  -9.000  1.00  0.00    -0.285 N 
ATOM     16  H3  UNL     1      16.698  29.931  -9.623  1.00  0.00     0.186 HD
HETATM   17  C11 UNL     1      15.766  32.444  -7.940  1.00  0.00     0.133 A 
ATOM     18  H4  UNL     1      16.884  32.377  -9.738  1.00  0.00     0.188 HD
BRANCH  13  19
HETATM   19  C8  UNL     1      15.313  28.782  -7.472  1.00  0.00     0.095 C 
HETATM   20  C9  UNL     1      16.395  28.433  -6.374  1.00  0.00     0.052 C 
HETATM   21  C10 UNL     1      15.539  27.806  -8.568  1.00  0.00     0.052 C 
BRANCH  19  22
HETATM   22  O2  UNL     1      14.138  28.615  -6.740  1.00  0.00    -0.384 OA
ATOM     23  H2  UNL     1      14.115  29.135  -5.946  1.00  0.00     0.211 HD
ENDBRANCH  19  22
ENDBRANCH  13  19
BRANCH  17  24
HETATM   24  N5  UNL     1      15.663  33.819  -7.693  1.00  0.00    -0.370 N 
ATOM     25  H5  UNL     1      15.301  34.170  -6.806  1.00  0.00     0.161 HD
BRANCH  24  26
HETATM   26  C12 UNL     1      16.094  34.743  -8.758  1.00  0.00     0.171 C 
BRANCH  26  27
HETATM   27  C13 UNL     1      16.632  35.990  -8.104  1.00  0.00     0.045 A 
HETATM   28  S2  UNL     1      18.000  36.925  -8.514  1.00  0.00    -0.054 SA
HETATM   29  C14 UNL     1      17.865  38.108  -7.292  1.00  0.00     0.143 A 
HETATM   30  N7  UNL     1      16.773  37.726  -6.627  1.00  0.00    -0.325 N 
HETATM   31  C15 UNL     1      16.140  36.662  -7.021  1.00  0.00     0.133 A 
ATOM     32  H7  UNL     1      16.443  38.260  -5.823  1.00  0.00     0.169 HD
HETATM   33  N8  UNL     1      14.936  36.162  -6.364  1.00  0.00    -0.081 NA
BRANCH  29  34
HETATM   34  N6  UNL     1      18.640  39.144  -7.052  1.00  0.00    -0.380 N 
ATOM     35  H62 UNL     1      19.227  39.655  -7.711  1.00  0.00     0.158 HD
ATOM     36  H61 UNL     1      18.802  39.635  -6.173  1.00  0.00     0.158 HD
ENDBRANCH  29  34
ENDBRANCH  26  27
ENDBRANCH  24  26
ENDBRANCH  17  24
ENDBRANCH   9  12
ENDBRANCH   7   9
ENDBRANCH   1   7
TORSDOF 12
ENDMDL
MODEL 5
REMARK VINA RESULT: -7.858485010      3.163      6.774
REMARK  12 active torsions:
REMARK  status: ('A' for Active; 'I' for Inactive)
REMARK    1  A    between atoms: S1_2  and  C2_3 
REMARK    2  A    between atoms: C2_3  and  C3_4 
REMARK    3  A    between atoms: C3_4  and  N2_7 
REMARK    4  A    between atoms: N2_7  and  C5_9 
REMARK    5  A    between atoms: C5_9  and  O1_10 
REMARK    6  A    between atoms: C5_9  and  C6_12 
REMARK    7  A    between atoms: C7_13  and  C8_14 
REMARK    8  A    between atoms: C8_14  and  O2_17 
REMARK    9  A    between atoms: C11_23  and  N5_24 
REMARK   10  A    between atoms: N5_24  and  C12_26 
REMARK   11  A    between atoms: C12_26  and  C13_27 
REMARK   12  A    between atoms: C14_29  and  N6_30 
ROOT
HETATM    1  C3  UNL     1      15.254  33.439  -9.257  1.00  0.00     0.200 C 
HETATM    2  C4  UNL     1      16.555  33.518  -9.942  1.00  0.00     0.085 C 
HETATM    3  N1  UNL     1      17.584  33.598 -10.471  1.00  0.00    -0.195 NA
ENDROOT
BRANCH   1   4
HETATM    4  C2  UNL     1      15.364  33.813  -7.825  1.00  0.00     0.113 C 
BRANCH   4   5
HETATM    5  S1  UNL     1      14.750  35.447  -7.409  1.00  0.00    -0.171 SA
HETATM    6  C1  UNL     1      16.017  36.584  -6.842  1.00  0.00     0.089 C 
ENDBRANCH   4   5
ENDBRANCH   1   4
BRANCH   1   7
HETATM    7  N2  UNL     1      14.851  32.007  -9.444  1.00  0.00    -0.352 N 
ATOM      8  H2  UNL     1      15.267  31.431 -10.176  1.00  0.00     0.163 HD
BRANCH   7   9
HETATM    9  C5  UNL     1      13.889  31.496  -8.582  1.00  0.00     0.153 C 
BRANCH   9  10
HETATM   10  O1  UNL     1      12.692  31.538  -9.119  1.00  0.00    -0.346 OA
ATOM     11  H1  UNL     1      12.012  31.474  -8.458  1.00  0.00     0.219 HD
ENDBRANCH   9  10
BRANCH   9  12
HETATM   12  C6  UNL     1      13.964  30.946  -7.246  1.00  0.00     0.086 A 
HETATM   13  C7  UNL     1      14.831  29.997  -6.761  1.00  0.00     0.077 A 
HETATM   14  N3  UNL     1      14.453  29.792  -5.448  1.00  0.00    -0.299 N 
HETATM   15  N4  UNL     1      13.446  30.544  -5.145  1.00  0.00    -0.285 N 
ATOM     16  H3  UNL     1      14.905  29.140  -4.807  1.00  0.00     0.186 HD
HETATM   17  C11 UNL     1      13.073  31.302  -6.215  1.00  0.00     0.133 A 
ATOM     18  H4  UNL     1      12.992  30.566  -4.231  1.00  0.00     0.188 HD
BRANCH  13  19
HETATM   19  C8  UNL     1      15.954  29.274  -7.405  1.00  0.00     0.095 C 
HETATM   20  C9  UNL     1      15.262  28.383  -8.512  1.00  0.00     0.052 C 
HETATM   21  C10 UNL     1      16.677  28.318  -6.528  1.00  0.00     0.052 C 
BRANCH  19  22
HETATM   22  O2  UNL     1      16.754  30.097  -8.199  1.00  0.00    -0.384 OA
ATOM     23  H2  UNL     1      16.428  30.986  -8.262  1.00  0.00     0.211 HD
ENDBRANCH  19  22
ENDBRANCH  13  19
BRANCH  17  24
HETATM   24  N5  UNL     1      12.028  32.236  -6.240  1.00  0.00    -0.370 N 
ATOM     25  H5  UNL     1      11.151  32.032  -6.720  1.00  0.00     0.161 HD
BRANCH  24  26
HETATM   26  C12 UNL     1      12.238  33.521  -5.551  1.00  0.00     0.171 C 
BRANCH  26  27
HETATM   27  C13 UNL     1      11.148  34.467  -5.984  1.00  0.00     0.045 A 
HETATM   28  S2  UNL     1      10.130  35.456  -5.035  1.00  0.00    -0.054 SA
HETATM   29  C14 UNL     1       9.229  36.166  -6.298  1.00  0.00     0.143 A 
HETATM   30  N7  UNL     1       9.755  35.608  -7.390  1.00  0.00    -0.325 N 
HETATM   31  C15 UNL     1      10.722  34.750  -7.251  1.00  0.00     0.133 A 
ATOM     32  H7  UNL     1       9.405  35.850  -8.316  1.00  0.00     0.169 HD
HETATM   33  N8  UNL     1      11.365  34.086  -8.380  1.00  0.00    -0.081 NA
BRANCH  29  34
HETATM   34  N6  UNL     1       8.254  37.046  -6.227  1.00  0.00    -0.380 N 
ATOM     35  H62 UNL     1       8.323  38.047  -6.038  1.00  0.00     0.158 HD
ATOM     36  H61 UNL     1       7.251  36.906  -6.347  1.00  0.00     0.158 HD
ENDBRANCH  29  34
ENDBRANCH  26  27
ENDBRANCH  24  26
ENDBRANCH  17  24
ENDBRANCH   9  12
ENDBRANCH   7   9
ENDBRANCH   1   7
TORSDOF 12
ENDMDL
