MODEL 1
REMARK VINA RESULT: -9.796002378      0.000      0.000
REMARK  11 active torsions:
REMARK  status: ('A' for Active; 'I' for Inactive)
REMARK    1  A    between atoms: N1_2  and  C2_5 
REMARK    2  A    between atoms: C2_5  and  C3_6 
REMARK    3  A    between atoms: C3_6  and  N2_7 
REMARK    4  A    between atoms: N2_7  and  C4_9 
REMARK    5  A    between atoms: C7_12  and  O1_13 
REMARK    6  A    between atoms: C8_15  and  N3_16 
REMARK       I    between atoms: N3_16  and  C9_17 
REMARK    7  A    between atoms: C9_17  and  C10_19 
REMARK    8  A    between atoms: C10_19  and  C11_20 
REMARK    9  A    between atoms: C12_21  and  O3_22 
REMARK   10  A    between atoms: C15_27  and  O5_28 
REMARK   11  A    between atoms: C16_30  and  O6_31 
ROOT
HETATM    1  C4  UNL     1      14.585  33.612  -8.508  1.00  0.00     0.046 C 
HETATM    2  C5  UNL     1      15.638  32.862  -8.980  1.00  0.00     0.002 C 
HETATM    3  C6  UNL     1      16.647  33.587  -9.760  1.00  0.00     0.054 C 
HETATM    4  C7  UNL     1      15.855  31.475  -8.749  1.00  0.00     0.117 C 
HETATM    5  C8  UNL     1      14.934  30.552  -8.238  1.00  0.00     0.181 C 
HETATM    6  C16 UNL     1      13.534  30.701  -8.452  1.00  0.00     0.161 C 
HETATM    7  C17 UNL     1      12.793  31.866  -8.498  1.00  0.00     0.216 C 
HETATM    8  O7  UNL     1      11.570  31.767  -8.726  1.00  0.00    -0.285 OA
HETATM    9  C18 UNL     1      13.279  33.171  -8.315  1.00  0.00     0.018 C 
HETATM   10  C19 UNL     1      12.360  34.194  -7.844  1.00  0.00     0.055 C 
ENDROOT
BRANCH   5  11
HETATM   11  N3  UNL     1      15.296  29.434  -7.555  1.00  0.00    -0.364 NA
HETATM   12  C9  UNL     1      15.654  28.325  -6.877  1.00  0.00     0.296 C 
HETATM   13  O2  UNL     1      14.907  27.287  -6.677  1.00  0.00    -0.257 OA
BRANCH  12  14
HETATM   14  C10 UNL     1      17.022  28.140  -6.259  1.00  0.00     0.165 C 
BRANCH  14  15
HETATM   15  C11 UNL     1      17.345  26.693  -6.199  1.00  0.00     0.045 A 
HETATM   16  C12 UNL     1      17.082  25.743  -7.141  1.00  0.00     0.193 A 
HETATM   17  O4  UNL     1      17.538  24.572  -6.700  1.00  0.00    -0.290 OA
HETATM   18  C13 UNL     1      18.093  24.723  -5.498  1.00  0.00     0.086 A 
HETATM   19  C14 UNL     1      18.719  23.623  -4.688  1.00  0.00     0.079 C 
HETATM   20  C15 UNL     1      17.996  26.034  -5.132  1.00  0.00     0.106 A 
BRANCH  16  21
HETATM   21  O3  UNL     1      16.485  25.859  -8.352  1.00  0.00    -0.340 OA
ATOM     22  H3  UNL     1      15.941  25.241  -8.826  1.00  0.00     0.220 HD
ENDBRANCH  16  21
BRANCH  20  23
HETATM   23  O5  UNL     1      18.409  26.670  -3.986  1.00  0.00    -0.357 OA
ATOM     24  H5  UNL     1      19.322  26.782  -3.748  1.00  0.00     0.217 HD
ENDBRANCH  20  23
ENDBRANCH  14  15
ENDBRANCH  12  14
ENDBRANCH   5  11
BRANCH   4  25
HETATM   25  O1  UNL     1      17.032  30.993  -9.038  1.00  0.00    -0.357 OA
ATOM     26  H1  UNL     1      17.764  31.271  -8.500  1.00  0.00     0.218 HD
ENDBRANCH   4  25
BRANCH   6  27
HETATM   27  O6  UNL     1      12.899  29.470  -8.630  1.00  0.00    -0.354 OA
ATOM     28  H6  UNL     1      12.885  29.207  -9.544  1.00  0.00     0.218 HD
ENDBRANCH   6  27
BRANCH   1  29
HETATM   29  N2  UNL     1      14.862  34.963  -8.140  1.00  0.00    -0.387 N 
ATOM     30  H2  UNL     1      14.578  35.682  -8.805  1.00  0.00     0.159 HD
BRANCH  29  31
HETATM   31  C3  UNL     1      15.492  35.414  -6.947  1.00  0.00     0.147 C 
BRANCH  31  32
HETATM   32  C2  UNL     1      15.887  36.869  -7.181  1.00  0.00     0.251 C 
BRANCH  32  33
HETATM   33  N1  UNL     1      16.743  37.337  -6.105  1.00  0.00    -0.077 N 
HETATM   34  C1  UNL     1      17.140  38.722  -6.360  1.00  0.00     0.267 C 
ATOM     35  H12 UNL     1      17.548  36.728  -5.960  1.00  0.00     0.276 HD
ATOM     36  H11 UNL     1      16.307  37.225  -5.190  1.00  0.00     0.276 HD
ENDBRANCH  32  33
ENDBRANCH  31  32
ENDBRANCH  29  31
ENDBRANCH   1  29
TORSDOF 11
ENDMDL
MODEL 2
REMARK VINA RESULT: -9.594302079      1.175      1.797
REMARK  11 active torsions:
REMARK  status: ('A' for Active; 'I' for Inactive)
REMARK    1  A    between atoms: N1_2  and  C2_5 
REMARK    2  A    between atoms: C2_5  and  C3_6 
REMARK    3  A    between atoms: C3_6  and  N2_7 
REMARK    4  A    between atoms: N2_7  and  C4_9 
REMARK    5  A    between atoms: C7_12  and  O1_13 
REMARK    6  A    between atoms: C8_15  and  N3_16 
REMARK       I    between atoms: N3_16  and  C9_17 
REMARK    7  A    between atoms: C9_17  and  C10_19 
REMARK    8  A    between atoms: C10_19  and  C11_20 
REMARK    9  A    between atoms: C12_21  and  O3_22 
REMARK   10  A    between atoms: C15_27  and  O5_28 
REMARK   11  A    between atoms: C16_30  and  O6_31 
ROOT
HETATM    1  C4  UNL     1      14.969  33.134  -7.730  1.00  0.00     0.046 C 
HETATM    2  C5  UNL     1      15.720  32.577  -8.740  1.00  0.00     0.002 C 
HETATM    3  C6  UNL     1      16.591  33.500  -9.478  1.00  0.00     0.054 C 
HETATM    4  C7  UNL     1      15.760  31.202  -9.101  1.00  0.00     0.117 C 
HETATM    5  C8  UNL     1      14.869  30.199  -8.699  1.00  0.00     0.181 C 
HETATM    6  C16 UNL     1      13.507  30.490  -8.402  1.00  0.00     0.161 C 
HETATM    7  C17 UNL     1      12.983  31.614  -7.795  1.00  0.00     0.216 C 
HETATM    8  O7  UNL     1      11.743  31.673  -7.654  1.00  0.00    -0.285 OA
HETATM    9  C18 UNL     1      13.707  32.717  -7.315  1.00  0.00     0.018 C 
HETATM   10  C19 UNL     1      13.127  33.518  -6.250  1.00  0.00     0.055 C 
ENDROOT
BRANCH   5  11
HETATM   11  N3  UNL     1      15.210  28.886  -8.610  1.00  0.00    -0.364 NA
HETATM   12  C9  UNL     1      15.549  27.585  -8.522  1.00  0.00     0.296 C 
HETATM   13  O2  UNL     1      16.054  26.870  -9.476  1.00  0.00    -0.257 OA
BRANCH  12  14
HETATM   14  C10 UNL     1      15.394  26.773  -7.255  1.00  0.00     0.165 C 
BRANCH  14  15
HETATM   15  C11 UNL     1      16.671  26.787  -6.501  1.00  0.00     0.045 A 
HETATM   16  C12 UNL     1      17.190  27.809  -5.763  1.00  0.00     0.193 A 
HETATM   17  O4  UNL     1      18.351  27.412  -5.245  1.00  0.00    -0.290 OA
HETATM   18  C13 UNL     1      18.610  26.159  -5.619  1.00  0.00     0.086 A 
HETATM   19  C14 UNL     1      19.828  25.372  -5.225  1.00  0.00     0.079 C 
HETATM   20  C15 UNL     1      17.592  25.718  -6.411  1.00  0.00     0.106 A 
BRANCH  16  21
HETATM   21  O3  UNL     1      16.693  29.046  -5.518  1.00  0.00    -0.340 OA
ATOM     22  H3  UNL     1      15.957  29.313  -4.980  1.00  0.00     0.220 HD
ENDBRANCH  16  21
BRANCH  20  23
HETATM   23  O5  UNL     1      17.414  24.509  -7.041  1.00  0.00    -0.357 OA
ATOM     24  H5  UNL     1      18.053  23.807  -7.017  1.00  0.00     0.217 HD
ENDBRANCH  20  23
ENDBRANCH  14  15
ENDBRANCH  12  14
ENDBRANCH   5  11
BRANCH   4  25
HETATM   25  O1  UNL     1      16.722  30.814  -9.892  1.00  0.00    -0.357 OA
ATOM     26  H1  UNL     1      16.725  31.154 -10.779  1.00  0.00     0.218 HD
ENDBRANCH   4  25
BRANCH   6  27
HETATM   27  O6  UNL     1      12.654  29.460  -8.804  1.00  0.00    -0.354 OA
ATOM     28  H6  UNL     1      12.636  28.747  -8.176  1.00  0.00     0.218 HD
ENDBRANCH   6  27
BRANCH   1  29
HETATM   29  N2  UNL     1      15.552  34.217  -7.007  1.00  0.00    -0.387 N 
ATOM     30  H2  UNL     1      16.338  33.988  -6.400  1.00  0.00     0.159 HD
BRANCH  29  31
HETATM   31  C3  UNL     1      15.154  35.583  -7.042  1.00  0.00     0.147 C 
BRANCH  31  32
HETATM   32  C2  UNL     1      16.397  36.412  -6.730  1.00  0.00     0.251 C 
BRANCH  32  33
HETATM   33  N1  UNL     1      16.262  37.748  -7.283  1.00  0.00    -0.077 N 
HETATM   34  C1  UNL     1      17.125  38.672  -6.549  1.00  0.00     0.267 C 
ATOM     35  H12 UNL     1      15.292  38.061  -7.301  1.00  0.00     0.276 HD
ATOM     36  H11 UNL     1      16.442  37.770  -8.286  1.00  0.00     0.276 HD
ENDBRANCH  32  33
ENDBRANCH  31  32
ENDBRANCH  29  31
ENDBRANCH   1  29
TORSDOF 11
ENDMDL
MODEL 3
REMARK VINA RESULT: -9.404010236      3.437      7.691
REMARK  11 active torsions:
REMARK  status: ('A' for Active; 'I' for Inactive)
REMARK    1  A    between atoms: N1_2  and  C2_5 
REMARK    2  A    between atoms: C2_5  and  C3_6 
REMARK    3  A    between atoms: C3_6  and  N2_7 
REMARK    4  A    between atoms: N2_7  and  C4_9 
REMARK    5  A    between atoms: C7_12  and  O1_13 
REMARK    6  A    between atoms: C8_15  and  N3_16 
REMARK       I    between atoms: N3_16  and  C9_17 
REMARK    7  A    between atoms: C9_17  and  C10_19 
REMARK    8  A    between atoms: C10_19  and  C11_20 
REMARK    9  A    between atoms: C12_21  and  O3_22 
REMARK   10  A    between atoms: C15_27  and  O5_28 
REMARK   11  A    between atoms: C16_30  and  O6_31 
ROOT
HETATM    1  C4  UNL     1      13.715  31.545  -7.125  1.00  0.00     0.046 C 
HETATM    2  C5  UNL     1      13.436  32.252  -8.271  1.00  0.00     0.002 C 
HETATM    3  C6  UNL     1      12.014  32.482  -8.555  1.00  0.00     0.054 C 
HETATM    4  C7  UNL     1      14.386  32.810  -9.171  1.00  0.00     0.117 C 
HETATM    5  C8  UNL     1      15.758  32.532  -9.226  1.00  0.00     0.181 C 
HETATM    6  C16 UNL     1      16.276  31.264  -8.841  1.00  0.00     0.161 C 
HETATM    7  C17 UNL     1      15.845  30.434  -7.825  1.00  0.00     0.216 C 
HETATM    8  O7  UNL     1      16.434  29.342  -7.678  1.00  0.00    -0.285 OA
HETATM    9  C18 UNL     1      14.797  30.690  -6.927  1.00  0.00     0.018 C 
HETATM   10  C19 UNL     1      14.821  30.039  -5.627  1.00  0.00     0.055 C 
ENDROOT
BRANCH   5  11
HETATM   11  N3  UNL     1      16.682  33.416  -9.689  1.00  0.00    -0.364 NA
HETATM   12  C9  UNL     1      17.598  34.292 -10.148  1.00  0.00     0.296 C 
HETATM   13  O2  UNL     1      18.784  33.991 -10.572  1.00  0.00    -0.257 OA
BRANCH  12  14
HETATM   14  C10 UNL     1      17.345  35.779 -10.244  1.00  0.00     0.165 C 
BRANCH  14  15
HETATM   15  C11 UNL     1      17.785  36.437  -8.989  1.00  0.00     0.045 A 
HETATM   16  C12 UNL     1      19.054  36.790  -8.637  1.00  0.00     0.193 A 
HETATM   17  O4  UNL     1      19.016  37.358  -7.433  1.00  0.00    -0.290 OA
HETATM   18  C13 UNL     1      17.762  37.392  -6.985  1.00  0.00     0.086 A 
HETATM   19  C14 UNL     1      17.329  37.965  -5.665  1.00  0.00     0.079 C 
HETATM   20  C15 UNL     1      16.947  36.824  -7.919  1.00  0.00     0.106 A 
BRANCH  16  21
HETATM   21  O3  UNL     1      20.218  36.649  -9.317  1.00  0.00    -0.340 OA
ATOM     22  H3  UNL     1      20.675  37.264  -9.878  1.00  0.00     0.220 HD
ENDBRANCH  16  21
BRANCH  20  23
HETATM   23  O5  UNL     1      15.588  36.619  -7.907  1.00  0.00    -0.357 OA
ATOM     24  H5  UNL     1      14.992  37.016  -8.532  1.00  0.00     0.217 HD
ENDBRANCH  20  23
ENDBRANCH  14  15
ENDBRANCH  12  14
ENDBRANCH   5  11
BRANCH   4  25
HETATM   25  O1  UNL     1      13.952  33.674 -10.047  1.00  0.00    -0.357 OA
ATOM     26  H1  UNL     1      13.469  33.338 -10.792  1.00  0.00     0.218 HD
ENDBRANCH   4  25
BRANCH   6  27
HETATM   27  O6  UNL     1      17.354  30.877  -9.640  1.00  0.00    -0.354 OA
ATOM     28  H6  UNL     1      18.178  31.222  -9.315  1.00  0.00     0.218 HD
ENDBRANCH   6  27
BRANCH   1  29
HETATM   29  N2  UNL     1      12.839  31.731  -6.014  1.00  0.00    -0.387 N 
ATOM     30  H2  UNL     1      12.196  30.967  -5.809  1.00  0.00     0.159 HD
BRANCH  29  31
HETATM   31  C3  UNL     1      12.767  32.869  -5.162  1.00  0.00     0.147 C 
BRANCH  31  32
HETATM   32  C2  UNL     1      11.367  33.453  -5.326  1.00  0.00     0.251 C 
BRANCH  32  33
HETATM   33  N1  UNL     1      11.430  34.718  -6.038  1.00  0.00    -0.077 N 
HETATM   34  C1  UNL     1      10.106  35.054  -6.559  1.00  0.00     0.267 C 
ATOM     35  H12 UNL     1      12.141  34.712  -6.769  1.00  0.00     0.276 HD
ATOM     36  H11 UNL     1      11.818  35.464  -5.462  1.00  0.00     0.276 HD
ENDBRANCH  32  33
ENDBRANCH  31  32
ENDBRANCH  29  31
ENDBRANCH   1  29
TORSDOF 11
ENDMDL
MODEL 4
REMARK VINA RESULT: -9.196192232      2.580      3.530
REMARK  11 active torsions:
REMARK  status: ('A' for Active; 'I' for Inactive)
REMARK    1  A    between atoms: N1_2  and  C2_5 
REMARK    2  A    between atoms: C2_5  and  C3_6 
REMARK    3  A    between atoms: C3_6  and  N2_7 
REMARK    4  A    between atoms: N2_7  and  C4_9 
REMARK    5  A    between atoms: C7_12  and  O1_13 
REMARK    6  A    between atoms: C8_15  and  N3_16 
REMARK       I    between atoms: N3_16  and  C9_17 
REMARK    7  A    between atoms: C9_17  and  C10_19 
REMARK    8  A    between atoms: C10_19  and  C11_20 
REMARK    9  A    between atoms: C12_21  and  O3_22 
REMARK   10  A    between atoms: C15_27  and  O5_28 
REMARK   11  A    between atoms: C16_30  and  O6_31 
ROOT
HETATM    1  C4  UNL     1      14.020  32.917  -7.235  1.00  0.00     0.046 C 
HETATM    2  C5  UNL     1      14.425  32.051  -6.245  1.00  0.00     0.002 C 
HETATM    3  C6  UNL     1      14.181  32.490  -4.866  1.00  0.00     0.054 C 
HETATM    4  C7  UNL     1      15.013  30.769  -6.434  1.00  0.00     0.117 C 
HETATM    5  C8  UNL     1      15.537  30.250  -7.625  1.00  0.00     0.181 C 
HETATM    6  C16 UNL     1      16.107  31.096  -8.618  1.00  0.00     0.161 C 
HETATM    7  C17 UNL     1      15.710  32.363  -8.996  1.00  0.00     0.216 C 
HETATM    8  O7  UNL     1      16.375  32.941  -9.880  1.00  0.00    -0.285 OA
HETATM    9  C18 UNL     1      14.621  33.084  -8.480  1.00  0.00     0.018 C 
HETATM   10  C19 UNL     1      14.004  34.103  -9.314  1.00  0.00     0.055 C 
ENDROOT
BRANCH   5  11
HETATM   11  N3  UNL     1      15.588  28.920  -7.902  1.00  0.00    -0.364 NA
HETATM   12  C9  UNL     1      15.639  27.602  -8.177  1.00  0.00     0.296 C 
HETATM   13  O2  UNL     1      15.856  27.081  -9.343  1.00  0.00    -0.257 OA
BRANCH  12  14
HETATM   14  C10 UNL     1      15.460  26.530  -7.126  1.00  0.00     0.165 C 
BRANCH  14  15
HETATM   15  C11 UNL     1      16.786  26.148  -6.580  1.00  0.00     0.045 A 
HETATM   16  C12 UNL     1      17.449  24.969  -6.758  1.00  0.00     0.193 A 
HETATM   17  O4  UNL     1      18.608  25.033  -6.104  1.00  0.00    -0.290 OA
HETATM   18  C13 UNL     1      18.727  26.217  -5.504  1.00  0.00     0.086 A 
HETATM   19  C14 UNL     1      19.903  26.655  -4.678  1.00  0.00     0.079 C 
HETATM   20  C15 UNL     1      17.611  26.956  -5.765  1.00  0.00     0.106 A 
BRANCH  16  21
HETATM   21  O3  UNL     1      17.095  23.869  -7.465  1.00  0.00    -0.340 OA
ATOM     22  H3  UNL     1      16.978  23.756  -8.401  1.00  0.00     0.220 HD
ENDBRANCH  16  21
BRANCH  20  23
HETATM   23  O5  UNL     1      17.268  28.223  -5.360  1.00  0.00    -0.357 OA
ATOM     24  H5  UNL     1      17.179  28.476  -4.449  1.00  0.00     0.217 HD
ENDBRANCH  20  23
ENDBRANCH  14  15
ENDBRANCH  12  14
ENDBRANCH   5  11
BRANCH   4  25
HETATM   25  O1  UNL     1      15.081  29.979  -5.398  1.00  0.00    -0.357 OA
ATOM     26  H1  UNL     1      15.835  29.405  -5.333  1.00  0.00     0.218 HD
ENDBRANCH   4  25
BRANCH   6  27
HETATM   27  O6  UNL     1      17.202  30.499  -9.245  1.00  0.00    -0.354 OA
ATOM     28  H6  UNL     1      17.723  29.986  -8.637  1.00  0.00     0.218 HD
ENDBRANCH   6  27
BRANCH   1  29
HETATM   29  N2  UNL     1      12.848  33.690  -6.984  1.00  0.00    -0.387 N 
ATOM     30  H2  UNL     1      12.985  34.690  -6.841  1.00  0.00     0.159 HD
BRANCH  29  31
HETATM   31  C3  UNL     1      11.508  33.216  -6.911  1.00  0.00     0.147 C 
BRANCH  31  32
HETATM   32  C2  UNL     1      10.730  33.923  -8.017  1.00  0.00     0.251 C 
BRANCH  32  33
HETATM   33  N1  UNL     1      10.342  35.255  -7.586  1.00  0.00    -0.077 N 
HETATM   34  C1  UNL     1       9.699  35.179  -6.275  1.00  0.00     0.267 C 
ATOM     35  H12 UNL     1       9.755  35.726  -8.274  1.00  0.00     0.276 HD
ATOM     36  H11 UNL     1      11.127  35.905  -7.593  1.00  0.00     0.276 HD
ENDBRANCH  32  33
ENDBRANCH  31  32
ENDBRANCH  29  31
ENDBRANCH   1  29
TORSDOF 11
ENDMDL
MODEL 5
REMARK VINA RESULT: -9.104349216      3.130      8.522
REMARK  11 active torsions:
REMARK  status: ('A' for Active; 'I' for Inactive)
REMARK    1  A    between atoms: N1_2  and  C2_5 
REMARK    2  A    between atoms: C2_5  and  C3_6 
REMARK    3  A    between atoms: C3_6  and  N2_7 
REMARK    4  A    between atoms: N2_7  and  C4_9 
REMARK    5  A    between atoms: C7_12  and  O1_13 
REMARK    6  A    between atoms: C8_15  and  N3_16 
REMARK       I    between atoms: N3_16  and  C9_17 
REMARK    7  A    between atoms: C9_17  and  C10_19 
REMARK    8  A    between atoms: C10_19  and  C11_20 
REMARK    9  A    between atoms: C12_21  and  O3_22 
REMARK   10  A    between atoms: C15_27  and  O5_28 
REMARK   11  A    between atoms: C16_30  and  O6_31 
ROOT
HETATM    1  C4  UNL     1      15.148  29.958  -6.935  1.00  0.00     0.046 C 
HETATM    2  C5  UNL     1      14.967  31.154  -6.279  1.00  0.00     0.002 C 
HETATM    3  C6  UNL     1      14.548  31.062  -4.876  1.00  0.00     0.054 C 
HETATM    4  C7  UNL     1      15.186  32.452  -6.818  1.00  0.00     0.117 C 
HETATM    5  C8  UNL     1      15.363  32.786  -8.166  1.00  0.00     0.181 C 
HETATM    6  C16 UNL     1      14.760  32.024  -9.207  1.00  0.00     0.161 C 
HETATM    7  C17 UNL     1      14.556  30.660  -9.262  1.00  0.00     0.216 C 
HETATM    8  O7  UNL     1      13.978  30.199 -10.269  1.00  0.00    -0.285 OA
HETATM    9  C18 UNL     1      14.933  29.720  -8.290  1.00  0.00     0.018 C 
HETATM   10  C19 UNL     1      15.165  28.346  -8.705  1.00  0.00     0.055 C 
ENDROOT
BRANCH   5  11
HETATM   11  N3  UNL     1      16.069  33.871  -8.582  1.00  0.00    -0.364 NA
HETATM   12  C9  UNL     1      16.770  34.947  -8.993  1.00  0.00     0.296 C 
HETATM   13  O2  UNL     1      17.942  34.920  -9.543  1.00  0.00    -0.257 OA
BRANCH  12  14
HETATM   14  C10 UNL     1      16.254  36.363  -8.878  1.00  0.00     0.165 C 
BRANCH  14  15
HETATM   15  C11 UNL     1      16.915  37.038  -7.734  1.00  0.00     0.045 A 
HETATM   16  C12 UNL     1      18.085  37.739  -7.746  1.00  0.00     0.193 A 
HETATM   17  O4  UNL     1      18.323  38.185  -6.514  1.00  0.00    -0.290 OA
HETATM   18  C13 UNL     1      17.345  37.801  -5.694  1.00  0.00     0.086 A 
HETATM   19  C14 UNL     1      17.268  38.122  -4.227  1.00  0.00     0.079 C 
HETATM   20  C15 UNL     1      16.436  37.075  -6.404  1.00  0.00     0.106 A 
BRANCH  16  21
HETATM   21  O3  UNL     1      18.928  38.008  -8.771  1.00  0.00    -0.340 OA
ATOM     22  H3  UNL     1      19.250  38.842  -9.094  1.00  0.00     0.220 HD
ENDBRANCH  16  21
BRANCH  20  23
HETATM   23  O5  UNL     1      15.274  36.462  -5.999  1.00  0.00    -0.357 OA
ATOM     24  H5  UNL     1      14.409  36.822  -6.159  1.00  0.00     0.217 HD
ENDBRANCH  20  23
ENDBRANCH  14  15
ENDBRANCH  12  14
ENDBRANCH   5  11
BRANCH   4  25
HETATM   25  O1  UNL     1      15.229  33.453  -5.981  1.00  0.00    -0.357 OA
ATOM     26  H1  UNL     1      14.525  34.088  -6.021  1.00  0.00     0.218 HD
ENDBRANCH   4  25
BRANCH   6  27
HETATM   27  O6  UNL     1      14.348  32.829 -10.270  1.00  0.00    -0.354 OA
ATOM     28  H6  UNL     1      14.075  32.314 -11.021  1.00  0.00     0.218 HD
ENDBRANCH   6  27
BRANCH   1  29
HETATM   29  N2  UNL     1      15.643  28.862  -6.166  1.00  0.00    -0.387 N 
ATOM     30  H2  UNL     1      14.945  28.269  -5.718  1.00  0.00     0.159 HD
BRANCH  29  31
HETATM   31  C3  UNL     1      17.006  28.509  -5.957  1.00  0.00     0.147 C 
BRANCH  31  32
HETATM   32  C2  UNL     1      17.057  26.986  -5.872  1.00  0.00     0.251 C 
BRANCH  32  33
HETATM   33  N1  UNL     1      18.076  26.569  -4.924  1.00  0.00    -0.077 N 
HETATM   34  C1  UNL     1      19.032  25.684  -5.589  1.00  0.00     0.267 C 
ATOM     35  H12 UNL     1      17.674  26.143  -4.090  1.00  0.00     0.276 HD
ATOM     36  H11 UNL     1      18.533  27.363  -4.477  1.00  0.00     0.276 HD
ENDBRANCH  32  33
ENDBRANCH  31  32
ENDBRANCH  29  31
ENDBRANCH   1  29
TORSDOF 11
ENDMDL
