MODEL 1
REMARK VINA RESULT: -8.287497340      0.000      0.000
REMARK  17 active torsions:
REMARK  status: ('A' for Active; 'I' for Inactive)
REMARK    1  A    between atoms: O1_2  and  C2_3 
REMARK    2  A    between atoms: C5_7  and  O3_8 
REMARK    3  A    between atoms: O3_8  and  C6_9 
REMARK    4  A    between atoms: C7_10  and  O4_11 
REMARK    5  A    between atoms: C8_13  and  O5_14 
REMARK    6  A    between atoms: O5_14  and  C9_15 
REMARK    7  A    between atoms: C13_19  and  O6_20 
REMARK    8  A    between atoms: O6_20  and  C14_21 
REMARK    9  A    between atoms: C15_23  and  C16_24 
REMARK   10  A    between atoms: C16_24  and  O8_25 
REMARK   11  A    between atoms: C17_27  and  O9_28 
REMARK   12  A    between atoms: C18_30  and  O10_31 
REMARK   13  A    between atoms: C19_33  and  O11_34 
REMARK   14  A    between atoms: C20_36  and  O12_37 
REMARK   15  A    between atoms: C23_42  and  S1_43 
REMARK   16  A    between atoms: C25_45  and  O14_46 
REMARK   17  A    between atoms: C26_48  and  O15_49 
ROOT
HETATM    1  C6  UNL     1       4.035  28.917 -11.834  1.00  0.00     0.174 C 
HETATM    2  C7  UNL     1       2.684  28.519 -12.374  1.00  0.00     0.203 C 
HETATM    3  C8  UNL     1       2.607  28.810 -13.880  1.00  0.00     0.291 C 
HETATM    4  O13 UNL     1       3.839  28.602 -14.487  1.00  0.00    -0.352 OA
HETATM    5  C21 UNL     1       4.808  29.503 -14.068  1.00  0.00     0.137 C 
HETATM    6  C22 UNL     1       4.956  30.665 -15.038  1.00  0.00     0.041 C 
HETATM    7  C23 UNL     1       4.456  30.069 -12.740  1.00  0.00     0.107 C 
ENDROOT
BRANCH   3   8
HETATM    8  O5  UNL     1       1.715  27.887 -14.409  1.00  0.00    -0.351 OA
BRANCH   8   9
HETATM    9  C9  UNL     1       0.683  28.484 -15.060  1.00  0.00     0.153 C 
HETATM   10  C10 UNL     1       0.875  29.995 -15.204  1.00  0.00     0.035 C 
HETATM   11  C11 UNL     1      -0.518  30.372 -15.728  1.00  0.00     0.005 C 
HETATM   12  C12 UNL     1      -1.417  29.649 -14.765  1.00  0.00     0.035 C 
HETATM   13  C13 UNL     1      -0.665  28.350 -14.479  1.00  0.00     0.153 C 
BRANCH  13  14
HETATM   14  O6  UNL     1      -0.611  28.126 -13.104  1.00  0.00    -0.351 OA
BRANCH  14  15
HETATM   15  C14 UNL     1      -1.045  29.198 -12.368  1.00  0.00     0.292 C 
HETATM   16  O7  UNL     1      -0.012  29.372 -11.375  1.00  0.00    -0.348 OA
HETATM   17  C15 UNL     1      -0.123  30.672 -10.948  1.00  0.00     0.179 C 
HETATM   18  C17 UNL     1      -1.079  30.879  -9.816  1.00  0.00     0.180 C 
HETATM   19  C18 UNL     1      -1.594  29.623  -9.214  1.00  0.00     0.180 C 
HETATM   20  C19 UNL     1      -2.012  28.565 -10.153  1.00  0.00     0.183 C 
HETATM   21  C20 UNL     1      -2.294  29.018 -11.567  1.00  0.00     0.204 C 
BRANCH  17  22
HETATM   22  C16 UNL     1       1.254  31.275 -10.652  1.00  0.00     0.198 C 
BRANCH  22  23
HETATM   23  O8  UNL     1       1.841  30.729  -9.538  1.00  0.00    -0.398 OA
ATOM     24  H8  UNL     1       2.131  31.387  -8.919  1.00  0.00     0.209 HD
ENDBRANCH  22  23
ENDBRANCH  17  22
BRANCH  18  25
HETATM   25  O9  UNL     1      -2.115  31.784 -10.146  1.00  0.00    -0.390 OA
ATOM     26  H9  UNL     1      -2.258  32.431  -9.466  1.00  0.00     0.210 HD
ENDBRANCH  18  25
BRANCH  19  27
HETATM   27  O10 UNL     1      -0.561  29.094  -8.405  1.00  0.00    -0.390 OA
ATOM     28  H10 UNL     1      -0.892  29.055  -7.515  1.00  0.00     0.210 HD
ENDBRANCH  19  27
BRANCH  20  29
HETATM   29  O11 UNL     1      -3.164  27.944  -9.672  1.00  0.00    -0.390 OA
ATOM     30  H11 UNL     1      -3.831  27.948 -10.348  1.00  0.00     0.210 HD
ENDBRANCH  20  29
BRANCH  21  31
HETATM   31  O12 UNL     1      -3.057  28.012 -12.142  1.00  0.00    -0.388 OA
ATOM     32  H12 UNL     1      -3.649  27.660 -11.487  1.00  0.00     0.210 HD
ENDBRANCH  21  31
ENDBRANCH  14  15
ENDBRANCH  13  14
ENDBRANCH   8   9
ENDBRANCH   3   8
BRANCH   2  33
HETATM   33  O4  UNL     1       2.343  27.201 -12.169  1.00  0.00    -0.388 OA
ATOM     34  H4  UNL     1       1.760  26.833 -12.823  1.00  0.00     0.210 HD
ENDBRANCH   2  33
BRANCH   1  35
HETATM   35  O3  UNL     1       4.858  27.846 -11.901  1.00  0.00    -0.349 OA
BRANCH  35  36
HETATM   36  C5  UNL     1       5.878  27.763 -10.988  1.00  0.00     0.292 C 
HETATM   37  O2  UNL     1       7.011  27.470 -11.826  1.00  0.00    -0.351 OA
HETATM   38  C3  UNL     1       8.185  27.411 -11.164  1.00  0.00     0.152 C 
HETATM   39  C2  UNL     1       8.150  27.553  -9.688  1.00  0.00     0.180 C 
HETATM   40  C4  UNL     1       8.956  26.129 -11.506  1.00  0.00     0.042 C 
HETATM   41  C26 UNL     1       6.999  26.887  -9.019  1.00  0.00     0.183 C 
HETATM   42  C25 UNL     1       5.859  26.643 -10.022  1.00  0.00     0.204 C 
BRANCH  39  43
HETATM   43  O1  UNL     1       8.281  28.879  -9.259  1.00  0.00    -0.385 OA
HETATM   44  C1  UNL     1       9.481  29.435  -9.621  1.00  0.00     0.202 C 
ENDBRANCH  39  43
BRANCH  41  45
HETATM   45  O15 UNL     1       7.341  25.695  -8.384  1.00  0.00    -0.390 OA
ATOM     46  H15 UNL     1       7.857  25.822  -7.596  1.00  0.00     0.210 HD
ENDBRANCH  41  45
BRANCH  42  47
HETATM   47  O14 UNL     1       4.740  26.482  -9.254  1.00  0.00    -0.388 OA
ATOM     48  H14 UNL     1       4.858  26.302  -8.330  1.00  0.00     0.210 HD
ENDBRANCH  42  47
ENDBRANCH  35  36
ENDBRANCH   1  35
BRANCH   7  49
HETATM   49  S1  UNL     1       5.725  31.103 -12.016  1.00  0.00    -0.163 SA
HETATM   50  C24 UNL     1       4.978  32.494 -11.108  1.00  0.00     0.090 C 
ENDBRANCH   7  49
TORSDOF 17
ENDMDL
MODEL 2
REMARK VINA RESULT: -8.284660276      3.028      4.060
REMARK  17 active torsions:
REMARK  status: ('A' for Active; 'I' for Inactive)
REMARK    1  A    between atoms: O1_2  and  C2_3 
REMARK    2  A    between atoms: C5_7  and  O3_8 
REMARK    3  A    between atoms: O3_8  and  C6_9 
REMARK    4  A    between atoms: C7_10  and  O4_11 
REMARK    5  A    between atoms: C8_13  and  O5_14 
REMARK    6  A    between atoms: O5_14  and  C9_15 
REMARK    7  A    between atoms: C13_19  and  O6_20 
REMARK    8  A    between atoms: O6_20  and  C14_21 
REMARK    9  A    between atoms: C15_23  and  C16_24 
REMARK   10  A    between atoms: C16_24  and  O8_25 
REMARK   11  A    between atoms: C17_27  and  O9_28 
REMARK   12  A    between atoms: C18_30  and  O10_31 
REMARK   13  A    between atoms: C19_33  and  O11_34 
REMARK   14  A    between atoms: C20_36  and  O12_37 
REMARK   15  A    between atoms: C23_42  and  S1_43 
REMARK   16  A    between atoms: C25_45  and  O14_46 
REMARK   17  A    between atoms: C26_48  and  O15_49 
ROOT
HETATM    1  C6  UNL     1       4.548  28.657 -12.010  1.00  0.00     0.174 C 
HETATM    2  C7  UNL     1       3.352  28.214 -12.814  1.00  0.00     0.203 C 
HETATM    3  C8  UNL     1       3.573  28.513 -14.305  1.00  0.00     0.291 C 
HETATM    4  O13 UNL     1       4.910  28.353 -14.646  1.00  0.00    -0.352 OA
HETATM    5  C21 UNL     1       5.739  29.286 -14.039  1.00  0.00     0.137 C 
HETATM    6  C22 UNL     1       6.040  30.459 -14.959  1.00  0.00     0.041 C 
HETATM    7  C23 UNL     1       5.102  29.829 -12.812  1.00  0.00     0.107 C 
ENDROOT
BRANCH   3   8
HETATM    8  O5  UNL     1       2.843  27.562 -15.004  1.00  0.00    -0.351 OA
BRANCH   8   9
HETATM    9  C9  UNL     1       2.800  27.824 -16.336  1.00  0.00     0.153 C 
HETATM   10  C10 UNL     1       2.723  29.322 -16.637  1.00  0.00     0.035 C 
HETATM   11  C11 UNL     1       2.442  29.257 -18.145  1.00  0.00     0.005 C 
HETATM   12  C12 UNL     1       1.327  28.250 -18.208  1.00  0.00     0.035 C 
HETATM   13  C13 UNL     1       1.687  27.247 -17.113  1.00  0.00     0.153 C 
BRANCH  13  14
HETATM   14  O6  UNL     1       0.574  27.001 -16.311  1.00  0.00    -0.351 OA
BRANCH  14  15
HETATM   15  C14 UNL     1      -0.612  27.299 -16.932  1.00  0.00     0.292 C 
HETATM   16  O7  UNL     1      -1.071  28.481 -16.243  1.00  0.00    -0.348 OA
HETATM   17  C15 UNL     1      -1.948  29.094 -17.103  1.00  0.00     0.179 C 
HETATM   18  C17 UNL     1      -3.365  28.624 -16.992  1.00  0.00     0.180 C 
HETATM   19  C18 UNL     1      -3.621  27.724 -15.839  1.00  0.00     0.180 C 
HETATM   20  C19 UNL     1      -2.627  26.661 -15.599  1.00  0.00     0.183 C 
HETATM   21  C20 UNL     1      -1.733  26.323 -16.770  1.00  0.00     0.204 C 
BRANCH  17  22
HETATM   22  C16 UNL     1      -1.842  30.620 -17.006  1.00  0.00     0.198 C 
BRANCH  22  23
HETATM   23  O8  UNL     1      -3.068  31.229 -16.918  1.00  0.00    -0.398 OA
ATOM     24  H8  UNL     1      -3.033  32.152 -17.141  1.00  0.00     0.209 HD
ENDBRANCH  22  23
ENDBRANCH  17  22
BRANCH  18  25
HETATM   25  O9  UNL     1      -3.853  28.095 -18.209  1.00  0.00    -0.390 OA
ATOM     26  H9  UNL     1      -4.583  27.502 -18.078  1.00  0.00     0.210 HD
ENDBRANCH  18  25
BRANCH  19  27
HETATM   27  O10 UNL     1      -3.670  28.534 -14.680  1.00  0.00    -0.390 OA
ATOM     28  H10 UNL     1      -3.675  27.951 -13.930  1.00  0.00     0.210 HD
ENDBRANCH  19  27
BRANCH  20  29
HETATM   29  O11 UNL     1      -3.279  25.491 -15.216  1.00  0.00    -0.390 OA
ATOM     30  H11 UNL     1      -3.984  25.307 -15.825  1.00  0.00     0.210 HD
ENDBRANCH  20  29
BRANCH  21  31
HETATM   31  O12 UNL     1      -1.204  25.071 -16.494  1.00  0.00    -0.388 OA
ATOM     32  H12 UNL     1      -1.735  24.652 -15.826  1.00  0.00     0.210 HD
ENDBRANCH  21  31
ENDBRANCH  14  15
ENDBRANCH  13  14
ENDBRANCH   8   9
ENDBRANCH   3   8
BRANCH   2  33
HETATM   33  O4  UNL     1       3.025  26.884 -12.683  1.00  0.00    -0.388 OA
ATOM     34  H4  UNL     1       2.114  26.715 -12.473  1.00  0.00     0.210 HD
ENDBRANCH   2  33
BRANCH   1  35
HETATM   35  O3  UNL     1       5.406  27.617 -11.906  1.00  0.00    -0.349 OA
BRANCH  35  36
HETATM   36  C5  UNL     1       6.278  27.607 -10.847  1.00  0.00     0.292 C 
HETATM   37  O2  UNL     1       7.524  27.271 -11.484  1.00  0.00    -0.351 OA
HETATM   38  C3  UNL     1       8.585  27.270 -10.651  1.00  0.00     0.152 C 
HETATM   39  C2  UNL     1       8.328  27.511  -9.210  1.00  0.00     0.180 C 
HETATM   40  C4  UNL     1       9.400  25.977 -10.784  1.00  0.00     0.042 C 
HETATM   41  C26 UNL     1       7.091  26.879  -8.677  1.00  0.00     0.183 C 
HETATM   42  C25 UNL     1       6.114  26.555  -9.821  1.00  0.00     0.204 C 
BRANCH  39  43
HETATM   43  O1  UNL     1       8.391  28.865  -8.858  1.00  0.00    -0.385 OA
HETATM   44  C1  UNL     1       9.474  29.503  -9.407  1.00  0.00     0.202 C 
ENDBRANCH  39  43
BRANCH  41  45
HETATM   45  O15 UNL     1       7.335  25.737  -7.918  1.00  0.00    -0.390 OA
ATOM     46  H15 UNL     1       7.397  24.944  -8.438  1.00  0.00     0.210 HD
ENDBRANCH  41  45
BRANCH  42  47
HETATM   47  O14 UNL     1       4.893  26.433  -9.220  1.00  0.00    -0.388 OA
ATOM     48  H14 UNL     1       4.758  26.881  -8.394  1.00  0.00     0.210 HD
ENDBRANCH  42  47
ENDBRANCH  35  36
ENDBRANCH   1  35
BRANCH   7  49
HETATM   49  S1  UNL     1       6.158  30.904 -11.844  1.00  0.00    -0.163 SA
HETATM   50  C24 UNL     1       5.193  32.266 -11.118  1.00  0.00     0.090 C 
ENDBRANCH   7  49
TORSDOF 17
ENDMDL
MODEL 3
REMARK VINA RESULT: -8.201637921      2.764      8.110
REMARK  17 active torsions:
REMARK  status: ('A' for Active; 'I' for Inactive)
REMARK    1  A    between atoms: O1_2  and  C2_3 
REMARK    2  A    between atoms: C5_7  and  O3_8 
REMARK    3  A    between atoms: O3_8  and  C6_9 
REMARK    4  A    between atoms: C7_10  and  O4_11 
REMARK    5  A    between atoms: C8_13  and  O5_14 
REMARK    6  A    between atoms: O5_14  and  C9_15 
REMARK    7  A    between atoms: C13_19  and  O6_20 
REMARK    8  A    between atoms: O6_20  and  C14_21 
REMARK    9  A    between atoms: C15_23  and  C16_24 
REMARK   10  A    between atoms: C16_24  and  O8_25 
REMARK   11  A    between atoms: C17_27  and  O9_28 
REMARK   12  A    between atoms: C18_30  and  O10_31 
REMARK   13  A    between atoms: C19_33  and  O11_34 
REMARK   14  A    between atoms: C20_36  and  O12_37 
REMARK   15  A    between atoms: C23_42  and  S1_43 
REMARK   16  A    between atoms: C25_45  and  O14_46 
REMARK   17  A    between atoms: C26_48  and  O15_49 
ROOT
HETATM    1  C6  UNL     1       0.965  32.942 -11.691  1.00  0.00     0.174 C 
HETATM    2  C7  UNL     1       2.076  32.004 -12.090  1.00  0.00     0.203 C 
HETATM    3  C8  UNL     1       3.442  32.634 -11.779  1.00  0.00     0.291 C 
HETATM    4  O13 UNL     1       3.378  33.404 -10.624  1.00  0.00    -0.352 OA
HETATM    5  C21 UNL     1       2.569  34.522 -10.763  1.00  0.00     0.137 C 
HETATM    6  C22 UNL     1       3.378  35.768 -11.091  1.00  0.00     0.041 C 
HETATM    7  C23 UNL     1       1.587  34.323 -11.860  1.00  0.00     0.107 C 
ENDROOT
BRANCH   3   8
HETATM    8  O5  UNL     1       4.310  31.579 -11.535  1.00  0.00    -0.351 OA
BRANCH   8   9
HETATM    9  C9  UNL     1       5.334  31.539 -12.427  1.00  0.00     0.153 C 
HETATM   10  C10 UNL     1       4.884  31.867 -13.852  1.00  0.00     0.035 C 
HETATM   11  C11 UNL     1       6.169  31.498 -14.608  1.00  0.00     0.005 C 
HETATM   12  C12 UNL     1       6.487  30.145 -14.034  1.00  0.00     0.035 C 
HETATM   13  C13 UNL     1       6.071  30.270 -12.569  1.00  0.00     0.153 C 
BRANCH  13  14
HETATM   14  O6  UNL     1       5.286  29.177 -12.205  1.00  0.00    -0.351 OA
BRANCH  14  15
HETATM   15  C14 UNL     1       5.720  28.563 -11.059  1.00  0.00     0.292 C 
HETATM   16  O7  UNL     1       6.314  27.335 -11.532  1.00  0.00    -0.348 OA
HETATM   17  C15 UNL     1       7.175  26.933 -10.541  1.00  0.00     0.179 C 
HETATM   18  C17 UNL     1       6.553  26.082  -9.479  1.00  0.00     0.180 C 
HETATM   19  C18 UNL     1       5.164  25.650  -9.777  1.00  0.00     0.180 C 
HETATM   20  C19 UNL     1       4.255  26.680 -10.316  1.00  0.00     0.183 C 
HETATM   21  C20 UNL     1       4.678  28.113 -10.086  1.00  0.00     0.204 C 
BRANCH  17  22
HETATM   22  C16 UNL     1       8.431  26.284 -11.132  1.00  0.00     0.198 C 
BRANCH  22  23
HETATM   23  O8  UNL     1       9.389  27.205 -11.475  1.00  0.00    -0.398 OA
ATOM     24  H8  UNL     1       9.669  27.121 -12.378  1.00  0.00     0.209 HD
ENDBRANCH  22  23
ENDBRANCH  17  22
BRANCH  18  25
HETATM   25  O9  UNL     1       6.675  26.655  -8.192  1.00  0.00    -0.390 OA
ATOM     26  H9  UNL     1       6.047  27.351  -8.046  1.00  0.00     0.210 HD
ENDBRANCH  18  25
BRANCH  19  27
HETATM   27  O10 UNL     1       5.246  24.610 -10.733  1.00  0.00    -0.390 OA
ATOM     28  H10 UNL     1       4.837  24.928 -11.529  1.00  0.00     0.210 HD
ENDBRANCH  19  27
BRANCH  20  29
HETATM   29  O11 UNL     1       2.988  26.521  -9.758  1.00  0.00    -0.390 OA
ATOM     30  H11 UNL     1       2.579  27.371  -9.653  1.00  0.00     0.210 HD
ENDBRANCH  20  29
BRANCH  21  31
HETATM   31  O12 UNL     1       3.535  28.878 -10.264  1.00  0.00    -0.388 OA
ATOM     32  H12 UNL     1       3.359  29.362  -9.465  1.00  0.00     0.210 HD
ENDBRANCH  21  31
ENDBRANCH  14  15
ENDBRANCH  13  14
ENDBRANCH   8   9
ENDBRANCH   3   8
BRANCH   2  33
HETATM   33  O4  UNL     1       2.027  30.762 -11.498  1.00  0.00    -0.388 OA
ATOM     34  H4  UNL     1       1.538  30.107 -11.983  1.00  0.00     0.210 HD
ENDBRANCH   2  33
BRANCH   1  35
HETATM   35  O3  UNL     1       0.603  32.662 -10.418  1.00  0.00    -0.349 OA
BRANCH  35  36
HETATM   36  C5  UNL     1      -0.632  32.102 -10.211  1.00  0.00     0.292 C 
HETATM   37  O2  UNL     1      -1.426  33.245  -9.844  1.00  0.00    -0.351 OA
HETATM   38  C3  UNL     1      -2.734  32.969  -9.655  1.00  0.00     0.152 C 
HETATM   39  C2  UNL     1      -3.158  31.551  -9.749  1.00  0.00     0.180 C 
HETATM   40  C4  UNL     1      -3.237  33.534  -8.320  1.00  0.00     0.042 C 
HETATM   41  C26 UNL     1      -2.202  30.568  -9.169  1.00  0.00     0.183 C 
HETATM   42  C25 UNL     1      -0.794  31.181  -9.065  1.00  0.00     0.204 C 
BRANCH  39  43
HETATM   43  O1  UNL     1      -3.540  31.175 -11.042  1.00  0.00    -0.385 OA
HETATM   44  C1  UNL     1      -3.324  29.843 -11.289  1.00  0.00     0.202 C 
ENDBRANCH  39  43
BRANCH  41  45
HETATM   45  O15 UNL     1      -2.601  30.073  -7.930  1.00  0.00    -0.390 OA
ATOM     46  H15 UNL     1      -2.832  29.151  -7.948  1.00  0.00     0.210 HD
ENDBRANCH  41  45
BRANCH  42  47
HETATM   47  O14 UNL     1       0.052  30.111  -8.981  1.00  0.00    -0.388 OA
ATOM     48  H14 UNL     1      -0.329  29.242  -8.986  1.00  0.00     0.210 HD
ENDBRANCH  42  47
ENDBRANCH  35  36
ENDBRANCH   1  35
BRANCH   7  49
HETATM   49  S1  UNL     1       0.369  35.627 -12.008  1.00  0.00    -0.163 SA
HETATM   50  C24 UNL     1      -1.117  35.021 -12.869  1.00  0.00     0.090 C 
ENDBRANCH   7  49
TORSDOF 17
ENDMDL
MODEL 4
REMARK VINA RESULT: -8.137373634      1.596      2.605
REMARK  17 active torsions:
REMARK  status: ('A' for Active; 'I' for Inactive)
REMARK    1  A    between atoms: O1_2  and  C2_3 
REMARK    2  A    between atoms: C5_7  and  O3_8 
REMARK    3  A    between atoms: O3_8  and  C6_9 
REMARK    4  A    between atoms: C7_10  and  O4_11 
REMARK    5  A    between atoms: C8_13  and  O5_14 
REMARK    6  A    between atoms: O5_14  and  C9_15 
REMARK    7  A    between atoms: C13_19  and  O6_20 
REMARK    8  A    between atoms: O6_20  and  C14_21 
REMARK    9  A    between atoms: C15_23  and  C16_24 
REMARK   10  A    between atoms: C16_24  and  O8_25 
REMARK   11  A    between atoms: C17_27  and  O9_28 
REMARK   12  A    between atoms: C18_30  and  O10_31 
REMARK   13  A    between atoms: C19_33  and  O11_34 
REMARK   14  A    between atoms: C20_36  and  O12_37 
REMARK   15  A    between atoms: C23_42  and  S1_43 
REMARK   16  A    between atoms: C25_45  and  O14_46 
REMARK   17  A    between atoms: C26_48  and  O15_49 
ROOT
HETATM    1  C6  UNL     1       3.961  28.958 -11.860  1.00  0.00     0.174 C 
HETATM    2  C7  UNL     1       2.633  28.593 -12.475  1.00  0.00     0.203 C 
HETATM    3  C8  UNL     1       2.625  28.942 -13.971  1.00  0.00     0.291 C 
HETATM    4  O13 UNL     1       3.882  28.745 -14.530  1.00  0.00    -0.352 OA
HETATM    5  C21 UNL     1       4.838  29.620 -14.034  1.00  0.00     0.137 C 
HETATM    6  C22 UNL     1       5.038  30.817 -14.952  1.00  0.00     0.041 C 
HETATM    7  C23 UNL     1       4.431  30.139 -12.702  1.00  0.00     0.107 C 
ENDROOT
BRANCH   3   8
HETATM    8  O5  UNL     1       1.751  28.048 -14.574  1.00  0.00    -0.351 OA
BRANCH   8   9
HETATM    9  C9  UNL     1       1.197  28.555 -15.705  1.00  0.00     0.153 C 
HETATM   10  C10 UNL     1       0.574  29.935 -15.486  1.00  0.00     0.035 C 
HETATM   11  C11 UNL     1      -0.152  30.095 -16.830  1.00  0.00     0.005 C 
HETATM   12  C12 UNL     1      -0.863  28.777 -16.955  1.00  0.00     0.035 C 
HETATM   13  C13 UNL     1       0.123  27.778 -16.351  1.00  0.00     0.153 C 
BRANCH  13  14
HETATM   14  O6  UNL     1      -0.536  26.955 -15.438  1.00  0.00    -0.351 OA
BRANCH  14  15
HETATM   15  C14 UNL     1      -1.755  27.450 -15.052  1.00  0.00     0.292 C 
HETATM   16  O7  UNL     1      -1.560  27.799 -13.665  1.00  0.00    -0.348 OA
HETATM   17  C15 UNL     1      -2.534  28.721 -13.374  1.00  0.00     0.179 C 
HETATM   18  C17 UNL     1      -3.834  28.135 -12.919  1.00  0.00     0.180 C 
HETATM   19  C18 UNL     1      -3.790  26.672 -12.667  1.00  0.00     0.180 C 
HETATM   20  C19 UNL     1      -3.092  25.850 -13.675  1.00  0.00     0.183 C 
HETATM   21  C20 UNL     1      -2.905  26.495 -15.030  1.00  0.00     0.204 C 
BRANCH  17  22
HETATM   22  C16 UNL     1      -2.014  29.785 -12.401  1.00  0.00     0.198 C 
BRANCH  22  23
HETATM   23  O8  UNL     1      -1.991  29.345 -11.102  1.00  0.00    -0.398 OA
ATOM     24  H8  UNL     1      -2.782  29.570 -10.626  1.00  0.00     0.209 HD
ENDBRANCH  22  23
ENDBRANCH  17  22
BRANCH  18  25
HETATM   25  O9  UNL     1      -4.912  28.506 -13.754  1.00  0.00    -0.390 OA
ATOM     26  H9  UNL     1      -5.744  28.497 -13.295  1.00  0.00     0.210 HD
ENDBRANCH  18  25
BRANCH  19  27
HETATM   27  O10 UNL     1      -3.130  26.481 -11.430  1.00  0.00    -0.390 OA
ATOM     28  H10 UNL     1      -3.631  26.947 -10.770  1.00  0.00     0.210 HD
ENDBRANCH  19  27
BRANCH  20  29
HETATM   29  O11 UNL     1      -3.790  24.660 -13.869  1.00  0.00    -0.390 OA
ATOM     30  H11 UNL     1      -3.194  23.989 -14.179  1.00  0.00     0.210 HD
ENDBRANCH  20  29
BRANCH  21  31
HETATM   31  O12 UNL     1      -2.645  25.455 -15.911  1.00  0.00    -0.388 OA
ATOM     32  H12 UNL     1      -1.758  25.145 -15.769  1.00  0.00     0.210 HD
ENDBRANCH  21  31
ENDBRANCH  14  15
ENDBRANCH  13  14
ENDBRANCH   8   9
ENDBRANCH   3   8
BRANCH   2  33
HETATM   33  O4  UNL     1       2.273  27.272 -12.336  1.00  0.00    -0.388 OA
ATOM     34  H4  UNL     1       1.738  27.081 -11.574  1.00  0.00     0.210 HD
ENDBRANCH   2  33
BRANCH   1  35
HETATM   35  O3  UNL     1       4.777  27.882 -11.931  1.00  0.00    -0.349 OA
BRANCH  35  36
HETATM   36  C5  UNL     1       5.807  27.798 -11.029  1.00  0.00     0.292 C 
HETATM   37  O2  UNL     1       6.933  27.517 -11.881  1.00  0.00    -0.351 OA
HETATM   38  C3  UNL     1       8.114  27.459 -11.230  1.00  0.00     0.152 C 
HETATM   39  C2  UNL     1       8.093  27.590  -9.753  1.00  0.00     0.180 C 
HETATM   40  C4  UNL     1       8.888  26.184 -11.589  1.00  0.00     0.042 C 
HETATM   41  C26 UNL     1       6.952  26.913  -9.078  1.00  0.00     0.183 C 
HETATM   42  C25 UNL     1       5.803  26.671 -10.072  1.00  0.00     0.204 C 
BRANCH  39  43
HETATM   43  O1  UNL     1       8.220  28.914  -9.315  1.00  0.00    -0.385 OA
HETATM   44  C1  UNL     1       9.426  29.469  -9.658  1.00  0.00     0.202 C 
ENDBRANCH  39  43
BRANCH  41  45
HETATM   45  O15 UNL     1       7.306  25.718  -8.455  1.00  0.00    -0.390 OA
ATOM     46  H15 UNL     1       8.144  25.376  -8.745  1.00  0.00     0.210 HD
ENDBRANCH  41  45
BRANCH  42  47
HETATM   47  O14 UNL     1       4.692  26.498  -9.294  1.00  0.00    -0.388 OA
ATOM     48  H14 UNL     1       4.799  26.540  -8.352  1.00  0.00     0.210 HD
ENDBRANCH  42  47
ENDBRANCH  35  36
ENDBRANCH   1  35
BRANCH   7  49
HETATM   49  S1  UNL     1       5.675  31.133 -11.884  1.00  0.00    -0.163 SA
HETATM   50  C24 UNL     1       4.910  32.564 -11.058  1.00  0.00     0.090 C 
ENDBRANCH   7  49
TORSDOF 17
ENDMDL
MODEL 5
REMARK VINA RESULT: -7.988795077      1.928      3.989
REMARK  17 active torsions:
REMARK  status: ('A' for Active; 'I' for Inactive)
REMARK    1  A    between atoms: O1_2  and  C2_3 
REMARK    2  A    between atoms: C5_7  and  O3_8 
REMARK    3  A    between atoms: O3_8  and  C6_9 
REMARK    4  A    between atoms: C7_10  and  O4_11 
REMARK    5  A    between atoms: C8_13  and  O5_14 
REMARK    6  A    between atoms: O5_14  and  C9_15 
REMARK    7  A    between atoms: C13_19  and  O6_20 
REMARK    8  A    between atoms: O6_20  and  C14_21 
REMARK    9  A    between atoms: C15_23  and  C16_24 
REMARK   10  A    between atoms: C16_24  and  O8_25 
REMARK   11  A    between atoms: C17_27  and  O9_28 
REMARK   12  A    between atoms: C18_30  and  O10_31 
REMARK   13  A    between atoms: C19_33  and  O11_34 
REMARK   14  A    between atoms: C20_36  and  O12_37 
REMARK   15  A    between atoms: C23_42  and  S1_43 
REMARK   16  A    between atoms: C25_45  and  O14_46 
REMARK   17  A    between atoms: C26_48  and  O15_49 
ROOT
HETATM    1  C6  UNL     1       5.280  29.391 -12.690  1.00  0.00     0.174 C 
HETATM    2  C7  UNL     1       5.225  30.689 -11.925  1.00  0.00     0.203 C 
HETATM    3  C8  UNL     1       3.799  31.259 -11.945  1.00  0.00     0.291 C 
HETATM    4  O13 UNL     1       2.859  30.236 -11.916  1.00  0.00    -0.352 OA
HETATM    5  C21 UNL     1       2.873  29.455 -13.062  1.00  0.00     0.137 C 
HETATM    6  C22 UNL     1       1.807  29.889 -14.056  1.00  0.00     0.041 C 
HETATM    7  C23 UNL     1       4.190  29.553 -13.744  1.00  0.00     0.107 C 
ENDROOT
BRANCH   3   8
HETATM    8  O5  UNL     1       3.658  31.994 -10.776  1.00  0.00    -0.351 OA
BRANCH   8   9
HETATM    9  C9  UNL     1       3.358  33.296 -11.021  1.00  0.00     0.153 C 
HETATM   10  C10 UNL     1       4.178  34.259 -10.160  1.00  0.00     0.035 C 
HETATM   11  C11 UNL     1       3.444  35.568 -10.487  1.00  0.00     0.005 C 
HETATM   12  C12 UNL     1       2.006  35.170 -10.303  1.00  0.00     0.035 C 
HETATM   13  C13 UNL     1       1.964  33.731 -10.813  1.00  0.00     0.153 C 
BRANCH  13  14
HETATM   14  O6  UNL     1       1.306  32.920  -9.889  1.00  0.00    -0.351 OA
BRANCH  14  15
HETATM   15  C14 UNL     1       0.319  32.155 -10.454  1.00  0.00     0.292 C 
HETATM   16  O7  UNL     1      -0.900  32.784 -10.007  1.00  0.00    -0.348 OA
HETATM   17  C15 UNL     1      -1.867  32.397 -10.900  1.00  0.00     0.179 C 
HETATM   18  C17 UNL     1      -2.551  31.109 -10.564  1.00  0.00     0.180 C 
HETATM   19  C18 UNL     1      -2.212  30.570  -9.222  1.00  0.00     0.180 C 
HETATM   20  C19 UNL     1      -0.787  30.599  -8.841  1.00  0.00     0.183 C 
HETATM   21  C20 UNL     1       0.194  30.742  -9.983  1.00  0.00     0.204 C 
BRANCH  17  22
HETATM   22  C16 UNL     1      -2.870  33.528 -11.153  1.00  0.00     0.198 C 
BRANCH  22  23
HETATM   23  O8  UNL     1      -3.428  34.007  -9.994  1.00  0.00    -0.398 OA
ATOM     24  H8  UNL     1      -4.250  34.458 -10.144  1.00  0.00     0.209 HD
ENDBRANCH  22  23
ENDBRANCH  17  22
BRANCH  18  25
HETATM   25  O9  UNL     1      -2.409  30.142 -11.585  1.00  0.00    -0.390 OA
ATOM     26  H9  UNL     1      -1.529  30.123 -11.944  1.00  0.00     0.210 HD
ENDBRANCH  18  25
BRANCH  19  27
HETATM   27  O10 UNL     1      -2.924  31.338  -8.271  1.00  0.00    -0.390 OA
ATOM     28  H10 UNL     1      -2.511  32.192  -8.234  1.00  0.00     0.210 HD
ENDBRANCH  19  27
BRANCH  20  29
HETATM   29  O11 UNL     1      -0.464  29.431  -8.153  1.00  0.00    -0.390 OA
ATOM     30  H11 UNL     1      -1.209  28.841  -8.163  1.00  0.00     0.210 HD
ENDBRANCH  20  29
BRANCH  21  31
HETATM   31  O12 UNL     1       1.419  30.323  -9.484  1.00  0.00    -0.388 OA
ATOM     32  H12 UNL     1       1.539  29.403  -9.691  1.00  0.00     0.210 HD
ENDBRANCH  21  31
ENDBRANCH  14  15
ENDBRANCH  13  14
ENDBRANCH   8   9
ENDBRANCH   3   8
BRANCH   2  33
HETATM   33  O4  UNL     1       5.641  30.608 -10.615  1.00  0.00    -0.388 OA
ATOM     34  H4  UNL     1       6.545  30.858 -10.466  1.00  0.00     0.210 HD
ENDBRANCH   2  33
BRANCH   1  35
HETATM   35  O3  UNL     1       5.054  28.374 -11.829  1.00  0.00    -0.349 OA
BRANCH  35  36
HETATM   36  C5  UNL     1       6.015  28.105 -10.887  1.00  0.00     0.292 C 
HETATM   37  O2  UNL     1       7.157  27.785 -11.704  1.00  0.00    -0.351 OA
HETATM   38  C3  UNL     1       8.286  27.549 -11.003  1.00  0.00     0.152 C 
HETATM   39  C2  UNL     1       8.189  27.551  -9.523  1.00  0.00     0.180 C 
HETATM   40  C4  UNL     1       8.951  26.238 -11.439  1.00  0.00     0.042 C 
HETATM   41  C26 UNL     1       6.949  26.939  -8.972  1.00  0.00     0.183 C 
HETATM   42  C25 UNL     1       5.844  26.904 -10.041  1.00  0.00     0.204 C 
BRANCH  39  43
HETATM   43  O1  UNL     1       8.419  28.811  -8.957  1.00  0.00    -0.385 OA
HETATM   44  C1  UNL     1       9.491  29.455  -9.521  1.00  0.00     0.202 C 
ENDBRANCH  39  43
BRANCH  41  45
HETATM   45  O15 UNL     1       7.147  25.664  -8.447  1.00  0.00    -0.390 OA
ATOM     46  H15 UNL     1       6.679  24.984  -8.918  1.00  0.00     0.210 HD
ENDBRANCH  41  45
BRANCH  42  47
HETATM   47  O14 UNL     1       4.677  26.779  -9.340  1.00  0.00    -0.388 OA
ATOM     48  H14 UNL     1       4.520  25.963  -8.881  1.00  0.00     0.210 HD
ENDBRANCH  42  47
ENDBRANCH  35  36
ENDBRANCH   1  35
BRANCH   7  49
HETATM   49  S1  UNL     1       4.388  28.442 -15.134  1.00  0.00    -0.163 SA
HETATM   50  C24 UNL     1       5.648  29.075 -16.287  1.00  0.00     0.090 C 
ENDBRANCH   7  49
TORSDOF 17
ENDMDL
