MODEL 1
REMARK VINA RESULT: -8.142171193      0.000      0.000
REMARK  17 active torsions:
REMARK  status: ('A' for Active; 'I' for Inactive)
REMARK    1  A    between atoms: S1_2  and  C2_3 
REMARK    2  A    between atoms: C5_6  and  O1_7 
REMARK    3  A    between atoms: O1_7  and  C6_8 
REMARK    4  A    between atoms: C7_10  and  O3_11 
REMARK    5  A    between atoms: O3_11  and  C8_12 
REMARK    6  A    between atoms: C10_15  and  O5_16 
REMARK    7  A    between atoms: O5_16  and  C11_17 
REMARK    8  A    between atoms: C14_21  and  O7_22 
REMARK    9  A    between atoms: C15_24  and  O8_25 
REMARK   10  A    between atoms: C16_27  and  O9_28 
REMARK   11  A    between atoms: C17_30  and  O10_31 
REMARK   12  A    between atoms: O10_31  and  C18_32 
REMARK   13  A    between atoms: C21_36  and  O12_37 
REMARK   14  A    between atoms: C22_39  and  O13_40 
REMARK   15  A    between atoms: C23_42  and  N1_43 
REMARK   16  A    between atoms: C24_47  and  N2_48 
REMARK   17  A    between atoms: C26_53  and  N3_54 
ROOT
HETATM    1  C8  UNL     1       1.498  29.188 -12.202  1.00  0.00     0.294 C 
HETATM    2  O4  UNL     1       2.151  28.031 -12.730  1.00  0.00    -0.356 OA
HETATM    3  C9  UNL     1       3.487  28.206 -12.372  1.00  0.00     0.205 C 
HETATM    4  C10 UNL     1       3.277  28.478 -10.864  1.00  0.00     0.182 C 
HETATM    5  C17 UNL     1       2.255  29.565 -10.975  1.00  0.00     0.211 C 
ENDROOT
BRANCH   1   6
HETATM    6  O3  UNL     1       1.571  30.118 -13.220  1.00  0.00    -0.327 OA
BRANCH   6   7
HETATM    7  C7  UNL     1       0.345  30.251 -13.866  1.00  0.00     0.296 C 
HETATM    8  O2  UNL     1      -0.622  29.578 -13.128  1.00  0.00    -0.327 OA
HETATM    9  C6  UNL     1      -1.875  29.903 -13.621  1.00  0.00     0.293 C 
HETATM   10  C26 UNL     1      -1.895  30.692 -14.881  1.00  0.00     0.240 C 
HETATM   11  C25 UNL     1      -0.910  30.217 -15.920  1.00  0.00     0.075 C 
HETATM   12  C24 UNL     1       0.338  29.624 -15.242  1.00  0.00     0.240 C 
BRANCH   9  13
HETATM   13  O1  UNL     1      -2.716  28.787 -13.663  1.00  0.00    -0.353 OA
BRANCH  13  14
HETATM   14  C5  UNL     1      -2.429  27.807 -12.753  1.00  0.00     0.138 C 
HETATM   15  C2  UNL     1      -2.757  26.434 -13.327  1.00  0.00     0.076 C 
HETATM   16  C3  UNL     1      -3.979  26.365 -12.437  1.00  0.00     0.020 C 
HETATM   17  C4  UNL     1      -3.443  27.560 -11.680  1.00  0.00     0.034 C 
BRANCH  15  18
HETATM   18  S1  UNL     1      -3.239  26.506 -15.064  1.00  0.00    -0.166 SA
HETATM   19  C1  UNL     1      -2.060  25.709 -16.147  1.00  0.00     0.090 C 
ENDBRANCH  15  18
ENDBRANCH  13  14
ENDBRANCH   9  13
BRANCH  10  20
HETATM   20  N3  UNL     1      -3.238  30.626 -15.442  1.00  0.00    -0.070 N 
ATOM     21  H33 UNL     1      -3.612  29.677 -15.455  1.00  0.00     0.274 HD
ATOM     22  H32 UNL     1      -3.940  31.044 -14.830  1.00  0.00     0.274 HD
ATOM     23  H31 UNL     1      -3.220  31.053 -16.368  1.00  0.00     0.274 HD
ENDBRANCH  10  20
BRANCH  12  24
HETATM   24  N2  UNL     1       0.096  28.211 -15.098  1.00  0.00    -0.070 N 
ATOM     25  H23 UNL     1       0.565  27.658 -15.815  1.00  0.00     0.274 HD
ATOM     26  H22 UNL     1       0.567  27.813 -14.285  1.00  0.00     0.274 HD
ATOM     27  H21 UNL     1      -0.913  28.056 -15.081  1.00  0.00     0.274 HD
ENDBRANCH  12  24
ENDBRANCH   6   7
ENDBRANCH   1   6
BRANCH   5  28
HETATM   28  O10 UNL     1       1.529  29.844  -9.868  1.00  0.00    -0.346 OA
BRANCH  28  29
HETATM   29  C18 UNL     1       0.390  30.577 -10.022  1.00  0.00     0.294 C 
HETATM   30  O11 UNL     1       0.533  31.742  -9.275  1.00  0.00    -0.351 OA
HETATM   31  C19 UNL     1      -0.622  32.499  -9.223  1.00  0.00     0.152 C 
HETATM   32  C20 UNL     1      -0.364  33.690  -8.334  1.00  0.00     0.042 C 
HETATM   33  C21 UNL     1      -1.798  31.759  -8.661  1.00  0.00     0.177 C 
HETATM   34  C22 UNL     1      -2.041  30.537  -9.483  1.00  0.00     0.184 C 
HETATM   35  C23 UNL     1      -0.759  29.731  -9.496  1.00  0.00     0.269 C 
BRANCH  33  36
HETATM   36  O12 UNL     1      -2.896  32.643  -8.688  1.00  0.00    -0.390 OA
ATOM     37  H12 UNL     1      -3.642  32.153  -9.014  1.00  0.00     0.210 HD
ENDBRANCH  33  36
BRANCH  34  38
HETATM   38  O13 UNL     1      -3.046  29.724  -8.964  1.00  0.00    -0.391 OA
ATOM     39  H13 UNL     1      -3.289  29.017  -9.549  1.00  0.00     0.210 HD
ENDBRANCH  34  38
BRANCH  35  40
HETATM   40  N1  UNL     1      -0.442  29.167  -8.195  1.00  0.00    -0.068 N 
ATOM     41  H13 UNL     1       0.449  28.670  -8.209  1.00  0.00     0.275 HD
ATOM     42  H12 UNL     1      -0.205  29.893  -7.519  1.00  0.00     0.275 HD
ATOM     43  H11 UNL     1      -1.198  28.572  -7.858  1.00  0.00     0.275 HD
ENDBRANCH  35  40
ENDBRANCH  28  29
ENDBRANCH   5  28
BRANCH   4  44
HETATM   44  O5  UNL     1       4.422  28.918 -10.279  1.00  0.00    -0.348 OA
BRANCH  44  45
HETATM   45  C11 UNL     1       5.482  28.030 -10.312  1.00  0.00     0.292 C 
HETATM   46  O6  UNL     1       6.615  28.725  -9.866  1.00  0.00    -0.351 OA
HETATM   47  C12 UNL     1       7.776  28.027  -9.872  1.00  0.00     0.152 C 
HETATM   48  C13 UNL     1       8.792  28.802 -10.687  1.00  0.00     0.042 C 
HETATM   49  C14 UNL     1       7.693  26.599 -10.299  1.00  0.00     0.178 C 
HETATM   50  C15 UNL     1       6.461  25.882  -9.876  1.00  0.00     0.183 C 
HETATM   51  C16 UNL     1       5.369  26.853  -9.400  1.00  0.00     0.204 C 
BRANCH  49  52
HETATM   52  O7  UNL     1       7.782  26.556 -11.690  1.00  0.00    -0.390 OA
ATOM     53  H7  UNL     1       7.680  25.653 -11.965  1.00  0.00     0.210 HD
ENDBRANCH  49  52
BRANCH  50  54
HETATM   54  O8  UNL     1       5.885  25.209 -10.966  1.00  0.00    -0.390 OA
ATOM     55  H8  UNL     1       6.079  24.280 -10.923  1.00  0.00     0.210 HD
ENDBRANCH  50  54
BRANCH  51  56
HETATM   56  O9  UNL     1       5.733  27.226  -8.096  1.00  0.00    -0.388 OA
ATOM     57  H9  UNL     1       6.433  26.664  -7.785  1.00  0.00     0.210 HD
ENDBRANCH  51  56
ENDBRANCH  44  45
ENDBRANCH   4  44
TORSDOF 17
ENDMDL
MODEL 2
REMARK VINA RESULT: -7.924522509      3.255      8.437
REMARK  17 active torsions:
REMARK  status: ('A' for Active; 'I' for Inactive)
REMARK    1  A    between atoms: S1_2  and  C2_3 
REMARK    2  A    between atoms: C5_6  and  O1_7 
REMARK    3  A    between atoms: O1_7  and  C6_8 
REMARK    4  A    between atoms: C7_10  and  O3_11 
REMARK    5  A    between atoms: O3_11  and  C8_12 
REMARK    6  A    between atoms: C10_15  and  O5_16 
REMARK    7  A    between atoms: O5_16  and  C11_17 
REMARK    8  A    between atoms: C14_21  and  O7_22 
REMARK    9  A    between atoms: C15_24  and  O8_25 
REMARK   10  A    between atoms: C16_27  and  O9_28 
REMARK   11  A    between atoms: C17_30  and  O10_31 
REMARK   12  A    between atoms: O10_31  and  C18_32 
REMARK   13  A    between atoms: C21_36  and  O12_37 
REMARK   14  A    between atoms: C22_39  and  O13_40 
REMARK   15  A    between atoms: C23_42  and  N1_43 
REMARK   16  A    between atoms: C24_47  and  N2_48 
REMARK   17  A    between atoms: C26_53  and  N3_54 
ROOT
HETATM    1  C8  UNL     1       2.639  28.891 -13.983  1.00  0.00     0.294 C 
HETATM    2  O4  UNL     1       3.196  28.729 -15.289  1.00  0.00    -0.356 OA
HETATM    3  C9  UNL     1       2.465  27.678 -15.839  1.00  0.00     0.205 C 
HETATM    4  C10 UNL     1       1.046  28.225 -15.558  1.00  0.00     0.182 C 
HETATM    5  C17 UNL     1       1.203  28.506 -14.096  1.00  0.00     0.211 C 
ENDROOT
BRANCH   1   6
HETATM    6  O3  UNL     1       3.387  28.050 -13.183  1.00  0.00    -0.327 OA
BRANCH   6   7
HETATM    7  C7  UNL     1       4.527  28.695 -12.708  1.00  0.00     0.296 C 
HETATM    8  O2  UNL     1       5.358  27.751 -12.116  1.00  0.00    -0.327 OA
HETATM    9  C6  UNL     1       6.590  28.331 -11.861  1.00  0.00     0.293 C 
HETATM   10  C26 UNL     1       6.677  29.798 -12.077  1.00  0.00     0.240 C 
HETATM   11  C25 UNL     1       5.494  30.570 -11.548  1.00  0.00     0.075 C 
HETATM   12  C24 UNL     1       4.216  29.715 -11.636  1.00  0.00     0.240 C 
BRANCH   9  13
HETATM   13  O1  UNL     1       7.098  27.931 -10.621  1.00  0.00    -0.353 OA
BRANCH  13  14
HETATM   14  C5  UNL     1       7.983  26.888 -10.662  1.00  0.00     0.138 C 
HETATM   15  C2  UNL     1       7.617  25.836  -9.623  1.00  0.00     0.076 C 
HETATM   16  C3  UNL     1       8.783  26.287  -8.770  1.00  0.00     0.020 C 
HETATM   17  C4  UNL     1       9.289  27.079  -9.955  1.00  0.00     0.034 C 
BRANCH  15  18
HETATM   18  S1  UNL     1       6.052  26.192  -8.798  1.00  0.00    -0.166 SA
HETATM   19  C1  UNL     1       4.656  25.397  -9.584  1.00  0.00     0.090 C 
ENDBRANCH  15  18
ENDBRANCH  13  14
ENDBRANCH   9  13
BRANCH  10  20
HETATM   20  N3  UNL     1       7.886  30.287 -11.425  1.00  0.00    -0.070 N 
ATOM     21  H33 UNL     1       7.690  30.772 -10.549  1.00  0.00     0.274 HD
ATOM     22  H32 UNL     1       8.458  29.534 -11.043  1.00  0.00     0.274 HD
ATOM     23  H31 UNL     1       8.396  30.868 -12.090  1.00  0.00     0.274 HD
ENDBRANCH  10  20
BRANCH  12  24
HETATM   24  N2  UNL     1       4.093  29.028 -10.375  1.00  0.00    -0.070 N 
ATOM     25  H23 UNL     1       4.829  28.336 -10.232  1.00  0.00     0.274 HD
ATOM     26  H22 UNL     1       4.311  29.629  -9.579  1.00  0.00     0.274 HD
ATOM     27  H21 UNL     1       3.158  28.624 -10.316  1.00  0.00     0.274 HD
ENDBRANCH  12  24
ENDBRANCH   6   7
ENDBRANCH   1   6
BRANCH   5  28
HETATM   28  O10 UNL     1       0.299  29.336 -13.528  1.00  0.00    -0.346 OA
BRANCH  28  29
HETATM   29  C18 UNL     1      -0.599  28.797 -12.655  1.00  0.00     0.294 C 
HETATM   30  O11 UNL     1      -1.717  29.626 -12.634  1.00  0.00    -0.351 OA
HETATM   31  C19 UNL     1      -2.638  29.271 -11.667  1.00  0.00     0.152 C 
HETATM   32  C20 UNL     1      -3.762  30.277 -11.696  1.00  0.00     0.042 C 
HETATM   33  C21 UNL     1      -2.074  29.259 -10.278  1.00  0.00     0.177 C 
HETATM   34  C22 UNL     1      -0.917  28.318 -10.232  1.00  0.00     0.184 C 
HETATM   35  C23 UNL     1       0.073  28.756 -11.291  1.00  0.00     0.269 C 
BRANCH  33  36
HETATM   36  O12 UNL     1      -3.114  28.865  -9.412  1.00  0.00    -0.390 OA
ATOM     37  H12 UNL     1      -3.504  28.081  -9.781  1.00  0.00     0.210 HD
ENDBRANCH  33  36
BRANCH  34  38
HETATM   38  O13 UNL     1      -0.256  28.329  -9.006  1.00  0.00    -0.391 OA
ATOM     39  H13 UNL     1       0.426  27.671  -8.947  1.00  0.00     0.210 HD
ENDBRANCH  34  38
BRANCH  35  40
HETATM   40  N1  UNL     1       0.700  30.027 -10.977  1.00  0.00    -0.068 N 
ATOM     41  H13 UNL     1       0.022  30.790 -10.975  1.00  0.00     0.275 HD
ATOM     42  H12 UNL     1       0.988  30.073 -10.000  1.00  0.00     0.275 HD
ATOM     43  H11 UNL     1       1.478  30.219 -11.608  1.00  0.00     0.275 HD
ENDBRANCH  35  40
ENDBRANCH  28  29
ENDBRANCH   5  28
BRANCH   4  44
HETATM   44  O5  UNL     1       0.098  27.280 -15.791  1.00  0.00    -0.348 OA
BRANCH  44  45
HETATM   45  C11 UNL     1      -1.121  27.762 -16.231  1.00  0.00     0.292 C 
HETATM   46  O6  UNL     1      -1.231  27.430 -17.588  1.00  0.00    -0.351 OA
HETATM   47  C12 UNL     1      -2.352  27.863 -18.214  1.00  0.00     0.152 C 
HETATM   48  C13 UNL     1      -1.936  28.676 -19.424  1.00  0.00     0.042 C 
HETATM   49  C14 UNL     1      -3.347  28.589 -17.371  1.00  0.00     0.178 C 
HETATM   50  C15 UNL     1      -3.488  28.083 -15.980  1.00  0.00     0.183 C 
HETATM   51  C16 UNL     1      -2.326  27.156 -15.588  1.00  0.00     0.204 C 
BRANCH  49  52
HETATM   52  O7  UNL     1      -2.979  29.933 -17.326  1.00  0.00    -0.390 OA
ATOM     53  H7  UNL     1      -3.764  30.450 -17.185  1.00  0.00     0.210 HD
ENDBRANCH  49  52
BRANCH  50  54
HETATM   54  O8  UNL     1      -3.418  29.144 -15.062  1.00  0.00    -0.390 OA
ATOM     55  H8  UNL     1      -4.197  29.164 -14.518  1.00  0.00     0.210 HD
ENDBRANCH  50  54
BRANCH  51  56
HETATM   56  O9  UNL     1      -2.610  25.917 -16.185  1.00  0.00    -0.388 OA
ATOM     57  H9  UNL     1      -2.294  25.213 -15.631  1.00  0.00     0.210 HD
ENDBRANCH  51  56
ENDBRANCH  44  45
ENDBRANCH   4  44
TORSDOF 17
ENDMDL
MODEL 3
REMARK VINA RESULT: -7.766170318      2.753      4.790
REMARK  17 active torsions:
REMARK  status: ('A' for Active; 'I' for Inactive)
REMARK    1  A    between atoms: S1_2  and  C2_3 
REMARK    2  A    between atoms: C5_6  and  O1_7 
REMARK    3  A    between atoms: O1_7  and  C6_8 
REMARK    4  A    between atoms: C7_10  and  O3_11 
REMARK    5  A    between atoms: O3_11  and  C8_12 
REMARK    6  A    between atoms: C10_15  and  O5_16 
REMARK    7  A    between atoms: O5_16  and  C11_17 
REMARK    8  A    between atoms: C14_21  and  O7_22 
REMARK    9  A    between atoms: C15_24  and  O8_25 
REMARK   10  A    between atoms: C16_27  and  O9_28 
REMARK   11  A    between atoms: C17_30  and  O10_31 
REMARK   12  A    between atoms: O10_31  and  C18_32 
REMARK   13  A    between atoms: C21_36  and  O12_37 
REMARK   14  A    between atoms: C22_39  and  O13_40 
REMARK   15  A    between atoms: C23_42  and  N1_43 
REMARK   16  A    between atoms: C24_47  and  N2_48 
REMARK   17  A    between atoms: C26_53  and  N3_54 
ROOT
HETATM    1  C8  UNL     1       2.200  28.559 -11.722  1.00  0.00     0.294 C 
HETATM    2  O4  UNL     1       2.155  27.795 -10.514  1.00  0.00    -0.356 OA
HETATM    3  C9  UNL     1       3.180  26.862 -10.669  1.00  0.00     0.205 C 
HETATM    4  C10 UNL     1       4.317  27.842 -11.039  1.00  0.00     0.182 C 
HETATM    5  C17 UNL     1       3.628  28.570 -12.150  1.00  0.00     0.211 C 
ENDROOT
BRANCH   1   6
HETATM    6  O3  UNL     1       1.357  27.887 -12.585  1.00  0.00    -0.327 OA
BRANCH   6   7
HETATM    7  C7  UNL     1       0.159  28.578 -12.753  1.00  0.00     0.296 C 
HETATM    8  O2  UNL     1       0.275  29.824 -12.147  1.00  0.00    -0.327 OA
HETATM    9  C6  UNL     1      -0.808  30.607 -12.513  1.00  0.00     0.293 C 
HETATM   10  C26 UNL     1      -1.888  29.915 -13.262  1.00  0.00     0.240 C 
HETATM   11  C25 UNL     1      -2.248  28.557 -12.712  1.00  0.00     0.075 C 
HETATM   12  C24 UNL     1      -1.010  27.891 -12.084  1.00  0.00     0.240 C 
BRANCH   9  13
HETATM   13  O1  UNL     1      -1.285  31.358 -11.435  1.00  0.00    -0.353 OA
BRANCH  13  14
HETATM   14  C5  UNL     1      -0.417  31.491 -10.387  1.00  0.00     0.138 C 
HETATM   15  C2  UNL     1      -1.181  31.642  -9.077  1.00  0.00     0.076 C 
HETATM   16  C3  UNL     1      -0.828  33.113  -9.053  1.00  0.00     0.020 C 
HETATM   17  C4  UNL     1       0.169  32.850 -10.159  1.00  0.00     0.034 C 
BRANCH  15  18
HETATM   18  S1  UNL     1      -2.959  31.418  -9.282  1.00  0.00    -0.166 SA
HETATM   19  C1  UNL     1      -3.590  30.002  -8.390  1.00  0.00     0.090 C 
ENDBRANCH  15  18
ENDBRANCH  13  14
ENDBRANCH   9  13
BRANCH  10  20
HETATM   20  N3  UNL     1      -3.075  30.760 -13.240  1.00  0.00    -0.070 N 
ATOM     21  H33 UNL     1      -2.879  31.703 -12.905  1.00  0.00     0.274 HD
ATOM     22  H32 UNL     1      -3.398  31.009 -14.176  1.00  0.00     0.274 HD
ATOM     23  H31 UNL     1      -3.794  30.290 -12.690  1.00  0.00     0.274 HD
ENDBRANCH  10  20
BRANCH  12  24
HETATM   24  N2  UNL     1      -1.013  28.250 -10.688  1.00  0.00    -0.070 N 
ATOM     25  H23 UNL     1      -1.741  28.926 -10.459  1.00  0.00     0.274 HD
ATOM     26  H22 UNL     1      -1.335  27.489 -10.089  1.00  0.00     0.274 HD
ATOM     27  H21 UNL     1      -0.080  28.578 -10.437  1.00  0.00     0.274 HD
ENDBRANCH  12  24
ENDBRANCH   6   7
ENDBRANCH   1   6
BRANCH   5  28
HETATM   28  O10 UNL     1       4.147  29.763 -12.521  1.00  0.00    -0.346 OA
BRANCH  28  29
HETATM   29  C18 UNL     1       3.610  30.890 -11.972  1.00  0.00     0.294 C 
HETATM   30  O11 UNL     1       3.181  31.705 -13.015  1.00  0.00    -0.351 OA
HETATM   31  C19 UNL     1       2.758  32.950 -12.593  1.00  0.00     0.152 C 
HETATM   32  C20 UNL     1       2.388  33.760 -13.811  1.00  0.00     0.042 C 
HETATM   33  C21 UNL     1       3.804  33.715 -11.840  1.00  0.00     0.177 C 
HETATM   34  C22 UNL     1       4.239  32.911 -10.660  1.00  0.00     0.184 C 
HETATM   35  C23 UNL     1       4.712  31.566 -11.171  1.00  0.00     0.269 C 
BRANCH  33  36
HETATM   36  O12 UNL     1       3.228  34.944 -11.461  1.00  0.00    -0.390 OA
ATOM     37  H12 UNL     1       3.769  35.306 -10.769  1.00  0.00     0.210 HD
ENDBRANCH  33  36
BRANCH  34  38
HETATM   38  O13 UNL     1       5.296  33.494  -9.965  1.00  0.00    -0.391 OA
ATOM     39  H13 UNL     1       5.018  33.935  -9.171  1.00  0.00     0.210 HD
ENDBRANCH  34  38
BRANCH  35  40
HETATM   40  N1  UNL     1       5.938  31.662 -11.944  1.00  0.00    -0.068 N 
ATOM     41  H13 UNL     1       5.783  31.428 -12.924  1.00  0.00     0.275 HD
ATOM     42  H12 UNL     1       6.233  32.631 -12.060  1.00  0.00     0.275 HD
ATOM     43  H11 UNL     1       6.676  31.091 -11.533  1.00  0.00     0.275 HD
ENDBRANCH  35  40
ENDBRANCH  28  29
ENDBRANCH   5  28
BRANCH   4  44
HETATM   44  O5  UNL     1       5.417  27.176 -11.478  1.00  0.00    -0.348 OA
BRANCH  44  45
HETATM   45  C11 UNL     1       6.615  27.579 -10.917  1.00  0.00     0.292 C 
HETATM   46  O6  UNL     1       7.292  26.419 -10.515  1.00  0.00    -0.351 OA
HETATM   47  C12 UNL     1       8.481  26.614  -9.895  1.00  0.00     0.152 C 
HETATM   48  C13 UNL     1       8.437  25.909  -8.553  1.00  0.00     0.042 C 
HETATM   49  C14 UNL     1       8.941  28.029  -9.765  1.00  0.00     0.178 C 
HETATM   50  C15 UNL     1       8.614  28.909 -10.918  1.00  0.00     0.183 C 
HETATM   51  C16 UNL     1       7.560  28.276 -11.840  1.00  0.00     0.204 C 
BRANCH  49  52
HETATM   52  O7  UNL     1       8.369  28.567  -8.612  1.00  0.00    -0.390 OA
ATOM     53  H7  UNL     1       8.327  27.882  -7.956  1.00  0.00     0.210 HD
ENDBRANCH  49  52
BRANCH  50  54
HETATM   54  O8  UNL     1       8.023  30.103 -10.472  1.00  0.00    -0.390 OA
ATOM     55  H8  UNL     1       8.644  30.820 -10.523  1.00  0.00     0.210 HD
ENDBRANCH  50  54
BRANCH  51  56
HETATM   56  O9  UNL     1       8.251  27.331 -12.615  1.00  0.00    -0.388 OA
ATOM     57  H9  UNL     1       9.003  27.008 -12.133  1.00  0.00     0.210 HD
ENDBRANCH  51  56
ENDBRANCH  44  45
ENDBRANCH   4  44
TORSDOF 17
ENDMDL
MODEL 4
REMARK VINA RESULT: -7.756208782      2.965      8.085
REMARK  17 active torsions:
REMARK  status: ('A' for Active; 'I' for Inactive)
REMARK    1  A    between atoms: S1_2  and  C2_3 
REMARK    2  A    between atoms: C5_6  and  O1_7 
REMARK    3  A    between atoms: O1_7  and  C6_8 
REMARK    4  A    between atoms: C7_10  and  O3_11 
REMARK    5  A    between atoms: O3_11  and  C8_12 
REMARK    6  A    between atoms: C10_15  and  O5_16 
REMARK    7  A    between atoms: O5_16  and  C11_17 
REMARK    8  A    between atoms: C14_21  and  O7_22 
REMARK    9  A    between atoms: C15_24  and  O8_25 
REMARK   10  A    between atoms: C16_27  and  O9_28 
REMARK   11  A    between atoms: C17_30  and  O10_31 
REMARK   12  A    between atoms: O10_31  and  C18_32 
REMARK   13  A    between atoms: C21_36  and  O12_37 
REMARK   14  A    between atoms: C22_39  and  O13_40 
REMARK   15  A    between atoms: C23_42  and  N1_43 
REMARK   16  A    between atoms: C24_47  and  N2_48 
REMARK   17  A    between atoms: C26_53  and  N3_54 
ROOT
HETATM    1  C8  UNL     1       1.914  29.485 -12.715  1.00  0.00     0.294 C 
HETATM    2  O4  UNL     1       1.591  30.110 -13.959  1.00  0.00    -0.356 OA
HETATM    3  C9  UNL     1       0.601  29.291 -14.500  1.00  0.00     0.205 C 
HETATM    4  C10 UNL     1      -0.343  29.247 -13.275  1.00  0.00     0.182 C 
HETATM    5  C17 UNL     1       0.658  28.837 -12.241  1.00  0.00     0.211 C 
ENDROOT
BRANCH   1   6
HETATM    6  O3  UNL     1       2.924  28.597 -13.028  1.00  0.00    -0.327 OA
BRANCH   6   7
HETATM    7  C7  UNL     1       4.155  29.055 -12.564  1.00  0.00     0.296 C 
HETATM    8  O2  UNL     1       4.933  27.958 -12.212  1.00  0.00    -0.327 OA
HETATM    9  C6  UNL     1       6.233  28.382 -11.983  1.00  0.00     0.293 C 
HETATM   10  C26 UNL     1       6.445  29.853 -11.968  1.00  0.00     0.240 C 
HETATM   11  C25 UNL     1       5.388  30.621 -11.214  1.00  0.00     0.075 C 
HETATM   12  C24 UNL     1       4.030  29.903 -11.319  1.00  0.00     0.240 C 
BRANCH   9  13
HETATM   13  O1  UNL     1       6.794  27.738 -10.876  1.00  0.00    -0.353 OA
BRANCH  13  14
HETATM   14  C5  UNL     1       7.549  26.635 -11.165  1.00  0.00     0.138 C 
HETATM   15  C2  UNL     1       7.966  25.924  -9.883  1.00  0.00     0.076 C 
HETATM   16  C3  UNL     1       9.372  26.454 -10.058  1.00  0.00     0.020 C 
HETATM   17  C4  UNL     1       8.999  26.864 -11.465  1.00  0.00     0.034 C 
BRANCH  15  18
HETATM   18  S1  UNL     1       7.196  26.634  -8.415  1.00  0.00    -0.166 SA
HETATM   19  C1  UNL     1       6.335  25.420  -7.423  1.00  0.00     0.090 C 
ENDBRANCH  15  18
ENDBRANCH  13  14
ENDBRANCH   9  13
BRANCH  10  20
HETATM   20  N3  UNL     1       7.743  30.123 -11.362  1.00  0.00    -0.070 N 
ATOM     21  H33 UNL     1       7.667  30.636 -10.484  1.00  0.00     0.274 HD
ATOM     22  H32 UNL     1       8.187  29.281 -10.994  1.00  0.00     0.274 HD
ATOM     23  H31 UNL     1       8.323  30.604 -12.049  1.00  0.00     0.274 HD
ENDBRANCH  10  20
BRANCH  12  24
HETATM   24  N2  UNL     1       3.940  29.026 -10.178  1.00  0.00    -0.070 N 
ATOM     25  H23 UNL     1       4.553  28.215 -10.257  1.00  0.00     0.274 HD
ATOM     26  H22 UNL     1       4.355  29.432  -9.338  1.00  0.00     0.274 HD
ATOM     27  H21 UNL     1       2.962  28.767 -10.046  1.00  0.00     0.274 HD
ENDBRANCH  12  24
ENDBRANCH   6   7
ENDBRANCH   1   6
BRANCH   5  28
HETATM   28  O10 UNL     1       0.319  29.031 -10.945  1.00  0.00    -0.346 OA
BRANCH  28  29
HETATM   29  C18 UNL     1      -0.575  30.019 -10.662  1.00  0.00     0.294 C 
HETATM   30  O11 UNL     1       0.147  31.157 -10.315  1.00  0.00    -0.351 OA
HETATM   31  C19 UNL     1      -0.649  32.187  -9.854  1.00  0.00     0.152 C 
HETATM   32  C20 UNL     1       0.247  33.329  -9.447  1.00  0.00     0.042 C 
HETATM   33  C21 UNL     1      -1.480  31.814  -8.663  1.00  0.00     0.177 C 
HETATM   34  C22 UNL     1      -2.336  30.643  -9.015  1.00  0.00     0.184 C 
HETATM   35  C23 UNL     1      -1.422  29.535  -9.494  1.00  0.00     0.269 C 
BRANCH  33  36
HETATM   36  O12 UNL     1      -2.246  32.947  -8.320  1.00  0.00    -0.390 OA
ATOM     37  H12 UNL     1      -2.505  32.845  -7.412  1.00  0.00     0.210 HD
ENDBRANCH  33  36
BRANCH  34  38
HETATM   38  O13 UNL     1      -3.059  30.153  -7.930  1.00  0.00    -0.391 OA
ATOM     39  H13 UNL     1      -3.962  30.446  -7.925  1.00  0.00     0.210 HD
ENDBRANCH  34  38
BRANCH  35  40
HETATM   40  N1  UNL     1      -0.590  28.999  -8.432  1.00  0.00    -0.068 N 
ATOM     41  H13 UNL     1      -0.760  28.003  -8.287  1.00  0.00     0.275 HD
ATOM     42  H12 UNL     1       0.390  28.950  -8.711  1.00  0.00     0.275 HD
ATOM     43  H11 UNL     1      -0.709  29.529  -7.569  1.00  0.00     0.275 HD
ENDBRANCH  35  40
ENDBRANCH  28  29
ENDBRANCH   5  28
BRANCH   4  44
HETATM   44  O5  UNL     1      -1.315  28.312 -13.436  1.00  0.00    -0.348 OA
BRANCH  44  45
HETATM   45  C11 UNL     1      -1.757  28.136 -14.735  1.00  0.00     0.292 C 
HETATM   46  O6  UNL     1      -2.030  26.770 -14.896  1.00  0.00    -0.351 OA
HETATM   47  C12 UNL     1      -2.436  26.391 -16.132  1.00  0.00     0.152 C 
HETATM   48  C13 UNL     1      -1.512  25.292 -16.618  1.00  0.00     0.042 C 
HETATM   49  C14 UNL     1      -2.591  27.476 -17.144  1.00  0.00     0.178 C 
HETATM   50  C15 UNL     1      -3.109  28.766 -16.616  1.00  0.00     0.183 C 
HETATM   51  C16 UNL     1      -3.035  28.827 -15.082  1.00  0.00     0.204 C 
BRANCH  49  52
HETATM   52  O7  UNL     1      -1.348  27.699 -17.735  1.00  0.00    -0.390 OA
ATOM     53  H7  UNL     1      -1.402  27.436 -18.646  1.00  0.00     0.210 HD
ENDBRANCH  49  52
BRANCH  50  54
HETATM   54  O8  UNL     1      -2.306  29.833 -17.051  1.00  0.00    -0.390 OA
ATOM     55  H8  UNL     1      -1.624  29.519 -17.634  1.00  0.00     0.210 HD
ENDBRANCH  50  54
BRANCH  51  56
HETATM   56  O9  UNL     1      -4.124  28.072 -14.618  1.00  0.00    -0.388 OA
ATOM     57  H9  UNL     1      -3.929  27.146 -14.694  1.00  0.00     0.210 HD
ENDBRANCH  51  56
ENDBRANCH  44  45
ENDBRANCH   4  44
TORSDOF 17
ENDMDL
MODEL 5
REMARK VINA RESULT: -7.680606042      3.175      8.716
REMARK  17 active torsions:
REMARK  status: ('A' for Active; 'I' for Inactive)
REMARK    1  A    between atoms: S1_2  and  C2_3 
REMARK    2  A    between atoms: C5_6  and  O1_7 
REMARK    3  A    between atoms: O1_7  and  C6_8 
REMARK    4  A    between atoms: C7_10  and  O3_11 
REMARK    5  A    between atoms: O3_11  and  C8_12 
REMARK    6  A    between atoms: C10_15  and  O5_16 
REMARK    7  A    between atoms: O5_16  and  C11_17 
REMARK    8  A    between atoms: C14_21  and  O7_22 
REMARK    9  A    between atoms: C15_24  and  O8_25 
REMARK   10  A    between atoms: C16_27  and  O9_28 
REMARK   11  A    between atoms: C17_30  and  O10_31 
REMARK   12  A    between atoms: O10_31  and  C18_32 
REMARK   13  A    between atoms: C21_36  and  O12_37 
REMARK   14  A    between atoms: C22_39  and  O13_40 
REMARK   15  A    between atoms: C23_42  and  N1_43 
REMARK   16  A    between atoms: C24_47  and  N2_48 
REMARK   17  A    between atoms: C26_53  and  N3_54 
ROOT
HETATM    1  C8  UNL     1       1.514  28.332 -12.037  1.00  0.00     0.294 C 
HETATM    2  O4  UNL     1       1.108  27.436 -11.000  1.00  0.00    -0.356 OA
HETATM    3  C9  UNL     1      -0.089  27.979 -10.535  1.00  0.00     0.205 C 
HETATM    4  C10 UNL     1      -0.810  28.123 -11.895  1.00  0.00     0.182 C 
HETATM    5  C17 UNL     1       0.258  28.869 -12.633  1.00  0.00     0.211 C 
ENDROOT
BRANCH   1   6
HETATM    6  O3  UNL     1       2.282  29.280 -11.390  1.00  0.00    -0.327 OA
BRANCH   6   7
HETATM    7  C7  UNL     1       3.610  29.218 -11.807  1.00  0.00     0.296 C 
HETATM    8  O2  UNL     1       4.357  28.588 -10.818  1.00  0.00    -0.327 OA
HETATM    9  C6  UNL     1       5.617  28.302 -11.317  1.00  0.00     0.293 C 
HETATM   10  C26 UNL     1       5.936  28.879 -12.649  1.00  0.00     0.240 C 
HETATM   11  C25 UNL     1       5.499  30.312 -12.821  1.00  0.00     0.075 C 
HETATM   12  C24 UNL     1       4.227  30.584 -11.997  1.00  0.00     0.240 C 
BRANCH   9  13
HETATM   13  O1  UNL     1       6.613  28.543 -10.366  1.00  0.00    -0.353 OA
BRANCH  13  14
HETATM   14  C5  UNL     1       6.997  27.452  -9.635  1.00  0.00     0.138 C 
HETATM   15  C2  UNL     1       8.468  27.558  -9.251  1.00  0.00     0.076 C 
HETATM   16  C3  UNL     1       8.803  26.503 -10.283  1.00  0.00     0.020 C 
HETATM   17  C4  UNL     1       7.325  26.206 -10.399  1.00  0.00     0.034 C 
BRANCH  15  18
HETATM   18  S1  UNL     1       9.190  29.147  -9.709  1.00  0.00    -0.166 SA
HETATM   19  C1  UNL     1      10.734  29.477  -8.870  1.00  0.00     0.090 C 
ENDBRANCH  15  18
ENDBRANCH  13  14
ENDBRANCH   9  13
BRANCH  10  20
HETATM   20  N3  UNL     1       7.378  28.800 -12.850  1.00  0.00    -0.070 N 
ATOM     21  H33 UNL     1       7.895  29.420 -12.226  1.00  0.00     0.274 HD
ATOM     22  H32 UNL     1       7.772  27.917 -12.526  1.00  0.00     0.274 HD
ATOM     23  H31 UNL     1       7.575  28.981 -13.833  1.00  0.00     0.274 HD
ENDBRANCH  10  20
BRANCH  12  24
HETATM   24  N2  UNL     1       4.666  31.069 -10.713  1.00  0.00    -0.070 N 
ATOM     25  H23 UNL     1       4.762  32.084 -10.690  1.00  0.00     0.274 HD
ATOM     26  H22 UNL     1       3.947  30.982  -9.994  1.00  0.00     0.274 HD
ATOM     27  H21 UNL     1       5.530  30.588 -10.463  1.00  0.00     0.274 HD
ENDBRANCH  12  24
ENDBRANCH   6   7
ENDBRANCH   1   6
BRANCH   5  28
HETATM   28  O10 UNL     1       0.178  28.884 -13.983  1.00  0.00    -0.346 OA
BRANCH  28  29
HETATM   29  C18 UNL     1      -1.017  28.559 -14.554  1.00  0.00     0.294 C 
HETATM   30  O11 UNL     1      -0.862  27.332 -15.190  1.00  0.00    -0.351 OA
HETATM   31  C19 UNL     1      -1.962  26.966 -15.941  1.00  0.00     0.152 C 
HETATM   32  C20 UNL     1      -1.648  25.663 -16.633  1.00  0.00     0.042 C 
HETATM   33  C21 UNL     1      -2.325  27.965 -16.998  1.00  0.00     0.177 C 
HETATM   34  C22 UNL     1      -2.581  29.285 -16.351  1.00  0.00     0.184 C 
HETATM   35  C23 UNL     1      -1.345  29.655 -15.558  1.00  0.00     0.269 C 
BRANCH  33  36
HETATM   36  O12 UNL     1      -3.465  27.470 -17.664  1.00  0.00    -0.390 OA
ATOM     37  H12 UNL     1      -4.088  27.210 -16.995  1.00  0.00     0.210 HD
ENDBRANCH  33  36
BRANCH  34  38
HETATM   38  O13 UNL     1      -2.812  30.305 -17.271  1.00  0.00    -0.391 OA
ATOM     39  H13 UNL     1      -3.214  31.072 -16.880  1.00  0.00     0.210 HD
ENDBRANCH  34  38
BRANCH  35  40
HETATM   40  N1  UNL     1      -0.203  29.946 -16.406  1.00  0.00    -0.068 N 
ATOM     41  H13 UNL     1       0.671  29.645 -15.976  1.00  0.00     0.275 HD
ATOM     42  H12 UNL     1      -0.186  29.347 -17.231  1.00  0.00     0.275 HD
ATOM     43  H11 UNL     1      -0.177  30.934 -16.659  1.00  0.00     0.275 HD
ENDBRANCH  35  40
ENDBRANCH  28  29
ENDBRANCH   5  28
BRANCH   4  44
HETATM   44  O5  UNL     1      -1.947  28.855 -11.775  1.00  0.00    -0.348 OA
BRANCH  44  45
HETATM   45  C11 UNL     1      -1.940  29.796 -10.761  1.00  0.00     0.292 C 
HETATM   46  O6  UNL     1      -1.401  30.974 -11.295  1.00  0.00    -0.351 OA
HETATM   47  C12 UNL     1      -1.269  32.009 -10.430  1.00  0.00     0.152 C 
HETATM   48  C13 UNL     1       0.177  32.463 -10.451  1.00  0.00     0.042 C 
HETATM   49  C14 UNL     1      -1.761  31.781  -9.039  1.00  0.00     0.178 C 
HETATM   50  C15 UNL     1      -2.985  30.944  -8.929  1.00  0.00     0.183 C 
HETATM   51  C16 UNL     1      -3.282  30.190 -10.235  1.00  0.00     0.204 C 
BRANCH  49  52
HETATM   52  O7  UNL     1      -0.737  31.177  -8.310  1.00  0.00    -0.390 OA
ATOM     53  H7  UNL     1       0.084  31.582  -8.563  1.00  0.00     0.210 HD
ENDBRANCH  49  52
BRANCH  50  54
HETATM   54  O8  UNL     1      -2.805  29.933  -7.971  1.00  0.00    -0.390 OA
ATOM     55  H8  UNL     1      -3.085  30.233  -7.114  1.00  0.00     0.210 HD
ENDBRANCH  50  54
BRANCH  51  56
HETATM   56  O9  UNL     1      -3.870  31.133 -11.094  1.00  0.00    -0.388 OA
ATOM     57  H9  UNL     1      -4.400  30.689 -11.744  1.00  0.00     0.210 HD
ENDBRANCH  51  56
ENDBRANCH  44  45
ENDBRANCH   4  44
TORSDOF 17
ENDMDL
