MODEL 1
REMARK VINA RESULT: -6.532295653      0.000      0.000
REMARK  10 active torsions:
REMARK  status: ('A' for Active; 'I' for Inactive)
REMARK    1  A    between atoms: C2_2  and  O1_3 
REMARK    2  A    between atoms: O1_3  and  C3_4 
REMARK    3  A    between atoms: C3_4  and  C4_8 
REMARK    4  A    between atoms: C4_8  and  N2_9 
REMARK    5  A    between atoms: C4_8  and  C14_25 
REMARK    6  A    between atoms: N2_9  and  C5_11 
REMARK    7  A    between atoms: C5_11  and  N3_13 
REMARK    8  A    between atoms: N3_13  and  C6_15 
REMARK    9  A    between atoms: C9_18  and  O2_19 
REMARK   10  A    between atoms: C11_21  and  O3_22 
ROOT
HETATM    1  N2  UNL     1      -3.659   4.309  14.949  1.00  0.00    -0.329 N 
ATOM      2  H2  UNL     1      -4.011   4.864  15.729  1.00  0.00     0.168 HD
ENDROOT
BRANCH   1   3
HETATM    3  C4  UNL     1      -2.813   5.046  14.086  1.00  0.00     0.117 C 
BRANCH   3   4
HETATM    4  C3  UNL     1      -1.443   4.547  13.864  1.00  0.00     0.163 C 
HETATM    5  N1  UNL     1      -0.707   4.094  14.876  1.00  0.00    -0.378 N 
ATOM      6  H12 UNL     1       0.241   3.750  14.722  1.00  0.00     0.158 HD
ATOM      7  H11 UNL     1      -1.208   4.148  15.762  1.00  0.00     0.158 HD
BRANCH   4   8
HETATM    8  O1  UNL     1      -0.767   4.476  12.669  1.00  0.00    -0.335 OA
BRANCH   8   9
HETATM    9  C2  UNL     1      -1.370   4.059  11.453  1.00  0.00     0.173 C 
HETATM   10  C1  UNL     1      -0.890   2.670  11.057  1.00  0.00     0.034 C 
ENDBRANCH   8   9
ENDBRANCH   4   8
ENDBRANCH   3   4
BRANCH   3  11
HETATM   11  C14 UNL     1      -2.921   6.549  14.160  1.00  0.00     0.235 C 
HETATM   12 CL1  UNL     1      -4.214   6.924  15.325  1.00  0.00    -0.077 Cl
HETATM   13 CL2  UNL     1      -3.564   7.096  12.554  1.00  0.00    -0.077 Cl
HETATM   14 CL3  UNL     1      -1.444   7.427  14.407  1.00  0.00    -0.077 Cl
ENDBRANCH   3  11
ENDBRANCH   1   3
BRANCH   1  15
HETATM   15  C5  UNL     1      -4.118   2.995  14.969  1.00  0.00     0.176 C 
HETATM   16  S1  UNL     1      -5.554   2.722  15.777  1.00  0.00    -0.041 SA
BRANCH  15  17
HETATM   17  N3  UNL     1      -3.564   1.864  14.366  1.00  0.00    -0.333 N 
ATOM     18  H3  UNL     1      -2.875   1.334  14.901  1.00  0.00     0.168 HD
BRANCH  17  19
HETATM   19  C6  UNL     1      -3.894   1.386  13.035  1.00  0.00     0.037 A 
HETATM   20  C7  UNL     1      -4.462   2.154  12.069  1.00  0.00     0.032 A 
HETATM   21  C8  UNL     1      -4.700   1.600  10.807  1.00  0.00     0.042 A 
HETATM   22  C9  UNL     1      -4.359   0.291  10.559  1.00  0.00     0.101 A 
HETATM   23  C11 UNL     1      -3.783  -0.518  11.516  1.00  0.00     0.103 A 
HETATM   24  C13 UNL     1      -3.561   0.055  12.744  1.00  0.00     0.069 A 
BRANCH  22  25
HETATM   25  O2  UNL     1      -4.599  -0.264   9.292  1.00  0.00    -0.353 OA
HETATM   26  C10 UNL     1      -4.488   0.476   8.109  1.00  0.00     0.210 C 
ENDBRANCH  22  25
BRANCH  23  27
HETATM   27  O3  UNL     1      -3.469  -1.817  11.199  1.00  0.00    -0.353 OA
HETATM   28  C12 UNL     1      -2.199  -2.269  10.835  1.00  0.00     0.210 C 
ENDBRANCH  23  27
ENDBRANCH  17  19
ENDBRANCH  15  17
ENDBRANCH   1  15
TORSDOF 10
ENDMDL
MODEL 2
REMARK VINA RESULT: -6.314273806      2.328      3.578
REMARK  10 active torsions:
REMARK  status: ('A' for Active; 'I' for Inactive)
REMARK    1  A    between atoms: C2_2  and  O1_3 
REMARK    2  A    between atoms: O1_3  and  C3_4 
REMARK    3  A    between atoms: C3_4  and  C4_8 
REMARK    4  A    between atoms: C4_8  and  N2_9 
REMARK    5  A    between atoms: C4_8  and  C14_25 
REMARK    6  A    between atoms: N2_9  and  C5_11 
REMARK    7  A    between atoms: C5_11  and  N3_13 
REMARK    8  A    between atoms: N3_13  and  C6_15 
REMARK    9  A    between atoms: C9_18  and  O2_19 
REMARK   10  A    between atoms: C11_21  and  O3_22 
ROOT
HETATM    1  N2  UNL     1      -1.438   4.264  14.101  1.00  0.00    -0.329 N 
ATOM      2  H2  UNL     1      -0.697   4.279  14.801  1.00  0.00     0.168 HD
ENDROOT
BRANCH   1   3
HETATM    3  C4  UNL     1      -2.731   4.162  14.668  1.00  0.00     0.117 C 
BRANCH   3   4
HETATM    4  C3  UNL     1      -3.310   2.816  14.841  1.00  0.00     0.163 C 
HETATM    5  N1  UNL     1      -3.804   2.145  13.803  1.00  0.00    -0.378 N 
ATOM      6  H12 UNL     1      -4.205   1.215  13.923  1.00  0.00     0.158 HD
ATOM      7  H11 UNL     1      -3.723   2.676  12.936  1.00  0.00     0.158 HD
BRANCH   4   8
HETATM    8  O1  UNL     1      -3.419   2.101  16.010  1.00  0.00    -0.335 OA
BRANCH   8   9
HETATM    9  C2  UNL     1      -4.522   1.259  16.311  1.00  0.00     0.173 C 
HETATM   10  C1  UNL     1      -5.361   1.844  17.439  1.00  0.00     0.034 C 
ENDBRANCH   8   9
ENDBRANCH   4   8
ENDBRANCH   3   4
BRANCH   3  11
HETATM   11  C14 UNL     1      -3.728   5.219  14.264  1.00  0.00     0.235 C 
HETATM   12 CL1  UNL     1      -3.129   6.773  14.894  1.00  0.00    -0.077 Cl
HETATM   13 CL2  UNL     1      -5.241   4.884  15.208  1.00  0.00    -0.077 Cl
HETATM   14 CL3  UNL     1      -4.204   5.247  12.595  1.00  0.00    -0.077 Cl
ENDBRANCH   3  11
ENDBRANCH   1   3
BRANCH   1  15
HETATM   15  C5  UNL     1      -0.953   4.347  12.798  1.00  0.00     0.176 C 
HETATM   16  S1  UNL     1      -0.614   5.879  12.229  1.00  0.00    -0.041 SA
BRANCH  15  17
HETATM   17  N3  UNL     1      -0.666   3.315  11.902  1.00  0.00    -0.333 N 
ATOM     18  H3  UNL     1       0.314   3.072  11.761  1.00  0.00     0.168 HD
BRANCH  17  19
HETATM   19  C6  UNL     1      -1.659   2.563  11.156  1.00  0.00     0.037 A 
HETATM   20  C7  UNL     1      -2.676   3.129  10.456  1.00  0.00     0.032 A 
HETATM   21  C8  UNL     1      -3.553   2.308   9.739  1.00  0.00     0.042 A 
HETATM   22  C9  UNL     1      -3.377   0.944   9.751  1.00  0.00     0.101 A 
HETATM   23  C11 UNL     1      -2.358   0.336  10.452  1.00  0.00     0.103 A 
HETATM   24  C13 UNL     1      -1.513   1.168  11.144  1.00  0.00     0.069 A 
BRANCH  22  25
HETATM   25  O2  UNL     1      -4.258   0.122   9.031  1.00  0.00    -0.353 OA
HETATM   26  C10 UNL     1      -4.574   0.345   7.686  1.00  0.00     0.210 C 
ENDBRANCH  22  25
BRANCH  23  27
HETATM   27  O3  UNL     1      -2.242  -1.033  10.420  1.00  0.00    -0.353 OA
HETATM   28  C12 UNL     1      -2.737  -1.903  11.395  1.00  0.00     0.210 C 
ENDBRANCH  23  27
ENDBRANCH  17  19
ENDBRANCH  15  17
ENDBRANCH   1  15
TORSDOF 10
ENDMDL
MODEL 3
REMARK VINA RESULT: -6.177756612      3.867      5.392
REMARK  10 active torsions:
REMARK  status: ('A' for Active; 'I' for Inactive)
REMARK    1  A    between atoms: C2_2  and  O1_3 
REMARK    2  A    between atoms: O1_3  and  C3_4 
REMARK    3  A    between atoms: C3_4  and  C4_8 
REMARK    4  A    between atoms: C4_8  and  N2_9 
REMARK    5  A    between atoms: C4_8  and  C14_25 
REMARK    6  A    between atoms: N2_9  and  C5_11 
REMARK    7  A    between atoms: C5_11  and  N3_13 
REMARK    8  A    between atoms: N3_13  and  C6_15 
REMARK    9  A    between atoms: C9_18  and  O2_19 
REMARK   10  A    between atoms: C11_21  and  O3_22 
ROOT
HETATM    1  N2  UNL     1      -3.171   3.802  11.165  1.00  0.00    -0.329 N 
ATOM      2  H2  UNL     1      -3.739   3.767  10.319  1.00  0.00     0.168 HD
ENDROOT
BRANCH   1   3
HETATM    3  C4  UNL     1      -2.283   2.706  11.279  1.00  0.00     0.117 C 
BRANCH   3   4
HETATM    4  C3  UNL     1      -0.855   2.935  10.987  1.00  0.00     0.163 C 
HETATM    5  N1  UNL     1       0.028   3.090  11.969  1.00  0.00    -0.378 N 
ATOM      6  H12 UNL     1       1.015   3.249  11.767  1.00  0.00     0.158 HD
ATOM      7  H11 UNL     1      -0.412   3.030  12.888  1.00  0.00     0.158 HD
BRANCH   4   8
HETATM    8  O1  UNL     1      -0.262   3.016   9.749  1.00  0.00    -0.335 OA
BRANCH   8   9
HETATM    9  C2  UNL     1       0.632   4.055   9.378  1.00  0.00     0.173 C 
HETATM   10  C1  UNL     1       1.935   3.483   8.835  1.00  0.00     0.034 C 
ENDBRANCH   8   9
ENDBRANCH   4   8
ENDBRANCH   3   4
BRANCH   3  11
HETATM   11  C14 UNL     1      -2.803   1.368  10.816  1.00  0.00     0.235 C 
HETATM   12 CL1  UNL     1      -3.676   1.645   9.289  1.00  0.00    -0.077 Cl
HETATM   13 CL2  UNL     1      -4.083   0.876  12.004  1.00  0.00    -0.077 Cl
HETATM   14 CL3  UNL     1      -1.663   0.058  10.773  1.00  0.00    -0.077 Cl
ENDBRANCH   3  11
ENDBRANCH   1   3
BRANCH   1  15
HETATM   15  C5  UNL     1      -3.442   4.918  11.952  1.00  0.00     0.176 C 
HETATM   16  S1  UNL     1      -4.133   6.224  11.177  1.00  0.00    -0.041 SA
BRANCH  15  17
HETATM   17  N3  UNL     1      -3.254   5.088  13.326  1.00  0.00    -0.333 N 
ATOM     18  H3  UNL     1      -2.580   5.793  13.626  1.00  0.00     0.168 HD
BRANCH  17  19
HETATM   19  C6  UNL     1      -3.944   4.335  14.358  1.00  0.00     0.037 A 
HETATM   20  C7  UNL     1      -5.112   4.724  14.932  1.00  0.00     0.032 A 
HETATM   21  C8  UNL     1      -5.712   3.900  15.890  1.00  0.00     0.042 A 
HETATM   22  C9  UNL     1      -5.114   2.711  16.240  1.00  0.00     0.101 A 
HETATM   23  C11 UNL     1      -3.928   2.286  15.679  1.00  0.00     0.103 A 
HETATM   24  C13 UNL     1      -3.366   3.117  14.741  1.00  0.00     0.069 A 
BRANCH  22  25
HETATM   25  O2  UNL     1      -5.717   1.885  17.201  1.00  0.00    -0.353 OA
HETATM   26  C10 UNL     1      -6.771   1.015  16.899  1.00  0.00     0.210 C 
ENDBRANCH  22  25
BRANCH  23  27
HETATM   27  O3  UNL     1      -3.388   1.087  16.077  1.00  0.00    -0.353 OA
HETATM   28  C12 UNL     1      -3.516  -0.119  15.384  1.00  0.00     0.210 C 
ENDBRANCH  23  27
ENDBRANCH  17  19
ENDBRANCH  15  17
ENDBRANCH   1  15
TORSDOF 10
ENDMDL
MODEL 4
REMARK VINA RESULT: -6.076620134      1.285      2.413
REMARK  10 active torsions:
REMARK  status: ('A' for Active; 'I' for Inactive)
REMARK    1  A    between atoms: C2_2  and  O1_3 
REMARK    2  A    between atoms: O1_3  and  C3_4 
REMARK    3  A    between atoms: C3_4  and  C4_8 
REMARK    4  A    between atoms: C4_8  and  N2_9 
REMARK    5  A    between atoms: C4_8  and  C14_25 
REMARK    6  A    between atoms: N2_9  and  C5_11 
REMARK    7  A    between atoms: C5_11  and  N3_13 
REMARK    8  A    between atoms: N3_13  and  C6_15 
REMARK    9  A    between atoms: C9_18  and  O2_19 
REMARK   10  A    between atoms: C11_21  and  O3_22 
ROOT
HETATM    1  N2  UNL     1      -3.561   3.555  15.118  1.00  0.00    -0.329 N 
ATOM      2  H2  UNL     1      -3.334   3.861  16.064  1.00  0.00     0.168 HD
ENDROOT
BRANCH   1   3
HETATM    3  C4  UNL     1      -3.152   4.479  14.127  1.00  0.00     0.117 C 
BRANCH   3   4
HETATM    4  C3  UNL     1      -1.721   4.527  13.770  1.00  0.00     0.163 C 
HETATM    5  N1  UNL     1      -0.787   4.126  14.629  1.00  0.00    -0.378 N 
ATOM      6  H12 UNL     1       0.202   4.160  14.382  1.00  0.00     0.158 HD
ATOM      7  H11 UNL     1      -1.194   3.806  15.508  1.00  0.00     0.158 HD
BRANCH   4   8
HETATM    8  O1  UNL     1      -1.173   4.959  12.586  1.00  0.00    -0.335 OA
BRANCH   8   9
HETATM    9  C2  UNL     1      -0.159   4.250  11.889  1.00  0.00     0.173 C 
HETATM   10  C1  UNL     1      -0.726   3.003  11.225  1.00  0.00     0.034 C 
ENDBRANCH   8   9
ENDBRANCH   4   8
ENDBRANCH   3   4
BRANCH   3  11
HETATM   11  C14 UNL     1      -3.833   5.825  14.139  1.00  0.00     0.235 C 
HETATM   12 CL1  UNL     1      -2.706   6.975  14.900  1.00  0.00    -0.077 Cl
HETATM   13 CL2  UNL     1      -5.218   5.687  15.302  1.00  0.00    -0.077 Cl
HETATM   14 CL3  UNL     1      -4.520   6.366  12.640  1.00  0.00    -0.077 Cl
ENDBRANCH   3  11
ENDBRANCH   1   3
BRANCH   1  15
HETATM   15  C5  UNL     1      -4.205   2.321  15.088  1.00  0.00     0.176 C 
HETATM   16  S1  UNL     1      -5.622   2.202  15.961  1.00  0.00    -0.041 SA
BRANCH  15  17
HETATM   17  N3  UNL     1      -3.852   1.165  14.389  1.00  0.00    -0.333 N 
ATOM     18  H3  UNL     1      -3.641   0.329  14.934  1.00  0.00     0.168 HD
BRANCH  17  19
HETATM   19  C6  UNL     1      -3.762   1.064  12.943  1.00  0.00     0.037 A 
HETATM   20  C7  UNL     1      -3.247  -0.006  12.284  1.00  0.00     0.032 A 
HETATM   21  C8  UNL     1      -3.247  -0.014  10.886  1.00  0.00     0.042 A 
HETATM   22  C9  UNL     1      -3.765   1.057  10.196  1.00  0.00     0.101 A 
HETATM   23  C11 UNL     1      -4.294   2.160  10.831  1.00  0.00     0.103 A 
HETATM   24  C13 UNL     1      -4.281   2.137  12.204  1.00  0.00     0.069 A 
BRANCH  22  25
HETATM   25  O2  UNL     1      -3.764   1.047   8.792  1.00  0.00    -0.353 OA
HETATM   26  C10 UNL     1      -4.642   0.258   8.040  1.00  0.00     0.210 C 
ENDBRANCH  22  25
BRANCH  23  27
HETATM   27  O3  UNL     1      -4.794   3.194  10.078  1.00  0.00    -0.353 OA
HETATM   28  C12 UNL     1      -4.125   4.392   9.815  1.00  0.00     0.210 C 
ENDBRANCH  23  27
ENDBRANCH  17  19
ENDBRANCH  15  17
ENDBRANCH   1  15
TORSDOF 10
ENDMDL
MODEL 5
REMARK VINA RESULT: -6.031062686      2.096      3.177
REMARK  10 active torsions:
REMARK  status: ('A' for Active; 'I' for Inactive)
REMARK    1  A    between atoms: C2_2  and  O1_3 
REMARK    2  A    between atoms: O1_3  and  C3_4 
REMARK    3  A    between atoms: C3_4  and  C4_8 
REMARK    4  A    between atoms: C4_8  and  N2_9 
REMARK    5  A    between atoms: C4_8  and  C14_25 
REMARK    6  A    between atoms: N2_9  and  C5_11 
REMARK    7  A    between atoms: C5_11  and  N3_13 
REMARK    8  A    between atoms: N3_13  and  C6_15 
REMARK    9  A    between atoms: C9_18  and  O2_19 
REMARK   10  A    between atoms: C11_21  and  O3_22 
ROOT
HETATM    1  N2  UNL     1      -3.418   4.918  14.196  1.00  0.00    -0.329 N 
ATOM      2  H2  UNL     1      -2.398   4.915  14.158  1.00  0.00     0.168 HD
ENDROOT
BRANCH   1   3
HETATM    3  C4  UNL     1      -3.973   6.203  13.989  1.00  0.00     0.117 C 
BRANCH   3   4
HETATM    4  C3  UNL     1      -4.875   6.393  12.837  1.00  0.00     0.163 C 
HETATM    5  N1  UNL     1      -4.430   6.261  11.590  1.00  0.00    -0.378 N 
ATOM      6  H12 UNL     1      -5.054   6.393  10.794  1.00  0.00     0.158 HD
ATOM      7  H11 UNL     1      -3.438   6.027  11.565  1.00  0.00     0.158 HD
BRANCH   4   8
HETATM    8  O1  UNL     1      -6.212   6.710  12.871  1.00  0.00    -0.335 OA
BRANCH   8   9
HETATM    9  C2  UNL     1      -6.700   8.043  12.877  1.00  0.00     0.173 C 
HETATM   10  C1  UNL     1      -6.807   8.576  14.299  1.00  0.00     0.034 C 
ENDBRANCH   8   9
ENDBRANCH   4   8
ENDBRANCH   3   4
BRANCH   3  11
HETATM   11  C14 UNL     1      -3.071   7.379  14.271  1.00  0.00     0.235 C 
HETATM   12 CL1  UNL     1      -1.409   6.750  14.378  1.00  0.00    -0.077 Cl
HETATM   13 CL2  UNL     1      -3.469   7.939  15.949  1.00  0.00    -0.077 Cl
HETATM   14 CL3  UNL     1      -3.257   8.769  13.247  1.00  0.00    -0.077 Cl
ENDBRANCH   3  11
ENDBRANCH   1   3
BRANCH   1  15
HETATM   15  C5  UNL     1      -3.953   3.656  14.439  1.00  0.00     0.176 C 
HETATM   16  S1  UNL     1      -5.352   3.606  15.350  1.00  0.00    -0.041 SA
BRANCH  15  17
HETATM   17  N3  UNL     1      -3.505   2.412  13.990  1.00  0.00    -0.333 N 
ATOM     18  H3  UNL     1      -2.863   1.896  14.591  1.00  0.00     0.168 HD
BRANCH  17  19
HETATM   19  C6  UNL     1      -3.885   1.799  12.729  1.00  0.00     0.037 A 
HETATM   20  C7  UNL     1      -4.452   2.472  11.694  1.00  0.00     0.032 A 
HETATM   21  C8  UNL     1      -4.740   1.788  10.509  1.00  0.00     0.042 A 
HETATM   22  C9  UNL     1      -4.448   0.447  10.404  1.00  0.00     0.101 A 
HETATM   23  C11 UNL     1      -3.875  -0.267  11.435  1.00  0.00     0.103 A 
HETATM   24  C13 UNL     1      -3.603   0.433  12.584  1.00  0.00     0.069 A 
BRANCH  22  25
HETATM   25  O2  UNL     1      -4.738  -0.238   9.214  1.00  0.00    -0.353 OA
HETATM   26  C10 UNL     1      -4.534   0.324   7.949  1.00  0.00     0.210 C 
ENDBRANCH  22  25
BRANCH  23  27
HETATM   27  O3  UNL     1      -3.611  -1.604  11.261  1.00  0.00    -0.353 OA
HETATM   28  C12 UNL     1      -2.358  -2.142  10.958  1.00  0.00     0.210 C 
ENDBRANCH  23  27
ENDBRANCH  17  19
ENDBRANCH  15  17
ENDBRANCH   1  15
TORSDOF 10
ENDMDL
