MODEL 1
REMARK VINA RESULT: -7.537718944      0.000      0.000
REMARK  9 active torsions:
REMARK  status: ('A' for Active; 'I' for Inactive)
REMARK    1  A    between atoms: O1_2  and  C2_3 
REMARK    2  A    between atoms: C2_3  and  O2_4 
REMARK    3  A    between atoms: C2_3  and  C3_6 
REMARK    4  A    between atoms: C4_7  and  N1_8 
REMARK       I    between atoms: N1_8  and  C5_10 
REMARK    5  A    between atoms: C5_10  and  C6_12 
REMARK    6  A    between atoms: C6_12  and  C7_14 
REMARK    7  A    between atoms: C7_14  and  O5_15 
REMARK    8  A    between atoms: C7_14  and  C8_17 
REMARK    9  A    between atoms: C13_22  and  C14_23 
ROOT
HETATM    1  C3  UNL     1      -3.021   3.062  12.242  1.00  0.00     0.045 A 
HETATM    2  C4  UNL     1      -3.355   3.246  13.582  1.00  0.00     0.048 A 
HETATM    3  C11 UNL     1      -3.020   4.451  14.150  1.00  0.00     0.031 A 
HETATM    4  C12 UNL     1      -2.378   5.437  13.418  1.00  0.00     0.014 A 
HETATM    5  C13 UNL     1      -2.049   5.263  12.113  1.00  0.00     0.002 A 
HETATM    6  C16 UNL     1      -2.368   4.079  11.520  1.00  0.00     0.056 A 
HETATM    7 CL3  UNL     1      -1.959   3.820   9.841  1.00  0.00    -0.083 Cl
ENDROOT
BRANCH   2   8
HETATM    8  N1  UNL     1      -3.981   2.235  14.296  1.00  0.00    -0.320 N 
HETATM    9  C5  UNL     1      -3.621   1.580  15.486  1.00  0.00     0.294 C 
HETATM   10  O3  UNL     1      -2.575   1.885  16.085  1.00  0.00    -0.264 OA
ATOM     11  H1  UNL     1      -4.856   1.909  13.886  1.00  0.00     0.169 HD
BRANCH   9  12
HETATM   12  C6  UNL     1      -4.464   0.515  16.062  1.00  0.00     0.245 C 
HETATM   13  O4  UNL     1      -4.364  -0.617  15.528  1.00  0.00    -0.284 OA
BRANCH  12  14
HETATM   14  C7  UNL     1      -5.368   0.713  17.182  1.00  0.00     0.201 C 
BRANCH  14  15
HETATM   15  O5  UNL     1      -6.689   0.355  16.730  1.00  0.00    -0.387 OA
ATOM     16  H5  UNL     1      -7.051  -0.248  17.369  1.00  0.00     0.210 HD
ENDBRANCH  14  15
BRANCH  14  17
HETATM   17  C8  UNL     1      -5.540   2.114  17.669  1.00  0.00     0.014 C 
HETATM   18  C9  UNL     1      -5.868   2.200  19.149  1.00  0.00     0.012 C 
HETATM   19  C10 UNL     1      -6.399   3.025  16.888  1.00  0.00     0.012 C 
ENDBRANCH  14  17
ENDBRANCH  12  14
ENDBRANCH   9  12
ENDBRANCH   2   8
BRANCH   1  20
HETATM   20  C2  UNL     1      -3.330   1.836  11.495  1.00  0.00     0.294 C 
BRANCH  20  21
HETATM   21  O1  UNL     1      -2.757   0.755  12.208  1.00  0.00    -0.362 OA
HETATM   22  C1  UNL     1      -3.442  -0.429  11.959  1.00  0.00     0.205 C 
ENDBRANCH  20  21
BRANCH  20  23
HETATM   23  O2  UNL     1      -4.725   1.607  11.585  1.00  0.00    -0.367 OA
ATOM     24  H2  UNL     1      -4.835   0.722  11.257  1.00  0.00     0.213 HD
ENDBRANCH  20  23
ENDBRANCH   1  20
BRANCH   5  25
HETATM   25  C14 UNL     1      -1.359   6.314  11.309  1.00  0.00     0.138 C 
HETATM   26  C15 UNL     1      -1.098   7.500  12.197  1.00  0.00     0.056 C 
HETATM   27 CL1  UNL     1       0.188   5.718  10.699  1.00  0.00    -0.097 Cl
HETATM   28 CL2  UNL     1      -2.427   6.779   9.962  1.00  0.00    -0.097 Cl
ENDBRANCH   5  25
TORSDOF 9
ENDMDL
MODEL 2
REMARK VINA RESULT: -7.389716036      1.140      1.302
REMARK  9 active torsions:
REMARK  status: ('A' for Active; 'I' for Inactive)
REMARK    1  A    between atoms: O1_2  and  C2_3 
REMARK    2  A    between atoms: C2_3  and  O2_4 
REMARK    3  A    between atoms: C2_3  and  C3_6 
REMARK    4  A    between atoms: C4_7  and  N1_8 
REMARK       I    between atoms: N1_8  and  C5_10 
REMARK    5  A    between atoms: C5_10  and  C6_12 
REMARK    6  A    between atoms: C6_12  and  C7_14 
REMARK    7  A    between atoms: C7_14  and  O5_15 
REMARK    8  A    between atoms: C7_14  and  C8_17 
REMARK    9  A    between atoms: C13_22  and  C14_23 
ROOT
HETATM    1  C3  UNL     1      -3.515   3.822  12.647  1.00  0.00     0.045 A 
HETATM    2  C4  UNL     1      -3.826   3.774  14.005  1.00  0.00     0.048 A 
HETATM    3  C11 UNL     1      -3.657   4.932  14.726  1.00  0.00     0.031 A 
HETATM    4  C12 UNL     1      -3.196   6.092  14.123  1.00  0.00     0.014 A 
HETATM    5  C13 UNL     1      -2.891   6.143  12.802  1.00  0.00     0.002 A 
HETATM    6  C16 UNL     1      -3.048   5.013  12.060  1.00  0.00     0.056 A 
HETATM    7 CL3  UNL     1      -2.664   5.043  10.355  1.00  0.00    -0.083 Cl
ENDROOT
BRANCH   2   8
HETATM    8  N1  UNL     1      -4.267   2.594  14.585  1.00  0.00    -0.320 N 
HETATM    9  C5  UNL     1      -3.693   1.773  15.570  1.00  0.00     0.294 C 
HETATM   10  O3  UNL     1      -2.596   2.067  16.077  1.00  0.00    -0.264 OA
ATOM     11  H1  UNL     1      -5.167   2.263  14.234  1.00  0.00     0.169 HD
BRANCH   9  12
HETATM   12  C6  UNL     1      -4.364   0.544  16.033  1.00  0.00     0.245 C 
HETATM   13  O4  UNL     1      -4.391  -0.410  15.217  1.00  0.00    -0.284 OA
BRANCH  12  14
HETATM   14  C7  UNL     1      -4.969   0.396  17.345  1.00  0.00     0.201 C 
BRANCH  14  15
HETATM   15  O5  UNL     1      -5.550  -0.922  17.400  1.00  0.00    -0.387 OA
ATOM     16  H5  UNL     1      -5.772  -1.094  18.307  1.00  0.00     0.210 HD
ENDBRANCH  14  15
BRANCH  14  17
HETATM   17  C8  UNL     1      -6.121   1.292  17.661  1.00  0.00     0.014 C 
HETATM   18  C9  UNL     1      -7.149   1.364  16.546  1.00  0.00     0.012 C 
HETATM   19  C10 UNL     1      -5.834   2.637  18.197  1.00  0.00     0.012 C 
ENDBRANCH  14  17
ENDBRANCH  12  14
ENDBRANCH   9  12
ENDBRANCH   2   8
BRANCH   1  20
HETATM   20  C2  UNL     1      -3.663   2.671  11.746  1.00  0.00     0.294 C 
BRANCH  20  21
HETATM   21  O1  UNL     1      -2.841   1.635  12.252  1.00  0.00    -0.362 OA
HETATM   22  C1  UNL     1      -3.341   0.385  11.906  1.00  0.00     0.205 C 
ENDBRANCH  20  21
BRANCH  20  23
HETATM   23  O2  UNL     1      -4.979   2.168  11.888  1.00  0.00    -0.367 OA
ATOM     24  H2  UNL     1      -5.148   2.225  12.821  1.00  0.00     0.213 HD
ENDBRANCH  20  23
ENDBRANCH   1  20
BRANCH   5  25
HETATM   25  C14 UNL     1      -2.395   7.385  12.138  1.00  0.00     0.138 C 
HETATM   26  C15 UNL     1      -2.265   8.464  13.179  1.00  0.00     0.056 C 
HETATM   27 CL1  UNL     1      -0.809   7.113  11.409  1.00  0.00    -0.097 Cl
HETATM   28 CL2  UNL     1      -3.581   7.867  10.899  1.00  0.00    -0.097 Cl
ENDBRANCH   5  25
TORSDOF 9
ENDMDL
MODEL 3
REMARK VINA RESULT: -7.146070215      1.718      1.842
REMARK  9 active torsions:
REMARK  status: ('A' for Active; 'I' for Inactive)
REMARK    1  A    between atoms: O1_2  and  C2_3 
REMARK    2  A    between atoms: C2_3  and  O2_4 
REMARK    3  A    between atoms: C2_3  and  C3_6 
REMARK    4  A    between atoms: C4_7  and  N1_8 
REMARK       I    between atoms: N1_8  and  C5_10 
REMARK    5  A    between atoms: C5_10  and  C6_12 
REMARK    6  A    between atoms: C6_12  and  C7_14 
REMARK    7  A    between atoms: C7_14  and  O5_15 
REMARK    8  A    between atoms: C7_14  and  C8_17 
REMARK    9  A    between atoms: C13_22  and  C14_23 
ROOT
HETATM    1  C3  UNL     1      -4.040   3.990  12.242  1.00  0.00     0.045 A 
HETATM    2  C4  UNL     1      -4.316   3.984  13.608  1.00  0.00     0.048 A 
HETATM    3  C11 UNL     1      -4.511   5.204  14.211  1.00  0.00     0.031 A 
HETATM    4  C12 UNL     1      -4.435   6.383  13.487  1.00  0.00     0.014 A 
HETATM    5  C13 UNL     1      -4.166   6.394  12.157  1.00  0.00     0.002 A 
HETATM    6  C16 UNL     1      -3.967   5.201  11.530  1.00  0.00     0.056 A 
HETATM    7 CL3  UNL     1      -3.618   5.177   9.817  1.00  0.00    -0.083 Cl
ENDROOT
BRANCH   2   8
HETATM    8  N1  UNL     1      -4.368   2.790  14.311  1.00  0.00    -0.320 N 
HETATM    9  C5  UNL     1      -3.526   2.261  15.304  1.00  0.00     0.294 C 
HETATM   10  O3  UNL     1      -2.531   2.896  15.694  1.00  0.00    -0.264 OA
ATOM     11  H1  UNL     1      -5.154   2.189  14.064  1.00  0.00     0.169 HD
BRANCH   9  12
HETATM   12  C6  UNL     1      -3.790   0.945  15.915  1.00  0.00     0.245 C 
HETATM   13  O4  UNL     1      -3.200  -0.034  15.393  1.00  0.00    -0.284 OA
BRANCH  12  14
HETATM   14  C7  UNL     1      -4.669   0.740  17.053  1.00  0.00     0.201 C 
BRANCH  14  15
HETATM   15  O5  UNL     1      -5.309  -0.539  16.872  1.00  0.00    -0.387 OA
ATOM     16  H5  UNL     1      -5.587  -0.837  17.730  1.00  0.00     0.210 HD
ENDBRANCH  14  15
BRANCH  14  17
HETATM   17  C8  UNL     1      -5.819   1.683  17.194  1.00  0.00     0.014 C 
HETATM   18  C9  UNL     1      -5.851   2.395  18.535  1.00  0.00     0.012 C 
HETATM   19  C10 UNL     1      -7.164   1.204  16.822  1.00  0.00     0.012 C 
ENDBRANCH  14  17
ENDBRANCH  12  14
ENDBRANCH   9  12
ENDBRANCH   2   8
BRANCH   1  20
HETATM   20  C2  UNL     1      -3.827   2.766  11.459  1.00  0.00     0.294 C 
BRANCH  20  21
HETATM   21  O1  UNL     1      -2.785   2.042  12.087  1.00  0.00    -0.362 OA
HETATM   22  C1  UNL     1      -2.839   0.694  11.754  1.00  0.00     0.205 C 
ENDBRANCH  20  21
BRANCH  20  23
HETATM   23  O2  UNL     1      -4.965   1.938  11.618  1.00  0.00    -0.367 OA
ATOM     24  H2  UNL     1      -4.792   1.196  11.051  1.00  0.00     0.213 HD
ENDBRANCH  20  23
ENDBRANCH   1  20
BRANCH   5  25
HETATM   25  C14 UNL     1      -4.082   7.654  11.362  1.00  0.00     0.138 C 
HETATM   26  C15 UNL     1      -4.360   8.815  12.278  1.00  0.00     0.056 C 
HETATM   27 CL1  UNL     1      -2.466   7.854  10.677  1.00  0.00    -0.097 Cl
HETATM   28 CL2  UNL     1      -5.306   7.583  10.070  1.00  0.00    -0.097 Cl
ENDBRANCH   5  25
TORSDOF 9
ENDMDL
MODEL 4
REMARK VINA RESULT: -7.017242815      2.907      5.207
REMARK  9 active torsions:
REMARK  status: ('A' for Active; 'I' for Inactive)
REMARK    1  A    between atoms: O1_2  and  C2_3 
REMARK    2  A    between atoms: C2_3  and  O2_4 
REMARK    3  A    between atoms: C2_3  and  C3_6 
REMARK    4  A    between atoms: C4_7  and  N1_8 
REMARK       I    between atoms: N1_8  and  C5_10 
REMARK    5  A    between atoms: C5_10  and  C6_12 
REMARK    6  A    between atoms: C6_12  and  C7_14 
REMARK    7  A    between atoms: C7_14  and  O5_15 
REMARK    8  A    between atoms: C7_14  and  C8_17 
REMARK    9  A    between atoms: C13_22  and  C14_23 
ROOT
HETATM    1  C3  UNL     1      -3.728   5.453  12.773  1.00  0.00     0.045 A 
HETATM    2  C4  UNL     1      -4.246   4.451  13.592  1.00  0.00     0.048 A 
HETATM    3  C11 UNL     1      -5.185   4.827  14.522  1.00  0.00     0.031 A 
HETATM    4  C12 UNL     1      -5.595   6.146  14.635  1.00  0.00     0.014 A 
HETATM    5  C13 UNL     1      -5.093   7.126  13.841  1.00  0.00     0.002 A 
HETATM    6  C16 UNL     1      -4.161   6.785  12.909  1.00  0.00     0.056 A 
HETATM    7 CL3  UNL     1      -3.493   8.021  11.869  1.00  0.00    -0.083 Cl
ENDROOT
BRANCH   2   8
HETATM    8  N1  UNL     1      -3.803   3.142  13.468  1.00  0.00    -0.320 N 
HETATM    9  C5  UNL     1      -4.281   2.070  12.696  1.00  0.00     0.294 C 
HETATM   10  O3  UNL     1      -5.271   2.214  11.958  1.00  0.00    -0.264 OA
ATOM     11  H1  UNL     1      -2.988   2.918  14.038  1.00  0.00     0.169 HD
BRANCH   9  12
HETATM   12  C6  UNL     1      -3.632   0.747  12.733  1.00  0.00     0.245 C 
HETATM   13  O4  UNL     1      -4.042  -0.045  13.618  1.00  0.00    -0.284 OA
BRANCH  12  14
HETATM   14  C7  UNL     1      -2.578   0.334  11.822  1.00  0.00     0.201 C 
BRANCH  14  15
HETATM   15  O5  UNL     1      -2.160   1.507  11.095  1.00  0.00    -0.387 OA
ATOM     16  H5  UNL     1      -1.265   1.358  10.812  1.00  0.00     0.210 HD
ENDBRANCH  14  15
BRANCH  14  17
HETATM   17  C8  UNL     1      -2.960  -0.621  10.740  1.00  0.00     0.014 C 
HETATM   18  C9  UNL     1      -2.303  -1.983  10.882  1.00  0.00     0.012 C 
HETATM   19  C10 UNL     1      -2.900  -0.153   9.341  1.00  0.00     0.012 C 
ENDBRANCH  14  17
ENDBRANCH  12  14
ENDBRANCH   9  12
ENDBRANCH   2   8
BRANCH   1  20
HETATM   20  C2  UNL     1      -2.733   5.200  11.723  1.00  0.00     0.294 C 
BRANCH  20  21
HETATM   21  O1  UNL     1      -1.692   4.439  12.307  1.00  0.00    -0.362 OA
HETATM   22  C1  UNL     1      -0.698   5.261  12.824  1.00  0.00     0.205 C 
ENDBRANCH  20  21
BRANCH  20  23
HETATM   23  O2  UNL     1      -3.310   4.323  10.772  1.00  0.00    -0.367 OA
ATOM     24  H2  UNL     1      -4.216   4.602  10.722  1.00  0.00     0.213 HD
ENDBRANCH  20  23
ENDBRANCH   1  20
BRANCH   5  25
HETATM   25  C14 UNL     1      -5.524   8.551  13.949  1.00  0.00     0.138 C 
HETATM   26  C15 UNL     1      -6.621   8.641  14.976  1.00  0.00     0.056 C 
HETATM   27 CL1  UNL     1      -4.181   9.572  14.471  1.00  0.00    -0.097 Cl
HETATM   28 CL2  UNL     1      -6.130   9.074  12.358  1.00  0.00    -0.097 Cl
ENDBRANCH   5  25
TORSDOF 9
ENDMDL
MODEL 5
REMARK VINA RESULT: -6.991646368      2.114      2.567
REMARK  9 active torsions:
REMARK  status: ('A' for Active; 'I' for Inactive)
REMARK    1  A    between atoms: O1_2  and  C2_3 
REMARK    2  A    between atoms: C2_3  and  O2_4 
REMARK    3  A    between atoms: C2_3  and  C3_6 
REMARK    4  A    between atoms: C4_7  and  N1_8 
REMARK       I    between atoms: N1_8  and  C5_10 
REMARK    5  A    between atoms: C5_10  and  C6_12 
REMARK    6  A    between atoms: C6_12  and  C7_14 
REMARK    7  A    between atoms: C7_14  and  O5_15 
REMARK    8  A    between atoms: C7_14  and  C8_17 
REMARK    9  A    between atoms: C13_22  and  C14_23 
ROOT
HETATM    1  C3  UNL     1      -4.165   4.666  12.875  1.00  0.00     0.045 A 
HETATM    2  C4  UNL     1      -4.548   4.451  14.198  1.00  0.00     0.048 A 
HETATM    3  C11 UNL     1      -4.923   5.554  14.926  1.00  0.00     0.031 A 
HETATM    4  C12 UNL     1      -4.919   6.821  14.365  1.00  0.00     0.014 A 
HETATM    5  C13 UNL     1      -4.546   7.035  13.078  1.00  0.00     0.002 A 
HETATM    6  C16 UNL     1      -4.168   5.963  12.329  1.00  0.00     0.056 A 
HETATM    7 CL3  UNL     1      -3.681   6.202  10.667  1.00  0.00    -0.083 Cl
ENDROOT
BRANCH   2   8
HETATM    8  N1  UNL     1      -4.524   3.174  14.739  1.00  0.00    -0.320 N 
HETATM    9  C5  UNL     1      -3.537   2.495  15.472  1.00  0.00     0.294 C 
HETATM   10  O3  UNL     1      -2.455   3.047  15.737  1.00  0.00    -0.264 OA
ATOM     11  H1  UNL     1      -5.373   2.632  14.575  1.00  0.00     0.169 HD
BRANCH   9  12
HETATM   12  C6  UNL     1      -3.746   1.116  15.949  1.00  0.00     0.245 C 
HETATM   13  O4  UNL     1      -3.111   0.219  15.340  1.00  0.00    -0.284 OA
BRANCH  12  14
HETATM   14  C7  UNL     1      -4.621   0.763  17.054  1.00  0.00     0.201 C 
BRANCH  14  15
HETATM   15  O5  UNL     1      -5.214  -0.512  16.737  1.00  0.00    -0.387 OA
ATOM     16  H5  UNL     1      -5.706  -0.790  17.500  1.00  0.00     0.210 HD
ENDBRANCH  14  15
BRANCH  14  17
HETATM   17  C8  UNL     1      -5.804   1.644  17.284  1.00  0.00     0.014 C 
HETATM   18  C9  UNL     1      -5.826   2.273  18.666  1.00  0.00     0.012 C 
HETATM   19  C10 UNL     1      -7.139   1.131  16.920  1.00  0.00     0.012 C 
ENDBRANCH  14  17
ENDBRANCH  12  14
ENDBRANCH   9  12
ENDBRANCH   2   8
BRANCH   1  20
HETATM   20  C2  UNL     1      -3.756   3.584  11.969  1.00  0.00     0.294 C 
BRANCH  20  21
HETATM   21  O1  UNL     1      -2.572   3.018  12.500  1.00  0.00    -0.362 OA
HETATM   22  C1  UNL     1      -1.448   3.487  11.829  1.00  0.00     0.205 C 
ENDBRANCH  20  21
BRANCH  20  23
HETATM   23  O2  UNL     1      -4.711   2.542  12.070  1.00  0.00    -0.367 OA
ATOM     24  H2  UNL     1      -4.535   2.149  12.916  1.00  0.00     0.213 HD
ENDBRANCH  20  23
ENDBRANCH   1  20
BRANCH   5  25
HETATM   25  C14 UNL     1      -4.537   8.393  12.457  1.00  0.00     0.138 C 
HETATM   26  C15 UNL     1      -4.938   9.398  13.503  1.00  0.00     0.056 C 
HETATM   27 CL1  UNL     1      -2.920   8.803  11.875  1.00  0.00    -0.097 Cl
HETATM   28 CL2  UNL     1      -5.708   8.402  11.116  1.00  0.00    -0.097 Cl
ENDBRANCH   5  25
TORSDOF 9
ENDMDL
