MODEL 1
REMARK VINA RESULT: -8.365075978      0.000      0.000
REMARK  11 active torsions:
REMARK  status: ('A' for Active; 'I' for Inactive)
REMARK    1  A    between atoms: O1_2  and  C2_3 
REMARK    2  A    between atoms: C2_3  and  C3_4 
REMARK    3  A    between atoms: C3_4  and  N1_5 
REMARK    4  A    between atoms: N1_5  and  C4_7 
REMARK    5  A    between atoms: C5_10  and  N3_11 
REMARK    6  A    between atoms: N3_11  and  C6_13 
REMARK    7  A    between atoms: C10_17  and  O2_18 
REMARK    8  A    between atoms: C13_23  and  N5_24 
REMARK    9  A    between atoms: N5_24  and  C14_26 
REMARK   10  A    between atoms: C19_31  and  O3_32 
REMARK   11  A    between atoms: O3_32  and  C20_33 
ROOT
HETATM    1  C4  UNL     1      -3.972   2.543  14.731  1.00  0.00     0.707 A 
HETATM    2  N2  UNL     1      -4.725   3.651  14.984  1.00  0.00    -0.021 N 
ATOM      3  H2  UNL     1      -4.946   3.896  15.949  1.00  0.00     0.203 HD
HETATM    4  C5  UNL     1      -5.189   4.440  13.972  1.00  0.00     0.711 A 
HETATM    5  N4  UNL     1      -4.901   4.121  12.701  1.00  0.00    -0.021 N 
ATOM      6  H4  UNL     1      -5.246   4.711  11.943  1.00  0.00     0.203 HD
HETATM    7  C13 UNL     1      -4.167   3.041  12.416  1.00  0.00     0.712 A 
HETATM    8  N6  UNL     1      -3.724   2.282  13.441  1.00  0.00    -0.021 N 
ATOM      9  H6  UNL     1      -3.165   1.458  13.219  1.00  0.00     0.203 HD
ENDROOT
BRANCH   7  10
HETATM   10  N5  UNL     1      -3.900   2.749  11.190  1.00  0.00    -0.188 N 
ATOM     11  H5  UNL     1      -4.655   2.486  10.557  1.00  0.00     0.184 HD
BRANCH  10  12
HETATM   12  C14 UNL     1      -2.567   2.791  10.711  1.00  0.00     0.082 A 
HETATM   13  C15 UNL     1      -2.059   3.914  10.086  1.00  0.00     0.033 A 
HETATM   14  C16 UNL     1      -0.756   3.955   9.619  1.00  0.00     0.002 A 
HETATM   15  C17 UNL     1       0.019   2.826   9.805  1.00  0.00     0.003 A 
HETATM   16  C18 UNL     1      -0.483   1.711  10.425  1.00  0.00     0.039 A 
HETATM   17  C19 UNL     1      -1.790   1.659  10.898  1.00  0.00     0.105 A 
BRANCH  17  18
HETATM   18  O3  UNL     1      -2.250   0.508  11.519  1.00  0.00    -0.253 OA
BRANCH  18  19
HETATM   19  C20 UNL     1      -2.829  -0.564  10.778  1.00  0.00     0.530 C 
HETATM   20  F1  UNL     1      -2.524  -0.448   9.432  1.00  0.00    -0.144 F 
HETATM   21  F2  UNL     1      -4.206  -0.518  10.884  1.00  0.00    -0.144 F 
HETATM   22  F3  UNL     1      -2.357  -1.783  11.244  1.00  0.00    -0.144 F 
ENDBRANCH  18  19
ENDBRANCH  17  18
ENDBRANCH  10  12
ENDBRANCH   7  10
BRANCH   4  23
HETATM   23  N3  UNL     1      -5.891   5.457  14.313  1.00  0.00    -0.191 N 
ATOM     24  H3  UNL     1      -6.892   5.336  14.461  1.00  0.00     0.184 HD
BRANCH  23  25
HETATM   25  C6  UNL     1      -5.338   6.718  14.487  1.00  0.00     0.051 A 
HETATM   26  C7  UNL     1      -6.128   7.858  14.306  1.00  0.00     0.030 A 
HETATM   27  C8  UNL     1      -5.576   9.105  14.503  1.00  0.00     0.005 A 
HETATM   28  C9  UNL     1      -4.274   9.295  14.873  1.00  0.00     0.037 A 
HETATM   29  C10 UNL     1      -3.480   8.165  15.056  1.00  0.00     0.070 A 
HETATM   30  C12 UNL     1      -4.025   6.915  14.860  1.00  0.00     0.066 A 
BRANCH  29  31
HETATM   31  O2  UNL     1      -2.166   8.219  15.427  1.00  0.00    -0.356 OA
HETATM   32  C11 UNL     1      -1.063   8.573  14.661  1.00  0.00     0.210 C 
ENDBRANCH  29  31
ENDBRANCH  23  25
ENDBRANCH   4  23
BRANCH   1  33
HETATM   33  N1  UNL     1      -3.566   1.838  15.729  1.00  0.00    -0.223 N 
ATOM     34  H1  UNL     1      -2.981   2.282  16.437  1.00  0.00     0.177 HD
BRANCH  33  35
HETATM   35  C3  UNL     1      -3.906   0.449  15.885  1.00  0.00     0.164 C 
BRANCH  35  36
HETATM   36  C2  UNL     1      -4.880   0.296  16.999  1.00  0.00     0.187 C 
BRANCH  36  37
HETATM   37  O1  UNL     1      -6.193   0.062  16.598  1.00  0.00    -0.394 OA
HETATM   38  C1  UNL     1      -7.006   1.177  16.802  1.00  0.00     0.201 C 
ENDBRANCH  36  37
ENDBRANCH  35  36
ENDBRANCH  33  35
ENDBRANCH   1  33
TORSDOF 11
ENDMDL
MODEL 2
REMARK VINA RESULT: -8.154900666      1.251      1.887
REMARK  11 active torsions:
REMARK  status: ('A' for Active; 'I' for Inactive)
REMARK    1  A    between atoms: O1_2  and  C2_3 
REMARK    2  A    between atoms: C2_3  and  C3_4 
REMARK    3  A    between atoms: C3_4  and  N1_5 
REMARK    4  A    between atoms: N1_5  and  C4_7 
REMARK    5  A    between atoms: C5_10  and  N3_11 
REMARK    6  A    between atoms: N3_11  and  C6_13 
REMARK    7  A    between atoms: C10_17  and  O2_18 
REMARK    8  A    between atoms: C13_23  and  N5_24 
REMARK    9  A    between atoms: N5_24  and  C14_26 
REMARK   10  A    between atoms: C19_31  and  O3_32 
REMARK   11  A    between atoms: O3_32  and  C20_33 
ROOT
HETATM    1  C4  UNL     1      -3.956   2.378  14.770  1.00  0.00     0.707 A 
HETATM    2  N2  UNL     1      -4.742   3.461  15.032  1.00  0.00    -0.021 N 
ATOM      3  H2  UNL     1      -4.960   3.698  16.000  1.00  0.00     0.203 HD
HETATM    4  C5  UNL     1      -5.242   4.235  14.026  1.00  0.00     0.711 A 
HETATM    5  N4  UNL     1      -4.958   3.927  12.752  1.00  0.00    -0.021 N 
ATOM      6  H4  UNL     1      -5.330   4.505  11.998  1.00  0.00     0.203 HD
HETATM    7  C13 UNL     1      -4.192   2.871  12.458  1.00  0.00     0.712 A 
HETATM    8  N6  UNL     1      -3.713   2.126  13.477  1.00  0.00    -0.021 N 
ATOM      9  H6  UNL     1      -3.130   1.321  13.248  1.00  0.00     0.203 HD
ENDROOT
BRANCH   7  10
HETATM   10  N5  UNL     1      -3.929   2.589  11.229  1.00  0.00    -0.188 N 
ATOM     11  H5  UNL     1      -4.674   2.260  10.615  1.00  0.00     0.184 HD
BRANCH  10  12
HETATM   12  C14 UNL     1      -2.614   2.730  10.721  1.00  0.00     0.082 A 
HETATM   13  C15 UNL     1      -2.212   3.879  10.066  1.00  0.00     0.033 A 
HETATM   14  C16 UNL     1      -0.926   4.017   9.570  1.00  0.00     0.002 A 
HETATM   15  C17 UNL     1      -0.058   2.959   9.758  1.00  0.00     0.003 A 
HETATM   16  C18 UNL     1      -0.455   1.818  10.408  1.00  0.00     0.039 A 
HETATM   17  C19 UNL     1      -1.743   1.669  10.909  1.00  0.00     0.105 A 
BRANCH  17  18
HETATM   18  O3  UNL     1      -2.095   0.496  11.559  1.00  0.00    -0.253 OA
BRANCH  18  19
HETATM   19  C20 UNL     1      -2.623  -0.624  10.853  1.00  0.00     0.530 C 
HETATM   20  F1  UNL     1      -1.846  -1.750  11.071  1.00  0.00    -0.144 F 
HETATM   21  F2  UNL     1      -2.598  -0.376   9.493  1.00  0.00    -0.144 F 
HETATM   22  F3  UNL     1      -3.922  -0.886  11.265  1.00  0.00    -0.144 F 
ENDBRANCH  18  19
ENDBRANCH  17  18
ENDBRANCH  10  12
ENDBRANCH   7  10
BRANCH   4  23
HETATM   23  N3  UNL     1      -5.973   5.229  14.375  1.00  0.00    -0.191 N 
ATOM     24  H3  UNL     1      -6.886   5.045  14.790  1.00  0.00     0.184 HD
BRANCH  23  25
HETATM   25  C6  UNL     1      -5.567   6.545  14.211  1.00  0.00     0.051 A 
HETATM   26  C7  UNL     1      -4.565   7.075  15.031  1.00  0.00     0.030 A 
HETATM   27  C8  UNL     1      -4.155   8.377  14.845  1.00  0.00     0.005 A 
HETATM   28  C9  UNL     1      -4.680   9.197  13.885  1.00  0.00     0.037 A 
HETATM   29  C10 UNL     1      -5.677   8.677  13.064  1.00  0.00     0.070 A 
HETATM   30  C12 UNL     1      -6.095   7.376  13.244  1.00  0.00     0.066 A 
BRANCH  29  31
HETATM   31  O2  UNL     1      -6.281   9.391  12.068  1.00  0.00    -0.356 OA
HETATM   32  C11 UNL     1      -6.802   8.932  10.865  1.00  0.00     0.210 C 
ENDBRANCH  29  31
ENDBRANCH  23  25
ENDBRANCH   4  23
BRANCH   1  33
HETATM   33  N1  UNL     1      -3.516   1.687  15.763  1.00  0.00    -0.223 N 
ATOM     34  H1  UNL     1      -2.877   2.129  16.424  1.00  0.00     0.177 HD
BRANCH  33  35
HETATM   35  C3  UNL     1      -3.891   0.314  15.977  1.00  0.00     0.164 C 
BRANCH  35  36
HETATM   36  C2  UNL     1      -4.953   0.243  17.016  1.00  0.00     0.187 C 
BRANCH  36  37
HETATM   37  O1  UNL     1      -6.251   0.153  16.519  1.00  0.00    -0.394 OA
HETATM   38  C1  UNL     1      -7.016   1.270  16.857  1.00  0.00     0.201 C 
ENDBRANCH  36  37
ENDBRANCH  35  36
ENDBRANCH  33  35
ENDBRANCH   1  33
TORSDOF 11
ENDMDL
MODEL 3
REMARK VINA RESULT: -8.045766454      3.508      7.341
REMARK  11 active torsions:
REMARK  status: ('A' for Active; 'I' for Inactive)
REMARK    1  A    between atoms: O1_2  and  C2_3 
REMARK    2  A    between atoms: C2_3  and  C3_4 
REMARK    3  A    between atoms: C3_4  and  N1_5 
REMARK    4  A    between atoms: N1_5  and  C4_7 
REMARK    5  A    between atoms: C5_10  and  N3_11 
REMARK    6  A    between atoms: N3_11  and  C6_13 
REMARK    7  A    between atoms: C10_17  and  O2_18 
REMARK    8  A    between atoms: C13_23  and  N5_24 
REMARK    9  A    between atoms: N5_24  and  C14_26 
REMARK   10  A    between atoms: C19_31  and  O3_32 
REMARK   11  A    between atoms: O3_32  and  C20_33 
ROOT
HETATM    1  C4  UNL     1      -5.062   3.646  14.077  1.00  0.00     0.707 A 
HETATM    2  N2  UNL     1      -4.985   2.722  13.077  1.00  0.00    -0.021 N 
ATOM      3  H2  UNL     1      -5.260   1.758  13.266  1.00  0.00     0.203 HD
HETATM    4  C5  UNL     1      -4.548   3.061  11.830  1.00  0.00     0.711 A 
HETATM    5  N4  UNL     1      -4.186   4.328  11.578  1.00  0.00    -0.021 N 
ATOM      6  H4  UNL     1      -3.861   4.584  10.645  1.00  0.00     0.203 HD
HETATM    7  C13 UNL     1      -4.248   5.260  12.534  1.00  0.00     0.712 A 
HETATM    8  N6  UNL     1      -4.685   4.891  13.758  1.00  0.00    -0.021 N 
ATOM      9  H6  UNL     1      -4.729   5.605  14.485  1.00  0.00     0.203 HD
ENDROOT
BRANCH   7  10
HETATM   10  N5  UNL     1      -3.896   6.472  12.276  1.00  0.00    -0.188 N 
ATOM     11  H5  UNL     1      -4.218   6.919  11.418  1.00  0.00     0.184 HD
BRANCH  10  12
HETATM   12  C14 UNL     1      -3.067   7.190  13.173  1.00  0.00     0.082 A 
HETATM   13  C15 UNL     1      -1.753   6.824  13.393  1.00  0.00     0.033 A 
HETATM   14  C16 UNL     1      -0.943   7.527  14.269  1.00  0.00     0.002 A 
HETATM   15  C17 UNL     1      -1.501   8.613  14.916  1.00  0.00     0.003 A 
HETATM   16  C18 UNL     1      -2.806   8.978  14.699  1.00  0.00     0.039 A 
HETATM   17  C19 UNL     1      -3.628   8.279  13.822  1.00  0.00     0.105 A 
BRANCH  17  18
HETATM   18  O3  UNL     1      -4.939   8.689  13.637  1.00  0.00    -0.253 OA
BRANCH  18  19
HETATM   19  C20 UNL     1      -5.942   8.464  14.625  1.00  0.00     0.530 C 
HETATM   20  F1  UNL     1      -7.183   8.302  14.033  1.00  0.00    -0.144 F 
HETATM   21  F2  UNL     1      -6.035   9.563  15.458  1.00  0.00    -0.144 F 
HETATM   22  F3  UNL     1      -5.644   7.330  15.367  1.00  0.00    -0.144 F 
ENDBRANCH  18  19
ENDBRANCH  17  18
ENDBRANCH  10  12
ENDBRANCH   7  10
BRANCH   4  23
HETATM   23  N3  UNL     1      -4.509   2.120  10.960  1.00  0.00    -0.191 N 
ATOM     24  H3  UNL     1      -5.259   2.055  10.273  1.00  0.00     0.184 HD
BRANCH  23  25
HETATM   25  C6  UNL     1      -3.483   1.186  10.918  1.00  0.00     0.051 A 
HETATM   26  C7  UNL     1      -2.170   1.601  10.676  1.00  0.00     0.030 A 
HETATM   27  C8  UNL     1      -1.156   0.669  10.658  1.00  0.00     0.005 A 
HETATM   28  C9  UNL     1      -1.364  -0.665  10.868  1.00  0.00     0.037 A 
HETATM   29  C10 UNL     1      -2.668  -1.088  11.110  1.00  0.00     0.070 A 
HETATM   30  C12 UNL     1      -3.689  -0.162  11.128  1.00  0.00     0.066 A 
BRANCH  29  31
HETATM   31  O2  UNL     1      -3.009  -2.392  11.335  1.00  0.00    -0.356 OA
HETATM   32  C11 UNL     1      -2.328  -3.543  10.963  1.00  0.00     0.210 C 
ENDBRANCH  29  31
ENDBRANCH  23  25
ENDBRANCH   4  23
BRANCH   1  33
HETATM   33  N1  UNL     1      -5.481   3.263  15.233  1.00  0.00    -0.223 N 
ATOM     34  H1  UNL     1      -6.031   3.912  15.795  1.00  0.00     0.177 HD
BRANCH  33  35
HETATM   35  C3  UNL     1      -5.202   1.955  15.762  1.00  0.00     0.164 C 
BRANCH  35  36
HETATM   36  C2  UNL     1      -3.777   1.881  16.186  1.00  0.00     0.187 C 
BRANCH  36  37
HETATM   37  O1  UNL     1      -3.176   0.639  15.998  1.00  0.00    -0.394 OA
HETATM   38  C1  UNL     1      -3.757  -0.065  14.943  1.00  0.00     0.201 C 
ENDBRANCH  36  37
ENDBRANCH  35  36
ENDBRANCH  33  35
ENDBRANCH   1  33
TORSDOF 11
ENDMDL
MODEL 4
REMARK VINA RESULT: -8.034912710      3.896      7.373
REMARK  11 active torsions:
REMARK  status: ('A' for Active; 'I' for Inactive)
REMARK    1  A    between atoms: O1_2  and  C2_3 
REMARK    2  A    between atoms: C2_3  and  C3_4 
REMARK    3  A    between atoms: C3_4  and  N1_5 
REMARK    4  A    between atoms: N1_5  and  C4_7 
REMARK    5  A    between atoms: C5_10  and  N3_11 
REMARK    6  A    between atoms: N3_11  and  C6_13 
REMARK    7  A    between atoms: C10_17  and  O2_18 
REMARK    8  A    between atoms: C13_23  and  N5_24 
REMARK    9  A    between atoms: N5_24  and  C14_26 
REMARK   10  A    between atoms: C19_31  and  O3_32 
REMARK   11  A    between atoms: O3_32  and  C20_33 
ROOT
HETATM    1  C4  UNL     1      -5.156   3.687  14.249  1.00  0.00     0.707 A 
HETATM    2  N2  UNL     1      -5.036   2.830  13.195  1.00  0.00    -0.021 N 
ATOM      3  H2  UNL     1      -5.264   1.844  13.324  1.00  0.00     0.203 HD
HETATM    4  C5  UNL     1      -4.617   3.264  11.971  1.00  0.00     0.711 A 
HETATM    5  N4  UNL     1      -4.316   4.560  11.797  1.00  0.00    -0.021 N 
ATOM      6  H4  UNL     1      -4.005   4.887  10.883  1.00  0.00     0.203 HD
HETATM    7  C13 UNL     1      -4.422   5.428  12.808  1.00  0.00     0.712 A 
HETATM    8  N6  UNL     1      -4.839   4.965  14.006  1.00  0.00    -0.021 N 
ATOM      9  H6  UNL     1      -4.917   5.631  14.776  1.00  0.00     0.203 HD
ENDROOT
BRANCH   7  10
HETATM   10  N5  UNL     1      -4.129   6.669  12.625  1.00  0.00    -0.188 N 
ATOM     11  H5  UNL     1      -3.347   7.084  13.132  1.00  0.00     0.184 HD
BRANCH  10  12
HETATM   12  C14 UNL     1      -4.882   7.464  11.726  1.00  0.00     0.082 A 
HETATM   13  C15 UNL     1      -4.394   7.801  10.477  1.00  0.00     0.033 A 
HETATM   14  C16 UNL     1      -5.131   8.577   9.598  1.00  0.00     0.002 A 
HETATM   15  C17 UNL     1      -6.376   9.001  10.018  1.00  0.00     0.003 A 
HETATM   16  C18 UNL     1      -6.862   8.668  11.257  1.00  0.00     0.039 A 
HETATM   17  C19 UNL     1      -6.131   7.889  12.148  1.00  0.00     0.105 A 
BRANCH  17  18
HETATM   18  O3  UNL     1      -6.667   7.579  13.388  1.00  0.00    -0.253 OA
BRANCH  18  19
HETATM   19  C20 UNL     1      -6.413   8.383  14.537  1.00  0.00     0.530 C 
HETATM   20  F1  UNL     1      -5.671   9.502  14.197  1.00  0.00    -0.144 F 
HETATM   21  F2  UNL     1      -5.664   7.669  15.454  1.00  0.00    -0.144 F 
HETATM   22  F3  UNL     1      -7.606   8.792  15.115  1.00  0.00    -0.144 F 
ENDBRANCH  18  19
ENDBRANCH  17  18
ENDBRANCH  10  12
ENDBRANCH   7  10
BRANCH   4  23
HETATM   23  N3  UNL     1      -4.534   2.381  11.046  1.00  0.00    -0.191 N 
ATOM     24  H3  UNL     1      -5.260   2.349  10.331  1.00  0.00     0.184 HD
BRANCH  23  25
HETATM   25  C6  UNL     1      -3.492   1.466  10.980  1.00  0.00     0.051 A 
HETATM   26  C7  UNL     1      -2.192   1.906  10.714  1.00  0.00     0.030 A 
HETATM   27  C8  UNL     1      -1.161   0.993  10.673  1.00  0.00     0.005 A 
HETATM   28  C9  UNL     1      -1.341  -0.346  10.882  1.00  0.00     0.037 A 
HETATM   29  C10 UNL     1      -2.632  -0.793  11.148  1.00  0.00     0.070 A 
HETATM   30  C12 UNL     1      -3.669   0.114  11.190  1.00  0.00     0.066 A 
BRANCH  29  31
HETATM   31  O2  UNL     1      -2.945  -2.104  11.376  1.00  0.00    -0.356 OA
HETATM   32  C11 UNL     1      -2.253  -3.241  10.982  1.00  0.00     0.210 C 
ENDBRANCH  29  31
ENDBRANCH  23  25
ENDBRANCH   4  23
BRANCH   1  33
HETATM   33  N1  UNL     1      -5.555   3.215  15.378  1.00  0.00    -0.223 N 
ATOM     34  H1  UNL     1      -6.125   3.806  15.983  1.00  0.00     0.177 HD
BRANCH  33  35
HETATM   35  C3  UNL     1      -5.226   1.886  15.821  1.00  0.00     0.164 C 
BRANCH  35  36
HETATM   36  C2  UNL     1      -3.797   1.836  16.231  1.00  0.00     0.187 C 
BRANCH  36  37
HETATM   37  O1  UNL     1      -3.161   0.621  15.984  1.00  0.00    -0.394 OA
HETATM   38  C1  UNL     1      -3.770  -0.082  14.945  1.00  0.00     0.201 C 
ENDBRANCH  36  37
ENDBRANCH  35  36
ENDBRANCH  33  35
ENDBRANCH   1  33
TORSDOF 11
ENDMDL
MODEL 5
REMARK VINA RESULT: -8.020004534      2.381      2.872
REMARK  11 active torsions:
REMARK  status: ('A' for Active; 'I' for Inactive)
REMARK    1  A    between atoms: O1_2  and  C2_3 
REMARK    2  A    between atoms: C2_3  and  C3_4 
REMARK    3  A    between atoms: C3_4  and  N1_5 
REMARK    4  A    between atoms: N1_5  and  C4_7 
REMARK    5  A    between atoms: C5_10  and  N3_11 
REMARK    6  A    between atoms: N3_11  and  C6_13 
REMARK    7  A    between atoms: C10_17  and  O2_18 
REMARK    8  A    between atoms: C13_23  and  N5_24 
REMARK    9  A    between atoms: N5_24  and  C14_26 
REMARK   10  A    between atoms: C19_31  and  O3_32 
REMARK   11  A    between atoms: O3_32  and  C20_33 
ROOT
HETATM    1  C4  UNL     1      -4.075   2.307  14.954  1.00  0.00     0.707 A 
HETATM    2  N2  UNL     1      -4.779   3.447  15.210  1.00  0.00    -0.021 N 
ATOM      3  H2  UNL     1      -4.974   3.707  16.177  1.00  0.00     0.203 HD
HETATM    4  C5  UNL     1      -5.228   4.245  14.199  1.00  0.00     0.711 A 
HETATM    5  N4  UNL     1      -4.973   3.907  12.926  1.00  0.00    -0.021 N 
ATOM      6  H4  UNL     1      -5.307   4.504  12.169  1.00  0.00     0.203 HD
HETATM    7  C13 UNL     1      -4.287   2.796  12.638  1.00  0.00     0.712 A 
HETATM    8  N6  UNL     1      -3.858   2.028  13.662  1.00  0.00    -0.021 N 
ATOM      9  H6  UNL     1      -3.336   1.180  13.438  1.00  0.00     0.203 HD
ENDROOT
BRANCH   7  10
HETATM   10  N5  UNL     1      -4.052   2.485  11.411  1.00  0.00    -0.188 N 
ATOM     11  H5  UNL     1      -4.824   2.220  10.799  1.00  0.00     0.184 HD
BRANCH  10  12
HETATM   12  C14 UNL     1      -2.730   2.506  10.901  1.00  0.00     0.082 A 
HETATM   13  C15 UNL     1      -1.953   1.364  10.859  1.00  0.00     0.033 A 
HETATM   14  C16 UNL     1      -0.661   1.385  10.360  1.00  0.00     0.002 A 
HETATM   15  C17 UNL     1      -0.179   2.596   9.902  1.00  0.00     0.003 A 
HETATM   16  C18 UNL     1      -0.949   3.731   9.942  1.00  0.00     0.039 A 
HETATM   17  C19 UNL     1      -2.246   3.721  10.441  1.00  0.00     0.105 A 
BRANCH  17  18
HETATM   18  O3  UNL     1      -2.984   4.894  10.459  1.00  0.00    -0.253 OA
BRANCH  18  19
HETATM   19  C20 UNL     1      -2.679   5.958  11.357  1.00  0.00     0.530 C 
HETATM   20  F1  UNL     1      -1.714   6.792  10.818  1.00  0.00    -0.144 F 
HETATM   21  F2  UNL     1      -2.158   5.448  12.531  1.00  0.00    -0.144 F 
HETATM   22  F3  UNL     1      -3.818   6.704  11.628  1.00  0.00    -0.144 F 
ENDBRANCH  18  19
ENDBRANCH  17  18
ENDBRANCH  10  12
ENDBRANCH   7  10
BRANCH   4  23
HETATM   23  N3  UNL     1      -5.883   5.293  14.543  1.00  0.00    -0.191 N 
ATOM     24  H3  UNL     1      -6.859   5.192  14.820  1.00  0.00     0.184 HD
BRANCH  23  25
HETATM   25  C6  UNL     1      -5.313   6.558  14.552  1.00  0.00     0.051 A 
HETATM   26  C7  UNL     1      -6.071   7.668  14.165  1.00  0.00     0.030 A 
HETATM   27  C8  UNL     1      -5.502   8.922  14.198  1.00  0.00     0.005 A 
HETATM   28  C9  UNL     1      -4.215   9.149  14.597  1.00  0.00     0.037 A 
HETATM   29  C10 UNL     1      -3.454   8.049  14.985  1.00  0.00     0.070 A 
HETATM   30  C12 UNL     1      -4.014   6.791  14.954  1.00  0.00     0.066 A 
BRANCH  29  31
HETATM   31  O2  UNL     1      -2.157   8.141  15.406  1.00  0.00    -0.356 OA
HETATM   32  C11 UNL     1      -0.996   8.150  14.643  1.00  0.00     0.210 C 
ENDBRANCH  29  31
ENDBRANCH  23  25
ENDBRANCH   4  23
BRANCH   1  33
HETATM   33  N1  UNL     1      -3.681   1.595  15.951  1.00  0.00    -0.223 N 
ATOM     34  H1  UNL     1      -2.773   1.134  15.896  1.00  0.00     0.177 HD
BRANCH  33  35
HETATM   35  C3  UNL     1      -4.472   1.423  17.140  1.00  0.00     0.164 C 
BRANCH  35  36
HETATM   36  C2  UNL     1      -5.090   0.068  17.137  1.00  0.00     0.187 C 
BRANCH  36  37
HETATM   37  O1  UNL     1      -6.372   0.012  16.596  1.00  0.00    -0.394 OA
HETATM   38  C1  UNL     1      -7.088   1.185  16.834  1.00  0.00     0.201 C 
ENDBRANCH  36  37
ENDBRANCH  35  36
ENDBRANCH  33  35
ENDBRANCH   1  33
TORSDOF 11
ENDMDL
