MODEL 1
REMARK VINA RESULT: -9.235498667      0.000      0.000
REMARK  2 active torsions:
REMARK  status: ('A' for Active; 'I' for Inactive)
REMARK    1  A    between atoms: N1_2  and  C2_4 
REMARK       I    between atoms: N3_13  and  C9_14 
REMARK       I    between atoms: C9_14  and  N5_16 
REMARK       I    between atoms: N5_16  and  C10_18 
REMARK       I    between atoms: C10_18  and  N8_29 
REMARK    2  A    between atoms: N6_19  and  C11_21 
ROOT
HETATM    1  C2  UNL     1       1.301  20.505  33.716  1.00  0.00     0.687 A 
HETATM    2  N2  UNL     1       2.303  19.729  33.261  1.00  0.00    -0.189 N 
ATOM      3  H2  UNL     1       2.185  18.861  32.739  1.00  0.00     0.184 HD
HETATM    4  C3  UNL     1       3.481  20.273  33.598  1.00  0.00     0.077 A 
HETATM    5  C4  UNL     1       4.796  19.932  33.406  1.00  0.00     0.032 A 
HETATM    6  C5  UNL     1       5.851  20.691  33.870  1.00  0.00     0.002 A 
HETATM    7  C6  UNL     1       5.556  21.864  34.570  1.00  0.00     0.002 A 
HETATM    8  C7  UNL     1       4.257  22.230  34.779  1.00  0.00     0.033 A 
HETATM    9  C8  UNL     1       3.226  21.456  34.306  1.00  0.00     0.087 A 
HETATM   10  N3  UNL     1       1.883  21.555  34.351  1.00  0.00    -0.116 N 
HETATM   11  C9  UNL     1       1.136  22.603  34.973  1.00  0.00     0.229 C 
HETATM   12  N4  UNL     1       1.211  22.904  36.339  1.00  0.00    -0.062 NA
HETATM   13  N5  UNL     1       0.345  23.311  34.240  1.00  0.00    -0.161 N 
ATOM     14  H5  UNL     1       0.281  23.099  33.244  1.00  0.00     0.187 HD
HETATM   15  C10 UNL     1      -0.442  24.377  34.763  1.00  0.00     0.694 C 
HETATM   16  N6  UNL     1      -1.574  24.126  35.323  1.00  0.00    -0.190 N 
ATOM     17  H6  UNL     1      -1.856  23.146  35.364  1.00  0.00     0.184 HD
HETATM   18  N8  UNL     1      -0.032  25.732  34.690  1.00  0.00    -0.126 N 
ATOM     19  H8  UNL     1      -0.702  26.472  34.478  1.00  0.00     0.197 HD
HETATM   20  C17 UNL     1       1.314  26.026  34.915  1.00  0.00     0.196 C 
HETATM   21  N9  UNL     1       2.442  26.252  35.094  1.00  0.00    -0.171 NA
ENDROOT
BRANCH  16  22
HETATM   22  C11 UNL     1      -2.459  25.058  35.882  1.00  0.00     0.065 A 
HETATM   23  C12 UNL     1      -3.639  25.390  35.264  1.00  0.00     0.117 A 
HETATM   24  N7  UNL     1      -4.527  26.279  35.765  1.00  0.00    -0.373 N 
HETATM   25  C13 UNL     1      -4.293  26.907  36.933  1.00  0.00     0.094 A 
ATOM     26  H7  UNL     1      -5.385  26.477  35.251  1.00  0.00     0.164 HD
HETATM   27  C14 UNL     1      -3.115  26.603  37.589  1.00  0.00    -0.044 A 
HETATM   28  C15 UNL     1      -2.850  27.292  38.878  1.00  0.00     0.049 C 
HETATM   29  C16 UNL     1      -2.199  25.702  37.097  1.00  0.00     0.039 A 
ENDBRANCH  16  22
BRANCH   1  30
HETATM   30  N1  UNL     1       0.026  20.335  33.600  1.00  0.00    -0.230 N 
HETATM   31  C1  UNL     1      -0.680  19.361  34.422  1.00  0.00     0.165 C 
ATOM     32  H1  UNL     1      -0.496  20.891  32.922  1.00  0.00     0.177 HD
ENDBRANCH   1  30
TORSDOF 2
ENDMDL
MODEL 2
REMARK VINA RESULT: -9.187320546      1.748      1.966
REMARK  2 active torsions:
REMARK  status: ('A' for Active; 'I' for Inactive)
REMARK    1  A    between atoms: N1_2  and  C2_4 
REMARK       I    between atoms: N3_13  and  C9_14 
REMARK       I    between atoms: C9_14  and  N5_16 
REMARK       I    between atoms: N5_16  and  C10_18 
REMARK       I    between atoms: C10_18  and  N8_29 
REMARK    2  A    between atoms: N6_19  and  C11_21 
ROOT
HETATM    1  C2  UNL     1       2.365  20.148  35.774  1.00  0.00     0.687 A 
HETATM    2  N2  UNL     1       3.446  19.489  35.313  1.00  0.00    -0.189 N 
ATOM      3  H2  UNL     1       3.711  18.539  35.574  1.00  0.00     0.184 HD
HETATM    4  C3  UNL     1       4.119  20.273  34.459  1.00  0.00     0.077 A 
HETATM    5  C4  UNL     1       5.259  20.132  33.709  1.00  0.00     0.032 A 
HETATM    6  C5  UNL     1       5.751  21.124  32.885  1.00  0.00     0.002 A 
HETATM    7  C6  UNL     1       5.046  22.329  32.818  1.00  0.00     0.002 A 
HETATM    8  C7  UNL     1       3.908  22.499  33.553  1.00  0.00     0.033 A 
HETATM    9  C8  UNL     1       3.441  21.496  34.365  1.00  0.00     0.087 A 
HETATM   10  N3  UNL     1       2.378  21.371  35.184  1.00  0.00    -0.116 N 
HETATM   11  C9  UNL     1       1.380  22.365  35.427  1.00  0.00     0.229 C 
HETATM   12  N4  UNL     1       1.659  23.627  35.968  1.00  0.00    -0.062 NA
HETATM   13  N5  UNL     1       0.154  22.089  35.136  1.00  0.00    -0.161 N 
ATOM     14  H5  UNL     1      -0.060  21.172  34.743  1.00  0.00     0.187 HD
HETATM   15  C10 UNL     1      -0.913  23.010  35.339  1.00  0.00     0.694 C 
HETATM   16  N6  UNL     1      -1.462  23.112  36.500  1.00  0.00    -0.190 N 
ATOM     17  H6  UNL     1      -1.091  22.509  37.235  1.00  0.00     0.184 HD
HETATM   18  N8  UNL     1      -1.414  23.835  34.301  1.00  0.00    -0.126 N 
ATOM     19  H8  UNL     1      -2.415  24.005  34.204  1.00  0.00     0.197 HD
HETATM   20  C17 UNL     1      -0.500  24.408  33.415  1.00  0.00     0.196 C 
HETATM   21  N9  UNL     1       0.275  24.868  32.678  1.00  0.00    -0.171 NA
ENDROOT
BRANCH  16  22
HETATM   22  C11 UNL     1      -2.514  23.966  36.859  1.00  0.00     0.065 A 
HETATM   23  C12 UNL     1      -3.824  23.637  36.609  1.00  0.00     0.117 A 
HETATM   24  N7  UNL     1      -4.873  24.424  36.938  1.00  0.00    -0.373 N 
HETATM   25  C13 UNL     1      -4.684  25.609  37.548  1.00  0.00     0.094 A 
ATOM     26  H7  UNL     1      -5.821  24.115  36.722  1.00  0.00     0.164 HD
HETATM   27  C14 UNL     1      -3.381  25.980  37.819  1.00  0.00    -0.044 A 
HETATM   28  C15 UNL     1      -3.165  27.288  38.491  1.00  0.00     0.049 C 
HETATM   29  C16 UNL     1      -2.299  25.195  37.491  1.00  0.00     0.039 A 
ENDBRANCH  16  22
BRANCH   1  30
HETATM   30  N1  UNL     1       1.464  19.746  36.608  1.00  0.00    -0.230 N 
HETATM   31  C1  UNL     1       1.770  19.581  38.022  1.00  0.00     0.165 C 
ATOM     32  H1  UNL     1       0.523  19.542  36.271  1.00  0.00     0.177 HD
ENDBRANCH   1  30
TORSDOF 2
ENDMDL
MODEL 3
REMARK VINA RESULT: -8.947673579      2.164      2.552
REMARK  2 active torsions:
REMARK  status: ('A' for Active; 'I' for Inactive)
REMARK    1  A    between atoms: N1_2  and  C2_4 
REMARK       I    between atoms: N3_13  and  C9_14 
REMARK       I    between atoms: C9_14  and  N5_16 
REMARK       I    between atoms: N5_16  and  C10_18 
REMARK       I    between atoms: C10_18  and  N8_29 
REMARK    2  A    between atoms: N6_19  and  C11_21 
ROOT
HETATM    1  C2  UNL     1       1.920  21.139  33.226  1.00  0.00     0.687 A 
HETATM    2  N2  UNL     1       3.019  20.996  32.461  1.00  0.00    -0.189 N 
ATOM      3  H2  UNL     1       3.228  20.186  31.878  1.00  0.00     0.184 HD
HETATM    4  C3  UNL     1       3.796  22.081  32.584  1.00  0.00     0.077 A 
HETATM    5  C4  UNL     1       5.000  22.475  32.055  1.00  0.00     0.032 A 
HETATM    6  C5  UNL     1       5.600  23.682  32.355  1.00  0.00     0.002 A 
HETATM    7  C6  UNL     1       4.942  24.538  33.242  1.00  0.00     0.002 A 
HETATM    8  C7  UNL     1       3.744  24.173  33.786  1.00  0.00     0.033 A 
HETATM    9  C8  UNL     1       3.169  22.967  33.471  1.00  0.00     0.087 A 
HETATM   10  N3  UNL     1       2.028  22.348  33.835  1.00  0.00    -0.116 N 
HETATM   11  C9  UNL     1       1.043  22.861  34.735  1.00  0.00     0.229 C 
HETATM   12  N4  UNL     1       1.306  23.178  36.074  1.00  0.00    -0.062 NA
HETATM   13  N5  UNL     1      -0.157  23.039  34.296  1.00  0.00    -0.161 N 
ATOM     14  H5  UNL     1      -0.360  22.809  33.323  1.00  0.00     0.187 HD
HETATM   15  C10 UNL     1      -1.210  23.543  35.112  1.00  0.00     0.694 C 
HETATM   16  N6  UNL     1      -1.865  22.745  35.881  1.00  0.00    -0.190 N 
ATOM     17  H6  UNL     1      -1.587  21.764  35.865  1.00  0.00     0.184 HD
HETATM   18  N8  UNL     1      -1.581  24.911  35.114  1.00  0.00    -0.126 N 
ATOM     19  H8  UNL     1      -2.562  25.188  35.154  1.00  0.00     0.197 HD
HETATM   20  C17 UNL     1      -0.568  25.869  35.059  1.00  0.00     0.196 C 
HETATM   21  N9  UNL     1       0.289  26.655  35.001  1.00  0.00    -0.171 NA
ENDROOT
BRANCH  16  22
HETATM   22  C11 UNL     1      -2.921  23.086  36.739  1.00  0.00     0.065 A 
HETATM   23  C12 UNL     1      -2.729  23.235  38.091  1.00  0.00     0.117 A 
HETATM   24  N7  UNL     1      -3.713  23.567  38.958  1.00  0.00    -0.373 N 
HETATM   25  C13 UNL     1      -4.972  23.773  38.529  1.00  0.00     0.094 A 
ATOM     26  H7  UNL     1      -3.497  23.661  39.950  1.00  0.00     0.164 HD
HETATM   27  C14 UNL     1      -5.210  23.633  37.175  1.00  0.00    -0.044 A 
HETATM   28  C15 UNL     1      -6.597  23.859  36.695  1.00  0.00     0.049 C 
HETATM   29  C16 UNL     1      -4.224  23.296  36.276  1.00  0.00     0.039 A 
ENDBRANCH  16  22
BRANCH   1  30
HETATM   30  N1  UNL     1       0.930  20.325  33.385  1.00  0.00    -0.230 N 
HETATM   31  C1  UNL     1       0.947  19.320  34.439  1.00  0.00     0.165 C 
ATOM     32  H1  UNL     1       0.123  20.388  32.764  1.00  0.00     0.177 HD
ENDBRANCH   1  30
TORSDOF 2
ENDMDL
MODEL 4
REMARK VINA RESULT: -8.827530537      0.773      1.424
REMARK  2 active torsions:
REMARK  status: ('A' for Active; 'I' for Inactive)
REMARK    1  A    between atoms: N1_2  and  C2_4 
REMARK       I    between atoms: N3_13  and  C9_14 
REMARK       I    between atoms: C9_14  and  N5_16 
REMARK       I    between atoms: N5_16  and  C10_18 
REMARK       I    between atoms: C10_18  and  N8_29 
REMARK    2  A    between atoms: N6_19  and  C11_21 
ROOT
HETATM    1  C2  UNL     1       1.342  20.479  33.814  1.00  0.00     0.687 A 
HETATM    2  N2  UNL     1       2.403  19.735  33.450  1.00  0.00    -0.189 N 
ATOM      3  H2  UNL     1       2.356  18.845  32.953  1.00  0.00     0.184 HD
HETATM    4  C3  UNL     1       3.532  20.342  33.841  1.00  0.00     0.077 A 
HETATM    5  C4  UNL     1       4.871  20.054  33.743  1.00  0.00     0.032 A 
HETATM    6  C5  UNL     1       5.861  20.874  34.245  1.00  0.00     0.002 A 
HETATM    7  C6  UNL     1       5.471  22.055  34.883  1.00  0.00     0.002 A 
HETATM    8  C7  UNL     1       4.147  22.369  34.997  1.00  0.00     0.033 A 
HETATM    9  C8  UNL     1       3.183  21.535  34.488  1.00  0.00     0.087 A 
HETATM   10  N3  UNL     1       1.836  21.574  34.446  1.00  0.00    -0.116 N 
HETATM   11  C9  UNL     1       1.007  22.608  34.982  1.00  0.00     0.229 C 
HETATM   12  N4  UNL     1       0.982  22.957  36.338  1.00  0.00    -0.062 NA
HETATM   13  N5  UNL     1       0.235  23.256  34.176  1.00  0.00    -0.161 N 
ATOM     14  H5  UNL     1       0.244  23.009  33.187  1.00  0.00     0.187 HD
HETATM   15  C10 UNL     1      -0.629  24.302  34.611  1.00  0.00     0.694 C 
HETATM   16  N6  UNL     1      -1.782  24.018  35.108  1.00  0.00    -0.190 N 
ATOM     17  H6  UNL     1      -2.024  23.029  35.166  1.00  0.00     0.184 HD
HETATM   18  N8  UNL     1      -0.272  25.671  34.515  1.00  0.00    -0.126 N 
ATOM     19  H8  UNL     1      -0.958  26.373  34.236  1.00  0.00     0.197 HD
HETATM   20  C17 UNL     1       1.042  26.032  34.814  1.00  0.00     0.196 C 
HETATM   21  N9  UNL     1       2.146  26.314  35.055  1.00  0.00    -0.171 NA
ENDROOT
BRANCH  16  22
HETATM   22  C11 UNL     1      -2.740  24.928  35.577  1.00  0.00     0.065 A 
HETATM   23  C12 UNL     1      -2.715  25.396  36.868  1.00  0.00     0.117 A 
HETATM   24  N7  UNL     1      -3.613  26.276  37.367  1.00  0.00    -0.373 N 
HETATM   25  C13 UNL     1      -4.610  26.756  36.600  1.00  0.00     0.094 A 
ATOM     26  H7  UNL     1      -3.533  26.581  38.337  1.00  0.00     0.164 HD
HETATM   27  C14 UNL     1      -4.673  26.312  35.293  1.00  0.00    -0.044 A 
HETATM   28  C15 UNL     1      -5.771  26.837  34.441  1.00  0.00     0.049 C 
HETATM   29  C16 UNL     1      -3.770  25.416  34.767  1.00  0.00     0.039 A 
ENDBRANCH  16  22
BRANCH   1  30
HETATM   30  N1  UNL     1       0.085  20.248  33.624  1.00  0.00    -0.230 N 
HETATM   31  C1  UNL     1      -0.645  19.323  34.479  1.00  0.00     0.165 C 
ATOM     32  H1  UNL     1      -0.404  20.722  32.865  1.00  0.00     0.177 HD
ENDBRANCH   1  30
TORSDOF 2
ENDMDL
MODEL 5
REMARK VINA RESULT: -8.797504128      2.456      3.134
REMARK  2 active torsions:
REMARK  status: ('A' for Active; 'I' for Inactive)
REMARK    1  A    between atoms: N1_2  and  C2_4 
REMARK       I    between atoms: N3_13  and  C9_14 
REMARK       I    between atoms: C9_14  and  N5_16 
REMARK       I    between atoms: N5_16  and  C10_18 
REMARK       I    between atoms: C10_18  and  N8_29 
REMARK    2  A    between atoms: N6_19  and  C11_21 
ROOT
HETATM    1  C2  UNL     1       2.535  21.518  34.589  1.00  0.00     0.687 A 
HETATM    2  N2  UNL     1       3.684  21.456  33.889  1.00  0.00    -0.189 N 
ATOM      3  H2  UNL     1       4.209  20.604  33.695  1.00  0.00     0.184 HD
HETATM    4  C3  UNL     1       4.030  22.686  33.484  1.00  0.00     0.077 A 
HETATM    5  C4  UNL     1       5.070  23.210  32.759  1.00  0.00     0.032 A 
HETATM    6  C5  UNL     1       5.193  24.555  32.474  1.00  0.00     0.002 A 
HETATM    7  C6  UNL     1       4.204  25.419  32.951  1.00  0.00     0.002 A 
HETATM    8  C7  UNL     1       3.156  24.928  33.677  1.00  0.00     0.033 A 
HETATM    9  C8  UNL     1       3.058  23.585  33.946  1.00  0.00     0.087 A 
HETATM   10  N3  UNL     1       2.168  22.826  34.614  1.00  0.00    -0.116 N 
HETATM   11  C9  UNL     1       0.987  23.293  35.271  1.00  0.00     0.229 C 
HETATM   12  N4  UNL     1       1.001  24.216  36.325  1.00  0.00    -0.062 NA
HETATM   13  N5  UNL     1      -0.155  22.840  34.878  1.00  0.00    -0.161 N 
ATOM     14  H5  UNL     1      -0.176  22.166  34.112  1.00  0.00     0.187 HD
HETATM   15  C10 UNL     1      -1.388  23.243  35.467  1.00  0.00     0.694 C 
HETATM   16  N6  UNL     1      -1.801  22.672  36.545  1.00  0.00    -0.190 N 
ATOM     17  H6  UNL     1      -1.205  21.940  36.932  1.00  0.00     0.184 HD
HETATM   18  N8  UNL     1      -2.201  24.260  34.908  1.00  0.00    -0.126 N 
ATOM     19  H8  UNL     1      -3.217  24.168  34.891  1.00  0.00     0.197 HD
HETATM   20  C17 UNL     1      -1.575  25.391  34.382  1.00  0.00     0.196 C 
HETATM   21  N9  UNL     1      -1.035  26.321  33.937  1.00  0.00    -0.171 NA
ENDROOT
BRANCH  16  22
HETATM   22  C11 UNL     1      -2.984  22.954  37.242  1.00  0.00     0.065 A 
HETATM   23  C12 UNL     1      -2.989  23.146  38.602  1.00  0.00     0.117 A 
HETATM   24  N7  UNL     1      -4.102  23.423  39.318  1.00  0.00    -0.373 N 
HETATM   25  C13 UNL     1      -5.303  23.529  38.718  1.00  0.00     0.094 A 
ATOM     26  H7  UNL     1      -4.031  23.554  40.327  1.00  0.00     0.164 HD
HETATM   27  C14 UNL     1      -5.344  23.343  37.349  1.00  0.00    -0.044 A 
HETATM   28  C15 UNL     1      -6.665  23.458  36.680  1.00  0.00     0.049 C 
HETATM   29  C16 UNL     1      -4.223  23.059  36.602  1.00  0.00     0.039 A 
ENDBRANCH  16  22
BRANCH   1  30
HETATM   30  N1  UNL     1       1.871  20.561  35.146  1.00  0.00    -0.230 N 
HETATM   31  C1  UNL     1       2.475  19.731  36.180  1.00  0.00     0.165 C 
ATOM     32  H1  UNL     1       0.909  20.383  34.858  1.00  0.00     0.177 HD
ENDBRANCH   1  30
TORSDOF 2
ENDMDL
