MODEL 1
REMARK VINA RESULT: -11.078431089      0.000      0.000
REMARK  2 active torsions:
REMARK  status: ('A' for Active; 'I' for Inactive)
REMARK    1  A    between atoms: C4_5  and  N2_6 
REMARK    2  A    between atoms: N2_6  and  C5_8 
REMARK       I    between atoms: N6_27  and  C18_29 
ROOT
HETATM    1  C1  UNL     1      -1.846  25.598  34.060  1.00  0.00     0.175 C 
HETATM    2  N1  UNL     1      -1.469  24.238  34.315  1.00  0.00    -0.196 N 
HETATM    3  C2  UNL     1      -0.439  23.699  33.671  1.00  0.00     0.127 A 
HETATM    4  C3  UNL     1      -0.118  22.383  33.945  1.00  0.00     0.069 A 
HETATM    5  C4  UNL     1       0.972  21.781  33.281  1.00  0.00     0.122 A 
HETATM    6  N3  UNL     1       1.269  20.504  33.568  1.00  0.00    -0.338 N 
ATOM      7  H3  UNL     1       2.058  20.071  33.088  1.00  0.00     0.168 HD
HETATM    8  C15 UNL     1       0.579  19.769  34.458  1.00  0.00     0.183 A 
HETATM    9  N4  UNL     1      -0.489  20.319  35.126  1.00  0.00    -0.337 N 
ATOM     10  H4  UNL     1      -1.024  19.779  35.805  1.00  0.00     0.168 HD
HETATM   11  C16 UNL     1      -0.804  21.612  34.846  1.00  0.00     0.137 A 
HETATM   12  N5  UNL     1      -1.855  22.213  35.487  1.00  0.00    -0.175 N 
ATOM     13  H5  UNL     1      -2.402  21.690  36.171  1.00  0.00     0.186 HD
HETATM   14  C17 UNL     1      -2.169  23.508  35.212  1.00  0.00     0.688 A 
HETATM   15  N6  UNL     1      -3.156  24.040  35.840  1.00  0.00    -0.163 N 
ATOM     16  H6  UNL     1      -3.359  25.014  35.614  1.00  0.00     0.187 HD
HETATM   17  C18 UNL     1      -3.984  23.446  36.792  1.00  0.00     0.200 C 
HETATM   18  N7  UNL     1      -3.875  23.772  38.046  1.00  0.00    -0.373 N 
ATOM     19  H71 UNL     1      -4.480  23.337  38.743  1.00  0.00     0.158 HD
ATOM     20  H72 UNL     1      -3.180  24.469  38.313  1.00  0.00     0.158 HD
HETATM   21  N8  UNL     1      -4.966  22.460  36.416  1.00  0.00    -0.063 NA
ENDROOT
BRANCH   5  22
HETATM   22  N2  UNL     1       1.603  22.507  32.470  1.00  0.00    -0.341 N 
ATOM     23  H2  UNL     1       1.239  22.483  31.518  1.00  0.00     0.167 HD
BRANCH  22  24
HETATM   24  C5  UNL     1       2.717  23.343  32.640  1.00  0.00     0.044 A 
HETATM   25  C6  UNL     1       2.536  24.737  32.648  1.00  0.00     0.030 A 
HETATM   26  C7  UNL     1       3.587  25.612  32.806  1.00  0.00     0.003 A 
HETATM   27  C8  UNL     1       4.853  25.128  32.962  1.00  0.00     0.012 A 
HETATM   28  C9  UNL     1       5.093  23.766  32.962  1.00  0.00    -0.024 A 
HETATM   29  C10 UNL     1       6.383  23.310  33.119  1.00  0.00     0.012 A 
HETATM   30  C14 UNL     1       4.002  22.896  32.799  1.00  0.00     0.001 A 
HETATM   31  C11 UNL     1       6.629  21.961  33.118  1.00  0.00     0.001 A 
HETATM   32  C12 UNL     1       5.596  21.076  32.962  1.00  0.00     0.001 A 
HETATM   33  C13 UNL     1       4.311  21.546  32.806  1.00  0.00     0.014 A 
ENDBRANCH  22  24
ENDBRANCH   5  22
TORSDOF 2
ENDMDL
MODEL 2
REMARK VINA RESULT: -10.862021692      1.358      2.509
REMARK  2 active torsions:
REMARK  status: ('A' for Active; 'I' for Inactive)
REMARK    1  A    between atoms: C4_5  and  N2_6 
REMARK    2  A    between atoms: N2_6  and  C5_8 
REMARK       I    between atoms: N6_27  and  C18_29 
ROOT
HETATM    1  C1  UNL     1      -1.492  24.157  33.515  1.00  0.00     0.175 C 
HETATM    2  N1  UNL     1      -0.985  23.264  34.516  1.00  0.00    -0.196 N 
HETATM    3  C2  UNL     1       0.114  22.554  34.281  1.00  0.00     0.127 A 
HETATM    4  C3  UNL     1       0.561  21.702  35.274  1.00  0.00     0.069 A 
HETATM    5  C4  UNL     1       1.727  20.937  35.058  1.00  0.00     0.122 A 
HETATM    6  N3  UNL     1       2.146  20.121  36.038  1.00  0.00    -0.338 N 
ATOM      7  H3  UNL     1       2.989  19.568  35.881  1.00  0.00     0.168 HD
HETATM    8  C15 UNL     1       1.509  19.996  37.216  1.00  0.00     0.183 A 
HETATM    9  N4  UNL     1       0.371  20.725  37.465  1.00  0.00    -0.337 N 
ATOM     10  H4  UNL     1      -0.125  20.646  38.352  1.00  0.00     0.168 HD
HETATM   11  C16 UNL     1      -0.068  21.557  36.482  1.00  0.00     0.137 A 
HETATM   12  N5  UNL     1      -1.194  22.312  36.678  1.00  0.00    -0.175 N 
ATOM     13  H5  UNL     1      -1.704  22.248  37.558  1.00  0.00     0.186 HD
HETATM   14  C17 UNL     1      -1.632  23.147  35.697  1.00  0.00     0.688 A 
HETATM   15  N6  UNL     1      -2.687  23.846  35.921  1.00  0.00    -0.163 N 
ATOM     16  H6  UNL     1      -2.983  24.467  35.167  1.00  0.00     0.187 HD
HETATM   17  C18 UNL     1      -3.476  23.858  37.071  1.00  0.00     0.200 C 
HETATM   18  N7  UNL     1      -3.439  24.876  37.878  1.00  0.00    -0.373 N 
ATOM     19  H71 UNL     1      -4.016  24.885  38.719  1.00  0.00     0.158 HD
ATOM     20  H72 UNL     1      -2.828  25.661  37.650  1.00  0.00     0.158 HD
HETATM   21  N8  UNL     1      -4.340  22.750  37.394  1.00  0.00    -0.063 NA
ENDROOT
BRANCH   5  22
HETATM   22  N2  UNL     1       2.303  21.094  33.951  1.00  0.00    -0.341 N 
ATOM     23  H2  UNL     1       1.691  20.989  33.142  1.00  0.00     0.167 HD
BRANCH  22  24
HETATM   24  C5  UNL     1       3.637  21.388  33.628  1.00  0.00     0.044 A 
HETATM   25  C6  UNL     1       4.599  20.366  33.686  1.00  0.00     0.030 A 
HETATM   26  C7  UNL     1       5.925  20.589  33.386  1.00  0.00     0.003 A 
HETATM   27  C8  UNL     1       6.334  21.837  33.018  1.00  0.00     0.012 A 
HETATM   28  C9  UNL     1       5.433  22.883  32.944  1.00  0.00    -0.024 A 
HETATM   29  C10 UNL     1       5.880  24.131  32.572  1.00  0.00     0.012 A 
HETATM   30  C14 UNL     1       4.087  22.627  33.256  1.00  0.00     0.001 A 
HETATM   31  C11 UNL     1       4.992  25.174  32.498  1.00  0.00     0.001 A 
HETATM   32  C12 UNL     1       3.670  24.971  32.793  1.00  0.00     0.001 A 
HETATM   33  C13 UNL     1       3.237  23.717  33.164  1.00  0.00     0.014 A 
ENDBRANCH  22  24
ENDBRANCH   5  22
TORSDOF 2
ENDMDL
MODEL 3
REMARK VINA RESULT: -10.745824715      1.384      2.647
REMARK  2 active torsions:
REMARK  status: ('A' for Active; 'I' for Inactive)
REMARK    1  A    between atoms: C4_5  and  N2_6 
REMARK    2  A    between atoms: N2_6  and  C5_8 
REMARK       I    between atoms: N6_27  and  C18_29 
ROOT
HETATM    1  C1  UNL     1       0.044  21.449  36.974  1.00  0.00     0.175 C 
HETATM    2  N1  UNL     1      -0.507  22.399  36.052  1.00  0.00    -0.196 N 
HETATM    3  C2  UNL     1       0.111  22.649  34.903  1.00  0.00     0.127 A 
HETATM    4  C3  UNL     1      -0.455  23.577  34.049  1.00  0.00     0.069 A 
HETATM    5  C4  UNL     1       0.174  23.863  32.818  1.00  0.00     0.122 A 
HETATM    6  N3  UNL     1      -0.397  24.763  32.003  1.00  0.00    -0.338 N 
ATOM      7  H3  UNL     1       0.059  24.969  31.114  1.00  0.00     0.168 HD
HETATM    8  C15 UNL     1      -1.540  25.407  32.300  1.00  0.00     0.183 A 
HETATM    9  N4  UNL     1      -2.183  25.155  33.488  1.00  0.00    -0.337 N 
ATOM     10  H4  UNL     1      -3.052  25.632  33.732  1.00  0.00     0.168 HD
HETATM   11  C16 UNL     1      -1.617  24.246  34.327  1.00  0.00     0.137 A 
HETATM   12  N5  UNL     1      -2.219  23.952  35.522  1.00  0.00    -0.175 N 
ATOM     13  H5  UNL     1      -3.088  24.417  35.784  1.00  0.00     0.186 HD
HETATM   14  C17 UNL     1      -1.657  23.040  36.360  1.00  0.00     0.688 A 
HETATM   15  N6  UNL     1      -2.255  22.784  37.469  1.00  0.00    -0.163 N 
ATOM     16  H6  UNL     1      -1.810  22.090  38.070  1.00  0.00     0.187 HD
HETATM   17  C18 UNL     1      -3.440  23.341  37.949  1.00  0.00     0.200 C 
HETATM   18  N7  UNL     1      -4.533  22.637  37.966  1.00  0.00    -0.373 N 
ATOM     19  H71 UNL     1      -5.399  23.044  38.318  1.00  0.00     0.158 HD
ATOM     20  H72 UNL     1      -4.502  21.675  37.628  1.00  0.00     0.158 HD
HETATM   21  N8  UNL     1      -3.485  24.700  38.427  1.00  0.00    -0.063 NA
ENDROOT
BRANCH   5  22
HETATM   22  N2  UNL     1       1.231  23.228  32.570  1.00  0.00    -0.341 N 
ATOM     23  H2  UNL     1       1.079  22.295  32.189  1.00  0.00     0.167 HD
BRANCH  22  24
HETATM   24  C5  UNL     1       2.582  23.574  32.722  1.00  0.00     0.044 A 
HETATM   25  C6  UNL     1       2.962  24.924  32.635  1.00  0.00     0.030 A 
HETATM   26  C7  UNL     1       4.271  25.329  32.771  1.00  0.00     0.003 A 
HETATM   27  C8  UNL     1       5.245  24.402  33.000  1.00  0.00     0.012 A 
HETATM   28  C9  UNL     1       4.933  23.058  33.096  1.00  0.00    -0.024 A 
HETATM   29  C10 UNL     1       5.941  22.148  33.326  1.00  0.00     0.012 A 
HETATM   30  C14 UNL     1       3.589  22.673  32.953  1.00  0.00     0.001 A 
HETATM   31  C11 UNL     1       5.639  20.813  33.421  1.00  0.00     0.001 A 
HETATM   32  C12 UNL     1       4.343  20.393  33.288  1.00  0.00     0.001 A 
HETATM   33  C13 UNL     1       3.345  21.314  33.058  1.00  0.00     0.014 A 
ENDBRANCH  22  24
ENDBRANCH   5  22
TORSDOF 2
ENDMDL
MODEL 4
REMARK VINA RESULT: -10.733076776      1.611      2.585
REMARK  2 active torsions:
REMARK  status: ('A' for Active; 'I' for Inactive)
REMARK    1  A    between atoms: C4_5  and  N2_6 
REMARK    2  A    between atoms: N2_6  and  C5_8 
REMARK       I    between atoms: N6_27  and  C18_29 
ROOT
HETATM    1  C1  UNL     1       1.113  26.287  35.087  1.00  0.00     0.175 C 
HETATM    2  N1  UNL     1       0.462  25.010  35.033  1.00  0.00    -0.196 N 
HETATM    3  C2  UNL     1       0.946  24.047  34.255  1.00  0.00     0.127 A 
HETATM    4  C3  UNL     1       0.281  22.836  34.231  1.00  0.00     0.069 A 
HETATM    5  C4  UNL     1       0.772  21.790  33.419  1.00  0.00     0.122 A 
HETATM    6  N3  UNL     1       0.113  20.621  33.415  1.00  0.00    -0.338 N 
ATOM      7  H3  UNL     1       0.468  19.866  32.828  1.00  0.00     0.168 HD
HETATM    8  C15 UNL     1      -0.993  20.396  34.147  1.00  0.00     0.183 A 
HETATM    9  N4  UNL     1      -1.501  21.388  34.951  1.00  0.00    -0.337 N 
ATOM     10  H4  UNL     1      -2.337  21.236  35.516  1.00  0.00     0.168 HD
HETATM   11  C16 UNL     1      -0.846  22.580  34.966  1.00  0.00     0.137 A 
HETATM   12  N5  UNL     1      -1.305  23.602  35.754  1.00  0.00    -0.175 N 
ATOM     13  H5  UNL     1      -2.138  23.470  36.326  1.00  0.00     0.186 HD
HETATM   14  C17 UNL     1      -0.648  24.794  35.773  1.00  0.00     0.688 A 
HETATM   15  N6  UNL     1      -1.104  25.726  36.531  1.00  0.00    -0.163 N 
ATOM     16  H6  UNL     1      -0.583  26.603  36.526  1.00  0.00     0.187 HD
HETATM   17  C18 UNL     1      -2.225  25.683  37.360  1.00  0.00     0.200 C 
HETATM   18  N7  UNL     1      -2.081  25.619  38.650  1.00  0.00    -0.373 N 
ATOM     19  H71 UNL     1      -2.901  25.587  39.256  1.00  0.00     0.158 HD
ATOM     20  H72 UNL     1      -1.138  25.606  39.038  1.00  0.00     0.158 HD
HETATM   21  N8  UNL     1      -3.558  25.701  36.811  1.00  0.00    -0.063 NA
ENDROOT
BRANCH   5  22
HETATM   22  N2  UNL     1       1.817  22.035  32.763  1.00  0.00    -0.341 N 
ATOM     23  H2  UNL     1       1.660  22.576  31.913  1.00  0.00     0.167 HD
BRANCH  22  24
HETATM   24  C5  UNL     1       3.159  21.697  32.990  1.00  0.00     0.044 A 
HETATM   25  C6  UNL     1       3.488  20.373  33.328  1.00  0.00     0.030 A 
HETATM   26  C7  UNL     1       4.785  19.977  33.568  1.00  0.00     0.003 A 
HETATM   27  C8  UNL     1       5.797  20.886  33.478  1.00  0.00     0.012 A 
HETATM   28  C9  UNL     1       5.536  22.204  33.150  1.00  0.00    -0.024 A 
HETATM   29  C10 UNL     1       6.581  23.097  33.070  1.00  0.00     0.012 A 
HETATM   30  C14 UNL     1       4.204  22.580  32.910  1.00  0.00     0.001 A 
HETATM   31  C11 UNL     1       6.329  24.406  32.746  1.00  0.00     0.001 A 
HETATM   32  C12 UNL     1       5.046  24.818  32.504  1.00  0.00     0.001 A 
HETATM   33  C13 UNL     1       4.010  23.913  32.588  1.00  0.00     0.014 A 
ENDBRANCH  22  24
ENDBRANCH   5  22
TORSDOF 2
ENDMDL
MODEL 5
REMARK VINA RESULT: -10.710159117      1.476      2.534
REMARK  2 active torsions:
REMARK  status: ('A' for Active; 'I' for Inactive)
REMARK    1  A    between atoms: C4_5  and  N2_6 
REMARK    2  A    between atoms: N2_6  and  C5_8 
REMARK       I    between atoms: N6_27  and  C18_29 
ROOT
HETATM    1  C1  UNL     1      -1.528  25.336  32.120  1.00  0.00     0.175 C 
HETATM    2  N1  UNL     1      -1.337  24.473  33.250  1.00  0.00    -0.196 N 
HETATM    3  C2  UNL     1      -0.313  23.626  33.277  1.00  0.00     0.127 A 
HETATM    4  C3  UNL     1      -0.173  22.811  34.384  1.00  0.00     0.069 A 
HETATM    5  C4  UNL     1       0.905  21.902  34.446  1.00  0.00     0.122 A 
HETATM    6  N3  UNL     1       1.024  21.125  35.534  1.00  0.00    -0.338 N 
ATOM      7  H3  UNL     1       1.804  20.469  35.578  1.00  0.00     0.168 HD
HETATM    8  C15 UNL     1       0.165  21.168  36.568  1.00  0.00     0.183 A 
HETATM    9  N4  UNL     1      -0.897  22.040  36.547  1.00  0.00    -0.337 N 
ATOM     10  H4  UNL     1      -1.558  22.090  37.322  1.00  0.00     0.168 HD
HETATM   11  C16 UNL     1      -1.033  22.835  35.451  1.00  0.00     0.137 A 
HETATM   12  N5  UNL     1      -2.069  23.727  35.378  1.00  0.00    -0.175 N 
ATOM     13  H5  UNL     1      -2.740  23.792  36.143  1.00  0.00     0.186 HD
HETATM   14  C17 UNL     1      -2.204  24.526  34.285  1.00  0.00     0.688 A 
HETATM   15  N6  UNL     1      -3.185  25.356  34.257  1.00  0.00    -0.163 N 
ATOM     16  H6  UNL     1      -3.252  25.944  33.426  1.00  0.00     0.187 HD
HETATM   17  C18 UNL     1      -4.169  25.550  35.227  1.00  0.00     0.200 C 
HETATM   18  N7  UNL     1      -4.155  26.618  35.966  1.00  0.00    -0.373 N 
ATOM     19  H71 UNL     1      -4.875  26.760  36.675  1.00  0.00     0.158 HD
ATOM     20  H72 UNL     1      -3.417  27.307  35.819  1.00  0.00     0.158 HD
HETATM   21  N8  UNL     1      -5.212  24.577  35.435  1.00  0.00    -0.063 NA
ENDROOT
BRANCH   5  22
HETATM   22  N2  UNL     1       1.695  21.904  33.467  1.00  0.00    -0.341 N 
ATOM     23  H2  UNL     1       1.247  22.084  32.569  1.00  0.00     0.167 HD
BRANCH  22  24
HETATM   24  C5  UNL     1       3.081  21.702  33.389  1.00  0.00     0.044 A 
HETATM   25  C6  UNL     1       3.603  20.416  33.607  1.00  0.00     0.030 A 
HETATM   26  C7  UNL     1       4.953  20.152  33.549  1.00  0.00     0.003 A 
HETATM   27  C8  UNL     1       5.828  21.161  33.271  1.00  0.00     0.012 A 
HETATM   28  C9  UNL     1       5.374  22.448  33.048  1.00  0.00    -0.024 A 
HETATM   29  C10 UNL     1       6.284  23.444  32.772  1.00  0.00     0.012 A 
HETATM   30  C14 UNL     1       3.991  22.688  33.113  1.00  0.00     0.001 A 
HETATM   31  C11 UNL     1       5.842  24.723  32.551  1.00  0.00     0.001 A 
HETATM   32  C12 UNL     1       4.502  25.004  32.605  1.00  0.00     0.001 A 
HETATM   33  C13 UNL     1       3.603  23.998  32.882  1.00  0.00     0.014 A 
ENDBRANCH  22  24
ENDBRANCH   5  22
TORSDOF 2
ENDMDL
