MODEL 1
REMARK VINA RESULT: -7.572462787      0.000      0.000
REMARK  5 active torsions:
REMARK  status: ('A' for Active; 'I' for Inactive)
REMARK    1  A    between atoms: C2_2  and  C5_5 
REMARK    2  A    between atoms: C6_6  and  C7_7 
REMARK    3  A    between atoms: N2_11  and  C9_13 
REMARK    4  A    between atoms: C11_23  and  N7_24 
REMARK    5  A    between atoms: N7_24  and  C12_26 
ROOT
HETATM    1  C7  UNL     1      -1.454  24.779  35.040  1.00  0.00     0.127 A 
HETATM    2  N1  UNL     1      -1.870  24.318  36.227  1.00  0.00    -0.182 N 
ATOM      3  H1  UNL     1      -1.186  24.021  36.924  1.00  0.00     0.185 HD
HETATM    4  C8  UNL     1      -3.181  24.246  36.503  1.00  0.00     0.686 A 
HETATM    5  N2  UNL     1      -3.560  23.801  37.648  1.00  0.00    -0.174 N 
ATOM      6  H2  UNL     1      -4.555  23.743  37.867  1.00  0.00     0.186 HD
HETATM    7  N6  UNL     1      -4.115  24.638  35.587  1.00  0.00    -0.175 N 
ATOM      8  H6  UNL     1      -5.105  24.572  35.824  1.00  0.00     0.186 HD
HETATM    9  C11 UNL     1      -3.761  25.105  34.388  1.00  0.00     0.141 A 
HETATM   10  C16 UNL     1      -2.410  25.175  34.117  1.00  0.00     0.124 A 
HETATM   11  C17 UNL     1      -1.982  25.670  32.843  1.00  0.00     0.106 C 
HETATM   12  N8  UNL     1      -1.634  26.071  31.824  1.00  0.00    -0.191 NA
ENDROOT
BRANCH   1  13
HETATM   13  C6  UNL     1      -0.046  24.847  34.768  1.00  0.00    -0.046 C 
HETATM   14  C5  UNL     1       1.140  24.893  34.546  1.00  0.00    -0.091 C 
BRANCH  14  15
HETATM   15  C2  UNL     1       2.586  24.974  34.273  1.00  0.00     0.013 C 
HETATM   16  C1  UNL     1       2.851  24.905  32.790  1.00  0.00     0.028 C 
HETATM   17  C3  UNL     1       3.186  26.243  34.816  1.00  0.00     0.028 C 
HETATM   18  C4  UNL     1       3.278  23.808  34.935  1.00  0.00     0.028 C 
ENDBRANCH  14  15
ENDBRANCH   1  13
BRANCH   9  19
HETATM   19  N7  UNL     1      -4.589  25.475  33.519  1.00  0.00    -0.366 N 
ATOM     20  H7  UNL     1      -4.323  25.247  32.560  1.00  0.00     0.162 HD
BRANCH  19  21
HETATM   21  C12 UNL     1      -5.828  26.154  33.637  1.00  0.00     0.021 C 
HETATM   22  C13 UNL     1      -7.014  25.250  33.822  1.00  0.00     0.037 C 
HETATM   23  C14 UNL     1      -6.061  26.902  32.314  1.00  0.00     0.037 C 
HETATM   24  C15 UNL     1      -5.733  27.196  34.735  1.00  0.00     0.037 C 
ENDBRANCH  19  21
ENDBRANCH   9  19
BRANCH   5  25
HETATM   25  C9  UNL     1      -2.604  23.395  38.602  1.00  0.00     0.153 A 
HETATM   26  C10 UNL     1      -2.208  24.085  39.722  1.00  0.00     0.159 A 
HETATM   27  N3  UNL     1      -1.279  23.332  40.346  1.00  0.00    -0.294 N 
HETATM   28  N4  UNL     1      -1.114  22.230  39.641  1.00  0.00    -0.241 N 
ATOM     29  H3  UNL     1      -0.791  23.573  41.209  1.00  0.00     0.187 HD
HETATM   30  N5  UNL     1      -1.904  22.233  38.571  1.00  0.00    -0.269 N 
ATOM     31  H4  UNL     1      -0.468  21.478  39.883  1.00  0.00     0.208 HD
ATOM     32  H5  UNL     1      -1.972  21.501  37.863  1.00  0.00     0.190 HD
ENDBRANCH   5  25
TORSDOF 5
ENDMDL
MODEL 2
REMARK VINA RESULT: -7.560638806      3.565      8.030
REMARK  5 active torsions:
REMARK  status: ('A' for Active; 'I' for Inactive)
REMARK    1  A    between atoms: C2_2  and  C5_5 
REMARK    2  A    between atoms: C6_6  and  C7_7 
REMARK    3  A    between atoms: N2_11  and  C9_13 
REMARK    4  A    between atoms: C11_23  and  N7_24 
REMARK    5  A    between atoms: N7_24  and  C12_26 
ROOT
HETATM    1  C7  UNL     1       0.156  22.347  35.911  1.00  0.00     0.127 A 
HETATM    2  N1  UNL     1      -0.014  23.130  34.838  1.00  0.00    -0.182 N 
ATOM      3  H1  UNL     1      -0.722  23.864  34.851  1.00  0.00     0.185 HD
HETATM    4  C8  UNL     1       0.744  22.953  33.744  1.00  0.00     0.686 A 
HETATM    5  N2  UNL     1       0.567  23.714  32.724  1.00  0.00    -0.174 N 
ATOM      6  H2  UNL     1       1.138  23.587  31.889  1.00  0.00     0.186 HD
HETATM    7  N6  UNL     1       1.699  21.976  33.701  1.00  0.00    -0.175 N 
ATOM      8  H6  UNL     1       2.260  21.864  32.857  1.00  0.00     0.186 HD
HETATM    9  C11 UNL     1       1.914  21.166  34.740  1.00  0.00     0.141 A 
HETATM   10  C16 UNL     1       1.128  21.360  35.858  1.00  0.00     0.124 A 
HETATM   11  C17 UNL     1       1.322  20.514  36.998  1.00  0.00     0.106 C 
HETATM   12  N8  UNL     1       1.478  19.841  37.916  1.00  0.00    -0.191 NA
ENDROOT
BRANCH   1  13
HETATM   13  C6  UNL     1      -0.666  22.556  37.069  1.00  0.00    -0.046 C 
HETATM   14  C5  UNL     1      -1.368  22.738  38.035  1.00  0.00    -0.091 C 
BRANCH  14  15
HETATM   15  C2  UNL     1      -2.203  22.960  39.229  1.00  0.00     0.013 C 
HETATM   16  C1  UNL     1      -2.004  24.357  39.763  1.00  0.00     0.028 C 
HETATM   17  C3  UNL     1      -3.665  22.756  38.932  1.00  0.00     0.028 C 
HETATM   18  C4  UNL     1      -1.802  21.978  40.302  1.00  0.00     0.028 C 
ENDBRANCH  14  15
ENDBRANCH   1  13
BRANCH   9  19
HETATM   19  N7  UNL     1       2.781  20.258  34.739  1.00  0.00    -0.366 N 
ATOM     20  H7  UNL     1       2.407  19.319  34.598  1.00  0.00     0.162 HD
BRANCH  19  21
HETATM   21  C12 UNL     1       4.189  20.310  34.901  1.00  0.00     0.021 C 
HETATM   22  C13 UNL     1       4.716  21.656  35.310  1.00  0.00     0.037 C 
HETATM   23  C14 UNL     1       4.812  20.005  33.528  1.00  0.00     0.037 C 
HETATM   24  C15 UNL     1       4.631  19.214  35.852  1.00  0.00     0.037 C 
ENDBRANCH  19  21
ENDBRANCH   9  19
BRANCH   5  25
HETATM   25  C9  UNL     1      -0.416  24.725  32.758  1.00  0.00     0.153 A 
HETATM   26  C10 UNL     1      -0.572  25.694  33.719  1.00  0.00     0.159 A 
HETATM   27  N3  UNL     1      -1.632  26.447  33.357  1.00  0.00    -0.294 N 
HETATM   28  N4  UNL     1      -2.103  25.961  32.225  1.00  0.00    -0.241 N 
ATOM     29  H3  UNL     1      -2.003  27.249  33.868  1.00  0.00     0.187 HD
HETATM   30  N5  UNL     1      -1.388  24.911  31.830  1.00  0.00    -0.269 N 
ATOM     31  H4  UNL     1      -2.906  26.339  31.722  1.00  0.00     0.208 HD
ATOM     32  H5  UNL     1      -1.541  24.353  30.990  1.00  0.00     0.190 HD
ENDBRANCH   5  25
TORSDOF 5
ENDMDL
MODEL 3
REMARK VINA RESULT: -7.502327955      3.372      4.799
REMARK  5 active torsions:
REMARK  status: ('A' for Active; 'I' for Inactive)
REMARK    1  A    between atoms: C2_2  and  C5_5 
REMARK    2  A    between atoms: C6_6  and  C7_7 
REMARK    3  A    between atoms: N2_11  and  C9_13 
REMARK    4  A    between atoms: C11_23  and  N7_24 
REMARK    5  A    between atoms: N7_24  and  C12_26 
ROOT
HETATM    1  C7  UNL     1       1.781  22.409  34.825  1.00  0.00     0.127 A 
HETATM    2  N1  UNL     1       1.788  21.461  35.771  1.00  0.00    -0.182 N 
ATOM      3  H1  UNL     1       2.656  20.973  35.995  1.00  0.00     0.185 HD
HETATM    4  C8  UNL     1       0.658  21.149  36.424  1.00  0.00     0.686 A 
HETATM    5  N2  UNL     1       0.684  20.237  37.329  1.00  0.00    -0.174 N 
ATOM      6  H2  UNL     1      -0.170  19.994  37.831  1.00  0.00     0.186 HD
HETATM    7  N6  UNL     1      -0.516  21.788  36.142  1.00  0.00    -0.175 N 
ATOM      8  H6  UNL     1      -1.360  21.531  36.654  1.00  0.00     0.186 HD
HETATM    9  C11 UNL     1      -0.584  22.741  35.209  1.00  0.00     0.141 A 
HETATM   10  C16 UNL     1       0.585  23.051  34.546  1.00  0.00     0.124 A 
HETATM   11  C17 UNL     1       0.562  24.068  33.537  1.00  0.00     0.106 C 
HETATM   12  N8  UNL     1       0.548  24.886  32.730  1.00  0.00    -0.191 NA
ENDROOT
BRANCH   1  13
HETATM   13  C6  UNL     1       3.003  22.724  34.140  1.00  0.00    -0.046 C 
HETATM   14  C5  UNL     1       4.037  22.980  33.570  1.00  0.00    -0.091 C 
BRANCH  14  15
HETATM   15  C2  UNL     1       5.291  23.315  32.872  1.00  0.00     0.013 C 
HETATM   16  C1  UNL     1       5.332  24.784  32.532  1.00  0.00     0.028 C 
HETATM   17  C3  UNL     1       6.500  22.972  33.702  1.00  0.00     0.028 C 
HETATM   18  C4  UNL     1       5.366  22.527  31.587  1.00  0.00     0.028 C 
ENDBRANCH  14  15
ENDBRANCH   1  13
BRANCH   9  19
HETATM   19  N7  UNL     1      -1.643  23.350  34.921  1.00  0.00    -0.366 N 
ATOM     20  H7  UNL     1      -2.089  23.036  34.058  1.00  0.00     0.162 HD
BRANCH  19  21
HETATM   21  C12 UNL     1      -2.329  24.399  35.585  1.00  0.00     0.021 C 
HETATM   22  C13 UNL     1      -1.538  25.061  36.678  1.00  0.00     0.037 C 
HETATM   23  C14 UNL     1      -3.560  23.776  36.263  1.00  0.00     0.037 C 
HETATM   24  C15 UNL     1      -2.833  25.402  34.564  1.00  0.00     0.037 C 
ENDBRANCH  19  21
ENDBRANCH   9  19
BRANCH   5  25
HETATM   25  C9  UNL     1       1.891  19.572  37.629  1.00  0.00     0.153 A 
HETATM   26  C10 UNL     1       2.875  19.205  36.743  1.00  0.00     0.159 A 
HETATM   27  N3  UNL     1       3.846  18.596  37.456  1.00  0.00    -0.294 N 
HETATM   28  N4  UNL     1       3.474  18.591  38.721  1.00  0.00    -0.241 N 
ATOM     29  H3  UNL     1       4.713  18.209  37.083  1.00  0.00     0.187 HD
HETATM   30  N5  UNL     1       2.288  19.177  38.866  1.00  0.00    -0.269 N 
ATOM     31  H4  UNL     1       4.020  18.193  39.485  1.00  0.00     0.208 HD
ATOM     32  H5  UNL     1       1.775  19.304  39.738  1.00  0.00     0.190 HD
ENDBRANCH   5  25
TORSDOF 5
ENDMDL
MODEL 4
REMARK VINA RESULT: -7.408822751      3.575      5.199
REMARK  5 active torsions:
REMARK  status: ('A' for Active; 'I' for Inactive)
REMARK    1  A    between atoms: C2_2  and  C5_5 
REMARK    2  A    between atoms: C6_6  and  C7_7 
REMARK    3  A    between atoms: N2_11  and  C9_13 
REMARK    4  A    between atoms: C11_23  and  N7_24 
REMARK    5  A    between atoms: N7_24  and  C12_26 
ROOT
HETATM    1  C7  UNL     1       1.598  23.133  34.720  1.00  0.00     0.127 A 
HETATM    2  N1  UNL     1       0.909  21.986  34.672  1.00  0.00    -0.182 N 
ATOM      3  H1  UNL     1       1.314  21.169  34.214  1.00  0.00     0.185 HD
HETATM    4  C8  UNL     1      -0.311  21.906  35.224  1.00  0.00     0.686 A 
HETATM    5  N2  UNL     1      -0.957  20.796  35.168  1.00  0.00    -0.174 N 
ATOM      6  H2  UNL     1      -1.885  20.726  35.585  1.00  0.00     0.186 HD
HETATM    7  N6  UNL     1      -0.875  22.986  35.843  1.00  0.00    -0.175 N 
ATOM      8  H6  UNL     1      -1.804  22.897  36.254  1.00  0.00     0.186 HD
HETATM    9  C11 UNL     1      -0.236  24.155  35.922  1.00  0.00     0.141 A 
HETATM   10  C16 UNL     1       1.019  24.223  35.351  1.00  0.00     0.124 A 
HETATM   11  C17 UNL     1       1.743  25.457  35.412  1.00  0.00     0.106 C 
HETATM   12  N8  UNL     1       2.329  26.444  35.462  1.00  0.00    -0.191 NA
ENDROOT
BRANCH   1  13
HETATM   13  C6  UNL     1       2.903  23.194  34.123  1.00  0.00    -0.046 C 
HETATM   14  C5  UNL     1       3.994  23.246  33.609  1.00  0.00    -0.091 C 
BRANCH  14  15
HETATM   15  C2  UNL     1       5.335  23.297  33.000  1.00  0.00     0.013 C 
HETATM   16  C1  UNL     1       5.394  22.419  31.774  1.00  0.00     0.028 C 
HETATM   17  C3  UNL     1       5.720  24.700  32.613  1.00  0.00     0.028 C 
HETATM   18  C4  UNL     1       6.349  22.791  33.997  1.00  0.00     0.028 C 
ENDBRANCH  14  15
ENDBRANCH   1  13
BRANCH   9  19
HETATM   19  N7  UNL     1      -0.720  25.169  36.483  1.00  0.00    -0.366 N 
ATOM     20  H7  UNL     1      -0.222  26.038  36.283  1.00  0.00     0.162 HD
BRANCH  19  21
HETATM   21  C12 UNL     1      -1.836  25.319  37.344  1.00  0.00     0.021 C 
HETATM   22  C13 UNL     1      -1.954  26.679  37.973  1.00  0.00     0.037 C 
HETATM   23  C14 UNL     1      -1.649  24.325  38.503  1.00  0.00     0.037 C 
HETATM   24  C15 UNL     1      -3.102  24.922  36.608  1.00  0.00     0.037 C 
ENDBRANCH  19  21
ENDBRANCH   9  19
BRANCH   5  25
HETATM   25  C9  UNL     1      -0.385  19.675  34.531  1.00  0.00     0.153 A 
HETATM   26  C10 UNL     1       0.951  19.367  34.444  1.00  0.00     0.159 A 
HETATM   27  N3  UNL     1       1.049  18.213  33.752  1.00  0.00    -0.294 N 
HETATM   28  N4  UNL     1      -0.171  17.832  33.430  1.00  0.00    -0.241 N 
ATOM     29  H3  UNL     1       1.913  17.724  33.519  1.00  0.00     0.187 HD
HETATM   30  N5  UNL     1      -1.072  18.698  33.888  1.00  0.00    -0.269 N 
ATOM     31  H4  UNL     1      -0.395  16.988  32.902  1.00  0.00     0.208 HD
ATOM     32  H5  UNL     1      -2.084  18.639  33.777  1.00  0.00     0.190 HD
ENDBRANCH   5  25
TORSDOF 5
ENDMDL
MODEL 5
REMARK VINA RESULT: -7.403221780      3.585      5.182
REMARK  5 active torsions:
REMARK  status: ('A' for Active; 'I' for Inactive)
REMARK    1  A    between atoms: C2_2  and  C5_5 
REMARK    2  A    between atoms: C6_6  and  C7_7 
REMARK    3  A    between atoms: N2_11  and  C9_13 
REMARK    4  A    between atoms: C11_23  and  N7_24 
REMARK    5  A    between atoms: N7_24  and  C12_26 
ROOT
HETATM    1  C7  UNL     1       1.572  23.106  34.716  1.00  0.00     0.127 A 
HETATM    2  N1  UNL     1       0.896  21.950  34.663  1.00  0.00    -0.182 N 
ATOM      3  H1  UNL     1       1.309  21.141  34.200  1.00  0.00     0.185 HD
HETATM    4  C8  UNL     1      -0.322  21.853  35.217  1.00  0.00     0.686 A 
HETATM    5  N2  UNL     1      -0.955  20.736  35.157  1.00  0.00    -0.174 N 
ATOM      6  H2  UNL     1      -1.881  20.653  35.576  1.00  0.00     0.186 HD
HETATM    7  N6  UNL     1      -0.897  22.923  35.844  1.00  0.00    -0.175 N 
ATOM      8  H6  UNL     1      -1.824  22.821  36.256  1.00  0.00     0.186 HD
HETATM    9  C11 UNL     1      -0.272  24.099  35.928  1.00  0.00     0.141 A 
HETATM   10  C16 UNL     1       0.981  24.185  35.354  1.00  0.00     0.124 A 
HETATM   11  C17 UNL     1       1.690  25.427  35.419  1.00  0.00     0.106 C 
HETATM   12  N8  UNL     1       2.265  26.421  35.473  1.00  0.00    -0.191 NA
ENDROOT
BRANCH   1  13
HETATM   13  C6  UNL     1       2.874  23.184  34.116  1.00  0.00    -0.046 C 
HETATM   14  C5  UNL     1       3.967  23.238  33.607  1.00  0.00    -0.091 C 
BRANCH  14  15
HETATM   15  C2  UNL     1       5.309  23.321  33.002  1.00  0.00     0.013 C 
HETATM   16  C1  UNL     1       5.627  24.742  32.611  1.00  0.00     0.028 C 
HETATM   17  C3  UNL     1       6.376  22.823  33.941  1.00  0.00     0.028 C 
HETATM   18  C4  UNL     1       5.343  22.466  31.759  1.00  0.00     0.028 C 
ENDBRANCH  14  15
ENDBRANCH   1  13
BRANCH   9  19
HETATM   19  N7  UNL     1      -0.766  25.105  36.494  1.00  0.00    -0.366 N 
ATOM     20  H7  UNL     1      -0.282  25.981  36.294  1.00  0.00     0.162 HD
BRANCH  19  21
HETATM   21  C12 UNL     1      -1.878  25.236  37.364  1.00  0.00     0.021 C 
HETATM   22  C13 UNL     1      -3.210  25.010  36.705  1.00  0.00     0.037 C 
HETATM   23  C14 UNL     1      -1.890  26.690  37.866  1.00  0.00     0.037 C 
HETATM   24  C15 UNL     1      -1.685  24.341  38.574  1.00  0.00     0.037 C 
ENDBRANCH  19  21
ENDBRANCH   9  19
BRANCH   5  25
HETATM   25  C9  UNL     1      -0.371  19.626  34.514  1.00  0.00     0.153 A 
HETATM   26  C10 UNL     1       0.969  19.346  34.401  1.00  0.00     0.159 A 
HETATM   27  N3  UNL     1       1.079  18.192  33.711  1.00  0.00    -0.294 N 
HETATM   28  N4  UNL     1      -0.139  17.782  33.415  1.00  0.00    -0.241 N 
ATOM     29  H3  UNL     1       1.949  17.720  33.463  1.00  0.00     0.187 HD
HETATM   30  N5  UNL     1      -1.049  18.631  33.887  1.00  0.00    -0.269 N 
ATOM     31  H4  UNL     1      -0.355  16.932  32.895  1.00  0.00     0.208 HD
ATOM     32  H5  UNL     1      -2.062  18.549  33.796  1.00  0.00     0.190 HD
ENDBRANCH   5  25
TORSDOF 5
ENDMDL
