MODEL 1
REMARK VINA RESULT: -10.719383102      0.000      0.000
REMARK  2 active torsions:
REMARK  status: ('A' for Active; 'I' for Inactive)
REMARK    1  A    between atoms: C5_6  and  N2_7 
REMARK    2  A    between atoms: N2_7  and  C6_9 
ROOT
HETATM    1  N1  UNL     1      -2.876  27.258  39.118  1.00  0.00    -0.191 NA
HETATM    2  C1  UNL     1      -2.348  26.575  38.353  1.00  0.00     0.099 C 
HETATM    3  C2  UNL     1      -1.712  25.708  37.394  1.00  0.00     0.046 A 
HETATM    4  C3  UNL     1      -0.968  24.615  37.785  1.00  0.00     0.025 A 
HETATM    5  C4  UNL     1      -0.353  23.772  36.912  1.00  0.00     0.032 A 
HETATM    6  C5  UNL     1      -0.453  23.983  35.538  1.00  0.00     0.053 A 
HETATM    7  C17 UNL     1      -1.210  25.097  35.140  1.00  0.00     0.072 A 
HETATM    8  C18 UNL     1      -1.325  25.334  33.715  1.00  0.00     0.102 C 
HETATM    9  N6  UNL     1      -1.408  25.540  32.576  1.00  0.00    -0.191 NA
HETATM   10  C19 UNL     1      -1.814  25.925  36.038  1.00  0.00     0.047 A 
ENDROOT
BRANCH   6  11
HETATM   11  N2  UNL     1       0.127  23.200  34.601  1.00  0.00    -0.353 N 
ATOM     12  H2  UNL     1      -0.666  22.801  34.098  1.00  0.00     0.166 HD
BRANCH  11  13
HETATM   13  C6  UNL     1       1.075  22.727  34.051  1.00  0.00     0.065 A 
HETATM   14  C7  UNL     1       2.213  23.351  33.580  1.00  0.00     0.018 A 
HETATM   15  C8  UNL     1       2.350  24.697  33.722  1.00  0.00     0.016 A 
HETATM   16  C12 UNL     1       3.252  22.652  32.950  1.00  0.00     0.046 A 
HETATM   17  C9  UNL     1       3.489  25.363  33.256  1.00  0.00     0.001 A 
HETATM   18  C10 UNL     1       4.474  24.643  32.650  1.00  0.00     0.002 A 
HETATM   19  C11 UNL     1       4.394  23.281  32.476  1.00  0.00     0.030 A 
HETATM   20  N3  UNL     1       3.151  21.335  32.793  1.00  0.00    -0.341 N 
HETATM   21  C13 UNL     1       2.085  20.672  33.223  1.00  0.00     0.128 A 
ATOM     22  H3  UNL     1       3.906  20.827  32.334  1.00  0.00     0.167 HD
HETATM   23  N4  UNL     1       2.022  19.325  33.043  1.00  0.00    -0.293 N 
HETATM   24  C16 UNL     1       1.047  21.318  33.844  1.00  0.00     0.104 A 
HETATM   25  C14 UNL     1       0.962  18.611  33.462  1.00  0.00     0.328 A 
ATOM     26  H4  UNL     1       2.795  18.846  32.581  1.00  0.00     0.172 HD
HETATM   27  O1  UNL     1       0.874  17.371  33.311  1.00  0.00    -0.247 OA
HETATM   28  N5  UNL     1      -0.060  19.246  34.073  1.00  0.00    -0.275 N 
HETATM   29  C15 UNL     1      -0.030  20.574  34.266  1.00  0.00     0.265 A 
ATOM     30  H5  UNL     1      -0.867  18.710  34.393  1.00  0.00     0.173 HD
HETATM   31  O2  UNL     1      -0.999  21.171  34.845  1.00  0.00    -0.267 OA
ENDBRANCH  11  13
ENDBRANCH   6  11
TORSDOF 2
ENDMDL
MODEL 2
REMARK VINA RESULT: -10.610238470      2.615      3.600
REMARK  2 active torsions:
REMARK  status: ('A' for Active; 'I' for Inactive)
REMARK    1  A    between atoms: C5_6  and  N2_7 
REMARK    2  A    between atoms: N2_7  and  C6_9 
ROOT
HETATM    1  N1  UNL     1      -3.388  25.717  32.811  1.00  0.00    -0.191 NA
HETATM    2  C1  UNL     1      -2.415  25.206  33.163  1.00  0.00     0.099 C 
HETATM    3  C2  UNL     1      -1.214  24.547  33.610  1.00  0.00     0.046 A 
HETATM    4  C3  UNL     1      -0.662  24.806  34.847  1.00  0.00     0.025 A 
HETATM    5  C4  UNL     1       0.469  24.205  35.308  1.00  0.00     0.032 A 
HETATM    6  C5  UNL     1       1.140  23.269  34.523  1.00  0.00     0.053 A 
HETATM    7  C17 UNL     1       0.578  23.006  33.263  1.00  0.00     0.072 A 
HETATM    8  C18 UNL     1       1.262  22.036  32.432  1.00  0.00     0.102 C 
HETATM    9  N6  UNL     1       1.813  21.273  31.752  1.00  0.00    -0.191 NA
HETATM   10  C19 UNL     1      -0.556  23.625  32.828  1.00  0.00     0.047 A 
ENDROOT
BRANCH   6  11
HETATM   11  N2  UNL     1       2.269  22.627  34.898  1.00  0.00    -0.353 N 
ATOM     12  H2  UNL     1       2.067  22.326  35.851  1.00  0.00     0.166 HD
BRANCH  11  13
HETATM   13  C6  UNL     1       3.377  22.227  34.705  1.00  0.00     0.065 A 
HETATM   14  C7  UNL     1       4.413  22.820  34.012  1.00  0.00     0.018 A 
HETATM   15  C8  UNL     1       4.224  24.037  33.431  1.00  0.00     0.016 A 
HETATM   16  C12 UNL     1       5.671  22.220  33.872  1.00  0.00     0.046 A 
HETATM   17  C9  UNL     1       5.250  24.668  32.720  1.00  0.00     0.001 A 
HETATM   18  C10 UNL     1       6.458  24.047  32.610  1.00  0.00     0.002 A 
HETATM   19  C11 UNL     1       6.710  22.817  33.174  1.00  0.00     0.030 A 
HETATM   20  N3  UNL     1       5.891  21.030  34.426  1.00  0.00    -0.341 N 
HETATM   21  C13 UNL     1       4.939  20.404  35.107  1.00  0.00     0.128 A 
ATOM     22  H3  UNL     1       6.806  20.592  34.324  1.00  0.00     0.167 HD
HETATM   23  N4  UNL     1       5.206  19.188  35.658  1.00  0.00    -0.293 N 
HETATM   24  C16 UNL     1       3.696  20.957  35.266  1.00  0.00     0.104 A 
HETATM   25  C14 UNL     1       4.274  18.517  36.356  1.00  0.00     0.328 A 
ATOM     26  H4  UNL     1       6.133  18.778  35.539  1.00  0.00     0.172 HD
HETATM   27  O1  UNL     1       4.489  17.397  36.875  1.00  0.00    -0.247 OA
HETATM   28  N5  UNL     1       3.049  19.060  36.514  1.00  0.00    -0.275 N 
HETATM   29  C15 UNL     1       2.753  20.257  35.984  1.00  0.00     0.265 A 
ATOM     30  H5  UNL     1       2.339  18.555  37.043  1.00  0.00     0.173 HD
HETATM   31  O2  UNL     1       1.593  20.769  36.135  1.00  0.00    -0.267 OA
ENDBRANCH  11  13
ENDBRANCH   6  11
TORSDOF 2
ENDMDL
MODEL 3
REMARK VINA RESULT: -10.521760834      2.286      6.420
REMARK  2 active torsions:
REMARK  status: ('A' for Active; 'I' for Inactive)
REMARK    1  A    between atoms: C5_6  and  N2_7 
REMARK    2  A    between atoms: N2_7  and  C6_9 
ROOT
HETATM    1  N1  UNL     1       6.591  24.168  31.819  1.00  0.00    -0.191 NA
HETATM    2  C1  UNL     1       5.553  24.040  32.306  1.00  0.00     0.099 C 
HETATM    3  C2  UNL     1       4.245  23.884  32.891  1.00  0.00     0.046 A 
HETATM    4  C3  UNL     1       3.610  24.924  33.536  1.00  0.00     0.025 A 
HETATM    5  C4  UNL     1       2.376  24.819  34.099  1.00  0.00     0.032 A 
HETATM    6  C5  UNL     1       1.677  23.614  34.047  1.00  0.00     0.053 A 
HETATM    7  C17 UNL     1       2.325  22.555  33.392  1.00  0.00     0.072 A 
HETATM    8  C18 UNL     1       1.614  21.294  33.328  1.00  0.00     0.102 C 
HETATM    9  N6  UNL     1       1.059  20.275  33.287  1.00  0.00    -0.191 NA
HETATM   10  C19 UNL     1       3.562  22.690  32.837  1.00  0.00     0.047 A 
ENDROOT
BRANCH   6  11
HETATM   11  N2  UNL     1       0.451  23.420  34.582  1.00  0.00    -0.353 N 
ATOM     12  H2  UNL     1       0.492  22.462  34.930  1.00  0.00     0.166 HD
BRANCH  11  13
HETATM   13  C6  UNL     1      -0.654  23.775  34.864  1.00  0.00     0.065 A 
HETATM   14  C7  UNL     1      -1.561  24.490  34.108  1.00  0.00     0.018 A 
HETATM   15  C8  UNL     1      -1.224  24.888  32.850  1.00  0.00     0.016 A 
HETATM   16  C12 UNL     1      -2.835  24.833  34.581  1.00  0.00     0.046 A 
HETATM   17  C9  UNL     1      -2.118  25.614  32.056  1.00  0.00     0.001 A 
HETATM   18  C10 UNL     1      -3.346  25.926  32.557  1.00  0.00     0.002 A 
HETATM   19  C11 UNL     1      -3.745  25.552  33.820  1.00  0.00     0.030 A 
HETATM   20  N3  UNL     1      -3.197  24.461  35.805  1.00  0.00    -0.341 N 
HETATM   21  C13 UNL     1      -2.374  23.771  36.585  1.00  0.00     0.128 A 
ATOM     22  H3  UNL     1      -4.123  24.711  36.151  1.00  0.00     0.167 HD
HETATM   23  N4  UNL     1      -2.786  23.410  37.831  1.00  0.00    -0.293 N 
HETATM   24  C16 UNL     1      -1.121  23.416  36.161  1.00  0.00     0.104 A 
HETATM   25  C14 UNL     1      -1.987  22.711  38.657  1.00  0.00     0.328 A 
ATOM     26  H4  UNL     1      -3.719  23.675  38.146  1.00  0.00     0.172 HD
HETATM   27  O1  UNL     1      -2.336  22.364  39.808  1.00  0.00    -0.247 OA
HETATM   28  N5  UNL     1      -0.752  22.361  38.239  1.00  0.00    -0.275 N 
HETATM   29  C15 UNL     1      -0.316  22.701  37.016  1.00  0.00     0.265 A 
ATOM     30  H5  UNL     1      -0.142  21.830  38.861  1.00  0.00     0.173 HD
HETATM   31  O2  UNL     1       0.853  22.367  36.625  1.00  0.00    -0.267 OA
ENDBRANCH  11  13
ENDBRANCH   6  11
TORSDOF 2
ENDMDL
MODEL 4
REMARK VINA RESULT: -10.470096559      2.430      2.920
REMARK  2 active torsions:
REMARK  status: ('A' for Active; 'I' for Inactive)
REMARK    1  A    between atoms: C5_6  and  N2_7 
REMARK    2  A    between atoms: N2_7  and  C6_9 
ROOT
HETATM    1  N1  UNL     1      -3.559  26.434  35.948  1.00  0.00    -0.191 NA
HETATM    2  C1  UNL     1      -2.642  25.762  35.749  1.00  0.00     0.099 C 
HETATM    3  C2  UNL     1      -1.504  24.909  35.520  1.00  0.00     0.046 A 
HETATM    4  C3  UNL     1      -0.246  25.238  35.980  1.00  0.00     0.025 A 
HETATM    5  C4  UNL     1       0.853  24.459  35.787  1.00  0.00     0.032 A 
HETATM    6  C5  UNL     1       0.751  23.255  35.094  1.00  0.00     0.053 A 
HETATM    7  C17 UNL     1      -0.530  22.920  34.625  1.00  0.00     0.072 A 
HETATM    8  C18 UNL     1      -0.655  21.672  33.901  1.00  0.00     0.102 C 
HETATM    9  N6  UNL     1      -0.761  20.681  33.306  1.00  0.00    -0.191 NA
HETATM   10  C19 UNL     1      -1.613  23.721  34.834  1.00  0.00     0.047 A 
ENDROOT
BRANCH   6  11
HETATM   11  N2  UNL     1       1.789  22.423  34.854  1.00  0.00    -0.353 N 
ATOM     12  H2  UNL     1       1.351  21.504  34.794  1.00  0.00     0.166 HD
BRANCH  11  13
HETATM   13  C6  UNL     1       2.948  22.194  34.675  1.00  0.00     0.065 A 
HETATM   14  C7  UNL     1       3.894  22.945  34.006  1.00  0.00     0.018 A 
HETATM   15  C8  UNL     1       3.535  24.129  33.439  1.00  0.00     0.016 A 
HETATM   16  C12 UNL     1       5.229  22.539  33.880  1.00  0.00     0.046 A 
HETATM   17  C9  UNL     1       4.467  24.916  32.753  1.00  0.00     0.001 A 
HETATM   18  C10 UNL     1       5.755  24.482  32.655  1.00  0.00     0.002 A 
HETATM   19  C11 UNL     1       6.178  23.295  33.207  1.00  0.00     0.030 A 
HETATM   20  N3  UNL     1       5.615  21.387  34.421  1.00  0.00    -0.341 N 
HETATM   21  C13 UNL     1       4.757  20.616  35.079  1.00  0.00     0.128 A 
ATOM     22  H3  UNL     1       6.586  21.091  34.329  1.00  0.00     0.167 HD
HETATM   23  N4  UNL     1       5.193  19.446  35.618  1.00  0.00    -0.293 N 
HETATM   24  C16 UNL     1       3.443  20.976  35.224  1.00  0.00     0.104 A 
HETATM   25  C14 UNL     1       4.360  18.633  36.292  1.00  0.00     0.328 A 
ATOM     26  H4  UNL     1       6.172  19.179  35.509  1.00  0.00     0.172 HD
HETATM   27  O1  UNL     1       4.731  17.549  36.799  1.00  0.00    -0.247 OA
HETATM   28  N5  UNL     1       3.066  18.986  36.436  1.00  0.00    -0.275 N 
HETATM   29  C15 UNL     1       2.604  20.134  35.916  1.00  0.00     0.265 A 
ATOM     30  H5  UNL     1       2.431  18.374  36.946  1.00  0.00     0.173 HD
HETATM   31  O2  UNL     1       1.378  20.466  36.055  1.00  0.00    -0.267 OA
ENDBRANCH  11  13
ENDBRANCH   6  11
TORSDOF 2
ENDMDL
MODEL 5
REMARK VINA RESULT: -10.029060032      2.896      3.652
REMARK  2 active torsions:
REMARK  status: ('A' for Active; 'I' for Inactive)
REMARK    1  A    between atoms: C5_6  and  N2_7 
REMARK    2  A    between atoms: N2_7  and  C6_9 
ROOT
HETATM    1  N1  UNL     1      -3.256  25.847  32.610  1.00  0.00    -0.191 NA
HETATM    2  C1  UNL     1      -2.316  25.292  32.985  1.00  0.00     0.099 C 
HETATM    3  C2  UNL     1      -1.129  24.609  33.432  1.00  0.00     0.046 A 
HETATM    4  C3  UNL     1      -0.924  23.269  33.179  1.00  0.00     0.025 A 
HETATM    5  C4  UNL     1       0.183  22.588  33.582  1.00  0.00     0.032 A 
HETATM    6  C5  UNL     1       1.192  23.237  34.291  1.00  0.00     0.053 A 
HETATM    7  C17 UNL     1       0.982  24.601  34.550  1.00  0.00     0.072 A 
HETATM    8  C18 UNL     1       2.019  25.293  35.287  1.00  0.00     0.102 C 
HETATM    9  N6  UNL     1       2.838  25.852  35.892  1.00  0.00    -0.191 NA
HETATM   10  C19 UNL     1      -0.138  25.257  34.134  1.00  0.00     0.047 A 
ENDROOT
BRANCH   6  11
HETATM   11  N2  UNL     1       2.320  22.638  34.733  1.00  0.00    -0.353 N 
ATOM     12  H2  UNL     1       2.148  22.509  35.730  1.00  0.00     0.166 HD
BRANCH  11  13
HETATM   13  C6  UNL     1       3.412  22.181  34.574  1.00  0.00     0.065 A 
HETATM   14  C7  UNL     1       4.475  22.686  33.852  1.00  0.00     0.018 A 
HETATM   15  C8  UNL     1       4.339  23.870  33.194  1.00  0.00     0.016 A 
HETATM   16  C12 UNL     1       5.708  22.026  33.761  1.00  0.00     0.046 A 
HETATM   17  C9  UNL     1       5.395  24.411  32.452  1.00  0.00     0.001 A 
HETATM   18  C10 UNL     1       6.576  23.735  32.391  1.00  0.00     0.002 A 
HETATM   19  C11 UNL     1       6.774  22.534  33.034  1.00  0.00     0.030 A 
HETATM   20  N3  UNL     1       5.875  20.866  34.390  1.00  0.00    -0.341 N 
HETATM   21  C13 UNL     1       4.895  20.325  35.103  1.00  0.00     0.128 A 
ATOM     22  H3  UNL     1       6.771  20.385  34.324  1.00  0.00     0.167 HD
HETATM   23  N4  UNL     1       5.108  19.137  35.733  1.00  0.00    -0.293 N 
HETATM   24  C16 UNL     1       3.674  20.937  35.217  1.00  0.00     0.104 A 
HETATM   25  C14 UNL     1       4.146  18.550  36.465  1.00  0.00     0.328 A 
ATOM     26  H4  UNL     1       6.018  18.682  35.647  1.00  0.00     0.172 HD
HETATM   27  O1  UNL     1       4.311  17.458  37.055  1.00  0.00    -0.247 OA
HETATM   28  N5  UNL     1       2.944  19.153  36.578  1.00  0.00    -0.275 N 
HETATM   29  C15 UNL     1       2.700  20.325  35.971  1.00  0.00     0.265 A 
ATOM     30  H5  UNL     1       2.210  18.712  37.133  1.00  0.00     0.173 HD
HETATM   31  O2  UNL     1       1.561  20.892  36.080  1.00  0.00    -0.267 OA
ENDBRANCH  11  13
ENDBRANCH   6  11
TORSDOF 2
ENDMDL
