MODEL 1
REMARK VINA RESULT: -8.338487232      0.000      0.000
REMARK  9 active torsions:
REMARK  status: ('A' for Active; 'I' for Inactive)
REMARK    1  A    between atoms: C2_2  and  C3_3 
REMARK    2  A    between atoms: C3_3  and  N1_4 
REMARK    3  A    between atoms: C4_5  and  O1_6 
REMARK    4  A    between atoms: C5_8  and  N2_9 
REMARK    5  A    between atoms: N3_11  and  C6_13 
REMARK    6  A    between atoms: C11_18  and  O2_19 
REMARK    7  A    between atoms: C14_24  and  S1_25 
REMARK    8  A    between atoms: S1_25  and  C15_26 
REMARK    9  A    between atoms: C15_26  and  C17_28 
ROOT
HETATM    1  N1  UNL     1     -27.367  13.127  -3.446  1.00  0.00    -0.308 N 
HETATM    2  C4  UNL     1     -28.369  12.240  -3.513  1.00  0.00     0.174 A 
HETATM    3  C5  UNL     1     -29.424  12.883  -4.160  1.00  0.00     0.115 A 
HETATM    4  C10 UNL     1     -29.045  14.174  -4.484  1.00  0.00     0.075 A 
HETATM    5  C11 UNL     1     -29.653  15.241  -5.109  1.00  0.00     0.105 A 
HETATM    6  C12 UNL     1     -28.971  16.460  -5.285  1.00  0.00     0.112 A 
HETATM    7  C13 UNL     1     -29.600  17.563  -5.940  1.00  0.00     0.105 C 
HETATM    8  N4  UNL     1     -30.120  18.431  -6.474  1.00  0.00    -0.191 NA
HETATM    9  C14 UNL     1     -27.692  16.532  -4.811  1.00  0.00     0.096 A 
HETATM   10  N5  UNL     1     -27.100  15.467  -4.194  1.00  0.00    -0.335 N 
ATOM     11  H5  UNL     1     -26.143  15.558  -3.854  1.00  0.00     0.168 HD
HETATM   12  C18 UNL     1     -27.748  14.303  -4.025  1.00  0.00     0.126 A 
ENDROOT
BRANCH   5  13
HETATM   13  O2  UNL     1     -30.923  15.186  -5.586  1.00  0.00    -0.358 OA
ATOM     14  H2  UNL     1     -31.649  14.843  -5.078  1.00  0.00     0.217 HD
ENDBRANCH   5  13
BRANCH   9  15
HETATM   15  S1  UNL     1     -26.791  18.075  -5.000  1.00  0.00    -0.095 SA
BRANCH  15  16
HETATM   16  C15 UNL     1     -25.882  18.483  -3.495  1.00  0.00     0.150 C 
HETATM   17  C16 UNL     1     -26.451  17.817  -2.268  1.00  0.00     0.033 C 
BRANCH  16  18
HETATM   18  C17 UNL     1     -25.634  19.910  -3.303  1.00  0.00     0.187 C 
HETATM   19  O3  UNL     1     -25.836  20.403  -2.148  1.00  0.00    -0.647 OA
HETATM   20  O4  UNL     1     -25.195  20.768  -4.284  1.00  0.00    -0.647 OA
ENDBRANCH  16  18
ENDBRANCH  15  16
ENDBRANCH   9  15
BRANCH   3  21
HETATM   21  N2  UNL     1     -30.664  12.302  -4.425  1.00  0.00    -0.300 N 
HETATM   22  N3  UNL     1     -31.776  12.563  -3.912  1.00  0.00    -0.331 N 
ATOM     23  H3  UNL     1     -31.885  13.281  -3.196  1.00  0.00     0.180 HD
ATOM     24  H2  UNL     1     -30.665  11.566  -5.131  1.00  0.00     0.186 HD
BRANCH  22  25
HETATM   25  C6  UNL     1     -32.911  11.775  -4.403  1.00  0.00     0.099 C 
HETATM   26  C7  UNL     1     -34.155  11.923  -3.582  1.00  0.00     0.027 C 
HETATM   27  C8  UNL     1     -34.916  12.260  -4.862  1.00  0.00     0.004 C 
HETATM   28  C9  UNL     1     -33.605  12.598  -5.497  1.00  0.00     0.027 C 
ENDBRANCH  22  25
ENDBRANCH   3  21
BRANCH   2  29
HETATM   29  O1  UNL     1     -28.339  10.942  -3.027  1.00  0.00    -0.344 OA
ATOM     30  H1  UNL     1     -28.995  10.542  -2.467  1.00  0.00     0.219 HD
ENDBRANCH   2  29
BRANCH   1  31
HETATM   31  C3  UNL     1     -26.069  12.925  -2.863  1.00  0.00     0.159 C 
BRANCH  31  32
HETATM   32  C2  UNL     1     -25.053  12.484  -3.824  1.00  0.00    -0.017 C 
HETATM   33  C1  UNL     1     -24.966  11.203  -4.142  1.00  0.00     0.008 C 
ENDBRANCH  31  32
ENDBRANCH   1  31
TORSDOF 9
ENDMDL
MODEL 2
REMARK VINA RESULT: -8.283763271      1.828      2.213
REMARK  9 active torsions:
REMARK  status: ('A' for Active; 'I' for Inactive)
REMARK    1  A    between atoms: C2_2  and  C3_3 
REMARK    2  A    between atoms: C3_3  and  N1_4 
REMARK    3  A    between atoms: C4_5  and  O1_6 
REMARK    4  A    between atoms: C5_8  and  N2_9 
REMARK    5  A    between atoms: N3_11  and  C6_13 
REMARK    6  A    between atoms: C11_18  and  O2_19 
REMARK    7  A    between atoms: C14_24  and  S1_25 
REMARK    8  A    between atoms: S1_25  and  C15_26 
REMARK    9  A    between atoms: C15_26  and  C17_28 
ROOT
HETATM    1  N1  UNL     1     -28.425  11.662  -3.914  1.00  0.00    -0.308 N 
HETATM    2  C4  UNL     1     -29.538  10.973  -4.199  1.00  0.00     0.174 A 
HETATM    3  C5  UNL     1     -30.575  11.903  -4.251  1.00  0.00     0.115 A 
HETATM    4  C10 UNL     1     -30.073  13.167  -3.993  1.00  0.00     0.075 A 
HETATM    5  C11 UNL     1     -30.612  14.432  -3.912  1.00  0.00     0.105 A 
HETATM    6  C12 UNL     1     -29.802  15.545  -3.618  1.00  0.00     0.112 A 
HETATM    7  C13 UNL     1     -30.360  16.858  -3.541  1.00  0.00     0.105 C 
HETATM    8  N4  UNL     1     -30.827  17.901  -3.491  1.00  0.00    -0.191 NA
HETATM    9  C14 UNL     1     -28.471  15.311  -3.420  1.00  0.00     0.096 A 
HETATM   10  N5  UNL     1     -27.948  14.052  -3.504  1.00  0.00    -0.335 N 
ATOM     11  H5  UNL     1     -26.950  13.917  -3.351  1.00  0.00     0.168 HD
HETATM   12  C18 UNL     1     -28.719  12.988  -3.784  1.00  0.00     0.126 A 
ENDROOT
BRANCH   5  13
HETATM   13  O2  UNL     1     -31.932  14.682  -4.106  1.00  0.00    -0.358 OA
ATOM     14  H2  UNL     1     -32.281  15.561  -4.195  1.00  0.00     0.217 HD
ENDBRANCH   5  13
BRANCH   9  15
HETATM   15  S1  UNL     1     -27.403  16.702  -3.026  1.00  0.00    -0.095 SA
BRANCH  15  16
HETATM   16  C15 UNL     1     -26.528  17.282  -4.494  1.00  0.00     0.150 C 
HETATM   17  C16 UNL     1     -25.247  18.007  -4.166  1.00  0.00     0.033 C 
BRANCH  16  18
HETATM   18  C17 UNL     1     -27.361  18.008  -5.450  1.00  0.00     0.187 C 
HETATM   19  O3  UNL     1     -27.168  19.258  -5.584  1.00  0.00    -0.647 OA
HETATM   20  O4  UNL     1     -28.346  17.438  -6.223  1.00  0.00    -0.647 OA
ENDBRANCH  16  18
ENDBRANCH  15  16
ENDBRANCH   9  15
BRANCH   3  21
HETATM   21  N2  UNL     1     -31.909  11.590  -4.517  1.00  0.00    -0.300 N 
HETATM   22  N3  UNL     1     -32.891  11.632  -3.743  1.00  0.00    -0.331 N 
ATOM     23  H3  UNL     1     -32.800  11.923  -2.769  1.00  0.00     0.180 HD
ATOM     24  H2  UNL     1     -32.109  11.285  -5.470  1.00  0.00     0.186 HD
BRANCH  22  25
HETATM   25  C6  UNL     1     -34.181  11.241  -4.319  1.00  0.00     0.099 C 
HETATM   26  C7  UNL     1     -35.357  11.533  -3.438  1.00  0.00     0.027 C 
HETATM   27  C8  UNL     1     -36.006  12.266  -4.610  1.00  0.00     0.004 C 
HETATM   28  C9  UNL     1     -34.649  12.389  -5.225  1.00  0.00     0.027 C 
ENDBRANCH  22  25
ENDBRANCH   3  21
BRANCH   2  29
HETATM   29  O1  UNL     1     -29.617   9.604  -4.399  1.00  0.00    -0.344 OA
ATOM     30  H1  UNL     1     -28.885   8.998  -4.404  1.00  0.00     0.219 HD
ENDBRANCH   2  29
BRANCH   1  31
HETATM   31  C3  UNL     1     -27.097  11.135  -3.755  1.00  0.00     0.159 C 
BRANCH  31  32
HETATM   32  C2  UNL     1     -26.069  11.900  -4.468  1.00  0.00    -0.017 C 
HETATM   33  C1  UNL     1     -24.913  12.150  -3.877  1.00  0.00     0.008 C 
ENDBRANCH  31  32
ENDBRANCH   1  31
TORSDOF 9
ENDMDL
MODEL 3
REMARK VINA RESULT: -8.066118564      1.248      1.559
REMARK  9 active torsions:
REMARK  status: ('A' for Active; 'I' for Inactive)
REMARK    1  A    between atoms: C2_2  and  C3_3 
REMARK    2  A    between atoms: C3_3  and  N1_4 
REMARK    3  A    between atoms: C4_5  and  O1_6 
REMARK    4  A    between atoms: C5_8  and  N2_9 
REMARK    5  A    between atoms: N3_11  and  C6_13 
REMARK    6  A    between atoms: C11_18  and  O2_19 
REMARK    7  A    between atoms: C14_24  and  S1_25 
REMARK    8  A    between atoms: S1_25  and  C15_26 
REMARK    9  A    between atoms: C15_26  and  C17_28 
ROOT
HETATM    1  N1  UNL     1     -27.737  12.061  -3.794  1.00  0.00    -0.308 N 
HETATM    2  C4  UNL     1     -28.843  11.308  -3.850  1.00  0.00     0.174 A 
HETATM    3  C5  UNL     1     -29.873  12.148  -4.272  1.00  0.00     0.115 A 
HETATM    4  C10 UNL     1     -29.372  13.424  -4.472  1.00  0.00     0.075 A 
HETATM    5  C11 UNL     1     -29.905  14.628  -4.874  1.00  0.00     0.105 A 
HETATM    6  C12 UNL     1     -29.099  15.778  -4.974  1.00  0.00     0.112 A 
HETATM    7  C13 UNL     1     -29.652  17.026  -5.398  1.00  0.00     0.105 C 
HETATM    8  N4  UNL     1     -30.114  18.013  -5.747  1.00  0.00    -0.191 NA
HETATM    9  C14 UNL     1     -27.778  15.641  -4.658  1.00  0.00     0.096 A 
HETATM   10  N5  UNL     1     -27.260  14.441  -4.262  1.00  0.00    -0.335 N 
ATOM     11  H5  UNL     1     -26.269  14.377  -4.035  1.00  0.00     0.168 HD
HETATM   12  C18 UNL     1     -28.027  13.342  -4.165  1.00  0.00     0.126 A 
ENDROOT
BRANCH   5  13
HETATM   13  O2  UNL     1     -31.216  14.782  -5.191  1.00  0.00    -0.358 OA
ATOM     14  H2  UNL     1     -31.533  15.491  -5.738  1.00  0.00     0.217 HD
ENDBRANCH   5  13
BRANCH   9  15
HETATM   15  S1  UNL     1     -26.716  17.088  -4.758  1.00  0.00    -0.095 SA
BRANCH  15  16
HETATM   16  C15 UNL     1     -26.871  18.108  -3.277  1.00  0.00     0.150 C 
HETATM   17  C16 UNL     1     -26.424  19.532  -3.496  1.00  0.00     0.033 C 
BRANCH  16  18
HETATM   18  C17 UNL     1     -26.305  17.515  -2.068  1.00  0.00     0.187 C 
HETATM   19  O3  UNL     1     -25.645  18.269  -1.284  1.00  0.00    -0.647 OA
HETATM   20  O4  UNL     1     -26.431  16.193  -1.710  1.00  0.00    -0.647 OA
ENDBRANCH  16  18
ENDBRANCH  15  16
ENDBRANCH   9  15
BRANCH   3  21
HETATM   21  N2  UNL     1     -31.197  11.751  -4.453  1.00  0.00    -0.300 N 
HETATM   22  N3  UNL     1     -32.224  12.157  -3.862  1.00  0.00    -0.331 N 
ATOM     23  H3  UNL     1     -32.182  12.872  -3.136  1.00  0.00     0.180 HD
ATOM     24  H2  UNL     1     -31.350  11.033  -5.162  1.00  0.00     0.186 HD
BRANCH  22  25
HETATM   25  C6  UNL     1     -33.489  11.543  -4.277  1.00  0.00     0.099 C 
HETATM   26  C7  UNL     1     -34.657  11.912  -3.415  1.00  0.00     0.027 C 
HETATM   27  C8  UNL     1     -35.412  12.323  -4.677  1.00  0.00     0.004 C 
HETATM   28  C9  UNL     1     -34.094  12.429  -5.375  1.00  0.00     0.027 C 
ENDBRANCH  22  25
ENDBRANCH   3  21
BRANCH   2  29
HETATM   29  O1  UNL     1     -28.924   9.959  -3.542  1.00  0.00    -0.344 OA
ATOM     30  H1  UNL     1     -29.408   9.304  -4.032  1.00  0.00     0.219 HD
ENDBRANCH   2  29
BRANCH   1  31
HETATM   31  C3  UNL     1     -26.419  11.637  -3.409  1.00  0.00     0.159 C 
BRANCH  31  32
HETATM   32  C2  UNL     1     -25.629  11.087  -4.515  1.00  0.00    -0.017 C 
HETATM   33  C1  UNL     1     -24.574  10.333  -4.254  1.00  0.00     0.008 C 
ENDBRANCH  31  32
ENDBRANCH   1  31
TORSDOF 9
ENDMDL
MODEL 4
REMARK VINA RESULT: -8.036947607      2.712      7.909
REMARK  9 active torsions:
REMARK  status: ('A' for Active; 'I' for Inactive)
REMARK    1  A    between atoms: C2_2  and  C3_3 
REMARK    2  A    between atoms: C3_3  and  N1_4 
REMARK    3  A    between atoms: C4_5  and  O1_6 
REMARK    4  A    between atoms: C5_8  and  N2_9 
REMARK    5  A    between atoms: N3_11  and  C6_13 
REMARK    6  A    between atoms: C11_18  and  O2_19 
REMARK    7  A    between atoms: C14_24  and  S1_25 
REMARK    8  A    between atoms: S1_25  and  C15_26 
REMARK    9  A    between atoms: C15_26  and  C17_28 
ROOT
HETATM    1  N1  UNL     1     -30.199  15.418  -3.734  1.00  0.00    -0.308 N 
HETATM    2  C4  UNL     1     -29.825  16.701  -3.635  1.00  0.00     0.174 A 
HETATM    3  C5  UNL     1     -28.433  16.701  -3.551  1.00  0.00     0.115 A 
HETATM    4  C10 UNL     1     -27.969  15.398  -3.601  1.00  0.00     0.075 A 
HETATM    5  C11 UNL     1     -26.728  14.802  -3.561  1.00  0.00     0.105 A 
HETATM    6  C12 UNL     1     -26.595  13.403  -3.633  1.00  0.00     0.112 A 
HETATM    7  C13 UNL     1     -25.306  12.786  -3.598  1.00  0.00     0.105 C 
HETATM    8  N4  UNL     1     -24.264  12.315  -3.575  1.00  0.00    -0.191 NA
HETATM    9  C14 UNL     1     -27.744  12.673  -3.744  1.00  0.00     0.096 A 
HETATM   10  N5  UNL     1     -28.969  13.275  -3.785  1.00  0.00    -0.335 N 
ATOM     11  H5  UNL     1     -29.805  12.698  -3.869  1.00  0.00     0.168 HD
HETATM   12  C18 UNL     1     -29.099  14.611  -3.716  1.00  0.00     0.126 A 
ENDROOT
BRANCH   5  13
HETATM   13  O2  UNL     1     -25.576  15.512  -3.450  1.00  0.00    -0.358 OA
ATOM     14  H2  UNL     1     -24.904  15.306  -2.811  1.00  0.00     0.217 HD
ENDBRANCH   5  13
BRANCH   9  15
HETATM   15  S1  UNL     1     -27.621  10.882  -3.823  1.00  0.00    -0.095 SA
BRANCH  15  16
HETATM   16  C15 UNL     1     -29.206  10.143  -4.271  1.00  0.00     0.150 C 
HETATM   17  C16 UNL     1     -29.917  10.899  -5.365  1.00  0.00     0.033 C 
BRANCH  16  18
HETATM   18  C17 UNL     1     -30.074   9.835  -3.137  1.00  0.00     0.187 C 
HETATM   19  O3  UNL     1     -31.333   9.875  -3.319  1.00  0.00    -0.647 OA
HETATM   20  O4  UNL     1     -29.632   9.502  -1.879  1.00  0.00    -0.647 OA
ENDBRANCH  16  18
ENDBRANCH  15  16
ENDBRANCH   9  15
BRANCH   3  21
HETATM   21  N2  UNL     1     -27.646  17.846  -3.430  1.00  0.00    -0.300 N 
HETATM   22  N3  UNL     1     -26.769  18.106  -2.575  1.00  0.00    -0.331 N 
ATOM     23  H3  UNL     1     -26.531  17.452  -1.829  1.00  0.00     0.180 HD
ATOM     24  H2  UNL     1     -27.806  18.569  -4.132  1.00  0.00     0.186 HD
BRANCH  22  25
HETATM   25  C6  UNL     1     -26.104  19.406  -2.710  1.00  0.00     0.099 C 
HETATM   26  C7  UNL     1     -25.204  19.752  -1.564  1.00  0.00     0.027 C 
HETATM   27  C8  UNL     1     -24.087  20.019  -2.570  1.00  0.00     0.004 C 
HETATM   28  C9  UNL     1     -24.844  19.193  -3.561  1.00  0.00     0.027 C 
ENDBRANCH  22  25
ENDBRANCH   3  21
BRANCH   2  29
HETATM   29  O1  UNL     1     -30.674  17.797  -3.620  1.00  0.00    -0.344 OA
ATOM     30  H1  UNL     1     -30.711  18.463  -2.944  1.00  0.00     0.219 HD
ENDBRANCH   2  29
BRANCH   1  31
HETATM   31  C3  UNL     1     -31.540  14.914  -3.842  1.00  0.00     0.159 C 
BRANCH  31  32
HETATM   32  C2  UNL     1     -31.749  14.037  -4.998  1.00  0.00    -0.017 C 
HETATM   33  C1  UNL     1     -32.808  13.246  -5.037  1.00  0.00     0.008 C 
ENDBRANCH  31  32
ENDBRANCH   1  31
TORSDOF 9
ENDMDL
MODEL 5
REMARK VINA RESULT: -7.974226673      1.767      2.172
REMARK  9 active torsions:
REMARK  status: ('A' for Active; 'I' for Inactive)
REMARK    1  A    between atoms: C2_2  and  C3_3 
REMARK    2  A    between atoms: C3_3  and  N1_4 
REMARK    3  A    between atoms: C4_5  and  O1_6 
REMARK    4  A    between atoms: C5_8  and  N2_9 
REMARK    5  A    between atoms: N3_11  and  C6_13 
REMARK    6  A    between atoms: C11_18  and  O2_19 
REMARK    7  A    between atoms: C14_24  and  S1_25 
REMARK    8  A    between atoms: S1_25  and  C15_26 
REMARK    9  A    between atoms: C15_26  and  C17_28 
ROOT
HETATM    1  N1  UNL     1     -28.782  11.833  -4.520  1.00  0.00    -0.308 N 
HETATM    2  C4  UNL     1     -29.881  11.086  -4.357  1.00  0.00     0.174 A 
HETATM    3  C5  UNL     1     -30.921  11.969  -4.069  1.00  0.00     0.115 A 
HETATM    4  C10 UNL     1     -30.434  13.265  -4.062  1.00  0.00     0.075 A 
HETATM    5  C11 UNL     1     -30.980  14.511  -3.844  1.00  0.00     0.105 A 
HETATM    6  C12 UNL     1     -30.184  15.670  -3.908  1.00  0.00     0.112 A 
HETATM    7  C13 UNL     1     -30.752  16.963  -3.689  1.00  0.00     0.105 C 
HETATM    8  N4  UNL     1     -31.230  17.988  -3.517  1.00  0.00    -0.191 NA
HETATM    9  C14 UNL     1     -28.859  15.501  -4.193  1.00  0.00     0.096 A 
HETATM   10  N5  UNL     1     -28.329  14.261  -4.408  1.00  0.00    -0.335 N 
ATOM     11  H5  UNL     1     -27.336  14.173  -4.620  1.00  0.00     0.168 HD
HETATM   12  C18 UNL     1     -29.086  13.152  -4.348  1.00  0.00     0.126 A 
ENDROOT
BRANCH   5  13
HETATM   13  O2  UNL     1     -32.294  14.697  -3.559  1.00  0.00    -0.358 OA
ATOM     14  H2  UNL     1     -32.594  15.285  -2.876  1.00  0.00     0.217 HD
ENDBRANCH   5  13
BRANCH   9  15
HETATM   15  S1  UNL     1     -27.803  16.953  -4.268  1.00  0.00    -0.095 SA
BRANCH  15  16
HETATM   16  C15 UNL     1     -26.534  16.898  -2.985  1.00  0.00     0.150 C 
HETATM   17  C16 UNL     1     -26.730  15.761  -2.015  1.00  0.00     0.033 C 
BRANCH  16  18
HETATM   18  C17 UNL     1     -26.288  18.176  -2.319  1.00  0.00     0.187 C 
HETATM   19  O3  UNL     1     -25.602  18.170  -1.248  1.00  0.00    -0.647 OA
HETATM   20  O4  UNL     1     -26.745  19.393  -2.766  1.00  0.00    -0.647 OA
ENDBRANCH  16  18
ENDBRANCH  15  16
ENDBRANCH   9  15
BRANCH   3  21
HETATM   21  N2  UNL     1     -32.240  11.589  -3.824  1.00  0.00    -0.300 N 
HETATM   22  N3  UNL     1     -33.279  11.931  -4.433  1.00  0.00    -0.331 N 
ATOM     23  H3  UNL     1     -33.254  12.569  -5.228  1.00  0.00     0.180 HD
ATOM     24  H2  UNL     1     -32.377  10.947  -3.043  1.00  0.00     0.186 HD
BRANCH  22  25
HETATM   25  C6  UNL     1     -34.534  11.358  -3.936  1.00  0.00     0.099 C 
HETATM   26  C7  UNL     1     -34.362  10.429  -2.774  1.00  0.00     0.027 C 
HETATM   27  C8  UNL     1     -35.409  11.241  -2.016  1.00  0.00     0.004 C 
HETATM   28  C9  UNL     1     -35.149  12.371  -2.960  1.00  0.00     0.027 C 
ENDBRANCH  22  25
ENDBRANCH   3  21
BRANCH   2  29
HETATM   29  O1  UNL     1     -29.948   9.705  -4.458  1.00  0.00    -0.344 OA
ATOM     30  H1  UNL     1     -30.169   9.105  -3.755  1.00  0.00     0.219 HD
ENDBRANCH   2  29
BRANCH   1  31
HETATM   31  C3  UNL     1     -27.457  11.369  -4.829  1.00  0.00     0.159 C 
BRANCH  31  32
HETATM   32  C2  UNL     1     -26.546  11.377  -3.681  1.00  0.00    -0.017 C 
HETATM   33  C1  UNL     1     -25.446  12.110  -3.723  1.00  0.00     0.008 C 
ENDBRANCH  31  32
ENDBRANCH   1  31
TORSDOF 9
ENDMDL
