MODEL 1
REMARK VINA RESULT: -9.170085788      0.000      0.000
REMARK  8 active torsions:
REMARK  status: ('A' for Active; 'I' for Inactive)
REMARK    1  A    between atoms: C2_3  and  C14_26 
REMARK    2  A    between atoms: N2_4  and  N3_6 
REMARK    3  A    between atoms: N3_6  and  C3_8 
REMARK    4  A    between atoms: C6_11  and  N4_12 
REMARK    5  A    between atoms: N4_12  and  C7_14 
REMARK    6  A    between atoms: C7_14  and  C8_19 
REMARK    7  A    between atoms: N5_15  and  O1_17 
REMARK    8  A    between atoms: C14_26  and  C15_28 
ROOT
HETATM    1  N1  UNL     1     -28.062  17.433  -4.711  1.00  0.00    -0.190 NA
HETATM    2  C1  UNL     1     -28.123  16.394  -4.199  1.00  0.00     0.123 C 
HETATM    3  C2  UNL     1     -28.209  15.110  -3.561  1.00  0.00     0.180 C 
HETATM    4  N2  UNL     1     -29.283  14.408  -3.634  1.00  0.00    -0.287 N 
ATOM      5  H2  UNL     1     -29.333  13.498  -3.175  1.00  0.00     0.188 HD
ENDROOT
BRANCH   3   6
HETATM    6  C14 UNL     1     -27.039  14.626  -2.834  1.00  0.00     0.227 C 
HETATM    7  O3  UNL     1     -26.594  15.209  -1.836  1.00  0.00    -0.284 OA
BRANCH   6   8
HETATM    8  C15 UNL     1     -26.359  13.406  -3.293  1.00  0.00     0.058 A 
HETATM    9  C16 UNL     1     -25.021  13.188  -3.486  1.00  0.00     0.023 A 
HETATM   10  C17 UNL     1     -24.654  11.978  -3.913  1.00  0.00     0.009 A 
HETATM   11  C18 UNL     1     -25.638  11.051  -4.127  1.00  0.00     0.050 A 
HETATM   12  S2  UNL     1     -27.057  11.909  -3.719  1.00  0.00    -0.098 SA
ENDBRANCH   6   8
ENDBRANCH   3   6
BRANCH   4  13
HETATM   13  N3  UNL     1     -30.377  14.893  -4.342  1.00  0.00    -0.300 N 
ATOM     14  H3  UNL     1     -30.313  15.826  -4.748  1.00  0.00     0.187 HD
BRANCH  13  15
HETATM   15  C3  UNL     1     -31.579  14.161  -4.530  1.00  0.00     0.048 A 
HETATM   16  C4  UNL     1     -32.547  14.113  -3.539  1.00  0.00     0.033 A 
HETATM   17  C5  UNL     1     -33.710  13.396  -3.720  1.00  0.00     0.032 A 
HETATM   18  C6  UNL     1     -33.956  12.697  -4.898  1.00  0.00     0.033 A 
HETATM   19  C12 UNL     1     -33.004  12.739  -5.885  1.00  0.00     0.032 A 
HETATM   20  C13 UNL     1     -31.841  13.462  -5.690  1.00  0.00     0.033 A 
BRANCH  18  21
HETATM   21  N4  UNL     1     -35.157  11.965  -5.062  1.00  0.00    -0.339 N 
ATOM     22  H4  UNL     1     -35.294  11.413  -5.909  1.00  0.00     0.167 HD
BRANCH  21  23
HETATM   23  C7  UNL     1     -36.169  11.985  -4.078  1.00  0.00     0.161 C 
HETATM   24  N5  UNL     1     -36.272  11.055  -3.205  1.00  0.00    -0.234 N 
ATOM     25  H5  UNL     1     -37.023  11.121  -2.518  1.00  0.00     0.197 HD
BRANCH  24  26
HETATM   26  O1  UNL     1     -35.431   9.981  -3.141  1.00  0.00    -0.189 OA
HETATM   27  S1  UNL     1     -35.551   8.767  -1.901  1.00  0.00     0.125 SA
ENDBRANCH  24  26
BRANCH  23  28
HETATM   28  C8  UNL     1     -37.146  13.082  -4.026  1.00  0.00     0.120 A 
HETATM   29  C9  UNL     1     -37.052  14.173  -3.163  1.00  0.00     0.043 A 
HETATM   30  C10 UNL     1     -38.126  14.987  -3.390  1.00  0.00     0.027 A 
HETATM   31  C11 UNL     1     -38.852  14.363  -4.397  1.00  0.00     0.142 A 
HETATM   32  O2  UNL     1     -38.236  13.269  -4.723  1.00  0.00    -0.319 OA
ENDBRANCH  23  28
ENDBRANCH  21  23
ENDBRANCH  18  21
ENDBRANCH  13  15
ENDBRANCH   4  13
TORSDOF 8
ENDMDL
MODEL 2
REMARK VINA RESULT: -9.125871657      1.924      2.938
REMARK  8 active torsions:
REMARK  status: ('A' for Active; 'I' for Inactive)
REMARK    1  A    between atoms: C2_3  and  C14_26 
REMARK    2  A    between atoms: N2_4  and  N3_6 
REMARK    3  A    between atoms: N3_6  and  C3_8 
REMARK    4  A    between atoms: C6_11  and  N4_12 
REMARK    5  A    between atoms: N4_12  and  C7_14 
REMARK    6  A    between atoms: C7_14  and  C8_19 
REMARK    7  A    between atoms: N5_15  and  O1_17 
REMARK    8  A    between atoms: C14_26  and  C15_28 
ROOT
HETATM    1  N1  UNL     1     -28.424  17.152  -5.275  1.00  0.00    -0.190 NA
HETATM    2  C1  UNL     1     -28.513  16.245  -4.558  1.00  0.00     0.123 C 
HETATM    3  C2  UNL     1     -28.634  15.125  -3.667  1.00  0.00     0.180 C 
HETATM    4  N2  UNL     1     -29.757  14.517  -3.519  1.00  0.00    -0.287 N 
ATOM      5  H2  UNL     1     -29.831  13.725  -2.881  1.00  0.00     0.188 HD
ENDROOT
BRANCH   3   6
HETATM    6  C14 UNL     1     -27.443  14.695  -2.940  1.00  0.00     0.227 C 
HETATM    7  O3  UNL     1     -27.004  15.318  -1.964  1.00  0.00    -0.284 OA
BRANCH   6   8
HETATM    8  C15 UNL     1     -26.733  13.483  -3.372  1.00  0.00     0.058 A 
HETATM    9  C16 UNL     1     -25.385  13.270  -3.486  1.00  0.00     0.023 A 
HETATM   10  C17 UNL     1     -24.989  12.067  -3.905  1.00  0.00     0.009 A 
HETATM   11  C18 UNL     1     -25.955  11.141  -4.192  1.00  0.00     0.050 A 
HETATM   12  S2  UNL     1     -27.399  11.990  -3.860  1.00  0.00    -0.098 SA
ENDBRANCH   6   8
ENDBRANCH   3   6
BRANCH   4  13
HETATM   13  N3  UNL     1     -30.871  14.945  -4.233  1.00  0.00    -0.300 N 
ATOM     14  H3  UNL     1     -30.848  15.875  -4.650  1.00  0.00     0.187 HD
BRANCH  13  15
HETATM   15  C3  UNL     1     -32.040  14.158  -4.412  1.00  0.00     0.048 A 
HETATM   16  C4  UNL     1     -32.201  13.370  -5.540  1.00  0.00     0.033 A 
HETATM   17  C5  UNL     1     -33.339  12.612  -5.716  1.00  0.00     0.032 A 
HETATM   18  C6  UNL     1     -34.363  12.610  -4.774  1.00  0.00     0.033 A 
HETATM   19  C12 UNL     1     -34.213  13.388  -3.654  1.00  0.00     0.032 A 
HETATM   20  C13 UNL     1     -33.065  14.144  -3.490  1.00  0.00     0.033 A 
BRANCH  18  21
HETATM   21  N4  UNL     1     -35.525  11.825  -4.976  1.00  0.00    -0.339 N 
ATOM     22  H4  UNL     1     -35.715  11.444  -5.903  1.00  0.00     0.167 HD
BRANCH  21  23
HETATM   23  C7  UNL     1     -36.424  11.561  -3.921  1.00  0.00     0.161 C 
HETATM   24  N5  UNL     1     -37.462  12.284  -3.729  1.00  0.00    -0.234 N 
ATOM     25  H5  UNL     1     -38.077  12.047  -2.950  1.00  0.00     0.197 HD
BRANCH  24  26
HETATM   26  O1  UNL     1     -37.792  13.356  -4.508  1.00  0.00    -0.189 OA
HETATM   27  S1  UNL     1     -38.697  14.713  -3.904  1.00  0.00     0.125 SA
ENDBRANCH  24  26
BRANCH  23  28
HETATM   28  C8  UNL     1     -36.194  10.438  -3.001  1.00  0.00     0.120 A 
HETATM   29  C9  UNL     1     -34.933  10.007  -2.592  1.00  0.00     0.043 A 
HETATM   30  C10 UNL     1     -35.100   8.949  -1.743  1.00  0.00     0.027 A 
HETATM   31  C11 UNL     1     -36.474   8.764  -1.657  1.00  0.00     0.142 A 
HETATM   32  O2  UNL     1     -37.051   9.653  -2.404  1.00  0.00    -0.319 OA
ENDBRANCH  23  28
ENDBRANCH  21  23
ENDBRANCH  18  21
ENDBRANCH  13  15
ENDBRANCH   4  13
TORSDOF 8
ENDMDL
MODEL 3
REMARK VINA RESULT: -8.911445947      3.654      5.189
REMARK  8 active torsions:
REMARK  status: ('A' for Active; 'I' for Inactive)
REMARK    1  A    between atoms: C2_3  and  C14_26 
REMARK    2  A    between atoms: N2_4  and  N3_6 
REMARK    3  A    between atoms: N3_6  and  C3_8 
REMARK    4  A    between atoms: C6_11  and  N4_12 
REMARK    5  A    between atoms: N4_12  and  C7_14 
REMARK    6  A    between atoms: C7_14  and  C8_19 
REMARK    7  A    between atoms: N5_15  and  O1_17 
REMARK    8  A    between atoms: C14_26  and  C15_28 
ROOT
HETATM    1  N1  UNL     1     -26.373  19.309  -5.594  1.00  0.00    -0.190 NA
HETATM    2  C1  UNL     1     -26.603  18.861  -4.549  1.00  0.00     0.123 C 
HETATM    3  C2  UNL     1     -26.898  18.310  -3.256  1.00  0.00     0.180 C 
HETATM    4  N2  UNL     1     -28.025  17.736  -3.025  1.00  0.00    -0.287 N 
ATOM      5  H2  UNL     1     -28.223  17.351  -2.101  1.00  0.00     0.188 HD
ENDROOT
BRANCH   3   6
HETATM    6  C14 UNL     1     -25.878  18.417  -2.217  1.00  0.00     0.227 C 
HETATM    7  O3  UNL     1     -25.938  17.768  -1.164  1.00  0.00    -0.284 OA
BRANCH   6   8
HETATM    8  C15 UNL     1     -24.737  19.321  -2.417  1.00  0.00     0.058 A 
HETATM    9  C16 UNL     1     -23.651  19.169  -3.238  1.00  0.00     0.023 A 
HETATM   10  C17 UNL     1     -22.742  20.145  -3.238  1.00  0.00     0.009 A 
HETATM   11  C18 UNL     1     -22.959  21.219  -2.418  1.00  0.00     0.050 A 
HETATM   12  S2  UNL     1     -24.443  20.826  -1.669  1.00  0.00    -0.098 SA
ENDBRANCH   6   8
ENDBRANCH   3   6
BRANCH   4  13
HETATM   13  N3  UNL     1     -28.972  17.643  -4.038  1.00  0.00    -0.300 N 
ATOM     14  H3  UNL     1     -29.217  18.492  -4.548  1.00  0.00     0.187 HD
BRANCH  13  15
HETATM   15  C3  UNL     1     -29.615  16.431  -4.404  1.00  0.00     0.048 A 
HETATM   16  C4  UNL     1     -29.107  15.630  -5.413  1.00  0.00     0.033 A 
HETATM   17  C5  UNL     1     -29.737  14.458  -5.771  1.00  0.00     0.032 A 
HETATM   18  C6  UNL     1     -30.901  14.036  -5.137  1.00  0.00     0.033 A 
HETATM   19  C12 UNL     1     -31.412  14.822  -4.135  1.00  0.00     0.032 A 
HETATM   20  C13 UNL     1     -30.770  15.997  -3.786  1.00  0.00     0.033 A 
BRANCH  18  21
HETATM   21  N4  UNL     1     -31.533  12.828  -5.522  1.00  0.00    -0.339 N 
ATOM     22  H4  UNL     1     -31.700  12.645  -6.511  1.00  0.00     0.167 HD
BRANCH  21  23
HETATM   23  C7  UNL     1     -31.936  11.874  -4.563  1.00  0.00     0.161 C 
HETATM   24  N5  UNL     1     -31.106  11.042  -4.057  1.00  0.00    -0.234 N 
ATOM     25  H5  UNL     1     -31.454  10.373  -3.369  1.00  0.00     0.197 HD
BRANCH  24  26
HETATM   26  O1  UNL     1     -29.781  11.000  -4.385  1.00  0.00    -0.189 OA
HETATM   27  S1  UNL     1     -28.534  11.603  -3.334  1.00  0.00     0.125 SA
ENDBRANCH  24  26
BRANCH  23  28
HETATM   28  C8  UNL     1     -33.335  11.802  -4.115  1.00  0.00     0.120 A 
HETATM   29  C9  UNL     1     -34.409  12.347  -4.816  1.00  0.00     0.043 A 
HETATM   30  C10 UNL     1     -35.551  12.093  -4.108  1.00  0.00     0.027 A 
HETATM   31  C11 UNL     1     -35.134  11.391  -2.984  1.00  0.00     0.142 A 
HETATM   32  O2  UNL     1     -33.846  11.254  -3.045  1.00  0.00    -0.319 OA
ENDBRANCH  23  28
ENDBRANCH  21  23
ENDBRANCH  18  21
ENDBRANCH  13  15
ENDBRANCH   4  13
TORSDOF 8
ENDMDL
MODEL 4
REMARK VINA RESULT: -8.902190016      5.436      8.141
REMARK  8 active torsions:
REMARK  status: ('A' for Active; 'I' for Inactive)
REMARK    1  A    between atoms: C2_3  and  C14_26 
REMARK    2  A    between atoms: N2_4  and  N3_6 
REMARK    3  A    between atoms: N3_6  and  C3_8 
REMARK    4  A    between atoms: C6_11  and  N4_12 
REMARK    5  A    between atoms: N4_12  and  C7_14 
REMARK    6  A    between atoms: C7_14  and  C8_19 
REMARK    7  A    between atoms: N5_15  and  O1_17 
REMARK    8  A    between atoms: C14_26  and  C15_28 
ROOT
HETATM    1  N1  UNL     1     -25.771  18.201  -1.082  1.00  0.00    -0.190 NA
HETATM    2  C1  UNL     1     -25.937  18.727  -2.103  1.00  0.00     0.123 C 
HETATM    3  C2  UNL     1     -26.147  19.367  -3.372  1.00  0.00     0.180 C 
HETATM    4  N2  UNL     1     -27.202  19.127  -4.065  1.00  0.00    -0.287 N 
ATOM      5  H2  UNL     1     -27.338  19.587  -4.966  1.00  0.00     0.188 HD
ENDROOT
BRANCH   3   6
HETATM    6  C14 UNL     1     -25.130  20.302  -3.844  1.00  0.00     0.227 C 
HETATM    7  O3  UNL     1     -25.284  20.985  -4.865  1.00  0.00    -0.284 OA
BRANCH   6   8
HETATM    8  C15 UNL     1     -23.876  20.446  -3.090  1.00  0.00     0.058 A 
HETATM    9  C16 UNL     1     -23.515  21.422  -2.199  1.00  0.00     0.023 A 
HETATM   10  C17 UNL     1     -22.307  21.325  -1.642  1.00  0.00     0.009 A 
HETATM   11  C18 UNL     1     -21.521  20.263  -2.002  1.00  0.00     0.050 A 
HETATM   12  S2  UNL     1     -22.509  19.426  -3.117  1.00  0.00    -0.098 SA
ENDBRANCH   6   8
ENDBRANCH   3   6
BRANCH   4  13
HETATM   13  N3  UNL     1     -28.157  18.238  -3.584  1.00  0.00    -0.300 N 
ATOM     14  H3  UNL     1     -28.871  18.596  -2.950  1.00  0.00     0.187 HD
BRANCH  13  15
HETATM   15  C3  UNL     1     -28.191  16.861  -3.926  1.00  0.00     0.048 A 
HETATM   16  C4  UNL     1     -28.912  16.417  -5.023  1.00  0.00     0.033 A 
HETATM   17  C5  UNL     1     -28.950  15.078  -5.349  1.00  0.00     0.032 A 
HETATM   18  C6  UNL     1     -28.272  14.127  -4.594  1.00  0.00     0.033 A 
HETATM   19  C12 UNL     1     -27.555  14.557  -3.506  1.00  0.00     0.032 A 
HETATM   20  C13 UNL     1     -27.525  15.903  -3.189  1.00  0.00     0.033 A 
BRANCH  18  21
HETATM   21  N4  UNL     1     -28.326  12.757  -4.947  1.00  0.00    -0.339 N 
ATOM     22  H4  UNL     1     -28.754  12.485  -5.832  1.00  0.00     0.167 HD
BRANCH  21  23
HETATM   23  C7  UNL     1     -27.800  11.759  -4.098  1.00  0.00     0.161 C 
HETATM   24  N5  UNL     1     -28.528  11.170  -3.226  1.00  0.00    -0.234 N 
ATOM     25  H5  UNL     1     -28.095  10.458  -2.638  1.00  0.00     0.197 HD
BRANCH  24  26
HETATM   26  O1  UNL     1     -29.853  11.443  -3.037  1.00  0.00    -0.189 OA
HETATM   27  S1  UNL     1     -31.062  11.106  -4.241  1.00  0.00     0.125 SA
ENDBRANCH  24  26
BRANCH  23  28
HETATM   28  C8  UNL     1     -26.387  11.362  -4.189  1.00  0.00     0.120 A 
HETATM   29  C9  UNL     1     -25.324  12.151  -3.752  1.00  0.00     0.043 A 
HETATM   30  C10 UNL     1     -24.164  11.469  -3.992  1.00  0.00     0.027 A 
HETATM   31  C11 UNL     1     -24.558  10.272  -4.575  1.00  0.00     0.142 A 
HETATM   32  O2  UNL     1     -25.852  10.268  -4.661  1.00  0.00    -0.319 OA
ENDBRANCH  23  28
ENDBRANCH  21  23
ENDBRANCH  18  21
ENDBRANCH  13  15
ENDBRANCH   4  13
TORSDOF 8
ENDMDL
MODEL 5
REMARK VINA RESULT: -8.879072385      3.574      5.080
REMARK  8 active torsions:
REMARK  status: ('A' for Active; 'I' for Inactive)
REMARK    1  A    between atoms: C2_3  and  C14_26 
REMARK    2  A    between atoms: N2_4  and  N3_6 
REMARK    3  A    between atoms: N3_6  and  C3_8 
REMARK    4  A    between atoms: C6_11  and  N4_12 
REMARK    5  A    between atoms: N4_12  and  C7_14 
REMARK    6  A    between atoms: C7_14  and  C8_19 
REMARK    7  A    between atoms: N5_15  and  O1_17 
REMARK    8  A    between atoms: C14_26  and  C15_28 
ROOT
HETATM    1  N1  UNL     1     -26.616  15.741  -1.830  1.00  0.00    -0.190 NA
HETATM    2  C1  UNL     1     -26.660  16.598  -2.610  1.00  0.00     0.123 C 
HETATM    3  C2  UNL     1     -26.723  17.653  -3.583  1.00  0.00     0.180 C 
HETATM    4  N2  UNL     1     -27.854  18.107  -3.992  1.00  0.00    -0.287 N 
ATOM      5  H2  UNL     1     -27.886  18.855  -4.684  1.00  0.00     0.188 HD
ENDROOT
BRANCH   3   6
HETATM    6  C14 UNL     1     -25.466  18.199  -4.085  1.00  0.00     0.227 C 
HETATM    7  O3  UNL     1     -25.021  17.909  -5.204  1.00  0.00    -0.284 OA
BRANCH   6   8
HETATM    8  C15 UNL     1     -24.694  19.125  -3.244  1.00  0.00     0.058 A 
HETATM    9  C16 UNL     1     -23.384  19.507  -3.363  1.00  0.00     0.023 A 
HETATM   10  C17 UNL     1     -22.915  20.370  -2.461  1.00  0.00     0.009 A 
HETATM   11  C18 UNL     1     -23.772  20.805  -1.486  1.00  0.00     0.050 A 
HETATM   12  S2  UNL     1     -25.221  19.986  -1.869  1.00  0.00    -0.098 SA
ENDBRANCH   6   8
ENDBRANCH   3   6
BRANCH   4  13
HETATM   13  N3  UNL     1     -29.035  17.572  -3.487  1.00  0.00    -0.300 N 
ATOM     14  H3  UNL     1     -29.481  18.046  -2.702  1.00  0.00     0.187 HD
BRANCH  13  15
HETATM   15  C3  UNL     1     -29.652  16.402  -4.003  1.00  0.00     0.048 A 
HETATM   16  C4  UNL     1     -30.802  15.889  -3.426  1.00  0.00     0.033 A 
HETATM   17  C5  UNL     1     -31.396  14.749  -3.925  1.00  0.00     0.032 A 
HETATM   18  C6  UNL     1     -30.866  14.074  -5.020  1.00  0.00     0.033 A 
HETATM   19  C12 UNL     1     -29.728  14.575  -5.599  1.00  0.00     0.032 A 
HETATM   20  C13 UNL     1     -29.141  15.720  -5.088  1.00  0.00     0.033 A 
BRANCH  18  21
HETATM   21  N4  UNL     1     -31.492  12.904  -5.515  1.00  0.00    -0.339 N 
ATOM     22  H4  UNL     1     -31.594  12.780  -6.522  1.00  0.00     0.167 HD
BRANCH  21  23
HETATM   23  C7  UNL     1     -31.978  11.907  -4.642  1.00  0.00     0.161 C 
HETATM   24  N5  UNL     1     -31.206  11.008  -4.158  1.00  0.00    -0.234 N 
ATOM     25  H5  UNL     1     -31.612  10.311  -3.533  1.00  0.00     0.197 HD
BRANCH  24  26
HETATM   26  O1  UNL     1     -29.870  10.931  -4.430  1.00  0.00    -0.189 OA
HETATM   27  S1  UNL     1     -28.650  11.410  -3.287  1.00  0.00     0.125 SA
ENDBRANCH  24  26
BRANCH  23  28
HETATM   28  C8  UNL     1     -33.397  11.867  -4.262  1.00  0.00     0.120 A 
HETATM   29  C9  UNL     1     -34.437  12.321  -5.071  1.00  0.00     0.043 A 
HETATM   30  C10 UNL     1     -35.612  12.129  -4.399  1.00  0.00     0.027 A 
HETATM   31  C11 UNL     1     -35.250  11.557  -3.187  1.00  0.00     0.142 A 
HETATM   32  O2  UNL     1     -33.960  11.429  -3.167  1.00  0.00    -0.319 OA
ENDBRANCH  23  28
ENDBRANCH  21  23
ENDBRANCH  18  21
ENDBRANCH  13  15
ENDBRANCH   4  13
TORSDOF 8
ENDMDL
