MODEL 1
REMARK VINA RESULT: -8.581281710      0.000      0.000
REMARK  7 active torsions:
REMARK  status: ('A' for Active; 'I' for Inactive)
REMARK    1  A    between atoms: N1_2  and  C2_4 
REMARK    2  A    between atoms: C5_7  and  N2_8 
REMARK    3  A    between atoms: C6_10  and  C7_11 
REMARK    4  A    between atoms: C7_11  and  C8_13 
REMARK    5  A    between atoms: N3_14  and  C9_16 
REMARK    6  A    between atoms: N4_17  and  N5_18 
REMARK    7  A    between atoms: C10_20  and  C11_21 
ROOT
HETATM    1  C9  UNL     1     -28.242  12.934  -4.905  1.00  0.00     0.235 C 
HETATM    2  N4  UNL     1     -29.383  12.002  -4.875  1.00  0.00    -0.239 N 
HETATM    3  C15 UNL     1     -29.235  11.200  -3.698  1.00  0.00     0.208 C 
HETATM    4  N6  UNL     1     -30.261  10.275  -3.274  1.00  0.00    -0.062 NA
HETATM    5  N7  UNL     1     -28.114  11.414  -3.108  1.00  0.00    -0.351 N 
ATOM      6  H7  UNL     1     -27.805  10.950  -2.255  1.00  0.00     0.163 HD
HETATM    7  C16 UNL     1     -27.355  12.407  -3.830  1.00  0.00     0.065 C 
HETATM    8  C17 UNL     1     -26.964  13.477  -2.823  1.00  0.00     0.042 C 
HETATM    9  C18 UNL     1     -26.049  11.854  -4.377  1.00  0.00     0.042 C 
ENDROOT
BRANCH   1  10
HETATM   10  N3  UNL     1     -28.636  14.261  -4.604  1.00  0.00    -0.377 N 
HETATM   11  C8  UNL     1     -28.939  15.144  -5.465  1.00  0.00     0.079 C 
ATOM     12  H3  UNL     1     -28.681  14.527  -3.620  1.00  0.00     0.160 HD
BRANCH  11  13
HETATM   13  C7  UNL     1     -29.340  16.504  -5.057  1.00  0.00     0.134 C 
HETATM   14  S1  UNL     1     -29.773  17.541  -6.488  1.00  0.00    -0.081 SA
BRANCH  13  15
HETATM   15  C6  UNL     1     -28.273  17.166  -4.239  1.00  0.00     0.082 C 
HETATM   16  N2  UNL     1     -27.643  18.196  -4.632  1.00  0.00    -0.368 N 
ATOM     17  H2  UNL     1     -27.861  18.602  -5.542  1.00  0.00     0.165 HD
BRANCH  16  18
HETATM   18  C5  UNL     1     -26.638  18.790  -3.821  1.00  0.00     0.031 A 
HETATM   19  C4  UNL     1     -26.592  18.596  -2.455  1.00  0.00     0.031 A 
HETATM   20  C3  UNL     1     -25.606  19.183  -1.689  1.00  0.00     0.031 A 
HETATM   21  C2  UNL     1     -24.619  19.987  -2.238  1.00  0.00     0.027 A 
HETATM   22  C20 UNL     1     -24.672  20.175  -3.602  1.00  0.00     0.031 A 
HETATM   23  C19 UNL     1     -25.655  19.590  -4.371  1.00  0.00     0.031 A 
BRANCH  21  24
HETATM   24  N1  UNL     1     -23.611  20.583  -1.431  1.00  0.00    -0.394 N 
HETATM   25  C1  UNL     1     -22.414  21.072  -2.080  1.00  0.00     0.146 C 
ATOM     26  H1  UNL     1     -23.728  20.664  -0.420  1.00  0.00     0.159 HD
ENDBRANCH  21  24
ENDBRANCH  16  18
ENDBRANCH  13  15
ENDBRANCH  11  13
ENDBRANCH   1  10
BRANCH   2  27
HETATM   27  N5  UNL     1     -30.417  11.901  -5.768  1.00  0.00    -0.303 N 
HETATM   28  C10 UNL     1     -31.593  12.297  -5.807  1.00  0.00     0.144 C 
ATOM     29  H5  UNL     1     -30.160  11.373  -6.602  1.00  0.00     0.186 HD
BRANCH  28  30
HETATM   30  C11 UNL     1     -32.346  13.071  -4.840  1.00  0.00     0.091 A 
HETATM   31  C12 UNL     1     -33.646  12.876  -4.473  1.00  0.00     0.040 A 
HETATM   32  C13 UNL     1     -33.970  13.849  -3.513  1.00  0.00     0.027 A 
HETATM   33  C14 UNL     1     -32.812  14.580  -3.364  1.00  0.00     0.142 A 
HETATM   34  O1  UNL     1     -31.903  14.105  -4.142  1.00  0.00    -0.321 OA
ENDBRANCH  28  30
ENDBRANCH   2  27
TORSDOF 7
ENDMDL
MODEL 2
REMARK VINA RESULT: -7.793803101      4.042      6.174
REMARK  7 active torsions:
REMARK  status: ('A' for Active; 'I' for Inactive)
REMARK    1  A    between atoms: N1_2  and  C2_4 
REMARK    2  A    between atoms: C5_7  and  N2_8 
REMARK    3  A    between atoms: C6_10  and  C7_11 
REMARK    4  A    between atoms: C7_11  and  C8_13 
REMARK    5  A    between atoms: N3_14  and  C9_16 
REMARK    6  A    between atoms: N4_17  and  N5_18 
REMARK    7  A    between atoms: C10_20  and  C11_21 
ROOT
HETATM    1  C9  UNL     1     -33.304  13.709  -4.150  1.00  0.00     0.235 C 
HETATM    2  N4  UNL     1     -34.307  13.273  -3.163  1.00  0.00    -0.239 N 
HETATM    3  C15 UNL     1     -34.328  11.841  -3.195  1.00  0.00     0.208 C 
HETATM    4  N6  UNL     1     -35.096  11.071  -2.243  1.00  0.00    -0.062 NA
HETATM    5  N7  UNL     1     -33.601  11.371  -4.144  1.00  0.00    -0.351 N 
ATOM      6  H7  UNL     1     -33.475  10.380  -4.347  1.00  0.00     0.163 HD
HETATM    7  C16 UNL     1     -32.990  12.450  -4.881  1.00  0.00     0.065 C 
HETATM    8  C17 UNL     1     -31.497  12.161  -4.925  1.00  0.00     0.042 C 
HETATM    9  C18 UNL     1     -33.446  12.494  -6.331  1.00  0.00     0.042 C 
ENDROOT
BRANCH   1  10
HETATM   10  N3  UNL     1     -32.137  14.215  -3.527  1.00  0.00    -0.377 N 
HETATM   11  C8  UNL     1     -31.306  15.007  -4.072  1.00  0.00     0.079 C 
ATOM     12  H3  UNL     1     -31.950  13.921  -2.568  1.00  0.00     0.160 HD
BRANCH  11  13
HETATM   13  C7  UNL     1     -30.114  15.484  -3.344  1.00  0.00     0.134 C 
HETATM   14  S1  UNL     1     -29.800  17.251  -3.640  1.00  0.00    -0.081 SA
BRANCH  13  15
HETATM   15  C6  UNL     1     -28.901  14.675  -3.692  1.00  0.00     0.082 C 
HETATM   16  N2  UNL     1     -28.321  13.910  -2.861  1.00  0.00    -0.368 N 
ATOM     17  H2  UNL     1     -28.685  13.832  -1.911  1.00  0.00     0.165 HD
BRANCH  16  18
HETATM   18  C5  UNL     1     -27.172  13.162  -3.237  1.00  0.00     0.031 A 
HETATM   19  C4  UNL     1     -27.266  11.875  -3.727  1.00  0.00     0.031 A 
HETATM   20  C3  UNL     1     -26.138  11.168  -4.085  1.00  0.00     0.031 A 
HETATM   21  C2  UNL     1     -24.862  11.701  -3.977  1.00  0.00     0.027 A 
HETATM   22  C20 UNL     1     -24.776  12.987  -3.487  1.00  0.00     0.031 A 
HETATM   23  C19 UNL     1     -25.903  13.696  -3.128  1.00  0.00     0.031 A 
BRANCH  21  24
HETATM   24  N1  UNL     1     -23.710  10.957  -4.352  1.00  0.00    -0.394 N 
HETATM   25  C1  UNL     1     -23.902   9.648  -4.938  1.00  0.00     0.146 C 
ATOM     26  H1  UNL     1     -22.773  11.335  -4.212  1.00  0.00     0.159 HD
ENDBRANCH  21  24
ENDBRANCH  16  18
ENDBRANCH  13  15
ENDBRANCH  11  13
ENDBRANCH   1  10
BRANCH   2  27
HETATM   27  N5  UNL     1     -35.080  14.050  -2.339  1.00  0.00    -0.303 N 
HETATM   28  C10 UNL     1     -36.277  14.375  -2.299  1.00  0.00     0.144 C 
ATOM     29  H5  UNL     1     -34.541  14.461  -1.577  1.00  0.00     0.186 HD
BRANCH  28  30
HETATM   30  C11 UNL     1     -37.370  14.014  -3.181  1.00  0.00     0.091 A 
HETATM   31  C12 UNL     1     -38.190  14.871  -3.855  1.00  0.00     0.040 A 
HETATM   32  C13 UNL     1     -39.105  14.097  -4.589  1.00  0.00     0.027 A 
HETATM   33  C14 UNL     1     -38.762  12.795  -4.298  1.00  0.00     0.142 A 
HETATM   34  O1  UNL     1     -37.762  12.787  -3.486  1.00  0.00    -0.321 OA
ENDBRANCH  28  30
ENDBRANCH   2  27
TORSDOF 7
ENDMDL
MODEL 3
REMARK VINA RESULT: -7.709034735      1.538      3.826
REMARK  7 active torsions:
REMARK  status: ('A' for Active; 'I' for Inactive)
REMARK    1  A    between atoms: N1_2  and  C2_4 
REMARK    2  A    between atoms: C5_7  and  N2_8 
REMARK    3  A    between atoms: C6_10  and  C7_11 
REMARK    4  A    between atoms: C7_11  and  C8_13 
REMARK    5  A    between atoms: N3_14  and  C9_16 
REMARK    6  A    between atoms: N4_17  and  N5_18 
REMARK    7  A    between atoms: C10_20  and  C11_21 
ROOT
HETATM    1  C9  UNL     1     -31.178  13.461  -3.812  1.00  0.00     0.235 C 
HETATM    2  N4  UNL     1     -30.125  12.693  -3.126  1.00  0.00    -0.239 N 
HETATM    3  C15 UNL     1     -29.904  11.506  -3.898  1.00  0.00     0.208 C 
HETATM    4  N6  UNL     1     -28.829  10.590  -3.594  1.00  0.00    -0.062 NA
HETATM    5  N7  UNL     1     -30.759  11.386  -4.849  1.00  0.00    -0.351 N 
ATOM      6  H7  UNL     1     -30.786  10.616  -5.517  1.00  0.00     0.163 HD
HETATM    7  C16 UNL     1     -31.678  12.499  -4.833  1.00  0.00     0.065 C 
HETATM    8  C17 UNL     1     -31.678  13.087  -6.236  1.00  0.00     0.042 C 
HETATM    9  C18 UNL     1     -33.111  12.065  -4.567  1.00  0.00     0.042 C 
ENDROOT
BRANCH   1  10
HETATM   10  N3  UNL     1     -30.660  14.617  -4.445  1.00  0.00    -0.377 N 
HETATM   11  C8  UNL     1     -30.376  15.705  -3.855  1.00  0.00     0.079 C 
ATOM     12  H3  UNL     1     -30.502  14.572  -5.452  1.00  0.00     0.160 HD
BRANCH  11  13
HETATM   13  C7  UNL     1     -29.838  16.861  -4.598  1.00  0.00     0.134 C 
HETATM   14  S1  UNL     1     -29.297  16.398  -6.273  1.00  0.00    -0.081 SA
BRANCH  13  15
HETATM   15  C6  UNL     1     -28.715  17.516  -3.852  1.00  0.00     0.082 C 
HETATM   16  N2  UNL     1     -27.705  18.022  -4.431  1.00  0.00    -0.368 N 
ATOM     17  H2  UNL     1     -27.641  17.990  -5.449  1.00  0.00     0.165 HD
BRANCH  16  18
HETATM   18  C5  UNL     1     -26.663  18.633  -3.681  1.00  0.00     0.031 A 
HETATM   19  C4  UNL     1     -26.524  18.429  -2.323  1.00  0.00     0.031 A 
HETATM   20  C3  UNL     1     -25.505  19.033  -1.617  1.00  0.00     0.031 A 
HETATM   21  C2  UNL     1     -24.575  19.865  -2.220  1.00  0.00     0.027 A 
HETATM   22  C20 UNL     1     -24.721  20.064  -3.576  1.00  0.00     0.031 A 
HETATM   23  C19 UNL     1     -25.738  19.462  -4.286  1.00  0.00     0.031 A 
BRANCH  21  24
HETATM   24  N1  UNL     1     -23.530  20.479  -1.474  1.00  0.00    -0.394 N 
HETATM   25  C1  UNL     1     -22.448  21.107  -2.200  1.00  0.00     0.146 C 
ATOM     26  H1  UNL     1     -23.544  20.475  -0.454  1.00  0.00     0.159 HD
ENDBRANCH  21  24
ENDBRANCH  16  18
ENDBRANCH  13  15
ENDBRANCH  11  13
ENDBRANCH   1  10
BRANCH   2  27
HETATM   27  N5  UNL     1     -29.447  13.020  -1.980  1.00  0.00    -0.303 N 
HETATM   28  C10 UNL     1     -28.312  13.448  -1.718  1.00  0.00     0.144 C 
ATOM     29  H5  UNL     1     -30.010  12.877  -1.142  1.00  0.00     0.186 HD
BRANCH  28  30
HETATM   30  C11 UNL     1     -27.215  13.782  -2.604  1.00  0.00     0.091 A 
HETATM   31  C12 UNL     1     -26.289  12.920  -3.117  1.00  0.00     0.040 A 
HETATM   32  C13 UNL     1     -25.413  13.665  -3.924  1.00  0.00     0.027 A 
HETATM   33  C14 UNL     1     -25.884  14.956  -3.839  1.00  0.00     0.142 A 
HETATM   34  O1  UNL     1     -26.919  14.984  -3.073  1.00  0.00    -0.321 OA
ENDBRANCH  28  30
ENDBRANCH   2  27
TORSDOF 7
ENDMDL
MODEL 4
REMARK VINA RESULT: -7.255950077      2.987      8.565
REMARK  7 active torsions:
REMARK  status: ('A' for Active; 'I' for Inactive)
REMARK    1  A    between atoms: N1_2  and  C2_4 
REMARK    2  A    between atoms: C5_7  and  N2_8 
REMARK    3  A    between atoms: C6_10  and  C7_11 
REMARK    4  A    between atoms: C7_11  and  C8_13 
REMARK    5  A    between atoms: N3_14  and  C9_16 
REMARK    6  A    between atoms: N4_17  and  N5_18 
REMARK    7  A    between atoms: C10_20  and  C11_21 
ROOT
HETATM    1  C9  UNL     1     -28.346  15.775  -4.598  1.00  0.00     0.235 C 
HETATM    2  N4  UNL     1     -27.148  15.884  -3.749  1.00  0.00    -0.239 N 
HETATM    3  C15 UNL     1     -27.336  17.029  -2.908  1.00  0.00     0.208 C 
HETATM    4  N6  UNL     1     -26.415  17.348  -1.841  1.00  0.00    -0.062 NA
HETATM    5  N7  UNL     1     -28.388  17.692  -3.228  1.00  0.00    -0.351 N 
ATOM      6  H7  UNL     1     -28.708  18.540  -2.762  1.00  0.00     0.163 HD
HETATM    7  C16 UNL     1     -29.051  17.062  -4.345  1.00  0.00     0.065 C 
HETATM    8  C17 UNL     1     -30.502  16.860  -3.936  1.00  0.00     0.042 C 
HETATM    9  C18 UNL     1     -29.087  17.954  -5.576  1.00  0.00     0.042 C 
ENDROOT
BRANCH   1  10
HETATM   10  N3  UNL     1     -29.168  14.686  -4.214  1.00  0.00    -0.377 N 
HETATM   11  C8  UNL     1     -30.024  14.120  -4.962  1.00  0.00     0.079 C 
ATOM     12  H3  UNL     1     -29.063  14.330  -3.263  1.00  0.00     0.160 HD
BRANCH  11  13
HETATM   13  C7  UNL     1     -30.837  12.989  -4.474  1.00  0.00     0.134 C 
HETATM   14  S1  UNL     1     -30.724  11.547  -5.578  1.00  0.00    -0.081 SA
BRANCH  13  15
HETATM   15  C6  UNL     1     -32.270  13.388  -4.285  1.00  0.00     0.082 C 
HETATM   16  N2  UNL     1     -33.167  12.574  -3.905  1.00  0.00    -0.368 N 
ATOM     17  H2  UNL     1     -32.918  11.603  -3.717  1.00  0.00     0.165 HD
BRANCH  16  18
HETATM   18  C5  UNL     1     -34.514  12.998  -3.739  1.00  0.00     0.031 A 
HETATM   19  C4  UNL     1     -34.863  13.988  -2.843  1.00  0.00     0.031 A 
HETATM   20  C3  UNL     1     -36.177  14.383  -2.699  1.00  0.00     0.031 A 
HETATM   21  C2  UNL     1     -37.206  13.819  -3.436  1.00  0.00     0.027 A 
HETATM   22  C20 UNL     1     -36.849  12.831  -4.329  1.00  0.00     0.031 A 
HETATM   23  C19 UNL     1     -35.537  12.434  -4.476  1.00  0.00     0.031 A 
BRANCH  21  24
HETATM   24  N1  UNL     1     -38.555  14.240  -3.274  1.00  0.00    -0.394 N 
HETATM   25  C1  UNL     1     -39.143  15.068  -4.305  1.00  0.00     0.146 C 
ATOM     26  H1  UNL     1     -39.094  13.966  -2.452  1.00  0.00     0.159 HD
ENDBRANCH  21  24
ENDBRANCH  16  18
ENDBRANCH  13  15
ENDBRANCH  11  13
ENDBRANCH   1  10
BRANCH   2  27
HETATM   27  N5  UNL     1     -26.051  15.062  -3.720  1.00  0.00    -0.303 N 
HETATM   28  C10 UNL     1     -25.864  13.843  -3.576  1.00  0.00     0.144 C 
ATOM     29  H5  UNL     1     -25.179  15.575  -3.848  1.00  0.00     0.186 HD
BRANCH  28  30
HETATM   30  C11 UNL     1     -26.820  12.773  -3.370  1.00  0.00     0.091 A 
HETATM   31  C12 UNL     1     -26.835  11.561  -3.997  1.00  0.00     0.040 A 
HETATM   32  C13 UNL     1     -27.930  10.836  -3.498  1.00  0.00     0.027 A 
HETATM   33  C14 UNL     1     -28.513  11.683  -2.583  1.00  0.00     0.142 A 
HETATM   34  O1  UNL     1     -27.849  12.786  -2.537  1.00  0.00    -0.321 OA
ENDBRANCH  28  30
ENDBRANCH   2  27
TORSDOF 7
ENDMDL
MODEL 5
REMARK VINA RESULT: -7.192139566      2.947      8.563
REMARK  7 active torsions:
REMARK  status: ('A' for Active; 'I' for Inactive)
REMARK    1  A    between atoms: N1_2  and  C2_4 
REMARK    2  A    between atoms: C5_7  and  N2_8 
REMARK    3  A    between atoms: C6_10  and  C7_11 
REMARK    4  A    between atoms: C7_11  and  C8_13 
REMARK    5  A    between atoms: N3_14  and  C9_16 
REMARK    6  A    between atoms: N4_17  and  N5_18 
REMARK    7  A    between atoms: C10_20  and  C11_21 
ROOT
HETATM    1  C9  UNL     1     -28.675  12.516  -2.912  1.00  0.00     0.235 C 
HETATM    2  N4  UNL     1     -27.300  13.042  -2.869  1.00  0.00    -0.239 N 
HETATM    3  C15 UNL     1     -26.525  12.258  -3.785  1.00  0.00     0.208 C 
HETATM    4  N6  UNL     1     -25.158  12.595  -4.107  1.00  0.00    -0.062 NA
HETATM    5  N7  UNL     1     -27.193  11.264  -4.251  1.00  0.00    -0.351 N 
ATOM      6  H7  UNL     1     -26.834  10.579  -4.916  1.00  0.00     0.163 HD
HETATM    7  C16 UNL     1     -28.525  11.258  -3.695  1.00  0.00     0.065 C 
HETATM    8  C17 UNL     1     -29.489  11.186  -4.870  1.00  0.00     0.042 C 
HETATM    9  C18 UNL     1     -28.799  10.019  -2.858  1.00  0.00     0.042 C 
ENDROOT
BRANCH   1  10
HETATM   10  N3  UNL     1     -29.558  13.402  -3.578  1.00  0.00    -0.377 N 
HETATM   11  C8  UNL     1     -30.510  14.034  -3.024  1.00  0.00     0.079 C 
ATOM     12  H3  UNL     1     -29.417  13.543  -4.579  1.00  0.00     0.160 HD
BRANCH  11  13
HETATM   13  C7  UNL     1     -31.381  14.939  -3.799  1.00  0.00     0.134 C 
HETATM   14  S1  UNL     1     -31.124  16.682  -3.344  1.00  0.00    -0.081 SA
BRANCH  13  15
HETATM   15  C6  UNL     1     -32.826  14.569  -3.648  1.00  0.00     0.082 C 
HETATM   16  N2  UNL     1     -33.259  13.392  -3.841  1.00  0.00    -0.368 N 
ATOM     17  H2  UNL     1     -32.609  12.654  -4.112  1.00  0.00     0.165 HD
BRANCH  16  18
HETATM   18  C5  UNL     1     -34.640  13.088  -3.686  1.00  0.00     0.031 A 
HETATM   19  C4  UNL     1     -35.344  12.381  -4.640  1.00  0.00     0.031 A 
HETATM   20  C3  UNL     1     -36.682  12.098  -4.467  1.00  0.00     0.031 A 
HETATM   21  C2  UNL     1     -37.388  12.499  -3.343  1.00  0.00     0.027 A 
HETATM   22  C20 UNL     1     -36.678  13.205  -2.396  1.00  0.00     0.031 A 
HETATM   23  C19 UNL     1     -35.339  13.490  -2.565  1.00  0.00     0.031 A 
BRANCH  21  24
HETATM   24  N1  UNL     1     -38.768  12.197  -3.184  1.00  0.00    -0.394 N 
HETATM   25  C1  UNL     1     -39.249  10.919  -3.661  1.00  0.00     0.146 C 
ATOM     26  H1  UNL     1     -39.403  12.864  -2.744  1.00  0.00     0.159 HD
ENDBRANCH  21  24
ENDBRANCH  16  18
ENDBRANCH  13  15
ENDBRANCH  11  13
ENDBRANCH   1  10
BRANCH   2  27
HETATM   27  N5  UNL     1     -26.814  14.087  -2.128  1.00  0.00    -0.303 N 
HETATM   28  C10 UNL     1     -26.765  15.320  -2.266  1.00  0.00     0.144 C 
ATOM     29  H5  UNL     1     -26.393  13.779  -1.252  1.00  0.00     0.186 HD
BRANCH  28  30
HETATM   30  C11 UNL     1     -27.244  16.155  -3.350  1.00  0.00     0.091 A 
HETATM   31  C12 UNL     1     -27.102  17.508  -3.462  1.00  0.00     0.040 A 
HETATM   32  C13 UNL     1     -27.713  17.903  -4.664  1.00  0.00     0.027 A 
HETATM   33  C14 UNL     1     -28.192  16.731  -5.205  1.00  0.00     0.142 A 
HETATM   34  O1  UNL     1     -27.904  15.750  -4.423  1.00  0.00    -0.321 OA
ENDBRANCH  28  30
ENDBRANCH   2  27
TORSDOF 7
ENDMDL
