MODEL 1
REMARK VINA RESULT: -9.713868484      0.000      0.000
REMARK  8 active torsions:
REMARK  status: ('A' for Active; 'I' for Inactive)
REMARK       I    between atoms: C1_2  and  N1_3 
REMARK       I    between atoms: C1_2  and  N3_11 
REMARK    1  A    between atoms: N1_3  and  N2_4 
REMARK    2  A    between atoms: N2_4  and  C2_5 
REMARK    3  A    between atoms: C2_5  and  C3_6 
REMARK    4  A    between atoms: N3_11  and  C7_13 
REMARK    5  A    between atoms: C10_16  and  N4_17 
REMARK    6  A    between atoms: N5_19  and  C11_21 
REMARK    7  A    between atoms: C14_24  and  C15_25 
REMARK    8  A    between atoms: C17_29  and  N6_30 
ROOT
HETATM    1  C7  UNL     1     -28.936  16.791  -4.885  1.00  0.00     0.154 A 
HETATM    2  C8  UNL     1     -29.648  16.244  -5.921  1.00  0.00     0.061 A 
HETATM    3  C9  UNL     1     -30.265  15.105  -5.385  1.00  0.00     0.062 A 
HETATM    4  C10 UNL     1     -29.909  15.005  -4.069  1.00  0.00     0.164 A 
HETATM    5  O7  UNL     1     -29.106  16.043  -3.803  1.00  0.00    -0.276 OA
ENDROOT
BRANCH   4   6
HETATM    6  N4  UNL     1     -30.294  14.022  -3.156  1.00  0.00    -0.279 N 
HETATM    7  N5  UNL     1     -29.793  13.000  -2.738  1.00  0.00    -0.296 N 
ATOM      8  H5  UNL     1     -30.341  12.478  -2.055  1.00  0.00     0.187 HD
ATOM      9  H4  UNL     1     -31.209  14.207  -2.744  1.00  0.00     0.189 HD
BRANCH   7  10
HETATM   10  C11 UNL     1     -28.556  12.454  -3.082  1.00  0.00     0.081 A 
HETATM   11  C12 UNL     1     -27.358  13.109  -2.826  1.00  0.00     0.034 A 
HETATM   12  C13 UNL     1     -26.175  12.663  -3.228  1.00  0.00     0.021 A 
HETATM   13  C14 UNL     1     -26.076  11.461  -3.962  1.00  0.00     0.043 A 
HETATM   14  C16 UNL     1     -27.249  10.796  -4.225  1.00  0.00     0.056 A 
HETATM   15  C17 UNL     1     -28.517  11.264  -3.793  1.00  0.00     0.132 A 
BRANCH  13  16
HETATM   16  C15 UNL     1     -24.775  10.972  -4.429  1.00  0.00     0.209 C 
HETATM   17  O3  UNL     1     -23.702  11.449  -4.027  1.00  0.00    -0.644 OA
HETATM   18  O4  UNL     1     -24.801   9.945  -5.349  1.00  0.00    -0.644 OA
ENDBRANCH  13  16
BRANCH  15  19
HETATM   19  N6  UNL     1     -29.673  10.505  -4.090  1.00  0.00    -0.113 N 
HETATM   20  O5  UNL     1     -30.061  10.316  -5.236  1.00  0.00    -0.532 OA
HETATM   21  O6  UNL     1     -30.420   9.917  -3.061  1.00  0.00    -0.532 OA
ENDBRANCH  15  19
ENDBRANCH   7  10
ENDBRANCH   4   6
BRANCH   1  22
HETATM   22  N3  UNL     1     -28.134  17.955  -4.872  1.00  0.00    -0.275 N 
HETATM   23  C1  UNL     1     -26.794  17.977  -4.307  1.00  0.00     0.430 C 
HETATM   24  O1  UNL     1     -26.333  16.847  -3.860  1.00  0.00    -0.227 OA
HETATM   25  N1  UNL     1     -26.168  19.120  -4.290  1.00  0.00    -0.185 NA
ATOM     26  H3  UNL     1     -28.509  18.814  -5.275  1.00  0.00     0.173 HD
BRANCH  25  27
HETATM   27  N2  UNL     1     -25.504  20.292  -4.262  1.00  0.00    -0.254 NA
BRANCH  27  28
HETATM   28  C2  UNL     1     -24.805  21.211  -4.167  1.00  0.00     0.262 C 
BRANCH  28  29
HETATM   29  C3  UNL     1     -23.721  21.200  -3.102  1.00  0.00     0.106 A 
HETATM   30  C4  UNL     1     -22.624  20.422  -3.154  1.00  0.00     0.041 A 
HETATM   31  C5  UNL     1     -21.903  20.723  -1.944  1.00  0.00     0.027 A 
HETATM   32  C6  UNL     1     -22.662  21.649  -1.319  1.00  0.00     0.142 A 
HETATM   33  O2  UNL     1     -23.764  21.926  -2.042  1.00  0.00    -0.320 OA
ENDBRANCH  28  29
ENDBRANCH  27  28
ENDBRANCH  25  27
ENDBRANCH   1  22
TORSDOF 8
ENDMDL
MODEL 2
REMARK VINA RESULT: -9.165539407      5.300      8.499
REMARK  8 active torsions:
REMARK  status: ('A' for Active; 'I' for Inactive)
REMARK       I    between atoms: C1_2  and  N1_3 
REMARK       I    between atoms: C1_2  and  N3_11 
REMARK    1  A    between atoms: N1_3  and  N2_4 
REMARK    2  A    between atoms: N2_4  and  C2_5 
REMARK    3  A    between atoms: C2_5  and  C3_6 
REMARK    4  A    between atoms: N3_11  and  C7_13 
REMARK    5  A    between atoms: C10_16  and  N4_17 
REMARK    6  A    between atoms: N5_19  and  C11_21 
REMARK    7  A    between atoms: C14_24  and  C15_25 
REMARK    8  A    between atoms: C17_29  and  N6_30 
ROOT
HETATM    1  C7  UNL     1     -31.289  13.499  -4.144  1.00  0.00     0.154 A 
HETATM    2  C8  UNL     1     -32.141  14.329  -3.463  1.00  0.00     0.061 A 
HETATM    3  C9  UNL     1     -33.431  13.913  -3.824  1.00  0.00     0.062 A 
HETATM    4  C10 UNL     1     -33.313  12.866  -4.696  1.00  0.00     0.164 A 
HETATM    5  O7  UNL     1     -32.004  12.644  -4.864  1.00  0.00    -0.276 OA
ENDROOT
BRANCH   4   6
HETATM    6  N4  UNL     1     -34.342  12.149  -5.307  1.00  0.00    -0.279 N 
HETATM    7  N5  UNL     1     -35.232  11.425  -4.914  1.00  0.00    -0.296 N 
ATOM      8  H5  UNL     1     -35.843  11.033  -5.630  1.00  0.00     0.187 HD
ATOM      9  H4  UNL     1     -34.347  12.259  -6.321  1.00  0.00     0.189 HD
BRANCH   7  10
HETATM   10  C11 UNL     1     -35.518  11.064  -3.596  1.00  0.00     0.081 A 
HETATM   11  C12 UNL     1     -35.014   9.907  -3.016  1.00  0.00     0.034 A 
HETATM   12  C13 UNL     1     -35.346   9.487  -1.803  1.00  0.00     0.021 A 
HETATM   13  C14 UNL     1     -36.260  10.221  -1.017  1.00  0.00     0.043 A 
HETATM   14  C16 UNL     1     -36.770  11.372  -1.571  1.00  0.00     0.056 A 
HETATM   15  C17 UNL     1     -36.416  11.829  -2.866  1.00  0.00     0.132 A 
BRANCH  13  16
HETATM   16  C15 UNL     1     -36.649   9.754   0.317  1.00  0.00     0.209 C 
HETATM   17  O3  UNL     1     -37.396  10.410   1.059  1.00  0.00    -0.644 OA
HETATM   18  O4  UNL     1     -36.138   8.536   0.712  1.00  0.00    -0.644 OA
ENDBRANCH  13  16
BRANCH  15  19
HETATM   19  N6  UNL     1     -36.973  13.035  -3.351  1.00  0.00    -0.113 N 
HETATM   20  O5  UNL     1     -36.982  14.069  -2.694  1.00  0.00    -0.532 OA
HETATM   21  O6  UNL     1     -37.531  13.095  -4.635  1.00  0.00    -0.532 OA
ENDBRANCH  15  19
ENDBRANCH   7  10
ENDBRANCH   4   6
BRANCH   1  22
HETATM   22  N3  UNL     1     -29.875  13.475  -4.138  1.00  0.00    -0.275 N 
HETATM   23  C1  UNL     1     -29.102  13.187  -2.940  1.00  0.00     0.430 C 
HETATM   24  O1  UNL     1     -29.777  12.889  -1.870  1.00  0.00    -0.227 OA
HETATM   25  N1  UNL     1     -27.804  13.255  -3.032  1.00  0.00    -0.185 NA
ATOM     26  H3  UNL     1     -29.378  13.667  -5.008  1.00  0.00     0.173 HD
BRANCH  25  27
HETATM   27  N2  UNL     1     -26.460  13.320  -3.107  1.00  0.00    -0.254 NA
BRANCH  27  28
HETATM   28  C2  UNL     1     -25.319  13.266  -3.300  1.00  0.00     0.262 C 
BRANCH  28  29
HETATM   29  C3  UNL     1     -24.753  12.042  -4.000  1.00  0.00     0.106 A 
HETATM   30  C4  UNL     1     -25.461  10.926  -4.254  1.00  0.00     0.041 A 
HETATM   31  C5  UNL     1     -24.528  10.039  -4.899  1.00  0.00     0.027 A 
HETATM   32  C6  UNL     1     -23.375  10.739  -4.953  1.00  0.00     0.142 A 
HETATM   33  O2  UNL     1     -23.534  11.957  -4.400  1.00  0.00    -0.320 OA
ENDBRANCH  28  29
ENDBRANCH  27  28
ENDBRANCH  25  27
ENDBRANCH   1  22
TORSDOF 8
ENDMDL
MODEL 3
REMARK VINA RESULT: -9.061576523      5.663      8.690
REMARK  8 active torsions:
REMARK  status: ('A' for Active; 'I' for Inactive)
REMARK       I    between atoms: C1_2  and  N1_3 
REMARK       I    between atoms: C1_2  and  N3_11 
REMARK    1  A    between atoms: N1_3  and  N2_4 
REMARK    2  A    between atoms: N2_4  and  C2_5 
REMARK    3  A    between atoms: C2_5  and  C3_6 
REMARK    4  A    between atoms: N3_11  and  C7_13 
REMARK    5  A    between atoms: C10_16  and  N4_17 
REMARK    6  A    between atoms: N5_19  and  C11_21 
REMARK    7  A    between atoms: C14_24  and  C15_25 
REMARK    8  A    between atoms: C17_29  and  N6_30 
ROOT
HETATM    1  C7  UNL     1     -32.103  13.148  -3.704  1.00  0.00     0.154 A 
HETATM    2  C8  UNL     1     -33.029  14.135  -3.485  1.00  0.00     0.061 A 
HETATM    3  C9  UNL     1     -34.251  13.598  -3.916  1.00  0.00     0.062 A 
HETATM    4  C10 UNL     1     -34.023  12.329  -4.371  1.00  0.00     0.164 A 
HETATM    5  O7  UNL     1     -32.713  12.092  -4.226  1.00  0.00    -0.276 OA
ENDROOT
BRANCH   4   6
HETATM    6  N4  UNL     1     -34.956  11.432  -4.893  1.00  0.00    -0.279 N 
HETATM    7  N5  UNL     1     -35.720  10.620  -4.417  1.00  0.00    -0.296 N 
ATOM      8  H5  UNL     1     -36.290  10.096  -5.080  1.00  0.00     0.187 HD
ATOM      9  H4  UNL     1     -35.006  11.467  -5.911  1.00  0.00     0.189 HD
BRANCH   7  10
HETATM   10  C11 UNL     1     -35.913  10.319  -3.067  1.00  0.00     0.081 A 
HETATM   11  C12 UNL     1     -35.305   9.229  -2.456  1.00  0.00     0.034 A 
HETATM   12  C13 UNL     1     -35.546   8.861  -1.204  1.00  0.00     0.021 A 
HETATM   13  C14 UNL     1     -36.463   9.581  -0.410  1.00  0.00     0.043 A 
HETATM   14  C16 UNL     1     -37.075  10.664  -0.996  1.00  0.00     0.056 A 
HETATM   15  C17 UNL     1     -36.819  11.067  -2.331  1.00  0.00     0.132 A 
BRANCH  13  16
HETATM   16  C15 UNL     1     -36.751   9.167   0.967  1.00  0.00     0.209 C 
HETATM   17  O3  UNL     1     -37.825   9.431   1.530  1.00  0.00    -0.644 OA
HETATM   18  O4  UNL     1     -35.758   8.464   1.616  1.00  0.00    -0.644 OA
ENDBRANCH  13  16
BRANCH  15  19
HETATM   19  N6  UNL     1     -37.477  12.207  -2.848  1.00  0.00    -0.113 N 
HETATM   20  O5  UNL     1     -37.586  13.250  -2.216  1.00  0.00    -0.532 OA
HETATM   21  O6  UNL     1     -38.026  12.186  -4.137  1.00  0.00    -0.532 OA
ENDBRANCH  15  19
ENDBRANCH   7  10
ENDBRANCH   4   6
BRANCH   1  22
HETATM   22  N3  UNL     1     -30.714  13.157  -3.441  1.00  0.00    -0.275 N 
HETATM   23  C1  UNL     1     -29.772  13.933  -4.234  1.00  0.00     0.430 C 
HETATM   24  O1  UNL     1     -30.277  14.677  -5.172  1.00  0.00    -0.227 OA
HETATM   25  N1  UNL     1     -28.507  13.818  -3.945  1.00  0.00    -0.185 NA
ATOM     26  H3  UNL     1     -30.357  12.598  -2.666  1.00  0.00     0.173 HD
BRANCH  25  27
HETATM   27  N2  UNL     1     -27.193  13.712  -3.664  1.00  0.00    -0.254 NA
BRANCH  27  28
HETATM   28  C2  UNL     1     -26.114  13.562  -3.269  1.00  0.00     0.262 C 
BRANCH  28  29
HETATM   29  C3  UNL     1     -25.342  12.327  -3.702  1.00  0.00     0.106 A 
HETATM   30  C4  UNL     1     -25.921  11.189  -4.129  1.00  0.00     0.041 A 
HETATM   31  C5  UNL     1     -24.823  10.299  -4.405  1.00  0.00     0.027 A 
HETATM   32  C6  UNL     1     -23.720  11.021  -4.109  1.00  0.00     0.142 A 
HETATM   33  O2  UNL     1     -24.059  12.253  -3.684  1.00  0.00    -0.320 OA
ENDBRANCH  28  29
ENDBRANCH  27  28
ENDBRANCH  25  27
ENDBRANCH   1  22
TORSDOF 8
ENDMDL
MODEL 4
REMARK VINA RESULT: -8.967431060      6.172      9.023
REMARK  8 active torsions:
REMARK  status: ('A' for Active; 'I' for Inactive)
REMARK       I    between atoms: C1_2  and  N1_3 
REMARK       I    between atoms: C1_2  and  N3_11 
REMARK    1  A    between atoms: N1_3  and  N2_4 
REMARK    2  A    between atoms: N2_4  and  C2_5 
REMARK    3  A    between atoms: C2_5  and  C3_6 
REMARK    4  A    between atoms: N3_11  and  C7_13 
REMARK    5  A    between atoms: C10_16  and  N4_17 
REMARK    6  A    between atoms: N5_19  and  C11_21 
REMARK    7  A    between atoms: C14_24  and  C15_25 
REMARK    8  A    between atoms: C17_29  and  N6_30 
ROOT
HETATM    1  C7  UNL     1     -32.937  12.895  -3.851  1.00  0.00     0.154 A 
HETATM    2  C8  UNL     1     -33.581  12.295  -4.902  1.00  0.00     0.061 A 
HETATM    3  C9  UNL     1     -34.937  12.608  -4.732  1.00  0.00     0.062 A 
HETATM    4  C10 UNL     1     -35.061  13.371  -3.604  1.00  0.00     0.164 A 
HETATM    5  O7  UNL     1     -33.830  13.524  -3.099  1.00  0.00    -0.276 OA
ENDROOT
BRANCH   4   6
HETATM    6  N4  UNL     1     -36.232  13.901  -3.060  1.00  0.00    -0.279 N 
HETATM    7  N5  UNL     1     -37.136  13.462  -2.382  1.00  0.00    -0.296 N 
ATOM      8  H5  UNL     1     -37.877  14.118  -2.140  1.00  0.00     0.187 HD
ATOM      9  H4  UNL     1     -36.356  14.888  -3.286  1.00  0.00     0.189 HD
BRANCH   7  10
HETATM   10  C11 UNL     1     -37.281  12.162  -1.893  1.00  0.00     0.081 A 
HETATM   11  C12 UNL     1     -36.837  11.790  -0.630  1.00  0.00     0.034 A 
HETATM   12  C13 UNL     1     -36.872  10.543  -0.177  1.00  0.00     0.021 A 
HETATM   13  C14 UNL     1     -37.375   9.502  -0.985  1.00  0.00     0.043 A 
HETATM   14  C16 UNL     1     -37.821   9.849  -2.239  1.00  0.00     0.056 A 
HETATM   15  C17 UNL     1     -37.792  11.180  -2.728  1.00  0.00     0.132 A 
BRANCH  13  16
HETATM   16  C15 UNL     1     -37.397   8.118  -0.500  1.00  0.00     0.209 C 
HETATM   17  O3  UNL     1     -36.859   7.188  -1.121  1.00  0.00    -0.644 OA
HETATM   18  O4  UNL     1     -38.055   7.897   0.692  1.00  0.00    -0.644 OA
ENDBRANCH  13  16
BRANCH  15  19
HETATM   19  N6  UNL     1     -38.291  11.452  -4.023  1.00  0.00    -0.113 N 
HETATM   20  O5  UNL     1     -38.103  10.702  -4.973  1.00  0.00    -0.532 OA
HETATM   21  O6  UNL     1     -39.048  12.606  -4.266  1.00  0.00    -0.532 OA
ENDBRANCH  15  19
ENDBRANCH   7  10
ENDBRANCH   4   6
BRANCH   1  22
HETATM   22  N3  UNL     1     -31.557  12.904  -3.540  1.00  0.00    -0.275 N 
HETATM   23  C1  UNL     1     -30.678  14.002  -3.913  1.00  0.00     0.430 C 
HETATM   24  O1  UNL     1     -31.235  15.019  -4.501  1.00  0.00    -0.227 OA
HETATM   25  N1  UNL     1     -29.411  13.878  -3.634  1.00  0.00    -0.185 NA
ATOM     26  H3  UNL     1     -31.162  12.111  -3.036  1.00  0.00     0.173 HD
BRANCH  25  27
HETATM   27  N2  UNL     1     -28.098  13.769  -3.356  1.00  0.00    -0.254 NA
BRANCH  27  28
HETATM   28  C2  UNL     1     -27.007  13.745  -2.965  1.00  0.00     0.262 C 
BRANCH  28  29
HETATM   29  C3  UNL     1     -26.063  12.679  -3.496  1.00  0.00     0.106 A 
HETATM   30  C4  UNL     1     -26.461  11.465  -3.920  1.00  0.00     0.041 A 
HETATM   31  C5  UNL     1     -25.246  10.794  -4.305  1.00  0.00     0.027 A 
HETATM   32  C6  UNL     1     -24.270  11.696  -4.064  1.00  0.00     0.142 A 
HETATM   33  O2  UNL     1     -24.790  12.837  -3.572  1.00  0.00    -0.320 OA
ENDBRANCH  28  29
ENDBRANCH  27  28
ENDBRANCH  25  27
ENDBRANCH   1  22
TORSDOF 8
ENDMDL
MODEL 5
REMARK VINA RESULT: -8.888152340      3.061      4.958
REMARK  8 active torsions:
REMARK  status: ('A' for Active; 'I' for Inactive)
REMARK       I    between atoms: C1_2  and  N1_3 
REMARK       I    between atoms: C1_2  and  N3_11 
REMARK    1  A    between atoms: N1_3  and  N2_4 
REMARK    2  A    between atoms: N2_4  and  C2_5 
REMARK    3  A    between atoms: C2_5  and  C3_6 
REMARK    4  A    between atoms: N3_11  and  C7_13 
REMARK    5  A    between atoms: C10_16  and  N4_17 
REMARK    6  A    between atoms: N5_19  and  C11_21 
REMARK    7  A    between atoms: C14_24  and  C15_25 
REMARK    8  A    between atoms: C17_29  and  N6_30 
ROOT
HETATM    1  C7  UNL     1     -28.819  16.248  -3.823  1.00  0.00     0.154 A 
HETATM    2  C8  UNL     1     -30.177  16.204  -3.643  1.00  0.00     0.061 A 
HETATM    3  C9  UNL     1     -30.610  15.082  -4.363  1.00  0.00     0.062 A 
HETATM    4  C10 UNL     1     -29.518  14.500  -4.944  1.00  0.00     0.164 A 
HETATM    5  O7  UNL     1     -28.453  15.233  -4.594  1.00  0.00    -0.276 OA
ENDROOT
BRANCH   4   6
HETATM    6  N4  UNL     1     -29.488  13.362  -5.751  1.00  0.00    -0.279 N 
HETATM    7  N5  UNL     1     -30.266  12.463  -5.992  1.00  0.00    -0.296 N 
ATOM      8  H5  UNL     1     -29.941  11.750  -6.644  1.00  0.00     0.187 HD
ATOM      9  H4  UNL     1     -28.607  13.263  -6.256  1.00  0.00     0.189 HD
BRANCH   7  10
HETATM   10  C11 UNL     1     -31.553  12.290  -5.482  1.00  0.00     0.081 A 
HETATM   11  C12 UNL     1     -32.670  12.869  -6.072  1.00  0.00     0.034 A 
HETATM   12  C13 UNL     1     -33.890  12.805  -5.556  1.00  0.00     0.021 A 
HETATM   13  C14 UNL     1     -34.119  12.125  -4.341  1.00  0.00     0.043 A 
HETATM   14  C16 UNL     1     -33.027  11.543  -3.741  1.00  0.00     0.056 A 
HETATM   15  C17 UNL     1     -31.720  11.603  -4.289  1.00  0.00     0.132 A 
BRANCH  13  16
HETATM   16  C15 UNL     1     -35.461  12.067  -3.753  1.00  0.00     0.209 C 
HETATM   17  O3  UNL     1     -36.488  12.020  -4.446  1.00  0.00    -0.644 OA
HETATM   18  O4  UNL     1     -35.527  12.071  -2.375  1.00  0.00    -0.644 OA
ENDBRANCH  13  16
BRANCH  15  19
HETATM   19  N6  UNL     1     -30.657  10.958  -3.616  1.00  0.00    -0.113 N 
HETATM   20  O5  UNL     1     -30.594   9.741  -3.494  1.00  0.00    -0.532 OA
HETATM   21  O6  UNL     1     -29.607  11.706  -3.066  1.00  0.00    -0.532 OA
ENDBRANCH  15  19
ENDBRANCH   7  10
ENDBRANCH   4   6
BRANCH   1  22
HETATM   22  N3  UNL     1     -27.883  17.175  -3.310  1.00  0.00    -0.275 N 
HETATM   23  C1  UNL     1     -26.819  16.789  -2.397  1.00  0.00     0.430 C 
HETATM   24  O1  UNL     1     -26.726  15.524  -2.114  1.00  0.00    -0.227 OA
HETATM   25  N1  UNL     1     -26.051  17.735  -1.934  1.00  0.00    -0.185 NA
ATOM     26  H3  UNL     1     -27.956  18.153  -3.591  1.00  0.00     0.173 HD
BRANCH  25  27
HETATM   27  N2  UNL     1     -25.247  18.698  -1.444  1.00  0.00    -0.254 NA
BRANCH  27  28
HETATM   28  C2  UNL     1     -24.584  19.609  -1.169  1.00  0.00     0.262 C 
BRANCH  28  29
HETATM   29  C3  UNL     1     -24.023  20.470  -2.289  1.00  0.00     0.106 A 
HETATM   30  C4  UNL     1     -22.752  20.907  -2.336  1.00  0.00     0.041 A 
HETATM   31  C5  UNL     1     -22.677  21.692  -3.541  1.00  0.00     0.027 A 
HETATM   32  C6  UNL     1     -23.919  21.622  -4.067  1.00  0.00     0.142 A 
HETATM   33  O2  UNL     1     -24.723  20.873  -3.289  1.00  0.00    -0.320 OA
ENDBRANCH  28  29
ENDBRANCH  27  28
ENDBRANCH  25  27
ENDBRANCH   1  22
TORSDOF 8
ENDMDL
