MODEL 1
REMARK VINA RESULT: -8.506446325      0.000      0.000
REMARK  15 active torsions:
REMARK  status: ('A' for Active; 'I' for Inactive)
REMARK    1  A    between atoms: O1_2  and  C2_3 
REMARK    2  A    between atoms: C4_5  and  C5_6 
REMARK    3  A    between atoms: C5_6  and  O2_7 
REMARK    4  A    between atoms: C5_6  and  N1_9 
REMARK    5  A    between atoms: N1_9  and  C6_11 
REMARK    6  A    between atoms: C6_11  and  C7_12 
REMARK    7  A    between atoms: C7_12  and  C8_13 
REMARK    8  A    between atoms: C8_13  and  N2_14 
REMARK    9  A    between atoms: C16_22  and  N3_23 
REMARK   10  A    between atoms: N3_23  and  C17_25 
REMARK   11  A    between atoms: C21_37  and  N8_38 
REMARK   12  A    between atoms: N8_38  and  C22_39 
REMARK   13  A    between atoms: C22_39  and  C23_40 
REMARK   14  A    between atoms: C23_40  and  C24_41 
REMARK   15  A    between atoms: C24_41  and  N9_42 
ROOT
HETATM    1  N3  UNL     1      20.411  32.107  13.900  1.00  0.00    -0.339 N 
ATOM      2  H3  UNL     1      19.481  32.524  13.853  1.00  0.00     0.167 HD
ENDROOT
BRANCH   1   3
HETATM    3  C16 UNL     1      20.756  30.864  13.271  1.00  0.00     0.067 A 
HETATM    4  C2  UNL     1      20.888  29.792  14.224  1.00  0.00     0.095 A 
HETATM    5  C3  UNL     1      21.362  28.583  13.853  1.00  0.00     0.054 A 
HETATM    6  C4  UNL     1      21.745  28.336  12.509  1.00  0.00     0.017 A 
HETATM    7  C14 UNL     1      21.599  29.363  11.629  1.00  0.00     0.018 A 
HETATM    8  C15 UNL     1      21.102  30.623  12.007  1.00  0.00     0.033 A 
BRANCH   4   9
HETATM    9  O1  UNL     1      20.510  30.083  15.518  1.00  0.00    -0.354 OA
HETATM   10  C1  UNL     1      19.191  29.891  15.973  1.00  0.00     0.210 C 
ENDBRANCH   4   9
BRANCH   6  11
HETATM   11  C5  UNL     1      22.454  27.115  12.251  1.00  0.00     0.146 C 
BRANCH  11  12
HETATM   12  O2  UNL     1      23.783  27.204  12.320  1.00  0.00    -0.346 OA
ATOM     13  H2  UNL     1      24.162  26.966  13.159  1.00  0.00     0.219 HD
ENDBRANCH  11  12
BRANCH  11  14
HETATM   14  N1  UNL     1      21.985  25.847  11.949  1.00  0.00    -0.370 N 
ATOM     15  H1  UNL     1      21.900  25.122  12.662  1.00  0.00     0.161 HD
BRANCH  14  16
HETATM   16  C6  UNL     1      21.604  25.594  10.505  1.00  0.00     0.123 C 
BRANCH  16  17
HETATM   17  C7  UNL     1      20.121  25.487  10.449  1.00  0.00     0.050 C 
BRANCH  17  18
HETATM   18  C8  UNL     1      19.453  26.754  10.020  1.00  0.00     0.274 C 
BRANCH  18  19
HETATM   19  N2  UNL     1      18.601  27.314  10.952  1.00  0.00     0.088 N 
HETATM   20  C9  UNL     1      18.436  26.653  12.191  1.00  0.00     0.272 C 
HETATM   21  C10 UNL     1      17.754  27.666  13.130  1.00  0.00     0.030 C 
HETATM   22  C11 UNL     1      17.670  29.045  12.436  1.00  0.00     0.003 C 
HETATM   23  C12 UNL     1      16.904  28.947  11.138  1.00  0.00     0.030 C 
HETATM   24  C13 UNL     1      17.301  27.665  10.418  1.00  0.00     0.272 C 
ENDBRANCH  18  19
ENDBRANCH  17  18
ENDBRANCH  16  17
ENDBRANCH  14  16
ENDBRANCH  11  14
ENDBRANCH   6  11
ENDBRANCH   1   3
BRANCH   1  25
HETATM   25  C17 UNL     1      21.435  32.658  14.553  1.00  0.00     0.125 A 
HETATM   26  N4  UNL     1      22.706  32.321  14.259  1.00  0.00    -0.338 N 
HETATM   27  C18 UNL     1      23.761  32.625  15.068  1.00  0.00     0.183 A 
ATOM     28  H4  UNL     1      22.887  31.816  13.392  1.00  0.00     0.168 HD
HETATM   29  N5  UNL     1      23.520  33.282  16.186  1.00  0.00    -0.338 N 
HETATM   30  C19 UNL     1      22.277  33.654  16.546  1.00  0.00     0.126 A 
ATOM     31  H5  UNL     1      24.301  33.516  16.799  1.00  0.00     0.168 HD
HETATM   32  N6  UNL     1      22.130  34.254  17.749  1.00  0.00    -0.338 N 
HETATM   33  C29 UNL     1      21.218  33.339  15.716  1.00  0.00     0.110 A 
HETATM   34  C20 UNL     1      20.898  34.552  18.153  1.00  0.00     0.184 A 
ATOM     35  H6  UNL     1      22.940  34.473  18.330  1.00  0.00     0.168 HD
HETATM   36  N7  UNL     1      19.837  34.280  17.397  1.00  0.00    -0.326 N 
HETATM   37  C21 UNL     1      19.936  33.661  16.131  1.00  0.00     0.196 A 
ATOM     38  H7  UNL     1      18.912  34.529  17.747  1.00  0.00     0.169 HD
BRANCH  37  39
HETATM   39  N8  UNL     1      18.936  33.541  15.472  1.00  0.00    -0.403 NA
BRANCH  39  40
HETATM   40  C22 UNL     1      17.829  33.415  14.734  1.00  0.00     0.159 C 
BRANCH  40  41
HETATM   41  C23 UNL     1      16.481  33.410  15.487  1.00  0.00     0.089 C 
BRANCH  41  42
HETATM   42  C24 UNL     1      16.339  34.626  16.299  1.00  0.00     0.278 C 
BRANCH  42  43
HETATM   43  N9  UNL     1      16.407  34.449  17.743  1.00  0.00     0.088 N 
HETATM   44  C25 UNL     1      16.485  35.655  18.503  1.00  0.00     0.272 C 
HETATM   45  C26 UNL     1      15.286  36.477  18.159  1.00  0.00     0.032 C 
HETATM   46  C27 UNL     1      14.247  35.362  17.949  1.00  0.00     0.032 C 
HETATM   47  C28 UNL     1      15.010  34.049  18.099  1.00  0.00     0.272 C 
ENDBRANCH  42  43
ENDBRANCH  41  42
ENDBRANCH  40  41
ENDBRANCH  39  40
ENDBRANCH  37  39
ENDBRANCH   1  25
TORSDOF 15
ENDMDL
MODEL 2
REMARK VINA RESULT: -8.342908085      1.727      3.611
REMARK  15 active torsions:
REMARK  status: ('A' for Active; 'I' for Inactive)
REMARK    1  A    between atoms: O1_2  and  C2_3 
REMARK    2  A    between atoms: C4_5  and  C5_6 
REMARK    3  A    between atoms: C5_6  and  O2_7 
REMARK    4  A    between atoms: C5_6  and  N1_9 
REMARK    5  A    between atoms: N1_9  and  C6_11 
REMARK    6  A    between atoms: C6_11  and  C7_12 
REMARK    7  A    between atoms: C7_12  and  C8_13 
REMARK    8  A    between atoms: C8_13  and  N2_14 
REMARK    9  A    between atoms: C16_22  and  N3_23 
REMARK   10  A    between atoms: N3_23  and  C17_25 
REMARK   11  A    between atoms: C21_37  and  N8_38 
REMARK   12  A    between atoms: N8_38  and  C22_39 
REMARK   13  A    between atoms: C22_39  and  C23_40 
REMARK   14  A    between atoms: C23_40  and  C24_41 
REMARK   15  A    between atoms: C24_41  and  N9_42 
ROOT
HETATM    1  N3  UNL     1      17.927  30.768  13.567  1.00  0.00    -0.339 N 
ATOM      2  H3  UNL     1      17.175  31.258  14.052  1.00  0.00     0.167 HD
ENDROOT
BRANCH   1   3
HETATM    3  C16 UNL     1      17.762  29.493  12.929  1.00  0.00     0.067 A 
HETATM    4  C2  UNL     1      18.433  28.438  13.643  1.00  0.00     0.095 A 
HETATM    5  C3  UNL     1      18.531  27.195  13.122  1.00  0.00     0.054 A 
HETATM    6  C4  UNL     1      17.975  26.897  11.851  1.00  0.00     0.017 A 
HETATM    7  C14 UNL     1      17.337  27.909  11.205  1.00  0.00     0.018 A 
HETATM    8  C15 UNL     1      17.227  29.204  11.743  1.00  0.00     0.033 A 
BRANCH   4   9
HETATM    9  O1  UNL     1      18.964  28.780  14.869  1.00  0.00    -0.354 OA
HETATM   10  C1  UNL     1      20.265  28.399  15.252  1.00  0.00     0.210 C 
ENDBRANCH   4   9
BRANCH   6  11
HETATM   11  C5  UNL     1      18.326  25.631  11.271  1.00  0.00     0.146 C 
BRANCH  11  12
HETATM   12  O2  UNL     1      18.238  24.584  12.094  1.00  0.00    -0.346 OA
ATOM     13  H2  UNL     1      17.889  23.792  11.704  1.00  0.00     0.219 HD
ENDBRANCH  11  12
BRANCH  11  14
HETATM   14  N1  UNL     1      18.738  25.311   9.989  1.00  0.00    -0.370 N 
ATOM     15  H1  UNL     1      18.186  24.703   9.384  1.00  0.00     0.161 HD
BRANCH  14  16
HETATM   16  C6  UNL     1      20.051  25.912   9.530  1.00  0.00     0.123 C 
BRANCH  16  17
HETATM   17  C7  UNL     1      21.111  24.895   9.766  1.00  0.00     0.050 C 
BRANCH  17  18
HETATM   18  C8  UNL     1      21.689  24.953  11.144  1.00  0.00     0.274 C 
BRANCH  18  19
HETATM   19  N2  UNL     1      22.712  25.867  11.314  1.00  0.00     0.088 N 
HETATM   20  C9  UNL     1      22.394  27.133  11.859  1.00  0.00     0.272 C 
HETATM   21  C10 UNL     1      23.736  27.772  12.267  1.00  0.00     0.030 C 
HETATM   22  C11 UNL     1      24.877  26.742  12.097  1.00  0.00     0.003 C 
HETATM   23  C12 UNL     1      24.951  26.255  10.670  1.00  0.00     0.030 C 
HETATM   24  C13 UNL     1      23.539  26.042  10.138  1.00  0.00     0.272 C 
ENDBRANCH  18  19
ENDBRANCH  17  18
ENDBRANCH  16  17
ENDBRANCH  14  16
ENDBRANCH  11  14
ENDBRANCH   6  11
ENDBRANCH   1   3
BRANCH   1  25
HETATM   25  C17 UNL     1      19.169  31.244  13.458  1.00  0.00     0.125 A 
HETATM   26  N4  UNL     1      19.986  30.827  12.473  1.00  0.00    -0.338 N 
HETATM   27  C18 UNL     1      21.331  31.052  12.477  1.00  0.00     0.183 A 
ATOM     28  H4  UNL     1      19.581  30.319  11.686  1.00  0.00     0.168 HD
HETATM   29  N5  UNL     1      21.848  31.713  13.496  1.00  0.00    -0.338 N 
HETATM   30  C19 UNL     1      21.094  32.163  14.517  1.00  0.00     0.126 A 
ATOM     31  H5  UNL     1      22.853  31.890  13.510  1.00  0.00     0.168 HD
HETATM   32  N6  UNL     1      21.734  32.760  15.548  1.00  0.00    -0.338 N 
HETATM   33  C29 UNL     1      19.732  31.926  14.497  1.00  0.00     0.110 A 
HETATM   34  C20 UNL     1      21.010  33.134  16.599  1.00  0.00     0.184 A 
ATOM     35  H6  UNL     1      22.741  32.918  15.520  1.00  0.00     0.168 HD
HETATM   36  N7  UNL     1      19.694  32.940  16.639  1.00  0.00    -0.326 N 
HETATM   37  C21 UNL     1      18.977  32.328  15.587  1.00  0.00     0.196 A 
ATOM     38  H7  UNL     1      19.181  33.246  17.465  1.00  0.00     0.169 HD
BRANCH  37  39
HETATM   39  N8  UNL     1      17.778  32.281  15.663  1.00  0.00    -0.403 NA
BRANCH  39  40
HETATM   40  C22 UNL     1      16.445  32.236  15.754  1.00  0.00     0.159 C 
BRANCH  40  41
HETATM   41  C23 UNL     1      15.692  33.582  15.689  1.00  0.00     0.089 C 
BRANCH  41  42
HETATM   42  C24 UNL     1      16.383  34.599  16.493  1.00  0.00     0.278 C 
BRANCH  42  43
HETATM   43  N9  UNL     1      16.385  34.391  17.934  1.00  0.00     0.088 N 
HETATM   44  C25 UNL     1      17.058  35.394  18.695  1.00  0.00     0.272 C 
HETATM   45  C26 UNL     1      16.407  36.703  18.383  1.00  0.00     0.032 C 
HETATM   46  C27 UNL     1      14.952  36.240  18.196  1.00  0.00     0.032 C 
HETATM   47  C28 UNL     1      14.978  34.720  18.324  1.00  0.00     0.272 C 
ENDBRANCH  42  43
ENDBRANCH  41  42
ENDBRANCH  40  41
ENDBRANCH  39  40
ENDBRANCH  37  39
ENDBRANCH   1  25
TORSDOF 15
ENDMDL
MODEL 3
REMARK VINA RESULT: -8.292861640      2.344      8.577
REMARK  15 active torsions:
REMARK  status: ('A' for Active; 'I' for Inactive)
REMARK    1  A    between atoms: O1_2  and  C2_3 
REMARK    2  A    between atoms: C4_5  and  C5_6 
REMARK    3  A    between atoms: C5_6  and  O2_7 
REMARK    4  A    between atoms: C5_6  and  N1_9 
REMARK    5  A    between atoms: N1_9  and  C6_11 
REMARK    6  A    between atoms: C6_11  and  C7_12 
REMARK    7  A    between atoms: C7_12  and  C8_13 
REMARK    8  A    between atoms: C8_13  and  N2_14 
REMARK    9  A    between atoms: C16_22  and  N3_23 
REMARK   10  A    between atoms: N3_23  and  C17_25 
REMARK   11  A    between atoms: C21_37  and  N8_38 
REMARK   12  A    between atoms: N8_38  and  C22_39 
REMARK   13  A    between atoms: C22_39  and  C23_40 
REMARK   14  A    between atoms: C23_40  and  C24_41 
REMARK   15  A    between atoms: C24_41  and  N9_42 
ROOT
HETATM    1  N3  UNL     1      19.754  32.270  13.993  1.00  0.00    -0.339 N 
ATOM      2  H3  UNL     1      20.685  32.688  13.977  1.00  0.00     0.167 HD
ENDROOT
BRANCH   1   3
HETATM    3  C16 UNL     1      18.653  32.812  14.735  1.00  0.00     0.067 A 
HETATM    4  C2  UNL     1      18.557  32.246  16.056  1.00  0.00     0.095 A 
HETATM    5  C3  UNL     1      17.497  32.505  16.852  1.00  0.00     0.054 A 
HETATM    6  C4  UNL     1      16.446  33.347  16.406  1.00  0.00     0.017 A 
HETATM    7  C14 UNL     1      16.568  33.878  15.159  1.00  0.00     0.018 A 
HETATM    8  C15 UNL     1      17.670  33.614  14.326  1.00  0.00     0.033 A 
BRANCH   4   9
HETATM    9  O1  UNL     1      19.600  31.428  16.440  1.00  0.00    -0.354 OA
HETATM   10  C1  UNL     1      19.404  30.074  16.774  1.00  0.00     0.210 C 
ENDBRANCH   4   9
BRANCH   6  11
HETATM   11  C5  UNL     1      15.257  33.380  17.210  1.00  0.00     0.146 C 
BRANCH  11  12
HETATM   12  O2  UNL     1      14.314  32.500  16.868  1.00  0.00    -0.346 OA
ATOM     13  H2  UNL     1      13.555  32.870  16.431  1.00  0.00     0.219 HD
ENDBRANCH  11  12
BRANCH  11  14
HETATM   14  N1  UNL     1      14.925  34.172  18.296  1.00  0.00    -0.370 N 
ATOM     15  H1  UNL     1      14.958  33.815  19.252  1.00  0.00     0.161 HD
BRANCH  14  16
HETATM   16  C6  UNL     1      14.512  35.598  17.992  1.00  0.00     0.123 C 
BRANCH  16  17
HETATM   17  C7  UNL     1      15.643  36.481  18.389  1.00  0.00     0.050 C 
BRANCH  17  18
HETATM   18  C8  UNL     1      16.461  36.949  17.228  1.00  0.00     0.274 C 
BRANCH  18  19
HETATM   19  N2  UNL     1      16.752  38.301  17.221  1.00  0.00     0.088 N 
HETATM   20  C9  UNL     1      18.111  38.694  17.230  1.00  0.00     0.272 C 
HETATM   21  C10 UNL     1      18.127  40.187  16.849  1.00  0.00     0.030 C 
HETATM   22  C11 UNL     1      16.705  40.635  16.437  1.00  0.00     0.003 C 
HETATM   23  C12 UNL     1      15.723  40.399  17.560  1.00  0.00     0.030 C 
HETATM   24  C13 UNL     1      16.025  39.060  18.217  1.00  0.00     0.272 C 
ENDBRANCH  18  19
ENDBRANCH  17  18
ENDBRANCH  16  17
ENDBRANCH  14  16
ENDBRANCH  11  14
ENDBRANCH   6  11
ENDBRANCH   1   3
BRANCH   1  25
HETATM   25  C17 UNL     1      19.432  31.160  13.326  1.00  0.00     0.125 A 
HETATM   26  N4  UNL     1      18.163  30.927  12.941  1.00  0.00    -0.338 N 
HETATM   27  C18 UNL     1      17.726  29.706  12.520  1.00  0.00     0.183 A 
ATOM     28  H4  UNL     1      17.497  31.700  12.964  1.00  0.00     0.168 HD
HETATM   29  N5  UNL     1      18.593  28.712  12.488  1.00  0.00    -0.338 N 
HETATM   30  C19 UNL     1      19.880  28.868  12.856  1.00  0.00     0.126 A 
ATOM     31  H5  UNL     1      18.279  27.794  12.174  1.00  0.00     0.168 HD
HETATM   32  N6  UNL     1      20.665  27.767  12.860  1.00  0.00    -0.338 N 
HETATM   33  C29 UNL     1      20.306  30.113  13.279  1.00  0.00     0.110 A 
HETATM   34  C20 UNL     1      21.914  27.893  13.300  1.00  0.00     0.184 A 
ATOM     35  H6  UNL     1      20.310  26.868  12.535  1.00  0.00     0.168 HD
HETATM   36  N7  UNL     1      22.387  29.065  13.716  1.00  0.00    -0.326 N 
HETATM   37  C21 UNL     1      21.611  30.246  13.725  1.00  0.00     0.196 A 
ATOM     38  H7  UNL     1      23.352  29.113  14.042  1.00  0.00     0.169 HD
BRANCH  37  39
HETATM   39  N8  UNL     1      22.147  31.281  14.024  1.00  0.00    -0.403 NA
BRANCH  39  40
HETATM   40  C22 UNL     1      22.751  32.426  14.356  1.00  0.00     0.159 C 
BRANCH  40  41
HETATM   41  C23 UNL     1      22.794  32.787  15.856  1.00  0.00     0.089 C 
BRANCH  41  42
HETATM   42  C24 UNL     1      22.004  33.997  16.120  1.00  0.00     0.278 C 
BRANCH  42  43
HETATM   43  N9  UNL     1      21.334  34.063  17.411  1.00  0.00     0.088 N 
HETATM   44  C25 UNL     1      22.085  34.674  18.459  1.00  0.00     0.272 C 
HETATM   45  C26 UNL     1      22.435  36.056  18.010  1.00  0.00     0.032 C 
HETATM   46  C27 UNL     1      21.174  36.402  17.201  1.00  0.00     0.032 C 
HETATM   47  C28 UNL     1      20.315  35.141  17.206  1.00  0.00     0.272 C 
ENDBRANCH  42  43
ENDBRANCH  41  42
ENDBRANCH  40  41
ENDBRANCH  39  40
ENDBRANCH  37  39
ENDBRANCH   1  25
TORSDOF 15
ENDMDL
MODEL 4
REMARK VINA RESULT: -8.166654695      2.477      9.399
REMARK  15 active torsions:
REMARK  status: ('A' for Active; 'I' for Inactive)
REMARK    1  A    between atoms: O1_2  and  C2_3 
REMARK    2  A    between atoms: C4_5  and  C5_6 
REMARK    3  A    between atoms: C5_6  and  O2_7 
REMARK    4  A    between atoms: C5_6  and  N1_9 
REMARK    5  A    between atoms: N1_9  and  C6_11 
REMARK    6  A    between atoms: C6_11  and  C7_12 
REMARK    7  A    between atoms: C7_12  and  C8_13 
REMARK    8  A    between atoms: C8_13  and  N2_14 
REMARK    9  A    between atoms: C16_22  and  N3_23 
REMARK   10  A    between atoms: N3_23  and  C17_25 
REMARK   11  A    between atoms: C21_37  and  N8_38 
REMARK   12  A    between atoms: N8_38  and  C22_39 
REMARK   13  A    between atoms: C22_39  and  C23_40 
REMARK   14  A    between atoms: C23_40  and  C24_41 
REMARK   15  A    between atoms: C24_41  and  N9_42 
ROOT
HETATM    1  N3  UNL     1      20.713  27.813  11.561  1.00  0.00    -0.339 N 
ATOM      2  H3  UNL     1      20.257  27.883  10.651  1.00  0.00     0.167 HD
ENDROOT
BRANCH   1   3
HETATM    3  C16 UNL     1      20.109  28.247  12.788  1.00  0.00     0.067 A 
HETATM    4  C2  UNL     1      18.893  28.985  12.562  1.00  0.00     0.095 A 
HETATM    5  C3  UNL     1      18.260  29.615  13.575  1.00  0.00     0.054 A 
HETATM    6  C4  UNL     1      18.779  29.567  14.895  1.00  0.00     0.017 A 
HETATM    7  C14 UNL     1      19.922  28.853  15.081  1.00  0.00     0.018 A 
HETATM    8  C15 UNL     1      20.584  28.192  14.031  1.00  0.00     0.033 A 
BRANCH   4   9
HETATM    9  O1  UNL     1      18.433  29.010  11.262  1.00  0.00    -0.354 OA
HETATM   10  C1  UNL     1      17.084  28.761  10.941  1.00  0.00     0.210 C 
ENDBRANCH   4   9
BRANCH   6  11
HETATM   11  C5  UNL     1      18.184  30.450  15.858  1.00  0.00     0.146 C 
BRANCH  11  12
HETATM   12  O2  UNL     1      18.655  30.336  17.101  1.00  0.00    -0.346 OA
ATOM     13  H2  UNL     1      18.827  29.447  17.389  1.00  0.00     0.219 HD
ENDBRANCH  11  12
BRANCH  11  14
HETATM   14  N1  UNL     1      17.201  31.414  15.710  1.00  0.00    -0.370 N 
ATOM     15  H1  UNL     1      16.272  31.184  15.358  1.00  0.00     0.161 HD
BRANCH  14  16
HETATM   16  C6  UNL     1      17.578  32.829  16.098  1.00  0.00     0.123 C 
BRANCH  16  17
HETATM   17  C7  UNL     1      18.523  33.336  15.066  1.00  0.00     0.050 C 
BRANCH  17  18
HETATM   18  C8  UNL     1      19.819  33.817  15.637  1.00  0.00     0.274 C 
BRANCH  18  19
HETATM   19  N2  UNL     1      20.921  33.044  15.325  1.00  0.00     0.088 N 
HETATM   20  C9  UNL     1      20.861  32.226  14.173  1.00  0.00     0.272 C 
HETATM   21  C10 UNL     1      22.311  31.791  13.881  1.00  0.00     0.030 C 
HETATM   22  C11 UNL     1      23.279  32.536  14.828  1.00  0.00     0.003 C 
HETATM   23  C12 UNL     1      22.937  32.259  16.272  1.00  0.00     0.030 C 
HETATM   24  C13 UNL     1      21.424  32.268  16.440  1.00  0.00     0.272 C 
ENDBRANCH  18  19
ENDBRANCH  17  18
ENDBRANCH  16  17
ENDBRANCH  14  16
ENDBRANCH  11  14
ENDBRANCH   6  11
ENDBRANCH   1   3
BRANCH   1  25
HETATM   25  C17 UNL     1      21.935  27.307  11.738  1.00  0.00     0.125 A 
HETATM   26  N4  UNL     1      22.884  28.002  12.393  1.00  0.00    -0.338 N 
HETATM   27  C18 UNL     1      24.207  27.672  12.356  1.00  0.00     0.183 A 
ATOM     28  H4  UNL     1      22.601  28.813  12.943  1.00  0.00     0.168 HD
HETATM   29  N5  UNL     1      24.566  26.619  11.646  1.00  0.00    -0.338 N 
HETATM   30  C19 UNL     1      23.674  25.874  10.965  1.00  0.00     0.126 A 
ATOM     31  H5  UNL     1      25.552  26.360  11.611  1.00  0.00     0.168 HD
HETATM   32  N6  UNL     1      24.156  24.863  10.207  1.00  0.00    -0.338 N 
HETATM   33  C29 UNL     1      22.337  26.222  11.014  1.00  0.00     0.110 A 
HETATM   34  C20 UNL     1      23.293  24.172   9.466  1.00  0.00     0.184 A 
ATOM     35  H6  UNL     1      25.151  24.637  10.203  1.00  0.00     0.168 HD
HETATM   36  N7  UNL     1      21.993  24.455   9.473  1.00  0.00    -0.326 N 
HETATM   37  C21 UNL     1      21.438  25.494  10.252  1.00  0.00     0.196 A 
ATOM     38  H7  UNL     1      21.370  23.896   8.890  1.00  0.00     0.169 HD
BRANCH  37  39
HETATM   39  N8  UNL     1      20.241  25.617  10.274  1.00  0.00    -0.403 NA
BRANCH  39  40
HETATM   40  C22 UNL     1      18.912  25.749  10.308  1.00  0.00     0.159 C 
BRANCH  40  41
HETATM   41  C23 UNL     1      18.130  25.297   9.056  1.00  0.00     0.089 C 
BRANCH  41  42
HETATM   42  C24 UNL     1      18.686  25.918   7.847  1.00  0.00     0.278 C 
BRANCH  42  43
HETATM   43  N9  UNL     1      18.804  25.061   6.675  1.00  0.00     0.088 N 
HETATM   44  C25 UNL     1      17.678  25.068   5.798  1.00  0.00     0.272 C 
HETATM   45  C26 UNL     1      17.462  26.480   5.360  1.00  0.00     0.032 C 
HETATM   46  C27 UNL     1      18.920  26.968   5.300  1.00  0.00     0.032 C 
HETATM   47  C28 UNL     1      19.769  25.807   5.808  1.00  0.00     0.272 C 
ENDBRANCH  42  43
ENDBRANCH  41  42
ENDBRANCH  40  41
ENDBRANCH  39  40
ENDBRANCH  37  39
ENDBRANCH   1  25
TORSDOF 15
ENDMDL
MODEL 5
REMARK VINA RESULT: -8.019243445      2.581      9.556
REMARK  15 active torsions:
REMARK  status: ('A' for Active; 'I' for Inactive)
REMARK    1  A    between atoms: O1_2  and  C2_3 
REMARK    2  A    between atoms: C4_5  and  C5_6 
REMARK    3  A    between atoms: C5_6  and  O2_7 
REMARK    4  A    between atoms: C5_6  and  N1_9 
REMARK    5  A    between atoms: N1_9  and  C6_11 
REMARK    6  A    between atoms: C6_11  and  C7_12 
REMARK    7  A    between atoms: C7_12  and  C8_13 
REMARK    8  A    between atoms: C8_13  and  N2_14 
REMARK    9  A    between atoms: C16_22  and  N3_23 
REMARK   10  A    between atoms: N3_23  and  C17_25 
REMARK   11  A    between atoms: C21_37  and  N8_38 
REMARK   12  A    between atoms: N8_38  and  C22_39 
REMARK   13  A    between atoms: C22_39  and  C23_40 
REMARK   14  A    between atoms: C23_40  and  C24_41 
REMARK   15  A    between atoms: C24_41  and  N9_42 
ROOT
HETATM    1  N3  UNL     1      21.101  27.474  11.020  1.00  0.00    -0.339 N 
ATOM      2  H3  UNL     1      20.474  27.581  10.223  1.00  0.00     0.167 HD
ENDROOT
BRANCH   1   3
HETATM    3  C16 UNL     1      20.770  27.893  12.352  1.00  0.00     0.067 A 
HETATM    4  C2  UNL     1      19.562  28.676  12.390  1.00  0.00     0.095 A 
HETATM    5  C3  UNL     1      19.167  29.297  13.523  1.00  0.00     0.054 A 
HETATM    6  C4  UNL     1      19.937  29.194  14.711  1.00  0.00     0.017 A 
HETATM    7  C14 UNL     1      21.066  28.439  14.649  1.00  0.00     0.018 A 
HETATM    8  C15 UNL     1      21.481  27.787  13.474  1.00  0.00     0.033 A 
BRANCH   4   9
HETATM    9  O1  UNL     1      18.853  28.752  11.209  1.00  0.00    -0.354 OA
HETATM   10  C1  UNL     1      17.445  28.724  11.179  1.00  0.00     0.210 C 
ENDBRANCH   4   9
BRANCH   6  11
HETATM   11  C5  UNL     1      19.579  30.068  15.792  1.00  0.00     0.146 C 
BRANCH  11  12
HETATM   12  O2  UNL     1      18.269  30.175  16.027  1.00  0.00    -0.346 OA
ATOM     13  H2  UNL     1      18.033  30.338  16.933  1.00  0.00     0.219 HD
ENDBRANCH  11  12
BRANCH  11  14
HETATM   14  N1  UNL     1      20.371  30.819  16.643  1.00  0.00    -0.370 N 
ATOM     15  H1  UNL     1      20.334  30.700  17.656  1.00  0.00     0.161 HD
BRANCH  14  16
HETATM   16  C6  UNL     1      21.297  31.827  15.993  1.00  0.00     0.123 C 
BRANCH  16  17
HETATM   17  C7  UNL     1      20.443  32.835  15.307  1.00  0.00     0.050 C 
BRANCH  17  18
HETATM   18  C8  UNL     1      19.814  33.813  16.247  1.00  0.00     0.274 C 
BRANCH  18  19
HETATM   19  N2  UNL     1      18.441  33.934  16.137  1.00  0.00     0.088 N 
HETATM   20  C9  UNL     1      17.638  33.405  17.175  1.00  0.00     0.272 C 
HETATM   21  C10 UNL     1      16.231  33.999  16.972  1.00  0.00     0.030 C 
HETATM   22  C11 UNL     1      16.270  35.059  15.847  1.00  0.00     0.003 C 
HETATM   23  C12 UNL     1      16.766  34.453  14.556  1.00  0.00     0.030 C 
HETATM   24  C13 UNL     1      17.918  33.504  14.857  1.00  0.00     0.272 C 
ENDBRANCH  18  19
ENDBRANCH  17  18
ENDBRANCH  16  17
ENDBRANCH  14  16
ENDBRANCH  11  14
ENDBRANCH   6  11
ENDBRANCH   1   3
BRANCH   1  25
HETATM   25  C17 UNL     1      22.317  26.930  10.937  1.00  0.00     0.125 A 
HETATM   26  N4  UNL     1      23.410  27.613  11.327  1.00  0.00    -0.338 N 
HETATM   27  C18 UNL     1      24.679  27.231  11.004  1.00  0.00     0.183 A 
ATOM     28  H4  UNL     1      23.283  28.454  11.890  1.00  0.00     0.168 HD
HETATM   29  N5  UNL     1      24.836  26.140  10.280  1.00  0.00    -0.338 N 
HETATM   30  C19 UNL     1      23.791  25.403   9.855  1.00  0.00     0.126 A 
ATOM     31  H5  UNL     1      25.780  25.843  10.034  1.00  0.00     0.168 HD
HETATM   32  N6  UNL     1      24.058  24.348   9.053  1.00  0.00    -0.338 N 
HETATM   33  C29 UNL     1      22.511  25.804  10.191  1.00  0.00     0.110 A 
HETATM   34  C20 UNL     1      23.029  23.662   8.560  1.00  0.00     0.184 A 
ATOM     35  H6  UNL     1      25.019  24.084   8.834  1.00  0.00     0.168 HD
HETATM   36  N7  UNL     1      21.774  23.994   8.850  1.00  0.00    -0.326 N 
HETATM   37  C21 UNL     1      21.441  25.082   9.687  1.00  0.00     0.196 A 
ATOM     38  H7  UNL     1      21.019  23.437   8.450  1.00  0.00     0.169 HD
BRANCH  37  39
HETATM   39  N8  UNL     1      20.285  25.251   9.975  1.00  0.00    -0.403 NA
BRANCH  39  40
HETATM   40  C22 UNL     1      18.999  25.431  10.288  1.00  0.00     0.159 C 
BRANCH  40  41
HETATM   41  C23 UNL     1      17.969  25.256   9.150  1.00  0.00     0.089 C 
BRANCH  41  42
HETATM   42  C24 UNL     1      18.452  25.888   7.915  1.00  0.00     0.278 C 
BRANCH  42  43
HETATM   43  N9  UNL     1      18.699  24.999   6.789  1.00  0.00     0.088 N 
HETATM   44  C25 UNL     1      17.689  24.994   5.782  1.00  0.00     0.272 C 
HETATM   45  C26 UNL     1      17.546  26.397   5.285  1.00  0.00     0.032 C 
HETATM   46  C27 UNL     1      19.007  26.868   5.391  1.00  0.00     0.032 C 
HETATM   47  C28 UNL     1      19.773  25.712   6.027  1.00  0.00     0.272 C 
ENDBRANCH  42  43
ENDBRANCH  41  42
ENDBRANCH  40  41
ENDBRANCH  39  40
ENDBRANCH  37  39
ENDBRANCH   1  25
TORSDOF 15
ENDMDL
