MODEL 1
REMARK VINA RESULT: -9.554288315      0.000      0.000
REMARK  12 active torsions:
REMARK  status: ('A' for Active; 'I' for Inactive)
REMARK    1  A    between atoms: C2_2  and  C3_3 
REMARK    2  A    between atoms: C3_3  and  N1_4 
REMARK    3  A    between atoms: C5_6  and  C6_7 
REMARK    4  A    between atoms: C6_7  and  O1_8 
REMARK    5  A    between atoms: N2_10  and  O2_12 
REMARK       I    between atoms: N3_14  and  C7_15 
REMARK    6  A    between atoms: C7_15  and  C8_17 
REMARK    7  A    between atoms: N4_22  and  C13_23 
REMARK    8  A    between atoms: C13_23  and  C17_27 
REMARK    9  A    between atoms: C14_24  and  C15_25 
REMARK       I    between atoms: C17_27  and  N5_29 
REMARK   10  A    between atoms: N5_29  and  C18_31 
REMARK   11  A    between atoms: C18_31  and  C19_32 
REMARK   12  A    between atoms: C19_32  and  C20_33 
ROOT
HETATM    1  C8  UNL     1      19.510  32.175  15.847  1.00  0.00     0.155 C 
HETATM    2  C9  UNL     1      18.776  30.995  16.482  1.00  0.00     0.030 C 
HETATM    3  C10 UNL     1      17.379  30.885  15.901  1.00  0.00     0.003 C 
HETATM    4  C11 UNL     1      17.438  30.872  14.383  1.00  0.00     0.015 C 
HETATM    5  C12 UNL     1      18.863  30.761  13.985  1.00  0.00     0.097 C 
HETATM    6  N4  UNL     1      19.668  31.882  14.439  1.00  0.00    -0.266 NA
ENDROOT
BRANCH   6   7
HETATM    7  C13 UNL     1      21.007  31.729  13.992  1.00  0.00     0.076 C 
HETATM    8  C14 UNL     1      22.187  31.696  14.808  1.00  0.00     0.002 C 
BRANCH   8   9
HETATM    9  C15 UNL     1      22.653  32.783  15.680  1.00  0.00     0.025 C 
HETATM   10  C16 UNL     1      22.789  32.418  17.137  1.00  0.00     0.009 C 
ENDBRANCH   8   9
BRANCH   7  11
HETATM   11  C17 UNL     1      21.132  31.082  12.695  1.00  0.00     0.262 C 
HETATM   12  O4  UNL     1      20.594  31.586  11.638  1.00  0.00    -0.267 OA
HETATM   13  N5  UNL     1      21.842  29.877  12.459  1.00  0.00    -0.355 N 
ATOM     14  H5  UNL     1      22.246  29.384  13.255  1.00  0.00     0.162 HD
BRANCH  13  15
HETATM   15  C18 UNL     1      22.018  29.319  11.137  1.00  0.00     0.138 C 
BRANCH  15  16
HETATM   16  C19 UNL     1      22.590  27.928  11.257  1.00  0.00     0.019 C 
HETATM   17  C24 UNL     1      23.282  27.764  12.611  1.00  0.00     0.017 C 
HETATM   18  C25 UNL     1      24.661  27.261  12.345  1.00  0.00     0.001 C 
HETATM   19  C26 UNL     1      24.926  27.352  10.880  1.00  0.00     0.001 C 
HETATM   20  C27 UNL     1      23.594  27.588  10.210  1.00  0.00     0.017 C 
BRANCH  16  21
HETATM   21  C20 UNL     1      21.491  26.911  11.267  1.00  0.00     0.035 A 
HETATM   22  C21 UNL     1      21.701  25.585  11.569  1.00  0.00     0.113 A 
HETATM   23  N6  UNL     1      20.696  24.662  11.530  1.00  0.00    -0.372 N 
HETATM   24  C22 UNL     1      19.453  25.040  11.189  1.00  0.00     0.104 A 
ATOM     25  H6  UNL     1      20.889  23.687  11.759  1.00  0.00     0.164 HD
HETATM   26  C23 UNL     1      19.240  26.366  10.890  1.00  0.00     0.105 A 
HETATM   27  N7  UNL     1      20.227  27.274  10.926  1.00  0.00    -0.366 N 
ATOM     28  H7  UNL     1      20.026  28.247  10.695  1.00  0.00     0.165 HD
ENDBRANCH  16  21
ENDBRANCH  15  16
ENDBRANCH  13  15
ENDBRANCH   7  11
ENDBRANCH   6   7
BRANCH   1  29
HETATM   29  C7  UNL     1      18.728  33.416  16.029  1.00  0.00     0.239 C 
HETATM   30  N3  UNL     1      18.937  34.331  17.052  1.00  0.00    -0.325 N 
HETATM   31  C5  UNL     1      18.127  35.528  17.382  1.00  0.00     0.178 C 
HETATM   32  C28 UNL     1      20.033  34.394  17.995  1.00  0.00     0.223 C 
HETATM   33  C4  UNL     1      18.187  35.434  18.887  1.00  0.00     0.130 C 
HETATM   34  N1  UNL     1      19.667  35.307  19.029  1.00  0.00    -0.274 NA
HETATM   35  O3  UNL     1      17.820  33.675  15.219  1.00  0.00    -0.271 OA
BRANCH  31  36
HETATM   36  C6  UNL     1      16.791  35.511  16.808  1.00  0.00     0.160 C 
HETATM   37  N2  UNL     1      15.786  34.923  17.272  1.00  0.00    -0.249 N 
ATOM     38  H2  UNL     1      14.931  35.028  16.726  1.00  0.00     0.196 HD
BRANCH  36  39
HETATM   39  O1  UNL     1      16.606  36.235  15.595  1.00  0.00    -0.347 OA
ATOM     40  H1  UNL     1      16.210  35.763  14.873  1.00  0.00     0.219 HD
ENDBRANCH  36  39
BRANCH  37  41
HETATM   41  O2  UNL     1      15.670  34.176  18.379  1.00  0.00    -0.288 OA
ATOM     42  H2  UNL     1      15.221  33.348  18.505  1.00  0.00     0.244 HD
ENDBRANCH  37  41
ENDBRANCH  31  36
BRANCH  34  43
HETATM   43  C3  UNL     1      20.161  36.626  18.992  1.00  0.00     0.060 C 
BRANCH  43  44
HETATM   44  C2  UNL     1      21.528  36.811  18.456  1.00  0.00     0.001 C 
HETATM   45  C1  UNL     1      22.535  36.864  19.310  1.00  0.00     0.012 C 
ENDBRANCH  43  44
ENDBRANCH  34  43
ENDBRANCH   1  29
TORSDOF 12
ENDMDL
MODEL 2
REMARK VINA RESULT: -9.526639531      2.217      3.993
REMARK  12 active torsions:
REMARK  status: ('A' for Active; 'I' for Inactive)
REMARK    1  A    between atoms: C2_2  and  C3_3 
REMARK    2  A    between atoms: C3_3  and  N1_4 
REMARK    3  A    between atoms: C5_6  and  C6_7 
REMARK    4  A    between atoms: C6_7  and  O1_8 
REMARK    5  A    between atoms: N2_10  and  O2_12 
REMARK       I    between atoms: N3_14  and  C7_15 
REMARK    6  A    between atoms: C7_15  and  C8_17 
REMARK    7  A    between atoms: N4_22  and  C13_23 
REMARK    8  A    between atoms: C13_23  and  C17_27 
REMARK    9  A    between atoms: C14_24  and  C15_25 
REMARK       I    between atoms: C17_27  and  N5_29 
REMARK   10  A    between atoms: N5_29  and  C18_31 
REMARK   11  A    between atoms: C18_31  and  C19_32 
REMARK   12  A    between atoms: C19_32  and  C20_33 
ROOT
HETATM    1  C8  UNL     1      20.001  33.686  15.873  1.00  0.00     0.155 C 
HETATM    2  C9  UNL     1      21.422  33.725  15.313  1.00  0.00     0.030 C 
HETATM    3  C10 UNL     1      22.369  33.020  16.265  1.00  0.00     0.003 C 
HETATM    4  C11 UNL     1      21.844  31.636  16.605  1.00  0.00     0.015 C 
HETATM    5  C12 UNL     1      20.682  31.362  15.723  1.00  0.00     0.097 C 
HETATM    6  N4  UNL     1      19.589  32.299  15.917  1.00  0.00    -0.266 NA
ENDROOT
BRANCH   6   7
HETATM    7  C13 UNL     1      18.501  31.957  15.071  1.00  0.00     0.076 C 
HETATM    8  C14 UNL     1      17.151  32.433  15.173  1.00  0.00     0.002 C 
BRANCH   8   9
HETATM    9  C15 UNL     1      16.259  32.229  16.323  1.00  0.00     0.025 C 
HETATM   10  C16 UNL     1      14.812  32.574  16.076  1.00  0.00     0.009 C 
ENDBRANCH   8   9
BRANCH   7  11
HETATM   11  C17 UNL     1      18.896  31.492  13.751  1.00  0.00     0.262 C 
HETATM   12  O4  UNL     1      19.493  32.271  12.915  1.00  0.00    -0.267 OA
HETATM   13  N5  UNL     1      18.688  30.178  13.261  1.00  0.00    -0.355 N 
ATOM     14  H5  UNL     1      18.169  29.518  13.839  1.00  0.00     0.162 HD
BRANCH  13  15
HETATM   15  C18 UNL     1      19.182  29.734  11.977  1.00  0.00     0.138 C 
BRANCH  15  16
HETATM   16  C19 UNL     1      20.317  28.763  12.189  1.00  0.00     0.019 C 
HETATM   17  C24 UNL     1      20.223  28.149  13.587  1.00  0.00     0.017 C 
HETATM   18  C25 UNL     1      21.547  28.342  14.246  1.00  0.00     0.001 C 
HETATM   19  C26 UNL     1      22.363  29.270  13.410  1.00  0.00     0.001 C 
HETATM   20  C27 UNL     1      21.672  29.374  12.072  1.00  0.00     0.017 C 
BRANCH  16  21
HETATM   21  C20 UNL     1      20.193  27.600  11.255  1.00  0.00     0.035 A 
HETATM   22  C21 UNL     1      21.268  26.838  10.862  1.00  0.00     0.113 A 
HETATM   23  N6  UNL     1      21.144  25.808   9.974  1.00  0.00    -0.372 N 
HETATM   24  C22 UNL     1      19.941  25.514   9.455  1.00  0.00     0.104 A 
ATOM     25  H6  UNL     1      21.964  25.265   9.705  1.00  0.00     0.164 HD
HETATM   26  C23 UNL     1      18.864  26.273   9.848  1.00  0.00     0.105 A 
HETATM   27  N7  UNL     1      18.984  27.286  10.720  1.00  0.00    -0.366 N 
ATOM     28  H7  UNL     1      18.159  27.825  10.983  1.00  0.00     0.165 HD
ENDBRANCH  16  21
ENDBRANCH  15  16
ENDBRANCH  13  15
ENDBRANCH   7  11
ENDBRANCH   6   7
BRANCH   1  29
HETATM   29  C7  UNL     1      19.973  34.274  17.229  1.00  0.00     0.239 C 
HETATM   30  N3  UNL     1      18.963  35.098  17.705  1.00  0.00    -0.325 N 
HETATM   31  C5  UNL     1      18.916  35.827  18.995  1.00  0.00     0.178 C 
HETATM   32  C28 UNL     1      17.678  35.388  17.106  1.00  0.00     0.223 C 
HETATM   33  C4  UNL     1      18.279  37.107  18.509  1.00  0.00     0.130 C 
HETATM   34  N1  UNL     1      17.115  36.503  17.796  1.00  0.00    -0.274 NA
HETATM   35  O3  UNL     1      20.909  34.021  18.010  1.00  0.00    -0.271 OA
BRANCH  31  36
HETATM   36  C6  UNL     1      20.213  35.979  19.633  1.00  0.00     0.160 C 
HETATM   37  N2  UNL     1      20.694  35.252  20.534  1.00  0.00    -0.249 N 
ATOM     38  H2  UNL     1      21.624  35.517  20.857  1.00  0.00     0.196 HD
BRANCH  36  39
HETATM   39  O1  UNL     1      21.021  37.067  19.190  1.00  0.00    -0.347 OA
ATOM     40  H1  UNL     1      21.806  37.247  19.693  1.00  0.00     0.219 HD
ENDBRANCH  36  39
BRANCH  37  41
HETATM   41  O2  UNL     1      20.164  34.177  21.135  1.00  0.00    -0.288 OA
ATOM     42  H2  UNL     1      20.228  33.898  22.041  1.00  0.00     0.244 HD
ENDBRANCH  37  41
ENDBRANCH  31  36
BRANCH  34  43
HETATM   43  C3  UNL     1      16.143  36.279  18.791  1.00  0.00     0.060 C 
BRANCH  43  44
HETATM   44  C2  UNL     1      15.150  35.214  18.526  1.00  0.00     0.001 C 
HETATM   45  C1  UNL     1      13.943  35.569  18.119  1.00  0.00     0.012 C 
ENDBRANCH  43  44
ENDBRANCH  34  43
ENDBRANCH   1  29
TORSDOF 12
ENDMDL
MODEL 3
REMARK VINA RESULT: -9.473339334      2.479      4.765
REMARK  12 active torsions:
REMARK  status: ('A' for Active; 'I' for Inactive)
REMARK    1  A    between atoms: C2_2  and  C3_3 
REMARK    2  A    between atoms: C3_3  and  N1_4 
REMARK    3  A    between atoms: C5_6  and  C6_7 
REMARK    4  A    between atoms: C6_7  and  O1_8 
REMARK    5  A    between atoms: N2_10  and  O2_12 
REMARK       I    between atoms: N3_14  and  C7_15 
REMARK    6  A    between atoms: C7_15  and  C8_17 
REMARK    7  A    between atoms: N4_22  and  C13_23 
REMARK    8  A    between atoms: C13_23  and  C17_27 
REMARK    9  A    between atoms: C14_24  and  C15_25 
REMARK       I    between atoms: C17_27  and  N5_29 
REMARK   10  A    between atoms: N5_29  and  C18_31 
REMARK   11  A    between atoms: C18_31  and  C19_32 
REMARK   12  A    between atoms: C19_32  and  C20_33 
ROOT
HETATM    1  C8  UNL     1      19.671  33.607  15.909  1.00  0.00     0.155 C 
HETATM    2  C9  UNL     1      21.025  33.262  15.290  1.00  0.00     0.030 C 
HETATM    3  C10 UNL     1      21.858  32.472  16.281  1.00  0.00     0.003 C 
HETATM    4  C11 UNL     1      21.067  31.290  16.813  1.00  0.00     0.015 C 
HETATM    5  C12 UNL     1      19.816  31.188  16.021  1.00  0.00     0.097 C 
HETATM    6  N4  UNL     1      18.970  32.363  16.142  1.00  0.00    -0.266 NA
ENDROOT
BRANCH   6   7
HETATM    7  C13 UNL     1      17.778  32.182  15.392  1.00  0.00     0.076 C 
HETATM    8  C14 UNL     1      16.538  32.884  15.567  1.00  0.00     0.002 C 
BRANCH   8   9
HETATM    9  C15 UNL     1      15.716  32.874  16.785  1.00  0.00     0.025 C 
HETATM   10  C16 UNL     1      14.338  33.465  16.628  1.00  0.00     0.009 C 
ENDBRANCH   8   9
BRANCH   7  11
HETATM   11  C17 UNL     1      17.987  31.613  14.070  1.00  0.00     0.262 C 
HETATM   12  O4  UNL     1      18.710  32.212  13.187  1.00  0.00    -0.267 OA
HETATM   13  N5  UNL     1      17.449  30.377  13.628  1.00  0.00    -0.355 N 
ATOM     14  H5  UNL     1      16.816  29.871  14.247  1.00  0.00     0.162 HD
BRANCH  13  15
HETATM   15  C18 UNL     1      17.760  29.805  12.338  1.00  0.00     0.138 C 
BRANCH  15  16
HETATM   16  C19 UNL     1      18.592  28.561  12.532  1.00  0.00     0.019 C 
HETATM   17  C24 UNL     1      18.786  27.851  11.192  1.00  0.00     0.017 C 
HETATM   18  C25 UNL     1      18.370  26.431  11.378  1.00  0.00     0.001 C 
HETATM   19  C26 UNL     1      17.690  26.305  12.701  1.00  0.00     0.001 C 
HETATM   20  C27 UNL     1      17.994  27.568  13.469  1.00  0.00     0.017 C 
BRANCH  16  21
HETATM   21  C20 UNL     1      19.975  28.922  12.976  1.00  0.00     0.035 A 
HETATM   22  C21 UNL     1      20.628  28.268  13.995  1.00  0.00     0.113 A 
HETATM   23  N6  UNL     1      21.872  28.638  14.417  1.00  0.00    -0.372 N 
HETATM   24  C22 UNL     1      22.498  29.672  13.831  1.00  0.00     0.104 A 
ATOM     25  H6  UNL     1      22.326  28.130  15.176  1.00  0.00     0.164 HD
HETATM   26  C23 UNL     1      21.848  30.326  12.810  1.00  0.00     0.105 A 
HETATM   27  N7  UNL     1      20.624  29.964  12.395  1.00  0.00    -0.366 N 
ATOM     28  H7  UNL     1      20.177  30.477  11.635  1.00  0.00     0.165 HD
ENDBRANCH  16  21
ENDBRANCH  15  16
ENDBRANCH  13  15
ENDBRANCH   7  11
ENDBRANCH   6   7
BRANCH   1  29
HETATM   29  C7  UNL     1      19.866  34.334  17.181  1.00  0.00     0.239 C 
HETATM   30  N3  UNL     1      19.049  35.364  17.628  1.00  0.00    -0.325 N 
HETATM   31  C5  UNL     1      19.241  36.225  18.819  1.00  0.00     0.178 C 
HETATM   32  C28 UNL     1      17.776  35.800  17.097  1.00  0.00     0.223 C 
HETATM   33  C4  UNL     1      18.772  37.534  18.230  1.00  0.00     0.130 C 
HETATM   34  N1  UNL     1      17.465  37.062  17.687  1.00  0.00    -0.274 NA
HETATM   35  O3  UNL     1      20.819  34.013  17.914  1.00  0.00    -0.271 OA
BRANCH  31  36
HETATM   36  C6  UNL     1      20.601  36.224  19.334  1.00  0.00     0.160 C 
HETATM   37  N2  UNL     1      21.045  35.521  20.271  1.00  0.00    -0.249 N 
ATOM     38  H2  UNL     1      22.031  35.660  20.489  1.00  0.00     0.196 HD
BRANCH  36  39
HETATM   39  O1  UNL     1      21.521  37.115  18.710  1.00  0.00    -0.347 OA
ATOM     40  H1  UNL     1      21.853  36.858  17.857  1.00  0.00     0.219 HD
ENDBRANCH  36  39
BRANCH  37  41
HETATM   41  O2  UNL     1      20.414  34.612  21.029  1.00  0.00    -0.288 OA
ATOM     42  H2  UNL     1      20.693  34.203  21.839  1.00  0.00     0.244 HD
ENDBRANCH  37  41
ENDBRANCH  31  36
BRANCH  34  43
HETATM   43  C3  UNL     1      16.568  37.114  18.772  1.00  0.00     0.060 C 
BRANCH  43  44
HETATM   44  C2  UNL     1      15.423  36.177  18.737  1.00  0.00     0.001 C 
HETATM   45  C1  UNL     1      14.230  36.631  19.079  1.00  0.00     0.012 C 
ENDBRANCH  43  44
ENDBRANCH  34  43
ENDBRANCH   1  29
TORSDOF 12
ENDMDL
MODEL 4
REMARK VINA RESULT: -9.430309269      2.164      4.381
REMARK  12 active torsions:
REMARK  status: ('A' for Active; 'I' for Inactive)
REMARK    1  A    between atoms: C2_2  and  C3_3 
REMARK    2  A    between atoms: C3_3  and  N1_4 
REMARK    3  A    between atoms: C5_6  and  C6_7 
REMARK    4  A    between atoms: C6_7  and  O1_8 
REMARK    5  A    between atoms: N2_10  and  O2_12 
REMARK       I    between atoms: N3_14  and  C7_15 
REMARK    6  A    between atoms: C7_15  and  C8_17 
REMARK    7  A    between atoms: N4_22  and  C13_23 
REMARK    8  A    between atoms: C13_23  and  C17_27 
REMARK    9  A    between atoms: C14_24  and  C15_25 
REMARK       I    between atoms: C17_27  and  N5_29 
REMARK   10  A    between atoms: N5_29  and  C18_31 
REMARK   11  A    between atoms: C18_31  and  C19_32 
REMARK   12  A    between atoms: C19_32  and  C20_33 
ROOT
HETATM    1  C8  UNL     1      20.249  33.724  15.869  1.00  0.00     0.155 C 
HETATM    2  C9  UNL     1      21.664  33.929  15.331  1.00  0.00     0.030 C 
HETATM    3  C10 UNL     1      22.670  33.306  16.279  1.00  0.00     0.003 C 
HETATM    4  C11 UNL     1      22.292  31.866  16.578  1.00  0.00     0.015 C 
HETATM    5  C12 UNL     1      21.177  31.491  15.674  1.00  0.00     0.097 C 
HETATM    6  N4  UNL     1      19.987  32.301  15.875  1.00  0.00    -0.266 NA
ENDROOT
BRANCH   6   7
HETATM    7  C13 UNL     1      18.952  31.866  15.007  1.00  0.00     0.076 C 
HETATM    8  C14 UNL     1      17.572  32.259  15.049  1.00  0.00     0.002 C 
BRANCH   8   9
HETATM    9  C15 UNL     1      16.656  32.036  16.176  1.00  0.00     0.025 C 
HETATM   10  C16 UNL     1      15.192  32.174  15.843  1.00  0.00     0.009 C 
ENDBRANCH   8   9
BRANCH   7  11
HETATM   11  C17 UNL     1      19.420  31.386  13.716  1.00  0.00     0.262 C 
HETATM   12  O4  UNL     1      19.761  32.203  12.779  1.00  0.00    -0.267 OA
HETATM   13  N5  UNL     1      19.559  30.019  13.364  1.00  0.00    -0.355 N 
ATOM     14  H5  UNL     1      19.253  29.310  14.029  1.00  0.00     0.162 HD
BRANCH  13  15
HETATM   15  C18 UNL     1      20.117  29.589  12.102  1.00  0.00     0.138 C 
BRANCH  15  16
HETATM   16  C19 UNL     1      19.827  28.121  11.904  1.00  0.00     0.019 C 
HETATM   17  C24 UNL     1      18.969  27.923  10.654  1.00  0.00     0.017 C 
HETATM   18  C25 UNL     1      17.784  27.111  11.053  1.00  0.00     0.001 C 
HETATM   19  C26 UNL     1      17.750  27.022  12.542  1.00  0.00     0.001 C 
HETATM   20  C27 UNL     1      19.098  27.485  13.038  1.00  0.00     0.017 C 
BRANCH  16  21
HETATM   21  C20 UNL     1      21.092  27.372  11.620  1.00  0.00     0.035 A 
HETATM   22  C21 UNL     1      22.249  27.989  11.206  1.00  0.00     0.113 A 
HETATM   23  N6  UNL     1      23.381  27.287  10.907  1.00  0.00    -0.372 N 
HETATM   24  C22 UNL     1      23.387  25.949  11.016  1.00  0.00     0.104 A 
ATOM     25  H6  UNL     1      24.221  27.778  10.602  1.00  0.00     0.164 HD
HETATM   26  C23 UNL     1      22.231  25.330  11.432  1.00  0.00     0.105 A 
HETATM   27  N7  UNL     1      21.117  26.018  11.725  1.00  0.00    -0.366 N 
ATOM     28  H7  UNL     1      20.281  25.519  12.029  1.00  0.00     0.165 HD
ENDBRANCH  16  21
ENDBRANCH  15  16
ENDBRANCH  13  15
ENDBRANCH   7  11
ENDBRANCH   6   7
BRANCH   1  29
HETATM   29  C7  UNL     1      20.143  34.272  17.238  1.00  0.00     0.239 C 
HETATM   30  N3  UNL     1      19.062  35.006  17.707  1.00  0.00    -0.325 N 
HETATM   31  C5  UNL     1      18.928  35.695  19.013  1.00  0.00     0.178 C 
HETATM   32  C28 UNL     1      17.775  35.217  17.081  1.00  0.00     0.223 C 
HETATM   33  C4  UNL     1      18.210  36.937  18.542  1.00  0.00     0.130 C 
HETATM   34  N1  UNL     1      17.113  36.268  17.783  1.00  0.00    -0.274 NA
HETATM   35  O3  UNL     1      21.075  34.068  18.038  1.00  0.00    -0.271 OA
BRANCH  31  36
HETATM   36  C6  UNL     1      20.194  35.925  19.690  1.00  0.00     0.160 C 
HETATM   37  N2  UNL     1      20.697  35.220  20.596  1.00  0.00    -0.249 N 
ATOM     38  H2  UNL     1      21.598  35.542  20.949  1.00  0.00     0.196 HD
BRANCH  36  39
HETATM   39  O1  UNL     1      20.938  37.070  19.283  1.00  0.00    -0.347 OA
ATOM     40  H1  UNL     1      20.893  37.304  18.363  1.00  0.00     0.219 HD
ENDBRANCH  36  39
BRANCH  37  41
HETATM   41  O2  UNL     1      20.225  34.103  21.169  1.00  0.00    -0.288 OA
ATOM     42  H2  UNL     1      19.438  33.975  21.685  1.00  0.00     0.244 HD
ENDBRANCH  37  41
ENDBRANCH  31  36
BRANCH  34  43
HETATM   43  C3  UNL     1      16.136  35.946  18.745  1.00  0.00     0.060 C 
BRANCH  43  44
HETATM   44  C2  UNL     1      15.165  34.889  18.382  1.00  0.00     0.001 C 
HETATM   45  C1  UNL     1      14.067  35.240  17.736  1.00  0.00     0.012 C 
ENDBRANCH  43  44
ENDBRANCH  34  43
ENDBRANCH   1  29
TORSDOF 12
ENDMDL
MODEL 5
REMARK VINA RESULT: -9.380891546      2.917     10.089
REMARK  12 active torsions:
REMARK  status: ('A' for Active; 'I' for Inactive)
REMARK    1  A    between atoms: C2_2  and  C3_3 
REMARK    2  A    between atoms: C3_3  and  N1_4 
REMARK    3  A    between atoms: C5_6  and  C6_7 
REMARK    4  A    between atoms: C6_7  and  O1_8 
REMARK    5  A    between atoms: N2_10  and  O2_12 
REMARK       I    between atoms: N3_14  and  C7_15 
REMARK    6  A    between atoms: C7_15  and  C8_17 
REMARK    7  A    between atoms: N4_22  and  C13_23 
REMARK    8  A    between atoms: C13_23  and  C17_27 
REMARK    9  A    between atoms: C14_24  and  C15_25 
REMARK       I    between atoms: C17_27  and  N5_29 
REMARK   10  A    between atoms: N5_29  and  C18_31 
REMARK   11  A    between atoms: C18_31  and  C19_32 
REMARK   12  A    between atoms: C19_32  and  C20_33 
ROOT
HETATM    1  C8  UNL     1      19.326  28.903  11.728  1.00  0.00     0.155 C 
HETATM    2  C9  UNL     1      17.799  28.943  11.720  1.00  0.00     0.030 C 
HETATM    3  C10 UNL     1      17.248  27.780  12.522  1.00  0.00     0.003 C 
HETATM    4  C11 UNL     1      17.888  27.738  13.898  1.00  0.00     0.015 C 
HETATM    5  C12 UNL     1      18.685  28.978  14.067  1.00  0.00     0.097 C 
HETATM    6  N4  UNL     1      19.758  29.100  13.095  1.00  0.00    -0.266 NA
ENDROOT
BRANCH   6   7
HETATM    7  C13 UNL     1      20.500  30.286  13.337  1.00  0.00     0.076 C 
HETATM    8  C14 UNL     1      21.911  30.471  13.151  1.00  0.00     0.002 C 
BRANCH   8   9
HETATM    9  C15 UNL     1      22.968  29.725  13.847  1.00  0.00     0.025 C 
HETATM   10  C16 UNL     1      23.315  28.391  13.236  1.00  0.00     0.009 C 
ENDBRANCH   8   9
BRANCH   7  11
HETATM   11  C17 UNL     1      19.705  31.504  13.297  1.00  0.00     0.262 C 
HETATM   12  O4  UNL     1      19.594  32.199  12.216  1.00  0.00    -0.267 OA
HETATM   13  N5  UNL     1      18.982  32.034  14.396  1.00  0.00    -0.355 N 
ATOM     14  H5  UNL     1      19.067  31.576  15.303  1.00  0.00     0.162 HD
BRANCH  13  15
HETATM   15  C18 UNL     1      18.130  33.196  14.284  1.00  0.00     0.138 C 
BRANCH  15  16
HETATM   16  C19 UNL     1      17.349  33.364  15.565  1.00  0.00     0.019 C 
HETATM   17  C24 UNL     1      16.965  31.993  16.124  1.00  0.00     0.017 C 
HETATM   18  C25 UNL     1      15.493  32.007  16.362  1.00  0.00     0.001 C 
HETATM   19  C26 UNL     1      14.923  33.235  15.734  1.00  0.00     0.001 C 
HETATM   20  C27 UNL     1      16.086  34.141  15.412  1.00  0.00     0.017 C 
BRANCH  16  21
HETATM   21  C20 UNL     1      18.208  33.980  16.624  1.00  0.00     0.035 A 
HETATM   22  C21 UNL     1      17.795  34.134  17.927  1.00  0.00     0.113 A 
HETATM   23  N6  UNL     1      18.574  34.738  18.871  1.00  0.00    -0.372 N 
HETATM   24  C22 UNL     1      19.789  35.205  18.537  1.00  0.00     0.104 A 
ATOM     25  H6  UNL     1      18.234  34.836  19.828  1.00  0.00     0.164 HD
HETATM   26  C23 UNL     1      20.205  35.050  17.236  1.00  0.00     0.105 A 
HETATM   27  N7  UNL     1      19.440  34.457  16.306  1.00  0.00    -0.366 N 
ATOM     28  H7  UNL     1      19.787  34.364  15.352  1.00  0.00     0.165 HD
ENDBRANCH  16  21
ENDBRANCH  15  16
ENDBRANCH  13  15
ENDBRANCH   7  11
ENDBRANCH   6   7
BRANCH   1  29
HETATM   29  C7  UNL     1      19.801  27.598  11.222  1.00  0.00     0.239 C 
HETATM   30  N3  UNL     1      19.325  26.982  10.072  1.00  0.00    -0.325 N 
HETATM   31  C5  UNL     1      19.651  25.629   9.563  1.00  0.00     0.178 C 
HETATM   32  C28 UNL     1      18.460  27.529   9.049  1.00  0.00     0.223 C 
HETATM   33  C4  UNL     1      18.281  25.238   9.065  1.00  0.00     0.130 C 
HETATM   34  N1  UNL     1      18.007  26.448   8.236  1.00  0.00    -0.274 NA
HETATM   35  O3  UNL     1      20.691  26.999  11.854  1.00  0.00    -0.271 OA
BRANCH  31  36
HETATM   36  C6  UNL     1      20.227  24.746  10.564  1.00  0.00     0.160 C 
HETATM   37  N2  UNL     1      21.399  24.304  10.586  1.00  0.00    -0.249 N 
ATOM     38  H2  UNL     1      21.620  23.695  11.374  1.00  0.00     0.196 HD
BRANCH  36  39
HETATM   39  O1  UNL     1      19.370  24.341  11.629  1.00  0.00    -0.347 OA
ATOM     40  H1  UNL     1      19.368  23.417  11.846  1.00  0.00     0.219 HD
ENDBRANCH  36  39
BRANCH  37  41
HETATM   41  O2  UNL     1      22.406  24.513   9.726  1.00  0.00    -0.288 OA
ATOM     42  H2  UNL     1      22.910  23.886   9.220  1.00  0.00     0.244 HD
ENDBRANCH  37  41
ENDBRANCH  31  36
BRANCH  34  43
HETATM   43  C3  UNL     1      18.636  26.204   6.999  1.00  0.00     0.060 C 
BRANCH  43  44
HETATM   44  C2  UNL     1      18.590  27.295   6.000  1.00  0.00     0.001 C 
HETATM   45  C1  UNL     1      17.536  27.376   5.207  1.00  0.00     0.012 C 
ENDBRANCH  43  44
ENDBRANCH  34  43
ENDBRANCH   1  29
TORSDOF 12
ENDMDL
