MODEL 1
REMARK VINA RESULT: -7.714500123      0.000      0.000
REMARK  14 active torsions:
REMARK  status: ('A' for Active; 'I' for Inactive)
REMARK    1  A    between atoms: C2_2  and  N1_3 
REMARK    2  A    between atoms: N1_3  and  C4_5 
REMARK    3  A    between atoms: N1_3  and  C25_42 
REMARK    4  A    between atoms: C4_5  and  C5_6 
REMARK    5  A    between atoms: C5_6  and  N2_7 
REMARK    6  A    between atoms: N2_7  and  C6_8 
REMARK    7  A    between atoms: C7_11  and  S1_12 
REMARK    8  A    between atoms: C9_16  and  N5_17 
REMARK    9  A    between atoms: N5_17  and  C10_19 
REMARK   10  A    between atoms: C10_19  and  C11_20 
REMARK   11  A    between atoms: C11_20  and  N6_21 
REMARK   12  A    between atoms: N6_21  and  C12_22 
REMARK   13  A    between atoms: C19_35  and  O1_36 
REMARK   14  A    between atoms: C25_42  and  C26_43 
ROOT
HETATM    1  C6  UNL     1      18.232  31.722  15.598  1.00  0.00     0.191 C 
HETATM    2  N3  UNL     1      19.493  32.241  15.427  1.00  0.00    -0.311 N 
ATOM      3  H3  UNL     1      20.025  31.790  14.683  1.00  0.00     0.170 HD
HETATM    4  C7  UNL     1      20.155  33.215  16.040  1.00  0.00     0.147 C 
HETATM    5  N4  UNL     1      19.805  33.834  17.196  1.00  0.00    -0.322 N 
ATOM      6  H4  UNL     1      20.568  34.247  17.731  1.00  0.00     0.169 HD
HETATM    7  C9  UNL     1      18.562  33.971  17.726  1.00  0.00     0.117 C 
HETATM    8  C18 UNL     1      17.365  33.500  17.171  1.00  0.00     0.056 A 
HETATM    9  C19 UNL     1      16.273  34.166  17.687  1.00  0.00     0.083 A 
HETATM   10  C21 UNL     1      15.023  33.806  17.230  1.00  0.00     0.038 A 
HETATM   11  C22 UNL     1      14.887  32.803  16.282  1.00  0.00     0.004 A 
HETATM   12  C23 UNL     1      15.985  32.145  15.775  1.00  0.00     0.017 A 
HETATM   13  C24 UNL     1      17.247  32.501  16.227  1.00  0.00     0.039 A 
ENDROOT
BRANCH   7  14
HETATM   14  N5  UNL     1      18.396  34.565  18.840  1.00  0.00    -0.370 N 
ATOM     15  H5  UNL     1      17.489  34.454  19.294  1.00  0.00     0.161 HD
BRANCH  14  16
HETATM   16  C10 UNL     1      19.370  35.380  19.519  1.00  0.00     0.180 C 
BRANCH  16  17
HETATM   17  C11 UNL     1      19.395  36.797  18.886  1.00  0.00     0.175 C 
BRANCH  17  18
HETATM   18  N6  UNL     1      20.576  37.366  18.773  1.00  0.00    -0.419 NA
BRANCH  18  19
HETATM   19  C12 UNL     1      21.653  37.898  18.665  1.00  0.00     0.122 A 
HETATM   20  C13 UNL     1      22.746  37.503  19.468  1.00  0.00     0.062 A 
HETATM   21  C14 UNL     1      23.956  38.102  19.344  1.00  0.00     0.093 A 
HETATM   22  N7  UNL     1      24.162  39.084  18.459  1.00  0.00    -0.350 N 
HETATM   23  C15 UNL     1      23.154  39.484  17.682  1.00  0.00     0.135 A 
ATOM     24  H7  UNL     1      25.080  39.522  18.379  1.00  0.00     0.166 HD
HETATM   25  N8  UNL     1      23.100  40.446  16.717  1.00  0.00    -0.285 N 
HETATM   26  C17 UNL     1      21.910  38.929  17.751  1.00  0.00     0.067 A 
HETATM   27  N9  UNL     1      21.861  40.463  16.227  1.00  0.00    -0.309 N 
ATOM     28  H8  UNL     1      23.871  41.045  16.422  1.00  0.00     0.188 HD
HETATM   29  C16 UNL     1      21.103  39.549  16.835  1.00  0.00     0.126 A 
ATOM     30  H9  UNL     1      21.536  41.089  15.490  1.00  0.00     0.186 HD
ENDBRANCH  18  19
ENDBRANCH  17  18
ENDBRANCH  16  17
ENDBRANCH  14  16
ENDBRANCH   7  14
BRANCH   4  31
HETATM   31  S1  UNL     1      21.687  33.799  15.277  1.00  0.00    -0.098 SA
HETATM   32  C8  UNL     1      23.048  32.871  16.046  1.00  0.00     0.099 C 
ENDBRANCH   4  31
BRANCH   9  33
HETATM   33  O1  UNL     1      16.461  35.169  18.641  1.00  0.00    -0.355 OA
HETATM   34  C20 UNL     1      15.391  36.081  18.840  1.00  0.00     0.210 C 
ENDBRANCH   9  33
BRANCH   1  35
HETATM   35  N2  UNL     1      17.983  30.646  15.228  1.00  0.00    -0.401 NA
BRANCH  35  36
HETATM   36  C5  UNL     1      17.718  29.393  14.748  1.00  0.00     0.185 C 
BRANCH  36  37
HETATM   37  C4  UNL     1      18.889  28.881  13.984  1.00  0.00     0.296 C 
BRANCH  37  38
HETATM   38  N1  UNL     1      18.839  28.910  12.554  1.00  0.00    -0.059 N 
HETATM   39  C3  UNL     1      18.996  27.428  12.255  1.00  0.00     0.273 C 
BRANCH  38  40
HETATM   40  C2  UNL     1      17.585  29.213  11.960  1.00  0.00     0.233 C 
HETATM   41  C1  UNL     1      17.184  28.463  10.744  1.00  0.00     0.035 C 
ENDBRANCH  38  40
BRANCH  38  42
HETATM   42  C25 UNL     1      20.010  29.439  11.932  1.00  0.00     0.314 C 
BRANCH  42  43
HETATM   43  C26 UNL     1      20.568  30.691  12.416  1.00  0.00     0.148 C 
HETATM   44  C27 UNL     1      21.885  30.762  13.122  1.00  0.00     0.092 C 
HETATM   45  O2  UNL     1      19.997  31.740  12.275  1.00  0.00    -0.297 OA
ENDBRANCH  42  43
ENDBRANCH  38  42
ENDBRANCH  37  38
ENDBRANCH  36  37
ENDBRANCH  35  36
ENDBRANCH   1  35
TORSDOF 14
ENDMDL
MODEL 2
REMARK VINA RESULT: -7.694953882      3.845      9.971
REMARK  14 active torsions:
REMARK  status: ('A' for Active; 'I' for Inactive)
REMARK    1  A    between atoms: C2_2  and  N1_3 
REMARK    2  A    between atoms: N1_3  and  C4_5 
REMARK    3  A    between atoms: N1_3  and  C25_42 
REMARK    4  A    between atoms: C4_5  and  C5_6 
REMARK    5  A    between atoms: C5_6  and  N2_7 
REMARK    6  A    between atoms: N2_7  and  C6_8 
REMARK    7  A    between atoms: C7_11  and  S1_12 
REMARK    8  A    between atoms: C9_16  and  N5_17 
REMARK    9  A    between atoms: N5_17  and  C10_19 
REMARK   10  A    between atoms: C10_19  and  C11_20 
REMARK   11  A    between atoms: C11_20  and  N6_21 
REMARK   12  A    between atoms: N6_21  and  C12_22 
REMARK   13  A    between atoms: C19_35  and  O1_36 
REMARK   14  A    between atoms: C25_42  and  C26_43 
ROOT
HETATM    1  C6  UNL     1      17.528  31.851  15.016  1.00  0.00     0.191 C 
HETATM    2  N3  UNL     1      17.245  30.926  14.040  1.00  0.00    -0.311 N 
ATOM      3  H3  UNL     1      16.267  30.922  13.749  1.00  0.00     0.170 HD
HETATM    4  C7  UNL     1      17.994  30.035  13.402  1.00  0.00     0.147 C 
HETATM    5  N4  UNL     1      19.255  29.652  13.725  1.00  0.00    -0.322 N 
ATOM      6  H4  UNL     1      19.534  28.722  13.415  1.00  0.00     0.169 HD
HETATM    7  C9  UNL     1      20.191  30.358  14.412  1.00  0.00     0.117 C 
HETATM    8  C18 UNL     1      20.045  31.652  14.926  1.00  0.00     0.056 A 
HETATM    9  C19 UNL     1      21.269  32.245  15.156  1.00  0.00     0.083 A 
HETATM   10  C21 UNL     1      21.280  33.526  15.664  1.00  0.00     0.038 A 
HETATM   11  C22 UNL     1      20.088  34.183  15.930  1.00  0.00     0.004 A 
HETATM   12  C23 UNL     1      18.872  33.581  15.696  1.00  0.00     0.017 A 
HETATM   13  C24 UNL     1      18.850  32.292  15.184  1.00  0.00     0.039 A 
ENDROOT
BRANCH   7  14
HETATM   14  N5  UNL     1      21.333  29.849  14.657  1.00  0.00    -0.370 N 
ATOM     15  H5  UNL     1      22.023  30.453  15.103  1.00  0.00     0.161 HD
BRANCH  14  16
HETATM   16  C10 UNL     1      21.739  28.499  14.364  1.00  0.00     0.180 C 
BRANCH  16  17
HETATM   17  C11 UNL     1      22.609  28.485  13.077  1.00  0.00     0.175 C 
BRANCH  17  18
HETATM   18  N6  UNL     1      22.490  27.428  12.303  1.00  0.00    -0.419 NA
BRANCH  18  19
HETATM   19  C12 UNL     1      22.368  26.460  11.594  1.00  0.00     0.122 A 
HETATM   20  C13 UNL     1      21.205  25.659  11.645  1.00  0.00     0.062 A 
HETATM   21  C14 UNL     1      21.070  24.572  10.846  1.00  0.00     0.093 A 
HETATM   22  N7  UNL     1      22.028  24.218   9.981  1.00  0.00    -0.350 N 
HETATM   23  C15 UNL     1      23.140  24.950   9.904  1.00  0.00     0.135 A 
ATOM     24  H7  UNL     1      21.909  23.397   9.387  1.00  0.00     0.166 HD
HETATM   25  N8  UNL     1      24.248  24.809   9.120  1.00  0.00    -0.285 N 
HETATM   26  C17 UNL     1      23.347  26.055  10.675  1.00  0.00     0.067 A 
HETATM   27  N9  UNL     1      25.087  25.800   9.418  1.00  0.00    -0.309 N 
ATOM     28  H8  UNL     1      24.406  24.075   8.429  1.00  0.00     0.188 HD
HETATM   29  C16 UNL     1      24.571  26.584  10.365  1.00  0.00     0.126 A 
ATOM     30  H9  UNL     1      25.999  25.940   8.982  1.00  0.00     0.186 HD
ENDBRANCH  18  19
ENDBRANCH  17  18
ENDBRANCH  16  17
ENDBRANCH  14  16
ENDBRANCH   7  14
BRANCH   4  31
HETATM   31  S1  UNL     1      17.286  29.233  11.945  1.00  0.00    -0.098 SA
HETATM   32  C8  UNL     1      18.635  28.323  11.133  1.00  0.00     0.099 C 
ENDBRANCH   4  31
BRANCH   9  33
HETATM   33  O1  UNL     1      22.443  31.542  14.873  1.00  0.00    -0.355 OA
HETATM   34  C20 UNL     1      23.612  32.309  14.625  1.00  0.00     0.210 C 
ENDBRANCH   9  33
BRANCH   1  35
HETATM   35  N2  UNL     1      16.680  32.264  15.700  1.00  0.00    -0.401 NA
BRANCH  35  36
HETATM   36  C5  UNL     1      15.661  32.700  16.502  1.00  0.00     0.185 C 
BRANCH  36  37
HETATM   37  C4  UNL     1      16.182  33.661  17.512  1.00  0.00     0.296 C 
BRANCH  37  38
HETATM   38  N1  UNL     1      15.647  34.989  17.533  1.00  0.00    -0.059 N 
HETATM   39  C3  UNL     1      14.279  34.732  16.922  1.00  0.00     0.273 C 
BRANCH  38  40
HETATM   40  C2  UNL     1      15.319  35.531  18.805  1.00  0.00     0.233 C 
HETATM   41  C1  UNL     1      14.130  36.413  18.907  1.00  0.00     0.035 C 
ENDBRANCH  38  40
BRANCH  38  42
HETATM   42  C25 UNL     1      16.216  35.871  16.565  1.00  0.00     0.314 C 
BRANCH  42  43
HETATM   43  C26 UNL     1      17.064  36.963  17.012  1.00  0.00     0.148 C 
HETATM   44  C27 UNL     1      18.317  36.736  17.795  1.00  0.00     0.092 C 
HETATM   45  O2  UNL     1      16.801  38.113  16.774  1.00  0.00    -0.297 OA
ENDBRANCH  42  43
ENDBRANCH  38  42
ENDBRANCH  37  38
ENDBRANCH  36  37
ENDBRANCH  35  36
ENDBRANCH   1  35
TORSDOF 14
ENDMDL
MODEL 3
REMARK VINA RESULT: -7.679434824      1.379      2.047
REMARK  14 active torsions:
REMARK  status: ('A' for Active; 'I' for Inactive)
REMARK    1  A    between atoms: C2_2  and  N1_3 
REMARK    2  A    between atoms: N1_3  and  C4_5 
REMARK    3  A    between atoms: N1_3  and  C25_42 
REMARK    4  A    between atoms: C4_5  and  C5_6 
REMARK    5  A    between atoms: C5_6  and  N2_7 
REMARK    6  A    between atoms: N2_7  and  C6_8 
REMARK    7  A    between atoms: C7_11  and  S1_12 
REMARK    8  A    between atoms: C9_16  and  N5_17 
REMARK    9  A    between atoms: N5_17  and  C10_19 
REMARK   10  A    between atoms: C10_19  and  C11_20 
REMARK   11  A    between atoms: C11_20  and  N6_21 
REMARK   12  A    between atoms: N6_21  and  C12_22 
REMARK   13  A    between atoms: C19_35  and  O1_36 
REMARK   14  A    between atoms: C25_42  and  C26_43 
ROOT
HETATM    1  C6  UNL     1      18.214  31.728  15.601  1.00  0.00     0.191 C 
HETATM    2  N3  UNL     1      19.471  32.262  15.448  1.00  0.00    -0.311 N 
ATOM      3  H3  UNL     1      20.020  31.814  14.715  1.00  0.00     0.170 HD
HETATM    4  C7  UNL     1      20.111  33.246  16.068  1.00  0.00     0.147 C 
HETATM    5  N4  UNL     1      19.735  33.865  17.215  1.00  0.00    -0.322 N 
ATOM      6  H4  UNL     1      20.484  34.290  17.761  1.00  0.00     0.169 HD
HETATM    7  C9  UNL     1      18.482  33.989  17.725  1.00  0.00     0.117 C 
HETATM    8  C18 UNL     1      17.300  33.501  17.153  1.00  0.00     0.056 A 
HETATM    9  C19 UNL     1      16.192  34.155  17.649  1.00  0.00     0.083 A 
HETATM   10  C21 UNL     1      14.954  33.778  17.174  1.00  0.00     0.038 A 
HETATM   11  C22 UNL     1      14.845  32.770  16.228  1.00  0.00     0.004 A 
HETATM   12  C23 UNL     1      15.959  32.124  15.741  1.00  0.00     0.017 A 
HETATM   13  C24 UNL     1      17.209  32.497  16.212  1.00  0.00     0.039 A 
ENDROOT
BRANCH   7  14
HETATM   14  N5  UNL     1      18.291  34.585  18.834  1.00  0.00    -0.370 N 
ATOM     15  H5  UNL     1      17.377  35.015  18.978  1.00  0.00     0.161 HD
BRANCH  14  16
HETATM   16  C10 UNL     1      19.246  34.708  19.905  1.00  0.00     0.180 C 
BRANCH  16  17
HETATM   17  C11 UNL     1      20.164  35.933  19.645  1.00  0.00     0.175 C 
BRANCH  17  18
HETATM   18  N6  UNL     1      19.631  36.934  18.979  1.00  0.00    -0.419 NA
BRANCH  18  19
HETATM   19  C12 UNL     1      19.130  37.848  18.372  1.00  0.00     0.122 A 
HETATM   20  C13 UNL     1      17.874  38.374  18.749  1.00  0.00     0.062 A 
HETATM   21  C14 UNL     1      17.314  39.402  18.066  1.00  0.00     0.093 A 
HETATM   22  N7  UNL     1      17.927  39.958  17.014  1.00  0.00    -0.350 N 
HETATM   23  C15 UNL     1      19.114  39.489  16.629  1.00  0.00     0.135 A 
ATOM     24  H7  UNL     1      17.490  40.731  16.513  1.00  0.00     0.166 HD
HETATM   25  N8  UNL     1      19.935  39.871  15.609  1.00  0.00    -0.285 N 
HETATM   26  C17 UNL     1      19.739  38.458  17.266  1.00  0.00     0.067 A 
HETATM   27  N9  UNL     1      21.014  39.089  15.638  1.00  0.00    -0.309 N 
ATOM     28  H8  UNL     1      19.755  40.621  14.941  1.00  0.00     0.188 HD
HETATM   29  C16 UNL     1      20.930  38.212  16.639  1.00  0.00     0.126 A 
ATOM     30  H9  UNL     1      21.796  39.153  14.986  1.00  0.00     0.186 HD
ENDBRANCH  18  19
ENDBRANCH  17  18
ENDBRANCH  16  17
ENDBRANCH  14  16
ENDBRANCH   7  14
BRANCH   4  31
HETATM   31  S1  UNL     1      21.647  33.846  15.327  1.00  0.00    -0.098 SA
HETATM   32  C8  UNL     1      23.003  32.896  16.079  1.00  0.00     0.099 C 
ENDBRANCH   4  31
BRANCH   9  33
HETATM   33  O1  UNL     1      16.353  35.164  18.602  1.00  0.00    -0.355 OA
HETATM   34  C20 UNL     1      15.209  35.944  18.918  1.00  0.00     0.210 C 
ENDBRANCH   9  33
BRANCH   1  35
HETATM   35  N2  UNL     1      17.984  30.648  15.232  1.00  0.00    -0.401 NA
BRANCH  35  36
HETATM   36  C5  UNL     1      17.767  29.371  14.791  1.00  0.00     0.185 C 
BRANCH  36  37
HETATM   37  C4  UNL     1      18.940  28.896  14.007  1.00  0.00     0.296 C 
BRANCH  37  38
HETATM   38  N1  UNL     1      18.871  28.941  12.578  1.00  0.00    -0.059 N 
HETATM   39  C3  UNL     1      19.003  27.460  12.261  1.00  0.00     0.273 C 
BRANCH  38  40
HETATM   40  C2  UNL     1      17.613  29.267  12.004  1.00  0.00     0.233 C 
HETATM   41  C1  UNL     1      17.157  28.493  10.823  1.00  0.00     0.035 C 
ENDBRANCH  38  40
BRANCH  38  42
HETATM   42  C25 UNL     1      20.041  29.460  11.945  1.00  0.00     0.314 C 
BRANCH  42  43
HETATM   43  C26 UNL     1      20.601  30.717  12.411  1.00  0.00     0.148 C 
HETATM   44  C27 UNL     1      21.894  30.789  13.160  1.00  0.00     0.092 C 
HETATM   45  O2  UNL     1      20.053  31.770  12.218  1.00  0.00    -0.297 OA
ENDBRANCH  42  43
ENDBRANCH  38  42
ENDBRANCH  37  38
ENDBRANCH  36  37
ENDBRANCH  35  36
ENDBRANCH   1  35
TORSDOF 14
ENDMDL
MODEL 4
REMARK VINA RESULT: -7.651802661      2.908      8.826
REMARK  14 active torsions:
REMARK  status: ('A' for Active; 'I' for Inactive)
REMARK    1  A    between atoms: C2_2  and  N1_3 
REMARK    2  A    between atoms: N1_3  and  C4_5 
REMARK    3  A    between atoms: N1_3  and  C25_42 
REMARK    4  A    between atoms: C4_5  and  C5_6 
REMARK    5  A    between atoms: C5_6  and  N2_7 
REMARK    6  A    between atoms: N2_7  and  C6_8 
REMARK    7  A    between atoms: C7_11  and  S1_12 
REMARK    8  A    between atoms: C9_16  and  N5_17 
REMARK    9  A    between atoms: N5_17  and  C10_19 
REMARK   10  A    between atoms: C10_19  and  C11_20 
REMARK   11  A    between atoms: C11_20  and  N6_21 
REMARK   12  A    between atoms: N6_21  and  C12_22 
REMARK   13  A    between atoms: C19_35  and  O1_36 
REMARK   14  A    between atoms: C25_42  and  C26_43 
ROOT
HETATM    1  C6  UNL     1      18.444  34.208  16.891  1.00  0.00     0.191 C 
HETATM    2  N3  UNL     1      19.548  34.659  17.576  1.00  0.00    -0.311 N 
ATOM      3  H3  UNL     1      19.393  35.538  18.069  1.00  0.00     0.170 HD
HETATM    4  C7  UNL     1      20.776  34.175  17.721  1.00  0.00     0.147 C 
HETATM    5  N4  UNL     1      21.340  33.164  17.014  1.00  0.00    -0.322 N 
ATOM      6  H4  UNL     1      22.357  33.174  16.952  1.00  0.00     0.169 HD
HETATM    7  C9  UNL     1      20.714  32.139  16.379  1.00  0.00     0.117 C 
HETATM    8  C18 UNL     1      19.333  31.909  16.332  1.00  0.00     0.056 A 
HETATM    9  C19 UNL     1      19.050  30.596  16.017  1.00  0.00     0.083 A 
HETATM   10  C21 UNL     1      17.726  30.223  15.936  1.00  0.00     0.038 A 
HETATM   11  C22 UNL     1      16.722  31.152  16.166  1.00  0.00     0.004 A 
HETATM   12  C23 UNL     1      17.017  32.460  16.480  1.00  0.00     0.017 A 
HETATM   13  C24 UNL     1      18.347  32.845  16.565  1.00  0.00     0.039 A 
ENDROOT
BRANCH   7  14
HETATM   14  N5  UNL     1      21.387  31.271  15.733  1.00  0.00    -0.370 N 
ATOM     15  H5  UNL     1      21.114  30.295  15.847  1.00  0.00     0.161 HD
BRANCH  14  16
HETATM   16  C10 UNL     1      22.497  31.541  14.856  1.00  0.00     0.180 C 
BRANCH  16  17
HETATM   17  C11 UNL     1      21.971  31.837  13.426  1.00  0.00     0.175 C 
BRANCH  17  18
HETATM   18  N6  UNL     1      21.197  30.920  12.885  1.00  0.00    -0.419 NA
BRANCH  18  19
HETATM   19  C12 UNL     1      20.498  30.078  12.381  1.00  0.00     0.122 A 
HETATM   20  C13 UNL     1      19.088  30.164  12.446  1.00  0.00     0.062 A 
HETATM   21  C14 UNL     1      18.303  29.216  11.878  1.00  0.00     0.093 A 
HETATM   22  N7  UNL     1      18.830  28.167  11.234  1.00  0.00    -0.350 N 
HETATM   23  C15 UNL     1      20.156  28.052  11.151  1.00  0.00     0.135 A 
ATOM     24  H7  UNL     1      18.224  27.464  10.812  1.00  0.00     0.166 HD
HETATM   25  N8  UNL     1      20.933  27.098  10.562  1.00  0.00    -0.285 N 
HETATM   26  C17 UNL     1      21.008  28.965  11.698  1.00  0.00     0.067 A 
HETATM   27  N9  UNL     1      22.208  27.434  10.754  1.00  0.00    -0.309 N 
ATOM     28  H8  UNL     1      20.597  26.274  10.063  1.00  0.00     0.188 HD
HETATM   29  C16 UNL     1      22.294  28.570  11.445  1.00  0.00     0.126 A 
ATOM     30  H9  UNL     1      23.007  26.895  10.419  1.00  0.00     0.186 HD
ENDBRANCH  18  19
ENDBRANCH  17  18
ENDBRANCH  16  17
ENDBRANCH  14  16
ENDBRANCH   7  14
BRANCH   4  31
HETATM   31  S1  UNL     1      21.828  34.923  18.986  1.00  0.00    -0.098 SA
HETATM   32  C8  UNL     1      20.840  35.018  20.509  1.00  0.00     0.099 C 
ENDBRANCH   4  31
BRANCH   9  33
HETATM   33  O1  UNL     1      20.096  29.698  15.793  1.00  0.00    -0.355 OA
HETATM   34  C20 UNL     1      19.744  28.384  15.384  1.00  0.00     0.210 C 
ENDBRANCH   9  33
BRANCH   1  35
HETATM   35  N2  UNL     1      17.600  34.947  16.581  1.00  0.00    -0.401 NA
BRANCH  35  36
HETATM   36  C5  UNL     1      16.586  35.777  16.186  1.00  0.00     0.185 C 
BRANCH  36  37
HETATM   37  C4  UNL     1      16.770  37.128  16.782  1.00  0.00     0.296 C 
BRANCH  37  38
HETATM   38  N1  UNL     1      16.553  37.291  18.188  1.00  0.00    -0.059 N 
HETATM   39  C3  UNL     1      15.759  38.588  18.183  1.00  0.00     0.273 C 
BRANCH  38  40
HETATM   40  C2  UNL     1      15.656  36.383  18.810  1.00  0.00     0.233 C 
HETATM   41  C1  UNL     1      14.309  36.876  19.191  1.00  0.00     0.035 C 
ENDBRANCH  38  40
BRANCH  38  42
HETATM   42  C25 UNL     1      17.712  37.685  18.923  1.00  0.00     0.314 C 
BRANCH  42  43
HETATM   43  C26 UNL     1      18.845  38.253  18.212  1.00  0.00     0.148 C 
HETATM   44  C27 UNL     1      19.044  39.729  18.071  1.00  0.00     0.092 C 
HETATM   45  O2  UNL     1      19.686  37.563  17.697  1.00  0.00    -0.297 OA
ENDBRANCH  42  43
ENDBRANCH  38  42
ENDBRANCH  37  38
ENDBRANCH  36  37
ENDBRANCH  35  36
ENDBRANCH   1  35
TORSDOF 14
ENDMDL
MODEL 5
REMARK VINA RESULT: -7.647725439      2.760      9.062
REMARK  14 active torsions:
REMARK  status: ('A' for Active; 'I' for Inactive)
REMARK    1  A    between atoms: C2_2  and  N1_3 
REMARK    2  A    between atoms: N1_3  and  C4_5 
REMARK    3  A    between atoms: N1_3  and  C25_42 
REMARK    4  A    between atoms: C4_5  and  C5_6 
REMARK    5  A    between atoms: C5_6  and  N2_7 
REMARK    6  A    between atoms: N2_7  and  C6_8 
REMARK    7  A    between atoms: C7_11  and  S1_12 
REMARK    8  A    between atoms: C9_16  and  N5_17 
REMARK    9  A    between atoms: N5_17  and  C10_19 
REMARK   10  A    between atoms: C10_19  and  C11_20 
REMARK   11  A    between atoms: C11_20  and  N6_21 
REMARK   12  A    between atoms: N6_21  and  C12_22 
REMARK   13  A    between atoms: C19_35  and  O1_36 
REMARK   14  A    between atoms: C25_42  and  C26_43 
ROOT
HETATM    1  C6  UNL     1      16.947  36.032  18.606  1.00  0.00     0.191 C 
HETATM    2  N3  UNL     1      18.198  35.960  19.171  1.00  0.00    -0.311 N 
ATOM      3  H3  UNL     1      18.328  36.592  19.961  1.00  0.00     0.170 HD
HETATM    4  C7  UNL     1      19.270  35.230  18.890  1.00  0.00     0.147 C 
HETATM    5  N4  UNL     1      19.476  34.482  17.776  1.00  0.00    -0.322 N 
ATOM      6  H4  UNL     1      20.449  34.318  17.521  1.00  0.00     0.169 HD
HETATM    7  C9  UNL     1      18.543  33.926  16.961  1.00  0.00     0.117 C 
HETATM    8  C18 UNL     1      17.153  34.004  17.112  1.00  0.00     0.056 A 
HETATM    9  C19 UNL     1      16.512  32.997  16.421  1.00  0.00     0.083 A 
HETATM   10  C21 UNL     1      15.136  32.949  16.480  1.00  0.00     0.038 A 
HETATM   11  C22 UNL     1      14.434  33.892  17.215  1.00  0.00     0.004 A 
HETATM   12  C23 UNL     1      15.085  34.893  17.902  1.00  0.00     0.017 A 
HETATM   13  C24 UNL     1      16.470  34.949  17.849  1.00  0.00     0.039 A 
ENDROOT
BRANCH   7  14
HETATM   14  N5  UNL     1      18.896  33.263  15.932  1.00  0.00    -0.370 N 
ATOM     15  H5  UNL     1      18.152  32.908  15.331  1.00  0.00     0.161 HD
BRANCH  14  16
HETATM   16  C10 UNL     1      20.250  32.969  15.538  1.00  0.00     0.180 C 
BRANCH  16  17
HETATM   17  C11 UNL     1      20.570  31.481  15.847  1.00  0.00     0.175 C 
BRANCH  17  18
HETATM   18  N6  UNL     1      20.693  30.681  14.809  1.00  0.00    -0.419 NA
BRANCH  18  19
HETATM   19  C12 UNL     1      20.794  29.945  13.860  1.00  0.00     0.122 A 
HETATM   20  C13 UNL     1      21.769  30.169  12.862  1.00  0.00     0.062 A 
HETATM   21  C14 UNL     1      21.882  29.339  11.796  1.00  0.00     0.093 A 
HETATM   22  N7  UNL     1      21.078  28.280  11.648  1.00  0.00    -0.350 N 
HETATM   23  C15 UNL     1      20.145  28.035  12.570  1.00  0.00     0.135 A 
ATOM     24  H7  UNL     1      21.177  27.666  10.840  1.00  0.00     0.166 HD
HETATM   25  N8  UNL     1      19.216  27.040  12.656  1.00  0.00    -0.285 N 
HETATM   26  C17 UNL     1      19.973  28.825  13.668  1.00  0.00     0.067 A 
HETATM   27  N9  UNL     1      18.513  27.234  13.770  1.00  0.00    -0.309 N 
ATOM     28  H8  UNL     1      19.084  26.282  11.985  1.00  0.00     0.188 HD
HETATM   29  C16 UNL     1      18.946  28.316  14.417  1.00  0.00     0.126 A 
ATOM     30  H9  UNL     1      17.748  26.637  14.086  1.00  0.00     0.186 HD
ENDBRANCH  18  19
ENDBRANCH  17  18
ENDBRANCH  16  17
ENDBRANCH  14  16
ENDBRANCH   7  14
BRANCH   4  31
HETATM   31  S1  UNL     1      20.613  35.211  20.100  1.00  0.00    -0.098 SA
HETATM   32  C8  UNL     1      21.887  36.358  19.496  1.00  0.00     0.099 C 
ENDBRANCH   4  31
BRANCH   9  33
HETATM   33  O1  UNL     1      17.263  32.071  15.693  1.00  0.00    -0.355 OA
HETATM   34  C20 UNL     1      16.857  30.712  15.763  1.00  0.00     0.210 C 
ENDBRANCH   9  33
BRANCH   1  35
HETATM   35  N2  UNL     1      16.289  36.983  18.749  1.00  0.00    -0.401 NA
BRANCH  35  36
HETATM   36  C5  UNL     1      15.551  38.116  18.958  1.00  0.00     0.185 C 
BRANCH  36  37
HETATM   37  C4  UNL     1      16.451  39.269  19.231  1.00  0.00     0.296 C 
BRANCH  37  38
HETATM   38  N1  UNL     1      16.705  40.204  18.178  1.00  0.00    -0.059 N 
HETATM   39  C3  UNL     1      15.278  40.543  17.777  1.00  0.00     0.273 C 
BRANCH  38  40
HETATM   40  C2  UNL     1      17.228  41.470  18.553  1.00  0.00     0.233 C 
HETATM   41  C1  UNL     1      18.057  41.551  19.782  1.00  0.00     0.035 C 
ENDBRANCH  38  40
BRANCH  38  42
HETATM   42  C25 UNL     1      17.194  39.618  16.971  1.00  0.00     0.314 C 
BRANCH  42  43
HETATM   43  C26 UNL     1      18.613  39.334  16.845  1.00  0.00     0.148 C 
HETATM   44  C27 UNL     1      19.506  40.106  15.926  1.00  0.00     0.092 C 
HETATM   45  O2  UNL     1      19.148  38.458  17.474  1.00  0.00    -0.297 OA
ENDBRANCH  42  43
ENDBRANCH  38  42
ENDBRANCH  37  38
ENDBRANCH  36  37
ENDBRANCH  35  36
ENDBRANCH   1  35
TORSDOF 14
ENDMDL
