MODEL 1
REMARK VINA RESULT: -8.618900695      0.000      0.000
REMARK  13 active torsions:
REMARK  status: ('A' for Active; 'I' for Inactive)
REMARK    1  A    between atoms: C2_2  and  O1_3 
REMARK    2  A    between atoms: O1_3  and  C3_4 
REMARK    3  A    between atoms: C3_4  and  C4_6 
REMARK    4  A    between atoms: C6_10  and  N2_11 
REMARK       I    between atoms: N2_11  and  C7_13 
REMARK       I    between atoms: C7_13  and  N3_15 
REMARK    5  A    between atoms: N3_15  and  C8_16 
REMARK    6  A    between atoms: N3_15  and  C23_36 
REMARK    7  A    between atoms: C8_16  and  C9_17 
REMARK    8  A    between atoms: C9_17  and  O4_18 
REMARK    9  A    between atoms: O4_18  and  C10_19 
REMARK   10  A    between atoms: C12_21  and  O5_22 
REMARK   11  A    between atoms: C18_30  and  C19_31 
REMARK   12  A    between atoms: C19_31  and  N5_32 
REMARK   13  A    between atoms: C23_36  and  C24_37 
ROOT
HETATM    1  N2  UNL     1      20.777  32.677  16.277  1.00  0.00    -0.289 N 
ATOM      2  H2  UNL     1      20.455  31.890  16.840  1.00  0.00     0.172 HD
HETATM    3  C7  UNL     1      20.987  32.476  14.917  1.00  0.00     0.324 C 
HETATM    4  O3  UNL     1      21.652  33.357  14.293  1.00  0.00    -0.247 OA
HETATM    5  N3  UNL     1      20.495  31.347  14.248  1.00  0.00    -0.330 N 
ENDROOT
BRANCH   5   6
HETATM    6  C8  UNL     1      20.812  31.172  12.817  1.00  0.00     0.154 C 
BRANCH   6   7
HETATM    7  C9  UNL     1      21.622  29.927  12.600  1.00  0.00     0.195 C 
BRANCH   7   8
HETATM    8  O4  UNL     1      20.893  28.969  11.916  1.00  0.00    -0.348 OA
BRANCH   8   9
HETATM    9  C10 UNL     1      21.352  27.744  11.548  1.00  0.00     0.085 A 
HETATM   10  C11 UNL     1      22.647  27.346  11.900  1.00  0.00     0.074 A 
HETATM   11  C12 UNL     1      23.075  26.105  11.519  1.00  0.00     0.073 A 
HETATM   12  C14 UNL     1      22.274  25.258  10.810  1.00  0.00     0.067 A 
HETATM   13  C15 UNL     1      21.009  25.649  10.466  1.00  0.00     0.049 A 
HETATM   14  N4  UNL     1      20.016  25.010   9.811  1.00  0.00    -0.358 N 
HETATM   15  C22 UNL     1      20.515  26.895  10.819  1.00  0.00     0.037 A 
HETATM   16  C16 UNL     1      18.946  25.753   9.726  1.00  0.00     0.018 A 
ATOM     17  H4  UNL     1      20.091  24.066   9.432  1.00  0.00     0.166 HD
HETATM   18  C17 UNL     1      17.617  25.484   9.105  1.00  0.00     0.069 C 
HETATM   19  C18 UNL     1      19.231  27.016  10.377  1.00  0.00     0.012 A 
BRANCH  11  20
HETATM   20  O5  UNL     1      24.348  25.695  11.857  1.00  0.00    -0.356 OA
HETATM   21  C13 UNL     1      25.512  26.435  11.606  1.00  0.00     0.210 C 
ENDBRANCH  11  20
BRANCH  19  22
HETATM   22  C19 UNL     1      18.166  28.008  10.458  1.00  0.00     0.073 C 
BRANCH  22  23
HETATM   23  N5  UNL     1      17.744  28.551  11.652  1.00  0.00    -0.300 NA
HETATM   24  C20 UNL     1      16.379  29.140  11.548  1.00  0.00     0.115 C 
HETATM   25  C21 UNL     1      17.634  27.573  12.725  1.00  0.00     0.115 C 
ENDBRANCH  22  23
ENDBRANCH  19  22
ENDBRANCH   8   9
ENDBRANCH   7   8
ENDBRANCH   6   7
ENDBRANCH   5   6
BRANCH   5  26
HETATM   26  C23 UNL     1      19.659  30.391  14.923  1.00  0.00     0.153 C 
BRANCH  26  27
HETATM   27  C24 UNL     1      18.199  30.620  14.864  1.00  0.00     0.111 C 
HETATM   28  C25 UNL     1      17.621  31.959  14.632  1.00  0.00     0.129 C 
HETATM   29  C26 UNL     1      16.604  31.542  15.674  1.00  0.00     0.220 C 
HETATM   30  O6  UNL     1      15.417  31.817  15.903  1.00  0.00    -0.274 OA
HETATM   31  N6  UNL     1      17.632  30.731  16.218  1.00  0.00    -0.354 N 
ATOM     32  H6  UNL     1      17.874  30.379  17.145  1.00  0.00     0.162 HD
ENDBRANCH  26  27
ENDBRANCH   5  26
BRANCH   1  33
HETATM   33  C6  UNL     1      20.974  33.828  16.868  1.00  0.00     0.153 A 
HETATM   34  N1  UNL     1      20.411  34.998  16.582  1.00  0.00    -0.345 N 
HETATM   35  C5  UNL     1      20.740  36.036  17.291  1.00  0.00     0.115 A 
ATOM     36  H1  UNL     1      19.734  35.079  15.824  1.00  0.00     0.167 HD
HETATM   37  C4  UNL     1      21.652  35.872  18.296  1.00  0.00     0.099 A 
HETATM   38  S1  UNL     1      22.002  34.195  18.175  1.00  0.00    -0.046 SA
BRANCH  37  39
HETATM   39  C3  UNL     1      22.189  36.874  19.233  1.00  0.00     0.301 C 
HETATM   40  O2  UNL     1      21.693  37.999  19.233  1.00  0.00    -0.259 OA
BRANCH  39  41
HETATM   41  O1  UNL     1      23.212  36.574  20.087  1.00  0.00    -0.317 OA
BRANCH  41  42
HETATM   42  C2  UNL     1      23.187  35.598  21.080  1.00  0.00     0.174 C 
HETATM   43  C1  UNL     1      24.328  35.691  22.062  1.00  0.00     0.034 C 
ENDBRANCH  41  42
ENDBRANCH  39  41
ENDBRANCH  37  39
ENDBRANCH   1  33
TORSDOF 13
ENDMDL
MODEL 2
REMARK VINA RESULT: -8.536096543      2.920      4.218
REMARK  13 active torsions:
REMARK  status: ('A' for Active; 'I' for Inactive)
REMARK    1  A    between atoms: C2_2  and  O1_3 
REMARK    2  A    between atoms: O1_3  and  C3_4 
REMARK    3  A    between atoms: C3_4  and  C4_6 
REMARK    4  A    between atoms: C6_10  and  N2_11 
REMARK       I    between atoms: N2_11  and  C7_13 
REMARK       I    between atoms: C7_13  and  N3_15 
REMARK    5  A    between atoms: N3_15  and  C8_16 
REMARK    6  A    between atoms: N3_15  and  C23_36 
REMARK    7  A    between atoms: C8_16  and  C9_17 
REMARK    8  A    between atoms: C9_17  and  O4_18 
REMARK    9  A    between atoms: O4_18  and  C10_19 
REMARK   10  A    between atoms: C12_21  and  O5_22 
REMARK   11  A    between atoms: C18_30  and  C19_31 
REMARK   12  A    between atoms: C19_31  and  N5_32 
REMARK   13  A    between atoms: C23_36  and  C24_37 
ROOT
HETATM    1  N2  UNL     1      18.797  32.578  15.651  1.00  0.00    -0.289 N 
ATOM      2  H2  UNL     1      19.133  32.991  14.780  1.00  0.00     0.172 HD
HETATM    3  C7  UNL     1      19.038  31.228  15.879  1.00  0.00     0.324 C 
HETATM    4  O3  UNL     1      18.379  30.666  16.805  1.00  0.00    -0.247 OA
HETATM    5  N3  UNL     1      19.965  30.500  15.121  1.00  0.00    -0.330 N 
ENDROOT
BRANCH   5   6
HETATM    6  C8  UNL     1      20.120  29.055  15.380  1.00  0.00     0.154 C 
BRANCH   6   7
HETATM    7  C9  UNL     1      21.152  28.458  14.468  1.00  0.00     0.195 C 
BRANCH   7   8
HETATM    8  O4  UNL     1      20.599  28.107  13.248  1.00  0.00    -0.348 OA
BRANCH   8   9
HETATM    9  C10 UNL     1      21.137  27.228  12.363  1.00  0.00     0.085 A 
HETATM   10  C11 UNL     1      22.493  26.892  12.446  1.00  0.00     0.074 A 
HETATM   11  C12 UNL     1      23.001  26.000  11.544  1.00  0.00     0.073 A 
HETATM   12  C14 UNL     1      22.221  25.438  10.575  1.00  0.00     0.067 A 
HETATM   13  C15 UNL     1      20.896  25.770  10.495  1.00  0.00     0.049 A 
HETATM   14  N4  UNL     1      19.910  25.346   9.673  1.00  0.00    -0.358 N 
HETATM   15  C22 UNL     1      20.320  26.670  11.377  1.00  0.00     0.037 A 
HETATM   16  C16 UNL     1      18.770  25.909   9.970  1.00  0.00     0.018 A 
ATOM     17  H4  UNL     1      20.040  24.673   8.918  1.00  0.00     0.166 HD
HETATM   18  C17 UNL     1      17.419  25.758   9.356  1.00  0.00     0.069 C 
HETATM   19  C18 UNL     1      18.993  26.799  11.092  1.00  0.00     0.012 A 
BRANCH  11  20
HETATM   20  O5  UNL     1      24.335  25.655  11.610  1.00  0.00    -0.356 OA
HETATM   21  C13 UNL     1      25.395  26.548  11.402  1.00  0.00     0.210 C 
ENDBRANCH  11  20
BRANCH  19  22
HETATM   22  C19 UNL     1      17.849  27.512  11.646  1.00  0.00     0.073 C 
BRANCH  22  23
HETATM   23  N5  UNL     1      17.586  28.833  11.360  1.00  0.00    -0.300 NA
HETATM   24  C20 UNL     1      16.174  29.045  10.933  1.00  0.00     0.115 C 
HETATM   25  C21 UNL     1      17.753  29.718  12.505  1.00  0.00     0.115 C 
ENDBRANCH  22  23
ENDBRANCH  19  22
ENDBRANCH   8   9
ENDBRANCH   7   8
ENDBRANCH   6   7
ENDBRANCH   5   6
BRANCH   5  26
HETATM   26  C23 UNL     1      20.786  31.147  14.133  1.00  0.00     0.153 C 
BRANCH  26  27
HETATM   27  C24 UNL     1      21.733  32.174  14.619  1.00  0.00     0.111 C 
HETATM   28  C25 UNL     1      22.936  32.560  13.855  1.00  0.00     0.129 C 
HETATM   29  C26 UNL     1      23.611  32.588  15.211  1.00  0.00     0.220 C 
HETATM   30  O6  UNL     1      24.557  33.215  15.709  1.00  0.00    -0.274 OA
HETATM   31  N6  UNL     1      22.672  31.598  15.596  1.00  0.00    -0.354 N 
ATOM     32  H6  UNL     1      22.654  30.824  16.260  1.00  0.00     0.162 HD
ENDBRANCH  26  27
ENDBRANCH   5  26
BRANCH   1  33
HETATM   33  C6  UNL     1      18.161  33.344  16.500  1.00  0.00     0.153 A 
HETATM   34  N1  UNL     1      18.573  33.755  17.695  1.00  0.00    -0.345 N 
HETATM   35  C5  UNL     1      17.789  34.518  18.395  1.00  0.00     0.115 A 
ATOM     36  H1  UNL     1      19.486  33.477  18.055  1.00  0.00     0.167 HD
HETATM   37  C4  UNL     1      16.576  34.860  17.866  1.00  0.00     0.099 A 
HETATM   38  S1  UNL     1      16.619  34.052  16.351  1.00  0.00    -0.046 SA
BRANCH  37  39
HETATM   39  C3  UNL     1      15.515  35.702  18.448  1.00  0.00     0.301 C 
HETATM   40  O2  UNL     1      14.690  35.172  19.189  1.00  0.00    -0.259 OA
BRANCH  39  41
HETATM   41  O1  UNL     1      15.439  37.038  18.178  1.00  0.00    -0.317 OA
BRANCH  41  42
HETATM   42  C2  UNL     1      16.447  37.817  17.614  1.00  0.00     0.174 C 
HETATM   43  C1  UNL     1      16.097  39.278  17.486  1.00  0.00     0.034 C 
ENDBRANCH  41  42
ENDBRANCH  39  41
ENDBRANCH  37  39
ENDBRANCH   1  33
TORSDOF 13
ENDMDL
MODEL 3
REMARK VINA RESULT: -8.476729511      2.516      5.590
REMARK  13 active torsions:
REMARK  status: ('A' for Active; 'I' for Inactive)
REMARK    1  A    between atoms: C2_2  and  O1_3 
REMARK    2  A    between atoms: O1_3  and  C3_4 
REMARK    3  A    between atoms: C3_4  and  C4_6 
REMARK    4  A    between atoms: C6_10  and  N2_11 
REMARK       I    between atoms: N2_11  and  C7_13 
REMARK       I    between atoms: C7_13  and  N3_15 
REMARK    5  A    between atoms: N3_15  and  C8_16 
REMARK    6  A    between atoms: N3_15  and  C23_36 
REMARK    7  A    between atoms: C8_16  and  C9_17 
REMARK    8  A    between atoms: C9_17  and  O4_18 
REMARK    9  A    between atoms: O4_18  and  C10_19 
REMARK   10  A    between atoms: C12_21  and  O5_22 
REMARK   11  A    between atoms: C18_30  and  C19_31 
REMARK   12  A    between atoms: C19_31  and  N5_32 
REMARK   13  A    between atoms: C23_36  and  C24_37 
ROOT
HETATM    1  N2  UNL     1      19.217  31.925  14.568  1.00  0.00    -0.289 N 
ATOM      2  H2  UNL     1      19.647  32.685  14.041  1.00  0.00     0.172 HD
HETATM    3  C7  UNL     1      19.876  30.702  14.623  1.00  0.00     0.324 C 
HETATM    4  O3  UNL     1      19.212  29.699  15.024  1.00  0.00    -0.247 OA
HETATM    5  N3  UNL     1      21.220  30.564  14.249  1.00  0.00    -0.330 N 
ENDROOT
BRANCH   5   6
HETATM    6  C8  UNL     1      21.832  29.221  14.274  1.00  0.00     0.154 C 
BRANCH   6   7
HETATM    7  C9  UNL     1      22.060  28.714  12.880  1.00  0.00     0.195 C 
BRANCH   7   8
HETATM    8  O4  UNL     1      21.325  27.565  12.640  1.00  0.00    -0.348 OA
BRANCH   8   9
HETATM    9  C10 UNL     1      20.445  27.393  11.618  1.00  0.00     0.085 A 
HETATM   10  C11 UNL     1      19.275  28.158  11.565  1.00  0.00     0.074 A 
HETATM   11  C12 UNL     1      18.413  27.963  10.521  1.00  0.00     0.073 A 
HETATM   12  C14 UNL     1      18.671  27.047   9.543  1.00  0.00     0.067 A 
HETATM   13  C15 UNL     1      19.815  26.299   9.598  1.00  0.00     0.049 A 
HETATM   14  N4  UNL     1      20.321  25.366   8.762  1.00  0.00    -0.358 N 
HETATM   15  C22 UNL     1      20.727  26.446  10.631  1.00  0.00     0.037 A 
HETATM   16  C16 UNL     1      21.471  24.919   9.189  1.00  0.00     0.018 A 
ATOM     17  H4  UNL     1      19.864  25.052   7.907  1.00  0.00     0.166 HD
HETATM   18  C17 UNL     1      22.398  23.901   8.614  1.00  0.00     0.069 C 
HETATM   19  C18 UNL     1      21.780  25.603  10.429  1.00  0.00     0.012 A 
BRANCH  11  20
HETATM   20  O5  UNL     1      17.256  28.709  10.451  1.00  0.00    -0.356 OA
HETATM   21  C13 UNL     1      16.502  29.110  11.563  1.00  0.00     0.210 C 
ENDBRANCH  11  20
BRANCH  19  22
HETATM   22  C19 UNL     1      23.050  25.311  11.082  1.00  0.00     0.073 C 
BRANCH  22  23
HETATM   23  N5  UNL     1      24.208  25.999  10.799  1.00  0.00    -0.300 NA
HETATM   24  C20 UNL     1      23.943  27.258  10.046  1.00  0.00     0.115 C 
HETATM   25  C21 UNL     1      24.929  26.435  11.987  1.00  0.00     0.115 C 
ENDBRANCH  22  23
ENDBRANCH  19  22
ENDBRANCH   8   9
ENDBRANCH   7   8
ENDBRANCH   6   7
ENDBRANCH   5   6
BRANCH   5  26
HETATM   26  C23 UNL     1      22.009  31.710  13.885  1.00  0.00     0.153 C 
BRANCH  26  27
HETATM   27  C24 UNL     1      22.580  32.507  14.992  1.00  0.00     0.111 C 
HETATM   28  C25 UNL     1      22.428  32.112  16.407  1.00  0.00     0.129 C 
HETATM   29  C26 UNL     1      22.219  33.593  16.647  1.00  0.00     0.220 C 
HETATM   30  O6  UNL     1      22.426  34.368  17.593  1.00  0.00    -0.274 OA
HETATM   31  N6  UNL     1      21.702  33.640  15.327  1.00  0.00    -0.354 N 
ATOM     32  H6  UNL     1      21.019  34.210  14.828  1.00  0.00     0.162 HD
ENDBRANCH  26  27
ENDBRANCH   5  26
BRANCH   1  33
HETATM   33  C6  UNL     1      18.072  32.147  15.161  1.00  0.00     0.153 A 
HETATM   34  N1  UNL     1      16.965  31.413  15.097  1.00  0.00    -0.345 N 
HETATM   35  C5  UNL     1      15.920  31.804  15.764  1.00  0.00     0.115 A 
ATOM     36  H1  UNL     1      16.935  30.563  14.535  1.00  0.00     0.167 HD
HETATM   37  C4  UNL     1      16.013  32.952  16.500  1.00  0.00     0.099 A 
HETATM   38  S1  UNL     1      17.635  33.429  16.193  1.00  0.00    -0.046 SA
BRANCH  37  39
HETATM   39  C3  UNL     1      14.989  33.603  17.334  1.00  0.00     0.301 C 
HETATM   40  O2  UNL     1      13.834  33.649  16.914  1.00  0.00    -0.259 OA
BRANCH  39  41
HETATM   41  O1  UNL     1      15.299  34.147  18.548  1.00  0.00    -0.317 OA
BRANCH  41  42
HETATM   42  C2  UNL     1      15.603  35.485  18.791  1.00  0.00     0.174 C 
HETATM   43  C1  UNL     1      14.394  36.374  18.934  1.00  0.00     0.034 C 
ENDBRANCH  41  42
ENDBRANCH  39  41
ENDBRANCH  37  39
ENDBRANCH   1  33
TORSDOF 13
ENDMDL
MODEL 4
REMARK VINA RESULT: -8.368803313      1.122      1.888
REMARK  13 active torsions:
REMARK  status: ('A' for Active; 'I' for Inactive)
REMARK    1  A    between atoms: C2_2  and  O1_3 
REMARK    2  A    between atoms: O1_3  and  C3_4 
REMARK    3  A    between atoms: C3_4  and  C4_6 
REMARK    4  A    between atoms: C6_10  and  N2_11 
REMARK       I    between atoms: N2_11  and  C7_13 
REMARK       I    between atoms: C7_13  and  N3_15 
REMARK    5  A    between atoms: N3_15  and  C8_16 
REMARK    6  A    between atoms: N3_15  and  C23_36 
REMARK    7  A    between atoms: C8_16  and  C9_17 
REMARK    8  A    between atoms: C9_17  and  O4_18 
REMARK    9  A    between atoms: O4_18  and  C10_19 
REMARK   10  A    between atoms: C12_21  and  O5_22 
REMARK   11  A    between atoms: C18_30  and  C19_31 
REMARK   12  A    between atoms: C19_31  and  N5_32 
REMARK   13  A    between atoms: C23_36  and  C24_37 
ROOT
HETATM    1  N2  UNL     1      20.690  32.274  16.290  1.00  0.00    -0.289 N 
ATOM      2  H2  UNL     1      20.321  31.452  16.768  1.00  0.00     0.172 HD
HETATM    3  C7  UNL     1      20.908  32.201  14.918  1.00  0.00     0.324 C 
HETATM    4  O3  UNL     1      21.625  33.105  14.392  1.00  0.00    -0.247 OA
HETATM    5  N3  UNL     1      20.369  31.172  14.134  1.00  0.00    -0.330 N 
ENDROOT
BRANCH   5   6
HETATM    6  C8  UNL     1      20.697  31.125  12.696  1.00  0.00     0.154 C 
BRANCH   6   7
HETATM    7  C9  UNL     1      21.564  29.939  12.385  1.00  0.00     0.195 C 
BRANCH   7   8
HETATM    8  O4  UNL     1      20.840  28.942  11.755  1.00  0.00    -0.348 OA
BRANCH   8   9
HETATM    9  C10 UNL     1      21.314  27.711  11.429  1.00  0.00     0.085 A 
HETATM   10  C11 UNL     1      22.609  27.336  11.806  1.00  0.00     0.074 A 
HETATM   11  C12 UNL     1      23.053  26.089  11.467  1.00  0.00     0.073 A 
HETATM   12  C14 UNL     1      22.267  25.213  10.776  1.00  0.00     0.067 A 
HETATM   13  C15 UNL     1      21.002  25.582  10.407  1.00  0.00     0.049 A 
HETATM   14  N4  UNL     1      20.022  24.913   9.762  1.00  0.00    -0.358 N 
HETATM   15  C22 UNL     1      20.493  26.833  10.717  1.00  0.00     0.037 A 
HETATM   16  C16 UNL     1      18.947  25.644   9.642  1.00  0.00     0.018 A 
ATOM     17  H4  UNL     1      20.110  23.959   9.412  1.00  0.00     0.166 HD
HETATM   18  C17 UNL     1      17.627  25.343   9.016  1.00  0.00     0.069 C 
HETATM   19  C18 UNL     1      19.213  26.928  10.258  1.00  0.00     0.012 A 
BRANCH  11  20
HETATM   20  O5  UNL     1      24.325  25.701  11.831  1.00  0.00    -0.356 OA
HETATM   21  C13 UNL     1      25.497  26.369  11.449  1.00  0.00     0.210 C 
ENDBRANCH  11  20
BRANCH  19  22
HETATM   22  C19 UNL     1      18.138  27.912  10.298  1.00  0.00     0.073 C 
BRANCH  22  23
HETATM   23  N5  UNL     1      17.699  28.487  11.470  1.00  0.00    -0.300 NA
HETATM   24  C20 UNL     1      16.322  29.042  11.342  1.00  0.00     0.115 C 
HETATM   25  C21 UNL     1      17.607  27.546  12.578  1.00  0.00     0.115 C 
ENDBRANCH  22  23
ENDBRANCH  19  22
ENDBRANCH   8   9
ENDBRANCH   7   8
ENDBRANCH   6   7
ENDBRANCH   5   6
BRANCH   5  26
HETATM   26  C23 UNL     1      19.477  30.196  14.703  1.00  0.00     0.153 C 
BRANCH  26  27
HETATM   27  C24 UNL     1      18.037  30.531  14.709  1.00  0.00     0.111 C 
HETATM   28  C25 UNL     1      17.551  31.917  14.559  1.00  0.00     0.129 C 
HETATM   29  C26 UNL     1      16.543  31.525  15.619  1.00  0.00     0.220 C 
HETATM   30  O6  UNL     1      15.387  31.872  15.906  1.00  0.00    -0.274 OA
HETATM   31  N6  UNL     1      17.527  30.617  16.088  1.00  0.00    -0.354 N 
ATOM     32  H6  UNL     1      17.774  30.205  16.987  1.00  0.00     0.162 HD
ENDBRANCH  26  27
ENDBRANCH   5  26
BRANCH   1  33
HETATM   33  C6  UNL     1      20.936  33.349  16.996  1.00  0.00     0.153 A 
HETATM   34  N1  UNL     1      22.040  33.643  17.675  1.00  0.00    -0.345 N 
HETATM   35  C5  UNL     1      22.092  34.771  18.319  1.00  0.00     0.115 A 
ATOM     36  H1  UNL     1      22.829  32.998  17.691  1.00  0.00     0.167 HD
HETATM   37  C4  UNL     1      21.006  35.598  18.265  1.00  0.00     0.099 A 
HETATM   38  S1  UNL     1      19.935  34.699  17.267  1.00  0.00    -0.046 SA
BRANCH  37  39
HETATM   39  C3  UNL     1      20.811  36.915  18.898  1.00  0.00     0.301 C 
HETATM   40  O2  UNL     1      21.796  37.498  19.348  1.00  0.00    -0.259 OA
BRANCH  39  41
HETATM   41  O1  UNL     1      19.574  37.485  18.988  1.00  0.00    -0.317 OA
BRANCH  41  42
HETATM   42  C2  UNL     1      19.022  38.389  18.083  1.00  0.00     0.174 C 
HETATM   43  C1  UNL     1      17.643  38.014  17.601  1.00  0.00     0.034 C 
ENDBRANCH  41  42
ENDBRANCH  39  41
ENDBRANCH  37  39
ENDBRANCH   1  33
TORSDOF 13
ENDMDL
MODEL 5
REMARK VINA RESULT: -8.360994655      3.473     10.333
REMARK  13 active torsions:
REMARK  status: ('A' for Active; 'I' for Inactive)
REMARK    1  A    between atoms: C2_2  and  O1_3 
REMARK    2  A    between atoms: O1_3  and  C3_4 
REMARK    3  A    between atoms: C3_4  and  C4_6 
REMARK    4  A    between atoms: C6_10  and  N2_11 
REMARK       I    between atoms: N2_11  and  C7_13 
REMARK       I    between atoms: C7_13  and  N3_15 
REMARK    5  A    between atoms: N3_15  and  C8_16 
REMARK    6  A    between atoms: N3_15  and  C23_36 
REMARK    7  A    between atoms: C8_16  and  C9_17 
REMARK    8  A    between atoms: C9_17  and  O4_18 
REMARK    9  A    between atoms: O4_18  and  C10_19 
REMARK   10  A    between atoms: C12_21  and  O5_22 
REMARK   11  A    between atoms: C18_30  and  C19_31 
REMARK   12  A    between atoms: C19_31  and  N5_32 
REMARK   13  A    between atoms: C23_36  and  C24_37 
ROOT
HETATM    1  N2  UNL     1      20.964  33.118  17.218  1.00  0.00    -0.289 N 
ATOM      2  H2  UNL     1      20.790  32.771  18.161  1.00  0.00     0.172 HD
HETATM    3  C7  UNL     1      20.799  34.476  16.971  1.00  0.00     0.324 C 
HETATM    4  O3  UNL     1      20.733  34.846  15.760  1.00  0.00    -0.247 OA
HETATM    5  N3  UNL     1      20.704  35.414  18.008  1.00  0.00    -0.330 N 
ENDROOT
BRANCH   5   6
HETATM    6  C8  UNL     1      20.466  36.831  17.669  1.00  0.00     0.154 C 
BRANCH   6   7
HETATM    7  C9  UNL     1      19.142  37.292  18.205  1.00  0.00     0.195 C 
BRANCH   7   8
HETATM    8  O4  UNL     1      18.106  36.519  17.710  1.00  0.00    -0.348 OA
BRANCH   8   9
HETATM    9  C10 UNL     1      16.815  36.567  18.135  1.00  0.00     0.085 A 
HETATM   10  C11 UNL     1      16.351  37.683  18.840  1.00  0.00     0.074 A 
HETATM   11  C12 UNL     1      15.047  37.702  19.248  1.00  0.00     0.073 A 
HETATM   12  C14 UNL     1      14.199  36.665  18.983  1.00  0.00     0.067 A 
HETATM   13  C15 UNL     1      14.656  35.575  18.295  1.00  0.00     0.049 A 
HETATM   14  N4  UNL     1      14.036  34.449  17.877  1.00  0.00    -0.358 N 
HETATM   15  C22 UNL     1      15.968  35.493  17.856  1.00  0.00     0.037 A 
HETATM   16  C16 UNL     1      14.852  33.673  17.217  1.00  0.00     0.018 A 
ATOM     17  H4  UNL     1      13.055  34.234  18.055  1.00  0.00     0.166 HD
HETATM   18  C17 UNL     1      14.631  32.347  16.572  1.00  0.00     0.069 C 
HETATM   19  C18 UNL     1      16.148  34.321  17.181  1.00  0.00     0.012 A 
BRANCH  11  20
HETATM   20  O5  UNL     1      14.570  38.793  19.943  1.00  0.00    -0.356 OA
HETATM   21  C13 UNL     1      15.365  39.643  20.726  1.00  0.00     0.210 C 
ENDBRANCH  11  20
BRANCH  19  22
HETATM   22  C19 UNL     1      17.227  33.669  16.450  1.00  0.00     0.073 C 
BRANCH  22  23
HETATM   23  N5  UNL     1      17.596  34.043  15.177  1.00  0.00    -0.300 NA
HETATM   24  C20 UNL     1      17.883  32.867  14.308  1.00  0.00     0.115 C 
HETATM   25  C21 UNL     1      16.556  34.773  14.464  1.00  0.00     0.115 C 
ENDBRANCH  22  23
ENDBRANCH  19  22
ENDBRANCH   8   9
ENDBRANCH   7   8
ENDBRANCH   6   7
ENDBRANCH   5   6
BRANCH   5  26
HETATM   26  C23 UNL     1      20.874  35.020  19.381  1.00  0.00     0.153 C 
BRANCH  26  27
HETATM   27  C24 UNL     1      21.739  35.877  20.220  1.00  0.00     0.111 C 
HETATM   28  C25 UNL     1      22.998  36.459  19.714  1.00  0.00     0.129 C 
HETATM   29  C26 UNL     1      23.539  36.117  21.087  1.00  0.00     0.220 C 
HETATM   30  O6  UNL     1      24.415  36.586  21.829  1.00  0.00    -0.274 OA
HETATM   31  N6  UNL     1      22.596  35.058  21.093  1.00  0.00    -0.354 N 
ATOM     32  H6  UNL     1      22.538  34.132  21.517  1.00  0.00     0.162 HD
ENDBRANCH  26  27
ENDBRANCH   5  26
BRANCH   1  33
HETATM   33  C6  UNL     1      21.331  32.264  16.296  1.00  0.00     0.153 A 
HETATM   34  N1  UNL     1      22.384  32.339  15.488  1.00  0.00    -0.345 N 
HETATM   35  C5  UNL     1      22.580  31.381  14.632  1.00  0.00     0.115 A 
ATOM     36  H1  UNL     1      23.024  33.131  15.539  1.00  0.00     0.167 HD
HETATM   37  C4  UNL     1      21.691  30.343  14.606  1.00  0.00     0.099 A 
HETATM   38  S1  UNL     1      20.589  30.800  15.841  1.00  0.00    -0.046 SA
BRANCH  37  39
HETATM   39  C3  UNL     1      21.686  29.149  13.742  1.00  0.00     0.301 C 
HETATM   40  O2  UNL     1      20.636  28.522  13.619  1.00  0.00    -0.259 OA
BRANCH  39  41
HETATM   41  O1  UNL     1      22.812  28.739  13.087  1.00  0.00    -0.317 OA
BRANCH  41  42
HETATM   42  C2  UNL     1      22.900  27.660  12.211  1.00  0.00     0.174 C 
HETATM   43  C1  UNL     1      24.310  27.189  11.955  1.00  0.00     0.034 C 
ENDBRANCH  41  42
ENDBRANCH  39  41
ENDBRANCH  37  39
ENDBRANCH   1  33
TORSDOF 13
ENDMDL
