MODEL 1
REMARK VINA RESULT: -8.948184855      0.000      0.000
REMARK  14 active torsions:
REMARK  status: ('A' for Active; 'I' for Inactive)
REMARK    1  A    between atoms: C2_2  and  C3_3 
REMARK    2  A    between atoms: C3_3  and  N1_4 
REMARK    3  A    between atoms: C4_5  and  C5_6 
REMARK    4  A    between atoms: C6_7  and  C7_8 
REMARK    5  A    between atoms: C7_8  and  N2_9 
REMARK       I    between atoms: N2_9  and  C8_11 
REMARK    6  A    between atoms: C8_11  and  C9_13 
REMARK    7  A    between atoms: C9_13  and  C12_16 
REMARK       I    between atoms: C12_16  and  N3_18 
REMARK    8  A    between atoms: N3_18  and  C13_20 
REMARK    9  A    between atoms: C13_20  and  C14_21 
REMARK   10  A    between atoms: C14_21  and  C15_22 
REMARK   11  A    between atoms: C15_22  and  O3_23 
REMARK   12  A    between atoms: O3_23  and  C16_24 
REMARK   13  A    between atoms: C20_30  and  C21_31 
REMARK   14  A    between atoms: C24_37  and  N6_38 
REMARK       I    between atoms: N6_38  and  C25_40 
ROOT
HETATM    1  N1  UNL     1      19.135  31.592  13.670  1.00  0.00    -0.338 N 
HETATM    2  C4  UNL     1      17.942  31.099  14.107  1.00  0.00     0.091 A 
HETATM    3  C18 UNL     1      17.756  29.823  13.618  1.00  0.00     0.071 A 
HETATM    4  C19 UNL     1      18.876  29.543  12.863  1.00  0.00     0.062 A 
HETATM    5  N4  UNL     1      19.171  28.420  12.179  1.00  0.00    -0.353 N 
ATOM      6  H4  UNL     1      18.511  27.642  12.186  1.00  0.00     0.166 HD
HETATM    7  C20 UNL     1      20.319  28.305  11.486  1.00  0.00     0.049 A 
HETATM    8  C27 UNL     1      21.178  29.404  11.518  1.00  0.00     0.033 A 
HETATM    9  C28 UNL     1      20.887  30.559  12.215  1.00  0.00     0.034 A 
HETATM   10  C29 UNL     1      19.692  30.632  12.913  1.00  0.00     0.062 A 
ENDROOT
BRANCH   2  11
HETATM   11  C5  UNL     1      16.988  31.760  14.946  1.00  0.00    -0.047 C 
HETATM   12  C6  UNL     1      16.177  32.307  15.635  1.00  0.00    -0.080 C 
BRANCH  12  13
HETATM   13  C7  UNL     1      15.153  32.980  16.470  1.00  0.00     0.217 C 
BRANCH  13  14
HETATM   14  N2  UNL     1      15.798  33.958  17.303  1.00  0.00    -0.350 N 
HETATM   15  C8  UNL     1      16.274  35.159  16.741  1.00  0.00     0.235 C 
HETATM   16  O1  UNL     1      16.171  35.445  15.519  1.00  0.00    -0.272 OA
ATOM     17  H2  UNL     1      15.910  33.783  18.301  1.00  0.00     0.163 HD
BRANCH  15  18
HETATM   18  C9  UNL     1      16.947  36.178  17.614  1.00  0.00     0.114 C 
HETATM   19  C10 UNL     1      16.007  36.361  18.805  1.00  0.00     0.035 C 
HETATM   20  C11 UNL     1      17.053  37.505  16.933  1.00  0.00     0.035 C 
BRANCH  18  21
HETATM   21  C12 UNL     1      18.218  35.609  18.073  1.00  0.00     0.234 C 
HETATM   22  O2  UNL     1      18.280  34.969  19.168  1.00  0.00    -0.272 OA
HETATM   23  N3  UNL     1      19.433  35.747  17.323  1.00  0.00    -0.360 N 
ATOM     24  H3  UNL     1      19.405  36.255  16.439  1.00  0.00     0.162 HD
BRANCH  23  25
HETATM   25  C13 UNL     1      20.671  35.209  17.755  1.00  0.00     0.125 C 
BRANCH  25  26
HETATM   26  C14 UNL     1      21.890  36.033  17.720  1.00  0.00     0.046 C 
BRANCH  26  27
HETATM   27  C15 UNL     1      21.775  37.471  18.047  1.00  0.00     0.169 C 
BRANCH  27  28
HETATM   28  O3  UNL     1      20.792  37.937  18.842  1.00  0.00    -0.391 OA
BRANCH  28  29
HETATM   29  C16 UNL     1      20.212  39.132  18.421  1.00  0.00     0.163 C 
HETATM   30  C17 UNL     1      20.399  39.392  16.958  1.00  0.00     0.033 C 
ENDBRANCH  28  29
ENDBRANCH  27  28
ENDBRANCH  26  27
ENDBRANCH  25  26
ENDBRANCH  23  25
ENDBRANCH  18  21
ENDBRANCH  15  18
ENDBRANCH  13  14
ENDBRANCH  12  13
ENDBRANCH   2  11
BRANCH   1  31
HETATM   31  C3  UNL     1      19.650  32.889  13.989  1.00  0.00     0.130 C 
BRANCH  31  32
HETATM   32  C2  UNL     1      20.700  32.917  15.043  1.00  0.00     0.016 C 
HETATM   33  C1  UNL     1      22.098  33.113  14.571  1.00  0.00     0.006 C 
ENDBRANCH  31  32
ENDBRANCH   1  31
BRANCH   7  34
HETATM   34  C21 UNL     1      20.642  27.100  10.747  1.00  0.00     0.068 A 
HETATM   35  C22 UNL     1      19.938  26.578   9.695  1.00  0.00     0.088 A 
HETATM   36  C23 UNL     1      18.684  27.132   9.079  1.00  0.00     0.080 C 
HETATM   37  O4  UNL     1      20.563  25.491   9.316  1.00  0.00    -0.240 OA
HETATM   38  N5  UNL     1      21.614  25.275  10.042  1.00  0.00    -0.244 N 
HETATM   39  C24 UNL     1      21.710  26.266  10.965  1.00  0.00     0.143 A 
ATOM     40  H5  UNL     1      22.260  24.493   9.938  1.00  0.00     0.196 HD
BRANCH  39  41
HETATM   41  N6  UNL     1      22.640  26.357  11.847  1.00  0.00    -0.311 N 
HETATM   42  C25 UNL     1      24.008  26.253  11.503  1.00  0.00     0.219 C 
HETATM   43  C26 UNL     1      24.959  27.354  11.760  1.00  0.00     0.117 C 
HETATM   44  O5  UNL     1      24.397  25.185  10.966  1.00  0.00    -0.274 OA
ATOM     45  H6  UNL     1      22.384  26.509  12.822  1.00  0.00     0.170 HD
ENDBRANCH  39  41
ENDBRANCH   7  34
TORSDOF 14
ENDMDL
MODEL 2
REMARK VINA RESULT: -8.697586923      1.055      2.358
REMARK  14 active torsions:
REMARK  status: ('A' for Active; 'I' for Inactive)
REMARK    1  A    between atoms: C2_2  and  C3_3 
REMARK    2  A    between atoms: C3_3  and  N1_4 
REMARK    3  A    between atoms: C4_5  and  C5_6 
REMARK    4  A    between atoms: C6_7  and  C7_8 
REMARK    5  A    between atoms: C7_8  and  N2_9 
REMARK       I    between atoms: N2_9  and  C8_11 
REMARK    6  A    between atoms: C8_11  and  C9_13 
REMARK    7  A    between atoms: C9_13  and  C12_16 
REMARK       I    between atoms: C12_16  and  N3_18 
REMARK    8  A    between atoms: N3_18  and  C13_20 
REMARK    9  A    between atoms: C13_20  and  C14_21 
REMARK   10  A    between atoms: C14_21  and  C15_22 
REMARK   11  A    between atoms: C15_22  and  O3_23 
REMARK   12  A    between atoms: O3_23  and  C16_24 
REMARK   13  A    between atoms: C20_30  and  C21_31 
REMARK   14  A    between atoms: C24_37  and  N6_38 
REMARK       I    between atoms: N6_38  and  C25_40 
ROOT
HETATM    1  N1  UNL     1      20.006  30.832  14.700  1.00  0.00    -0.338 N 
HETATM    2  C4  UNL     1      18.685  30.559  14.501  1.00  0.00     0.091 A 
HETATM    3  C18 UNL     1      18.554  29.450  13.691  1.00  0.00     0.071 A 
HETATM    4  C19 UNL     1      19.840  29.046  13.396  1.00  0.00     0.062 A 
HETATM    5  N4  UNL     1      20.242  28.006  12.639  1.00  0.00    -0.353 N 
ATOM      6  H4  UNL     1      19.543  27.407  12.201  1.00  0.00     0.166 HD
HETATM    7  C20 UNL     1      21.549  27.745  12.450  1.00  0.00     0.049 A 
HETATM    8  C27 UNL     1      22.453  28.603  13.078  1.00  0.00     0.033 A 
HETATM    9  C28 UNL     1      22.053  29.669  13.855  1.00  0.00     0.034 A 
HETATM   10  C29 UNL     1      20.696  29.901  14.021  1.00  0.00     0.062 A 
ENDROOT
BRANCH   2  11
HETATM   11  C5  UNL     1      17.564  31.279  15.025  1.00  0.00    -0.047 C 
HETATM   12  C6  UNL     1      16.621  31.884  15.445  1.00  0.00    -0.080 C 
BRANCH  12  13
HETATM   13  C7  UNL     1      15.447  32.641  15.942  1.00  0.00     0.217 C 
BRANCH  13  14
HETATM   14  N2  UNL     1      15.887  33.606  16.911  1.00  0.00    -0.350 N 
HETATM   15  C8  UNL     1      16.415  34.842  16.487  1.00  0.00     0.235 C 
HETATM   16  O1  UNL     1      16.530  35.170  15.277  1.00  0.00    -0.272 OA
ATOM     17  H2  UNL     1      15.818  33.396  17.907  1.00  0.00     0.163 HD
BRANCH  15  18
HETATM   18  C9  UNL     1      16.874  35.847  17.503  1.00  0.00     0.114 C 
HETATM   19  C10 UNL     1      15.838  35.777  18.624  1.00  0.00     0.035 C 
HETATM   20  C11 UNL     1      16.835  37.239  16.958  1.00  0.00     0.035 C 
BRANCH  18  21
HETATM   21  C12 UNL     1      18.178  35.411  18.009  1.00  0.00     0.234 C 
HETATM   22  O2  UNL     1      18.303  35.004  19.206  1.00  0.00    -0.272 OA
HETATM   23  N3  UNL     1      19.360  35.426  17.195  1.00  0.00    -0.360 N 
ATOM     24  H3  UNL     1      19.282  35.747  16.230  1.00  0.00     0.162 HD
BRANCH  23  25
HETATM   25  C13 UNL     1      20.630  35.016  17.671  1.00  0.00     0.125 C 
BRANCH  25  26
HETATM   26  C14 UNL     1      21.765  35.952  17.658  1.00  0.00     0.046 C 
BRANCH  26  27
HETATM   27  C15 UNL     1      21.490  37.392  17.856  1.00  0.00     0.169 C 
BRANCH  27  28
HETATM   28  O3  UNL     1      20.626  37.822  18.797  1.00  0.00    -0.391 OA
BRANCH  28  29
HETATM   29  C16 UNL     1      19.825  38.895  18.413  1.00  0.00     0.163 C 
HETATM   30  C17 UNL     1      20.216  39.476  17.088  1.00  0.00     0.033 C 
ENDBRANCH  28  29
ENDBRANCH  27  28
ENDBRANCH  26  27
ENDBRANCH  25  26
ENDBRANCH  23  25
ENDBRANCH  18  21
ENDBRANCH  15  18
ENDBRANCH  13  14
ENDBRANCH  12  13
ENDBRANCH   2  11
BRANCH   1  31
HETATM   31  C3  UNL     1      20.506  31.913  15.494  1.00  0.00     0.130 C 
BRANCH  31  32
HETATM   32  C2  UNL     1      21.014  33.084  14.729  1.00  0.00     0.016 C 
HETATM   33  C1  UNL     1      22.494  33.211  14.631  1.00  0.00     0.006 C 
ENDBRANCH  31  32
ENDBRANCH   1  31
BRANCH   7  34
HETATM   34  C21 UNL     1      21.990  26.628  11.636  1.00  0.00     0.068 A 
HETATM   35  C22 UNL     1      23.287  26.262  11.394  1.00  0.00     0.088 A 
HETATM   36  C23 UNL     1      24.531  26.929  11.911  1.00  0.00     0.080 C 
HETATM   37  O4  UNL     1      23.250  25.208  10.617  1.00  0.00    -0.240 OA
HETATM   38  N5  UNL     1      22.029  24.869  10.342  1.00  0.00    -0.244 N 
HETATM   39  C24 UNL     1      21.192  25.737  10.964  1.00  0.00     0.143 A 
ATOM     40  H5  UNL     1      21.746  24.083   9.758  1.00  0.00     0.196 HD
BRANCH  39  41
HETATM   41  N6  UNL     1      19.910  25.689  10.902  1.00  0.00    -0.311 N 
HETATM   42  C25 UNL     1      19.188  26.335   9.871  1.00  0.00     0.219 C 
HETATM   43  C26 UNL     1      18.316  25.582   8.944  1.00  0.00     0.117 C 
HETATM   44  O5  UNL     1      19.308  27.582   9.764  1.00  0.00    -0.274 OA
ATOM     45  H6  UNL     1      19.398  25.170  11.615  1.00  0.00     0.170 HD
ENDBRANCH  39  41
ENDBRANCH   7  34
TORSDOF 14
ENDMDL
MODEL 3
REMARK VINA RESULT: -8.636272297      1.669      4.091
REMARK  14 active torsions:
REMARK  status: ('A' for Active; 'I' for Inactive)
REMARK    1  A    between atoms: C2_2  and  C3_3 
REMARK    2  A    between atoms: C3_3  and  N1_4 
REMARK    3  A    between atoms: C4_5  and  C5_6 
REMARK    4  A    between atoms: C6_7  and  C7_8 
REMARK    5  A    between atoms: C7_8  and  N2_9 
REMARK       I    between atoms: N2_9  and  C8_11 
REMARK    6  A    between atoms: C8_11  and  C9_13 
REMARK    7  A    between atoms: C9_13  and  C12_16 
REMARK       I    between atoms: C12_16  and  N3_18 
REMARK    8  A    between atoms: N3_18  and  C13_20 
REMARK    9  A    between atoms: C13_20  and  C14_21 
REMARK   10  A    between atoms: C14_21  and  C15_22 
REMARK   11  A    between atoms: C15_22  and  O3_23 
REMARK   12  A    between atoms: O3_23  and  C16_24 
REMARK   13  A    between atoms: C20_30  and  C21_31 
REMARK   14  A    between atoms: C24_37  and  N6_38 
REMARK       I    between atoms: N6_38  and  C25_40 
ROOT
HETATM    1  N1  UNL     1      19.698  31.016  15.437  1.00  0.00    -0.338 N 
HETATM    2  C4  UNL     1      20.892  31.668  15.345  1.00  0.00     0.091 A 
HETATM    3  C18 UNL     1      21.637  31.135  14.314  1.00  0.00     0.071 A 
HETATM    4  C19 UNL     1      20.863  30.131  13.770  1.00  0.00     0.062 A 
HETATM    5  N4  UNL     1      21.148  29.314  12.737  1.00  0.00    -0.353 N 
ATOM      6  H4  UNL     1      22.044  29.408  12.258  1.00  0.00     0.166 HD
HETATM    7  C20 UNL     1      20.274  28.377  12.326  1.00  0.00     0.049 A 
HETATM    8  C27 UNL     1      19.068  28.302  13.023  1.00  0.00     0.033 A 
HETATM    9  C28 UNL     1      18.765  29.132  14.081  1.00  0.00     0.034 A 
HETATM   10  C29 UNL     1      19.696  30.082  14.470  1.00  0.00     0.062 A 
ENDROOT
BRANCH   2  11
HETATM   11  C5  UNL     1      21.354  32.746  16.166  1.00  0.00    -0.047 C 
HETATM   12  C6  UNL     1      21.757  33.636  16.856  1.00  0.00    -0.080 C 
BRANCH  12  13
HETATM   13  C7  UNL     1      22.276  34.725  17.718  1.00  0.00     0.217 C 
BRANCH  13  14
HETATM   14  N2  UNL     1      21.406  35.864  17.609  1.00  0.00    -0.350 N 
HETATM   15  C8  UNL     1      21.837  37.126  18.063  1.00  0.00     0.235 C 
HETATM   16  O1  UNL     1      22.969  37.333  18.574  1.00  0.00    -0.272 OA
ATOM     17  H2  UNL     1      20.477  35.759  17.202  1.00  0.00     0.163 HD
BRANCH  15  18
HETATM   18  C9  UNL     1      20.925  38.314  17.947  1.00  0.00     0.114 C 
HETATM   19  C10 UNL     1      21.036  38.755  16.488  1.00  0.00     0.035 C 
HETATM   20  C11 UNL     1      21.400  39.457  18.786  1.00  0.00     0.035 C 
BRANCH  18  21
HETATM   21  C12 UNL     1      19.560  37.861  18.224  1.00  0.00     0.234 C 
HETATM   22  O2  UNL     1      19.282  37.281  19.318  1.00  0.00    -0.272 OA
HETATM   23  N3  UNL     1      18.488  38.044  17.287  1.00  0.00    -0.360 N 
ATOM     24  H3  UNL     1      18.688  38.510  16.402  1.00  0.00     0.162 HD
BRANCH  23  25
HETATM   25  C13 UNL     1      17.163  37.605  17.536  1.00  0.00     0.125 C 
BRANCH  25  26
HETATM   26  C14 UNL     1      16.705  36.303  17.026  1.00  0.00     0.046 C 
BRANCH  26  27
HETATM   27  C15 UNL     1      16.400  35.235  18.002  1.00  0.00     0.169 C 
BRANCH  27  28
HETATM   28  O3  UNL     1      15.381  35.349  18.877  1.00  0.00    -0.391 OA
BRANCH  28  29
HETATM   29  C16 UNL     1      14.193  35.837  18.335  1.00  0.00     0.163 C 
HETATM   30  C17 UNL     1      13.770  37.146  18.929  1.00  0.00     0.033 C 
ENDBRANCH  28  29
ENDBRANCH  27  28
ENDBRANCH  26  27
ENDBRANCH  25  26
ENDBRANCH  23  25
ENDBRANCH  18  21
ENDBRANCH  15  18
ENDBRANCH  13  14
ENDBRANCH  12  13
ENDBRANCH   2  11
BRANCH   1  31
HETATM   31  C3  UNL     1      18.677  31.311  16.395  1.00  0.00     0.130 C 
BRANCH  31  32
HETATM   32  C2  UNL     1      17.424  31.887  15.836  1.00  0.00     0.016 C 
HETATM   33  C1  UNL     1      17.584  33.078  14.958  1.00  0.00     0.006 C 
ENDBRANCH  31  32
ENDBRANCH   1  31
BRANCH   7  34
HETATM   34  C21 UNL     1      20.575  27.494  11.215  1.00  0.00     0.068 A 
HETATM   35  C22 UNL     1      19.810  27.309  10.094  1.00  0.00     0.088 A 
HETATM   36  C23 UNL     1      18.501  27.974   9.768  1.00  0.00     0.080 C 
HETATM   37  O4  UNL     1      20.433  26.435   9.343  1.00  0.00    -0.240 OA
HETATM   38  N5  UNL     1      21.539  26.045   9.896  1.00  0.00    -0.244 N 
HETATM   39  C24 UNL     1      21.676  26.686  11.084  1.00  0.00     0.143 A 
ATOM     40  H5  UNL     1      22.195  25.370   9.503  1.00  0.00     0.196 HD
BRANCH  39  41
HETATM   41  N6  UNL     1      22.663  26.529  11.890  1.00  0.00    -0.311 N 
HETATM   42  C25 UNL     1      23.963  26.218  11.427  1.00  0.00     0.219 C 
HETATM   43  C26 UNL     1      25.114  27.107  11.692  1.00  0.00     0.117 C 
HETATM   44  O5  UNL     1      24.114  25.153  10.776  1.00  0.00    -0.274 OA
ATOM     45  H6  UNL     1      22.506  26.632  12.893  1.00  0.00     0.170 HD
ENDBRANCH  39  41
ENDBRANCH   7  34
TORSDOF 14
ENDMDL
MODEL 4
REMARK VINA RESULT: -8.631580054      2.455     11.489
REMARK  14 active torsions:
REMARK  status: ('A' for Active; 'I' for Inactive)
REMARK    1  A    between atoms: C2_2  and  C3_3 
REMARK    2  A    between atoms: C3_3  and  N1_4 
REMARK    3  A    between atoms: C4_5  and  C5_6 
REMARK    4  A    between atoms: C6_7  and  C7_8 
REMARK    5  A    between atoms: C7_8  and  N2_9 
REMARK       I    between atoms: N2_9  and  C8_11 
REMARK    6  A    between atoms: C8_11  and  C9_13 
REMARK    7  A    between atoms: C9_13  and  C12_16 
REMARK       I    between atoms: C12_16  and  N3_18 
REMARK    8  A    between atoms: N3_18  and  C13_20 
REMARK    9  A    between atoms: C13_20  and  C14_21 
REMARK   10  A    between atoms: C14_21  and  C15_22 
REMARK   11  A    between atoms: C15_22  and  O3_23 
REMARK   12  A    between atoms: O3_23  and  C16_24 
REMARK   13  A    between atoms: C20_30  and  C21_31 
REMARK   14  A    between atoms: C24_37  and  N6_38 
REMARK       I    between atoms: N6_38  and  C25_40 
ROOT
HETATM    1  N1  UNL     1      18.494  33.866  16.157  1.00  0.00    -0.338 N 
HETATM    2  C4  UNL     1      17.512  33.476  15.295  1.00  0.00     0.091 A 
HETATM    3  C18 UNL     1      16.481  34.392  15.315  1.00  0.00     0.071 A 
HETATM    4  C19 UNL     1      16.859  35.364  16.219  1.00  0.00     0.062 A 
HETATM    5  N4  UNL     1      16.191  36.474  16.590  1.00  0.00    -0.353 N 
ATOM      6  H4  UNL     1      15.279  36.669  16.178  1.00  0.00     0.166 HD
HETATM    7  C20 UNL     1      16.705  37.330  17.492  1.00  0.00     0.049 A 
HETATM    8  C27 UNL     1      17.957  37.004  18.016  1.00  0.00     0.033 A 
HETATM    9  C28 UNL     1      18.650  35.871  17.644  1.00  0.00     0.034 A 
HETATM   10  C29 UNL     1      18.081  35.019  16.711  1.00  0.00     0.062 A 
ENDROOT
BRANCH   2  11
HETATM   11  C5  UNL     1      17.499  32.305  14.472  1.00  0.00    -0.047 C 
HETATM   12  C6  UNL     1      17.470  31.321  13.792  1.00  0.00    -0.080 C 
BRANCH  12  13
HETATM   13  C7  UNL     1      17.415  30.093  12.963  1.00  0.00     0.217 C 
BRANCH  13  14
HETATM   14  N2  UNL     1      18.707  29.865  12.376  1.00  0.00    -0.350 N 
HETATM   15  C8  UNL     1      19.681  29.130  13.081  1.00  0.00     0.235 C 
HETATM   16  O1  UNL     1      19.492  28.642  14.226  1.00  0.00    -0.272 OA
ATOM     17  H2  UNL     1      18.919  30.235  11.450  1.00  0.00     0.163 HD
BRANCH  15  18
HETATM   18  C9  UNL     1      21.030  28.894  12.464  1.00  0.00     0.114 C 
HETATM   19  C10 UNL     1      21.951  28.573  13.640  1.00  0.00     0.035 C 
HETATM   20  C11 UNL     1      21.564  30.132  11.817  1.00  0.00     0.035 C 
BRANCH  18  21
HETATM   21  C12 UNL     1      20.926  27.726  11.586  1.00  0.00     0.234 C 
HETATM   22  O2  UNL     1      20.337  27.812  10.464  1.00  0.00    -0.272 OA
HETATM   23  N3  UNL     1      21.470  26.447  11.944  1.00  0.00    -0.360 N 
ATOM     24  H3  UNL     1      21.949  26.356  12.840  1.00  0.00     0.162 HD
BRANCH  23  25
HETATM   25  C13 UNL     1      21.371  25.306  11.111  1.00  0.00     0.125 C 
BRANCH  25  26
HETATM   26  C14 UNL     1      22.381  25.059  10.069  1.00  0.00     0.046 C 
BRANCH  26  27
HETATM   27  C15 UNL     1      23.810  25.152  10.440  1.00  0.00     0.169 C 
BRANCH  27  28
HETATM   28  O3  UNL     1      24.201  25.699  11.608  1.00  0.00    -0.391 OA
BRANCH  28  29
HETATM   29  C16 UNL     1      25.077  26.775  11.488  1.00  0.00     0.163 C 
HETATM   30  C17 UNL     1      24.449  27.977  10.850  1.00  0.00     0.033 C 
ENDBRANCH  28  29
ENDBRANCH  27  28
ENDBRANCH  26  27
ENDBRANCH  25  26
ENDBRANCH  23  25
ENDBRANCH  18  21
ENDBRANCH  15  18
ENDBRANCH  13  14
ENDBRANCH  12  13
ENDBRANCH   2  11
BRANCH   1  31
HETATM   31  C3  UNL     1      19.712  33.151  16.385  1.00  0.00     0.130 C 
BRANCH  31  32
HETATM   32  C2  UNL     1      20.876  33.597  15.572  1.00  0.00     0.016 C 
HETATM   33  C1  UNL     1      21.212  32.754  14.391  1.00  0.00     0.006 C 
ENDBRANCH  31  32
ENDBRANCH   1  31
BRANCH   7  34
HETATM   34  C21 UNL     1      15.993  38.526  17.896  1.00  0.00     0.068 A 
HETATM   35  C22 UNL     1      14.936  38.588  18.766  1.00  0.00     0.088 A 
HETATM   36  C23 UNL     1      14.285  37.440  19.487  1.00  0.00     0.080 C 
HETATM   37  O4  UNL     1      14.587  39.847  18.858  1.00  0.00    -0.240 OA
HETATM   38  N5  UNL     1      15.339  40.598  18.116  1.00  0.00    -0.244 N 
HETATM   39  C24 UNL     1      16.246  39.810  17.485  1.00  0.00     0.143 A 
ATOM     40  H5  UNL     1      15.261  41.611  18.022  1.00  0.00     0.196 HD
BRANCH  39  41
HETATM   41  N6  UNL     1      17.144  40.236  16.671  1.00  0.00    -0.311 N 
HETATM   42  C25 UNL     1      18.405  40.690  17.123  1.00  0.00     0.219 C 
HETATM   43  C26 UNL     1      19.663  40.049  16.687  1.00  0.00     0.117 C 
HETATM   44  O5  UNL     1      18.427  41.668  17.914  1.00  0.00    -0.274 OA
ATOM     45  H6  UNL     1      16.943  40.245  15.672  1.00  0.00     0.170 HD
ENDBRANCH  39  41
ENDBRANCH   7  34
TORSDOF 14
ENDMDL
MODEL 5
REMARK VINA RESULT: -8.620278436      2.178     11.225
REMARK  14 active torsions:
REMARK  status: ('A' for Active; 'I' for Inactive)
REMARK    1  A    between atoms: C2_2  and  C3_3 
REMARK    2  A    between atoms: C3_3  and  N1_4 
REMARK    3  A    between atoms: C4_5  and  C5_6 
REMARK    4  A    between atoms: C6_7  and  C7_8 
REMARK    5  A    between atoms: C7_8  and  N2_9 
REMARK       I    between atoms: N2_9  and  C8_11 
REMARK    6  A    between atoms: C8_11  and  C9_13 
REMARK    7  A    between atoms: C9_13  and  C12_16 
REMARK       I    between atoms: C12_16  and  N3_18 
REMARK    8  A    between atoms: N3_18  and  C13_20 
REMARK    9  A    between atoms: C13_20  and  C14_21 
REMARK   10  A    between atoms: C14_21  and  C15_22 
REMARK   11  A    between atoms: C15_22  and  O3_23 
REMARK   12  A    between atoms: O3_23  and  C16_24 
REMARK   13  A    between atoms: C20_30  and  C21_31 
REMARK   14  A    between atoms: C24_37  and  N6_38 
REMARK       I    between atoms: N6_38  and  C25_40 
ROOT
HETATM    1  N1  UNL     1      20.220  33.375  16.102  1.00  0.00    -0.338 N 
HETATM    2  C4  UNL     1      19.663  33.112  14.886  1.00  0.00     0.091 A 
HETATM    3  C18 UNL     1      18.520  33.867  14.722  1.00  0.00     0.071 A 
HETATM    4  C19 UNL     1      18.390  34.606  15.880  1.00  0.00     0.062 A 
HETATM    5  N4  UNL     1      17.433  35.497  16.205  1.00  0.00    -0.353 N 
ATOM      6  H4  UNL     1      16.680  35.687  15.544  1.00  0.00     0.166 HD
HETATM    7  C20 UNL     1      17.451  36.141  17.387  1.00  0.00     0.049 A 
HETATM    8  C27 UNL     1      18.508  35.837  18.245  1.00  0.00     0.033 A 
HETATM    9  C28 UNL     1      19.493  34.927  17.923  1.00  0.00     0.034 A 
HETATM   10  C29 UNL     1      19.433  34.288  16.695  1.00  0.00     0.062 A 
ENDROOT
BRANCH   2  11
HETATM   11  C5  UNL     1      20.147  32.202  13.892  1.00  0.00    -0.047 C 
HETATM   12  C6  UNL     1      20.556  31.458  13.049  1.00  0.00    -0.080 C 
BRANCH  12  13
HETATM   13  C7  UNL     1      21.066  30.555  11.989  1.00  0.00     0.217 C 
BRANCH  13  14
HETATM   14  N2  UNL     1      20.014  29.663  11.587  1.00  0.00    -0.350 N 
HETATM   15  C8  UNL     1      19.715  28.529  12.369  1.00  0.00     0.235 C 
HETATM   16  O1  UNL     1      20.324  28.235  13.430  1.00  0.00    -0.272 OA
ATOM     17  H2  UNL     1      19.484  29.849  10.736  1.00  0.00     0.163 HD
BRANCH  15  18
HETATM   18  C9  UNL     1      18.615  27.599  11.945  1.00  0.00     0.114 C 
HETATM   19  C10 UNL     1      17.928  28.305  10.777  1.00  0.00     0.035 C 
HETATM   20  C11 UNL     1      17.588  27.434  13.020  1.00  0.00     0.035 C 
BRANCH  18  21
HETATM   21  C12 UNL     1      19.233  26.356  11.476  1.00  0.00     0.234 C 
HETATM   22  O2  UNL     1      18.514  25.400  11.048  1.00  0.00    -0.272 OA
HETATM   23  N3  UNL     1      20.654  26.157  11.480  1.00  0.00    -0.360 N 
ATOM     24  H3  UNL     1      21.250  26.914  11.817  1.00  0.00     0.162 HD
BRANCH  23  25
HETATM   25  C13 UNL     1      21.267  24.959  11.037  1.00  0.00     0.125 C 
BRANCH  25  26
HETATM   26  C14 UNL     1      22.245  24.989   9.938  1.00  0.00     0.046 C 
BRANCH  26  27
HETATM   27  C15 UNL     1      23.647  25.338  10.254  1.00  0.00     0.169 C 
BRANCH  27  28
HETATM   28  O3  UNL     1      24.051  25.551  11.522  1.00  0.00    -0.391 OA
BRANCH  28  29
HETATM   29  C16 UNL     1      24.734  26.748  11.727  1.00  0.00     0.163 C 
HETATM   30  C17 UNL     1      23.830  27.881  12.109  1.00  0.00     0.033 C 
ENDBRANCH  28  29
ENDBRANCH  27  28
ENDBRANCH  26  27
ENDBRANCH  25  26
ENDBRANCH  23  25
ENDBRANCH  18  21
ENDBRANCH  15  18
ENDBRANCH  13  14
ENDBRANCH  12  13
ENDBRANCH   2  11
BRANCH   1  31
HETATM   31  C3  UNL     1      21.418  32.770  16.600  1.00  0.00     0.130 C 
BRANCH  31  32
HETATM   32  C2  UNL     1      22.669  33.537  16.357  1.00  0.00     0.016 C 
HETATM   33  C1  UNL     1      23.445  33.159  15.144  1.00  0.00     0.006 C 
ENDBRANCH  31  32
ENDBRANCH   1  31
BRANCH   7  34
HETATM   34  C21 UNL     1      16.424  37.101  17.744  1.00  0.00     0.068 A 
HETATM   35  C22 UNL     1      15.152  36.813  18.162  1.00  0.00     0.088 A 
HETATM   36  C23 UNL     1      14.542  35.450  18.339  1.00  0.00     0.080 C 
HETATM   37  O4  UNL     1      14.551  37.956  18.382  1.00  0.00    -0.240 OA
HETATM   38  N5  UNL     1      15.340  38.955  18.139  1.00  0.00    -0.244 N 
HETATM   39  C24 UNL     1      16.539  38.468  17.732  1.00  0.00     0.143 A 
ATOM     40  H5  UNL     1      15.099  39.942  18.238  1.00  0.00     0.196 HD
BRANCH  39  41
HETATM   41  N6  UNL     1      17.551  39.191  17.409  1.00  0.00    -0.311 N 
HETATM   42  C25 UNL     1      18.442  39.703  18.381  1.00  0.00     0.219 C 
HETATM   43  C26 UNL     1      19.880  39.362  18.371  1.00  0.00     0.117 C 
HETATM   44  O5  UNL     1      17.972  40.466  19.263  1.00  0.00    -0.274 OA
ATOM     45  H6  UNL     1      17.716  39.401  16.425  1.00  0.00     0.170 HD
ENDBRANCH  39  41
ENDBRANCH   7  34
TORSDOF 14
ENDMDL
