MODEL 1
REMARK VINA RESULT: -8.971114076      0.000      0.000
REMARK  14 active torsions:
REMARK  status: ('A' for Active; 'I' for Inactive)
REMARK    1  A    between atoms: C2_2  and  C3_3 
REMARK    2  A    between atoms: C3_3  and  C5_5 
REMARK       I    between atoms: C5_5  and  N1_7 
REMARK    3  A    between atoms: C9_12  and  C10_13 
REMARK    4  A    between atoms: C10_13  and  C11_14 
REMARK    5  A    between atoms: C11_14  and  C12_15 
REMARK    6  A    between atoms: C12_15  and  C13_16 
REMARK    7  A    between atoms: C13_16  and  C14_17 
REMARK    8  A    between atoms: C15_20  and  C16_21 
REMARK    9  A    between atoms: C16_21  and  C17_22 
REMARK   10  A    between atoms: C17_22  and  O2_23 
REMARK       I    between atoms: N4_28  and  C20_30 
REMARK   11  A    between atoms: C20_30  and  C21_32 
REMARK   12  A    between atoms: C21_32  and  N5_33 
REMARK       I    between atoms: N5_33  and  C22_35 
REMARK   13  A    between atoms: C22_35  and  O5_37 
REMARK   14  A    between atoms: O5_37  and  C23_38 
ROOT
HETATM    1  C14 UNL     1      21.263  29.760  13.793  1.00  0.00     0.055 A 
HETATM    2  N2  UNL     1      22.446  29.267  13.398  1.00  0.00    -0.343 N 
ATOM      3  H2  UNL     1      23.281  29.753  13.727  1.00  0.00     0.167 HD
HETATM    4  C15 UNL     1      22.635  28.210  12.623  1.00  0.00     0.085 A 
HETATM    5  N3  UNL     1      21.690  27.430  12.083  1.00  0.00    -0.326 N 
ATOM      6  H3  UNL     1      22.013  26.653  11.507  1.00  0.00     0.169 HD
HETATM    7  C19 UNL     1      20.375  27.563  12.217  1.00  0.00     0.154 A 
HETATM    8  N4  UNL     1      19.496  26.789  11.676  1.00  0.00    -0.306 N 
ATOM      9  H4  UNL     1      18.498  26.944  11.816  1.00  0.00     0.171 HD
HETATM   10  C20 UNL     1      19.964  25.719  10.881  1.00  0.00     0.241 C 
HETATM   11  O3  UNL     1      19.880  24.557  11.310  1.00  0.00    -0.271 OA
HETATM   12  S1  UNL     1      19.920  28.901  13.204  1.00  0.00    -0.041 SA
ENDROOT
BRANCH   1  13
HETATM   13  C13 UNL     1      21.188  30.958  14.664  1.00  0.00     0.065 C 
BRANCH  13  14
HETATM   14  C12 UNL     1      22.553  31.593  14.657  1.00  0.00     0.007 C 
BRANCH  14  15
HETATM   15  C11 UNL     1      22.560  33.046  14.989  1.00  0.00     0.006 C 
BRANCH  15  16
HETATM   16  C10 UNL     1      22.551  33.376  16.439  1.00  0.00     0.058 C 
BRANCH  16  17
HETATM   17  C9  UNL     1      21.309  33.946  16.957  1.00  0.00     0.026 A 
HETATM   18  C8  UNL     1      20.195  34.157  16.133  1.00  0.00     0.030 A 
HETATM   19  C7  UNL     1      19.079  34.698  16.736  1.00  0.00     0.052 A 
HETATM   20  C6  UNL     1      19.006  35.033  18.073  1.00  0.00     0.122 A 
HETATM   21  N1  UNL     1      17.955  35.540  18.626  1.00  0.00    -0.312 N 
HETATM   22  N7  UNL     1      20.133  34.794  18.792  1.00  0.00    -0.285 N 
HETATM   23  C5  UNL     1      16.817  35.759  17.806  1.00  0.00     0.227 C 
ATOM     24  H1  UNL     1      17.943  35.774  19.619  1.00  0.00     0.170 HD
HETATM   25  O1  UNL     1      16.858  36.713  16.971  1.00  0.00    -0.273 OA
HETATM   26  N6  UNL     1      21.210  34.281  18.249  1.00  0.00    -0.303 N 
ATOM     27  H7  UNL     1      20.142  35.022  19.787  1.00  0.00     0.188 HD
ATOM     28  H6  UNL     1      22.021  34.127  18.847  1.00  0.00     0.186 HD
BRANCH  23  29
HETATM   29  C3  UNL     1      15.597  34.914  17.897  1.00  0.00     0.074 C 
HETATM   30  C4  UNL     1      14.377  35.701  18.307  1.00  0.00     0.020 C 
BRANCH  29  31
HETATM   31  C2  UNL     1      15.331  34.374  16.508  1.00  0.00     0.009 C 
HETATM   32  C1  UNL     1      15.805  32.938  16.463  1.00  0.00     0.006 C 
ENDBRANCH  29  31
ENDBRANCH  23  29
ENDBRANCH  16  17
ENDBRANCH  15  16
ENDBRANCH  14  15
ENDBRANCH  13  14
ENDBRANCH   1  13
BRANCH   4  33
HETATM   33  C16 UNL     1      24.084  27.857  12.326  1.00  0.00     0.102 C 
BRANCH  33  34
HETATM   34  C17 UNL     1      24.027  27.014  11.084  1.00  0.00     0.174 C 
BRANCH  34  35
HETATM   35  O2  UNL     1      24.180  25.675  11.328  1.00  0.00    -0.396 OA
HETATM   36  C18 UNL     1      23.862  24.917  10.230  1.00  0.00     0.201 C 
ENDBRANCH  34  35
ENDBRANCH  33  34
ENDBRANCH   4  33
BRANCH  10  37
HETATM   37  C21 UNL     1      20.545  26.000   9.560  1.00  0.00     0.227 C 
BRANCH  37  38
HETATM   38  N5  UNL     1      19.679  26.752   8.692  1.00  0.00    -0.328 N 
HETATM   39  C22 UNL     1      18.779  26.084   7.838  1.00  0.00     0.361 C 
HETATM   40  O4  UNL     1      18.721  24.848   7.831  1.00  0.00    -0.238 OA
ATOM     41  H5  UNL     1      19.717  27.772   8.695  1.00  0.00     0.165 HD
BRANCH  39  42
HETATM   42  O5  UNL     1      17.920  26.744   6.969  1.00  0.00    -0.294 OA
BRANCH  42  43
HETATM   43  C23 UNL     1      18.130  26.935   5.617  1.00  0.00     0.061 C 
HETATM   44  C24 UNL     1      17.728  28.376   5.283  1.00  0.00     0.046 C 
HETATM   45  C25 UNL     1      19.552  26.769   5.161  1.00  0.00     0.046 C 
HETATM   46  C26 UNL     1      17.260  26.051   4.732  1.00  0.00     0.046 C 
ENDBRANCH  42  43
ENDBRANCH  39  42
ENDBRANCH  37  38
ENDBRANCH  10  37
TORSDOF 14
ENDMDL
MODEL 2
REMARK VINA RESULT: -8.769686170      3.513     11.693
REMARK  14 active torsions:
REMARK  status: ('A' for Active; 'I' for Inactive)
REMARK    1  A    between atoms: C2_2  and  C3_3 
REMARK    2  A    between atoms: C3_3  and  C5_5 
REMARK       I    between atoms: C5_5  and  N1_7 
REMARK    3  A    between atoms: C9_12  and  C10_13 
REMARK    4  A    between atoms: C10_13  and  C11_14 
REMARK    5  A    between atoms: C11_14  and  C12_15 
REMARK    6  A    between atoms: C12_15  and  C13_16 
REMARK    7  A    between atoms: C13_16  and  C14_17 
REMARK    8  A    between atoms: C15_20  and  C16_21 
REMARK    9  A    between atoms: C16_21  and  C17_22 
REMARK   10  A    between atoms: C17_22  and  O2_23 
REMARK       I    between atoms: N4_28  and  C20_30 
REMARK   11  A    between atoms: C20_30  and  C21_32 
REMARK   12  A    between atoms: C21_32  and  N5_33 
REMARK       I    between atoms: N5_33  and  C22_35 
REMARK   13  A    between atoms: C22_35  and  O5_37 
REMARK   14  A    between atoms: O5_37  and  C23_38 
ROOT
HETATM    1  C14 UNL     1      20.693  34.848  17.211  1.00  0.00     0.055 A 
HETATM    2  N2  UNL     1      19.998  34.443  16.137  1.00  0.00    -0.343 N 
ATOM      3  H2  UNL     1      20.536  34.089  15.346  1.00  0.00     0.167 HD
HETATM    4  C15 UNL     1      18.681  34.460  16.006  1.00  0.00     0.085 A 
HETATM    5  N3  UNL     1      17.787  34.882  16.910  1.00  0.00    -0.326 N 
ATOM      6  H3  UNL     1      16.805  34.824  16.642  1.00  0.00     0.169 HD
HETATM    7  C19 UNL     1      18.046  35.367  18.119  1.00  0.00     0.154 A 
HETATM    8  N4  UNL     1      17.154  35.765  18.961  1.00  0.00    -0.306 N 
ATOM      9  H4  UNL     1      17.417  36.130  19.877  1.00  0.00     0.171 HD
HETATM   10  C20 UNL     1      15.799  35.679  18.571  1.00  0.00     0.241 C 
HETATM   11  O3  UNL     1      15.069  34.817  19.086  1.00  0.00    -0.271 OA
HETATM   12  S1  UNL     1      19.729  35.428  18.486  1.00  0.00    -0.041 SA
ENDROOT
BRANCH   1  13
HETATM   13  C13 UNL     1      22.174  34.779  17.231  1.00  0.00     0.065 C 
BRANCH  13  14
HETATM   14  C12 UNL     1      22.554  33.373  16.847  1.00  0.00     0.007 C 
BRANCH  14  15
HETATM   15  C11 UNL     1      23.424  33.276  15.641  1.00  0.00     0.006 C 
BRANCH  15  16
HETATM   16  C10 UNL     1      22.711  33.164  14.340  1.00  0.00     0.058 C 
BRANCH  16  17
HETATM   17  C9  UNL     1      22.014  31.901  14.100  1.00  0.00     0.026 A 
HETATM   18  C8  UNL     1      20.891  31.827  13.266  1.00  0.00     0.030 A 
HETATM   19  C7  UNL     1      20.321  30.582  13.113  1.00  0.00     0.052 A 
HETATM   20  C6  UNL     1      20.788  29.436  13.723  1.00  0.00     0.122 A 
HETATM   21  N1  UNL     1      20.245  28.273  13.572  1.00  0.00    -0.312 N 
HETATM   22  N7  UNL     1      21.880  29.604  14.513  1.00  0.00    -0.285 N 
HETATM   23  C5  UNL     1      19.106  28.181  12.730  1.00  0.00     0.227 C 
ATOM     24  H1  UNL     1      20.621  27.451  14.042  1.00  0.00     0.170 HD
HETATM   25  O1  UNL     1      18.010  28.657  13.154  1.00  0.00    -0.273 OA
HETATM   26  N6  UNL     1      22.445  30.774  14.678  1.00  0.00    -0.303 N 
ATOM     27  H7  UNL     1      22.273  28.793  14.992  1.00  0.00     0.188 HD
ATOM     28  H6  UNL     1      23.263  30.830  15.285  1.00  0.00     0.186 HD
BRANCH  23  29
HETATM   29  C3  UNL     1      19.161  27.551  11.384  1.00  0.00     0.074 C 
HETATM   30  C4  UNL     1      20.460  26.824  11.139  1.00  0.00     0.020 C 
BRANCH  29  31
HETATM   31  C2  UNL     1      18.057  26.516  11.336  1.00  0.00     0.009 C 
HETATM   32  C1  UNL     1      17.944  26.017   9.913  1.00  0.00     0.006 C 
ENDBRANCH  29  31
ENDBRANCH  23  29
ENDBRANCH  16  17
ENDBRANCH  15  16
ENDBRANCH  14  15
ENDBRANCH  13  14
ENDBRANCH   1  13
BRANCH   4  33
HETATM   33  C16 UNL     1      18.141  33.941  14.682  1.00  0.00     0.102 C 
BRANCH  33  34
HETATM   34  C17 UNL     1      17.738  32.521  14.962  1.00  0.00     0.174 C 
BRANCH  34  35
HETATM   35  O2  UNL     1      17.922  32.151  16.267  1.00  0.00    -0.396 OA
HETATM   36  C18 UNL     1      18.645  30.989  16.371  1.00  0.00     0.201 C 
ENDBRANCH  34  35
ENDBRANCH  33  34
ENDBRANCH   4  33
BRANCH  10  37
HETATM   37  C21 UNL     1      15.277  36.611  17.562  1.00  0.00     0.227 C 
BRANCH  37  38
HETATM   38  N5  UNL     1      15.510  37.996  17.873  1.00  0.00    -0.328 N 
HETATM   39  C22 UNL     1      14.638  38.681  18.743  1.00  0.00     0.361 C 
HETATM   40  O4  UNL     1      13.671  38.100  19.250  1.00  0.00    -0.238 OA
ATOM     41  H5  UNL     1      16.307  38.483  17.463  1.00  0.00     0.165 HD
BRANCH  39  42
HETATM   42  O5  UNL     1      14.796  40.019  19.083  1.00  0.00    -0.294 OA
BRANCH  42  43
HETATM   43  C23 UNL     1      15.490  40.496  20.178  1.00  0.00     0.061 C 
HETATM   44  C24 UNL     1      16.978  40.205  19.949  1.00  0.00     0.046 C 
HETATM   45  C25 UNL     1      15.373  41.975  20.415  1.00  0.00     0.046 C 
HETATM   46  C26 UNL     1      15.131  39.795  21.482  1.00  0.00     0.046 C 
ENDBRANCH  42  43
ENDBRANCH  39  42
ENDBRANCH  37  38
ENDBRANCH  10  37
TORSDOF 14
ENDMDL
MODEL 3
REMARK VINA RESULT: -8.729994112      1.346      1.774
REMARK  14 active torsions:
REMARK  status: ('A' for Active; 'I' for Inactive)
REMARK    1  A    between atoms: C2_2  and  C3_3 
REMARK    2  A    between atoms: C3_3  and  C5_5 
REMARK       I    between atoms: C5_5  and  N1_7 
REMARK    3  A    between atoms: C9_12  and  C10_13 
REMARK    4  A    between atoms: C10_13  and  C11_14 
REMARK    5  A    between atoms: C11_14  and  C12_15 
REMARK    6  A    between atoms: C12_15  and  C13_16 
REMARK    7  A    between atoms: C13_16  and  C14_17 
REMARK    8  A    between atoms: C15_20  and  C16_21 
REMARK    9  A    between atoms: C16_21  and  C17_22 
REMARK   10  A    between atoms: C17_22  and  O2_23 
REMARK       I    between atoms: N4_28  and  C20_30 
REMARK   11  A    between atoms: C20_30  and  C21_32 
REMARK   12  A    between atoms: C21_32  and  N5_33 
REMARK       I    between atoms: N5_33  and  C22_35 
REMARK   13  A    between atoms: C22_35  and  O5_37 
REMARK   14  A    between atoms: O5_37  and  C23_38 
ROOT
HETATM    1  C14 UNL     1      21.058  29.697  13.973  1.00  0.00     0.055 A 
HETATM    2  N2  UNL     1      22.261  29.262  13.568  1.00  0.00    -0.343 N 
ATOM      3  H2  UNL     1      23.076  29.759  13.927  1.00  0.00     0.167 HD
HETATM    4  C15 UNL     1      22.491  28.249  12.747  1.00  0.00     0.085 A 
HETATM    5  N3  UNL     1      21.577  27.465  12.161  1.00  0.00    -0.326 N 
ATOM      6  H3  UNL     1      21.931  26.727  11.554  1.00  0.00     0.169 HD
HETATM    7  C19 UNL     1      20.258  27.548  12.288  1.00  0.00     0.154 A 
HETATM    8  N4  UNL     1      19.409  26.771  11.703  1.00  0.00    -0.306 N 
ATOM      9  H4  UNL     1      18.405  26.887  11.841  1.00  0.00     0.171 HD
HETATM   10  C20 UNL     1      19.920  25.756  10.865  1.00  0.00     0.241 C 
HETATM   11  O3  UNL     1      19.870  24.573  11.238  1.00  0.00    -0.271 OA
HETATM   12  S1  UNL     1      19.749  28.822  13.331  1.00  0.00    -0.041 SA
ENDROOT
BRANCH   1  13
HETATM   13  C13 UNL     1      20.936  30.849  14.898  1.00  0.00     0.065 C 
BRANCH  13  14
HETATM   14  C12 UNL     1      22.094  31.767  14.613  1.00  0.00     0.007 C 
BRANCH  14  15
HETATM   15  C11 UNL     1      21.729  33.208  14.501  1.00  0.00     0.006 C 
BRANCH  15  16
HETATM   16  C10 UNL     1      21.423  33.896  15.784  1.00  0.00     0.058 C 
BRANCH  16  17
HETATM   17  C9  UNL     1      20.014  34.207  16.022  1.00  0.00     0.026 A 
HETATM   18  C8  UNL     1      19.552  34.612  17.282  1.00  0.00     0.030 A 
HETATM   19  C7  UNL     1      18.204  34.881  17.383  1.00  0.00     0.052 A 
HETATM   20  C6  UNL     1      17.311  34.773  16.337  1.00  0.00     0.122 A 
HETATM   21  N1  UNL     1      16.050  35.027  16.445  1.00  0.00    -0.312 N 
HETATM   22  N7  UNL     1      17.849  34.374  15.156  1.00  0.00    -0.285 N 
HETATM   23  C5  UNL     1      15.565  35.440  17.714  1.00  0.00     0.227 C 
ATOM     24  H1  UNL     1      15.423  34.935  15.646  1.00  0.00     0.170 HD
HETATM   25  O1  UNL     1      15.486  34.571  18.634  1.00  0.00    -0.273 OA
HETATM   26  N6  UNL     1      19.126  34.111  15.026  1.00  0.00    -0.303 N 
ATOM     27  H7  UNL     1      17.239  34.275  14.343  1.00  0.00     0.188 HD
ATOM     28  H6  UNL     1      19.464  33.816  14.110  1.00  0.00     0.186 HD
BRANCH  23  29
HETATM   29  C3  UNL     1      15.154  36.842  17.990  1.00  0.00     0.074 C 
HETATM   30  C4  UNL     1      14.098  36.934  19.064  1.00  0.00     0.020 C 
BRANCH  29  31
HETATM   31  C2  UNL     1      16.379  37.566  18.509  1.00  0.00     0.009 C 
HETATM   32  C1  UNL     1      16.910  38.445  17.398  1.00  0.00     0.006 C 
ENDBRANCH  29  31
ENDBRANCH  23  29
ENDBRANCH  16  17
ENDBRANCH  15  16
ENDBRANCH  14  15
ENDBRANCH  13  14
ENDBRANCH   1  13
BRANCH   4  33
HETATM   33  C16 UNL     1      23.954  27.958  12.449  1.00  0.00     0.102 C 
BRANCH  33  34
HETATM   34  C17 UNL     1      23.932  27.112  11.208  1.00  0.00     0.174 C 
BRANCH  34  35
HETATM   35  O2  UNL     1      24.104  25.777  11.457  1.00  0.00    -0.396 OA
HETATM   36  C18 UNL     1      23.875  25.015  10.340  1.00  0.00     0.201 C 
ENDBRANCH  34  35
ENDBRANCH  33  34
ENDBRANCH   4  33
BRANCH  10  37
HETATM   37  C21 UNL     1      20.502  26.117   9.564  1.00  0.00     0.227 C 
BRANCH  37  38
HETATM   38  N5  UNL     1      19.567  26.725   8.657  1.00  0.00    -0.328 N 
HETATM   39  C22 UNL     1      18.834  25.927   7.756  1.00  0.00     0.361 C 
HETATM   40  O4  UNL     1      18.982  24.699   7.741  1.00  0.00    -0.238 OA
ATOM     41  H5  UNL     1      19.433  27.737   8.665  1.00  0.00     0.165 HD
BRANCH  39  42
HETATM   42  O5  UNL     1      17.919  26.445   6.847  1.00  0.00    -0.294 OA
BRANCH  42  43
HETATM   43  C23 UNL     1      18.208  26.863   5.562  1.00  0.00     0.061 C 
HETATM   44  C24 UNL     1      18.024  28.384   5.516  1.00  0.00     0.046 C 
HETATM   45  C25 UNL     1      19.610  26.585   5.099  1.00  0.00     0.046 C 
HETATM   46  C26 UNL     1      17.260  26.303   4.510  1.00  0.00     0.046 C 
ENDBRANCH  42  43
ENDBRANCH  39  42
ENDBRANCH  37  38
ENDBRANCH  10  37
TORSDOF 14
ENDMDL
MODEL 4
REMARK VINA RESULT: -8.579717942      2.200      3.075
REMARK  14 active torsions:
REMARK  status: ('A' for Active; 'I' for Inactive)
REMARK    1  A    between atoms: C2_2  and  C3_3 
REMARK    2  A    between atoms: C3_3  and  C5_5 
REMARK       I    between atoms: C5_5  and  N1_7 
REMARK    3  A    between atoms: C9_12  and  C10_13 
REMARK    4  A    between atoms: C10_13  and  C11_14 
REMARK    5  A    between atoms: C11_14  and  C12_15 
REMARK    6  A    between atoms: C12_15  and  C13_16 
REMARK    7  A    between atoms: C13_16  and  C14_17 
REMARK    8  A    between atoms: C15_20  and  C16_21 
REMARK    9  A    between atoms: C16_21  and  C17_22 
REMARK   10  A    between atoms: C17_22  and  O2_23 
REMARK       I    between atoms: N4_28  and  C20_30 
REMARK   11  A    between atoms: C20_30  and  C21_32 
REMARK   12  A    between atoms: C21_32  and  N5_33 
REMARK       I    between atoms: N5_33  and  C22_35 
REMARK   13  A    between atoms: C22_35  and  O5_37 
REMARK   14  A    between atoms: O5_37  and  C23_38 
ROOT
HETATM    1  C14 UNL     1      21.822  31.374  14.894  1.00  0.00     0.055 A 
HETATM    2  N2  UNL     1      22.269  30.621  13.878  1.00  0.00    -0.343 N 
ATOM      3  H2  UNL     1      23.222  30.795  13.560  1.00  0.00     0.167 HD
HETATM    4  C15 UNL     1      21.591  29.674  13.248  1.00  0.00     0.085 A 
HETATM    5  N3  UNL     1      20.335  29.282  13.498  1.00  0.00    -0.326 N 
ATOM      6  H3  UNL     1      19.966  28.533  12.913  1.00  0.00     0.169 HD
HETATM    7  C19 UNL     1      19.519  29.767  14.426  1.00  0.00     0.154 A 
HETATM    8  N4  UNL     1      18.312  29.363  14.633  1.00  0.00    -0.306 N 
ATOM      9  H4  UNL     1      17.734  29.777  15.364  1.00  0.00     0.171 HD
HETATM   10  C20 UNL     1      17.818  28.325  13.812  1.00  0.00     0.241 C 
HETATM   11  O3  UNL     1      17.666  27.189  14.288  1.00  0.00    -0.271 OA
HETATM   12  S1  UNL     1      20.225  31.028  15.366  1.00  0.00    -0.041 SA
ENDROOT
BRANCH   1  13
HETATM   13  C13 UNL     1      22.684  32.408  15.514  1.00  0.00     0.065 C 
BRANCH  13  14
HETATM   14  C12 UNL     1      22.378  32.410  16.988  1.00  0.00     0.007 C 
BRANCH  14  15
HETATM   15  C11 UNL     1      22.380  33.760  17.618  1.00  0.00     0.006 C 
BRANCH  15  16
HETATM   16  C10 UNL     1      21.779  34.851  16.805  1.00  0.00     0.058 C 
BRANCH  16  17
HETATM   17  C9  UNL     1      20.323  34.966  16.864  1.00  0.00     0.026 A 
HETATM   18  C8  UNL     1      19.663  35.372  18.032  1.00  0.00     0.030 A 
HETATM   19  C7  UNL     1      18.288  35.446  17.965  1.00  0.00     0.052 A 
HETATM   20  C6  UNL     1      17.550  35.149  16.838  1.00  0.00     0.122 A 
HETATM   21  N1  UNL     1      16.261  35.221  16.787  1.00  0.00    -0.312 N 
HETATM   22  N7  UNL     1      18.275  34.764  15.755  1.00  0.00    -0.285 N 
HETATM   23  C5  UNL     1      15.577  35.632  17.962  1.00  0.00     0.227 C 
ATOM     24  H1  UNL     1      15.753  34.992  15.933  1.00  0.00     0.170 HD
HETATM   25  O1  UNL     1      15.510  34.814  18.929  1.00  0.00    -0.273 OA
HETATM   26  N6  UNL     1      19.582  34.684  15.786  1.00  0.00    -0.303 N 
ATOM     27  H7  UNL     1      17.786  34.531  14.890  1.00  0.00     0.188 HD
ATOM     28  H6  UNL     1      20.064  34.389  14.938  1.00  0.00     0.186 HD
BRANCH  23  29
HETATM   29  C3  UNL     1      14.945  36.972  18.086  1.00  0.00     0.074 C 
HETATM   30  C4  UNL     1      13.714  36.952  18.959  1.00  0.00     0.020 C 
BRANCH  29  31
HETATM   31  C2  UNL     1      15.955  37.873  18.764  1.00  0.00     0.009 C 
HETATM   32  C1  UNL     1      16.563  38.773  17.711  1.00  0.00     0.006 C 
ENDBRANCH  29  31
ENDBRANCH  23  29
ENDBRANCH  16  17
ENDBRANCH  15  16
ENDBRANCH  14  15
ENDBRANCH  13  14
ENDBRANCH   1  13
BRANCH   4  33
HETATM   33  C16 UNL     1      22.333  28.963  12.126  1.00  0.00     0.102 C 
BRANCH  33  34
HETATM   34  C17 UNL     1      22.124  27.500  12.394  1.00  0.00     0.174 C 
BRANCH  34  35
HETATM   35  O2  UNL     1      21.119  26.948  11.646  1.00  0.00    -0.396 OA
HETATM   36  C18 UNL     1      21.406  25.659  11.276  1.00  0.00     0.201 C 
ENDBRANCH  34  35
ENDBRANCH  33  34
ENDBRANCH   4  33
BRANCH  10  37
HETATM   37  C21 UNL     1      17.493  28.609  12.406  1.00  0.00     0.227 C 
BRANCH  37  38
HETATM   38  N5  UNL     1      18.367  27.962  11.465  1.00  0.00    -0.328 N 
HETATM   39  C22 UNL     1      18.253  28.239  10.088  1.00  0.00     0.361 C 
HETATM   40  O4  UNL     1      17.408  29.044   9.677  1.00  0.00    -0.238 OA
ATOM     41  H5  UNL     1      19.070  27.300  11.794  1.00  0.00     0.165 HD
BRANCH  39  42
HETATM   42  O5  UNL     1      19.057  27.647   9.122  1.00  0.00    -0.294 OA
BRANCH  42  43
HETATM   43  C23 UNL     1      18.665  26.652   8.247  1.00  0.00     0.061 C 
HETATM   44  C24 UNL     1      18.284  27.323   6.922  1.00  0.00     0.046 C 
HETATM   45  C25 UNL     1      19.721  25.633   7.924  1.00  0.00     0.046 C 
HETATM   46  C26 UNL     1      17.422  25.897   8.697  1.00  0.00     0.046 C 
ENDBRANCH  42  43
ENDBRANCH  39  42
ENDBRANCH  37  38
ENDBRANCH  10  37
TORSDOF 14
ENDMDL
MODEL 5
REMARK VINA RESULT: -8.561866824      5.027     11.093
REMARK  14 active torsions:
REMARK  status: ('A' for Active; 'I' for Inactive)
REMARK    1  A    between atoms: C2_2  and  C3_3 
REMARK    2  A    between atoms: C3_3  and  C5_5 
REMARK       I    between atoms: C5_5  and  N1_7 
REMARK    3  A    between atoms: C9_12  and  C10_13 
REMARK    4  A    between atoms: C10_13  and  C11_14 
REMARK    5  A    between atoms: C11_14  and  C12_15 
REMARK    6  A    between atoms: C12_15  and  C13_16 
REMARK    7  A    between atoms: C13_16  and  C14_17 
REMARK    8  A    between atoms: C15_20  and  C16_21 
REMARK    9  A    between atoms: C16_21  and  C17_22 
REMARK   10  A    between atoms: C17_22  and  O2_23 
REMARK       I    between atoms: N4_28  and  C20_30 
REMARK   11  A    between atoms: C20_30  and  C21_32 
REMARK   12  A    between atoms: C21_32  and  N5_33 
REMARK       I    between atoms: N5_33  and  C22_35 
REMARK   13  A    between atoms: C22_35  and  O5_37 
REMARK   14  A    between atoms: O5_37  and  C23_38 
ROOT
HETATM    1  C14 UNL     1      16.899  31.557  15.364  1.00  0.00     0.055 A 
HETATM    2  N2  UNL     1      15.767  32.166  15.748  1.00  0.00    -0.343 N 
ATOM      3  H2  UNL     1      14.896  31.807  15.360  1.00  0.00     0.167 HD
HETATM    4  C15 UNL     1      15.673  33.188  16.584  1.00  0.00     0.085 A 
HETATM    5  N3  UNL     1      16.681  33.814  17.206  1.00  0.00    -0.326 N 
ATOM      6  H3  UNL     1      16.429  34.588  17.820  1.00  0.00     0.169 HD
HETATM    7  C19 UNL     1      17.975  33.532  17.107  1.00  0.00     0.154 A 
HETATM    8  N4  UNL     1      18.917  34.163  17.723  1.00  0.00    -0.306 N 
ATOM      9  H4  UNL     1      19.895  33.898  17.605  1.00  0.00     0.171 HD
HETATM   10  C20 UNL     1      18.547  35.233  18.568  1.00  0.00     0.241 C 
HETATM   11  O3  UNL     1      18.622  35.093  19.799  1.00  0.00    -0.271 OA
HETATM   12  S1  UNL     1      18.310  32.213  16.050  1.00  0.00    -0.041 SA
ENDROOT
BRANCH   1  13
HETATM   13  C13 UNL     1      16.868  30.418  14.415  1.00  0.00     0.065 C 
BRANCH  13  14
HETATM   14  C12 UNL     1      17.506  30.893  13.137  1.00  0.00     0.007 C 
BRANCH  14  15
HETATM   15  C11 UNL     1      17.866  29.804  12.184  1.00  0.00     0.006 C 
BRANCH  15  16
HETATM   16  C10 UNL     1      19.320  29.627  11.928  1.00  0.00     0.058 C 
BRANCH  16  17
HETATM   17  C9  UNL     1      20.221  30.254  12.894  1.00  0.00     0.026 A 
HETATM   18  C8  UNL     1      20.738  31.540  12.692  1.00  0.00     0.030 A 
HETATM   19  C7  UNL     1      21.574  32.026  13.674  1.00  0.00     0.052 A 
HETATM   20  C6  UNL     1      21.917  31.330  14.815  1.00  0.00     0.122 A 
HETATM   21  N1  UNL     1      22.702  31.797  15.728  1.00  0.00    -0.312 N 
HETATM   22  N7  UNL     1      21.368  30.093  14.925  1.00  0.00    -0.285 N 
HETATM   23  C5  UNL     1      23.235  33.099  15.539  1.00  0.00     0.227 C 
ATOM     24  H1  UNL     1      22.931  31.249  16.557  1.00  0.00     0.170 HD
HETATM   25  O1  UNL     1      24.138  33.252  14.661  1.00  0.00    -0.273 OA
HETATM   26  N6  UNL     1      20.570  29.602  14.009  1.00  0.00    -0.303 N 
ATOM     27  H7  UNL     1      21.585  29.528  15.747  1.00  0.00     0.188 HD
ATOM     28  H6  UNL     1      20.193  28.666  14.155  1.00  0.00     0.186 HD
BRANCH  23  29
HETATM   29  C3  UNL     1      22.772  34.270  16.329  1.00  0.00     0.074 C 
HETATM   30  C4  UNL     1      21.505  34.876  15.777  1.00  0.00     0.020 C 
BRANCH  29  31
HETATM   31  C2  UNL     1      22.452  33.765  17.720  1.00  0.00     0.009 C 
HETATM   32  C1  UNL     1      22.117  34.957  18.587  1.00  0.00     0.006 C 
ENDBRANCH  29  31
ENDBRANCH  23  29
ENDBRANCH  16  17
ENDBRANCH  15  16
ENDBRANCH  14  15
ENDBRANCH  13  14
ENDBRANCH   1  13
BRANCH   4  33
HETATM   33  C16 UNL     1      14.265  33.693  16.858  1.00  0.00     0.102 C 
BRANCH  33  34
HETATM   34  C17 UNL     1      14.448  35.109  17.323  1.00  0.00     0.174 C 
BRANCH  34  35
HETATM   35  O2  UNL     1      14.652  35.217  18.672  1.00  0.00    -0.396 OA
HETATM   36  C18 UNL     1      14.515  36.510  19.108  1.00  0.00     0.201 C 
ENDBRANCH  34  35
ENDBRANCH  33  34
ENDBRANCH   4  33
BRANCH  10  37
HETATM   37  C21 UNL     1      18.078  36.493  17.974  1.00  0.00     0.227 C 
BRANCH  37  38
HETATM   38  N5  UNL     1      19.090  37.202  17.238  1.00  0.00    -0.328 N 
HETATM   39  C22 UNL     1      19.917  38.137  17.894  1.00  0.00     0.361 C 
HETATM   40  O4  UNL     1      19.784  38.352  19.105  1.00  0.00    -0.238 OA
ATOM     41  H5  UNL     1      19.211  37.028  16.240  1.00  0.00     0.165 HD
BRANCH  39  42
HETATM   42  O5  UNL     1      20.909  38.863  17.247  1.00  0.00    -0.294 OA
BRANCH  42  43
HETATM   43  C23 UNL     1      20.722  40.039  16.547  1.00  0.00     0.061 C 
HETATM   44  C24 UNL     1      21.465  41.150  17.298  1.00  0.00     0.046 C 
HETATM   45  C25 UNL     1      21.254  40.039  15.142  1.00  0.00     0.046 C 
HETATM   46  C26 UNL     1      19.267  40.488  16.485  1.00  0.00     0.046 C 
ENDBRANCH  42  43
ENDBRANCH  39  42
ENDBRANCH  37  38
ENDBRANCH  10  37
TORSDOF 14
ENDMDL
