MODEL 1
REMARK VINA RESULT: -7.918616330      0.000      0.000
REMARK  13 active torsions:
REMARK  status: ('A' for Active; 'I' for Inactive)
REMARK    1  A    between atoms: O1_2  and  C2_3 
REMARK    2  A    between atoms: C2_3  and  C3_4 
REMARK       I    between atoms: C3_4  and  N1_6 
REMARK    3  A    between atoms: N1_6  and  C4_8 
REMARK    4  A    between atoms: C12_16  and  C13_17 
REMARK       I    between atoms: C13_17  and  N2_19 
REMARK    5  A    between atoms: C14_21  and  C15_22 
REMARK    6  A    between atoms: C14_21  and  C23_38 
REMARK       I    between atoms: C15_22  and  N3_24 
REMARK    7  A    between atoms: N3_24  and  C16_26 
REMARK    8  A    between atoms: C16_26  and  C17_27 
REMARK    9  A    between atoms: C16_26  and  C19_31 
REMARK   10  A    between atoms: C17_27  and  C18_28 
REMARK   11  A    between atoms: C19_31  and  C20_33 
REMARK   12  A    between atoms: C20_33  and  S1_34 
REMARK   13  A    between atoms: S1_34  and  C21_35 
ROOT
HETATM    1  C13 UNL     1      18.677  32.676  16.077  1.00  0.00     0.228 C 
HETATM    2  O3  UNL     1      17.811  31.780  15.835  1.00  0.00    -0.273 OA
HETATM    3  N2  UNL     1      19.991  32.564  15.743  1.00  0.00    -0.325 N 
ATOM      4  H2  UNL     1      20.563  32.925  16.506  1.00  0.00     0.169 HD
HETATM    5  C14 UNL     1      20.739  32.168  14.819  1.00  0.00     0.087 C 
ENDROOT
BRANCH   5   6
HETATM    6  C15 UNL     1      20.217  31.598  13.594  1.00  0.00     0.265 C 
HETATM    7  O4  UNL     1      20.152  32.290  12.516  1.00  0.00    -0.266 OA
HETATM    8  N3  UNL     1      19.733  30.271  13.438  1.00  0.00    -0.344 N 
ATOM      9  H3  UNL     1      19.754  29.641  14.240  1.00  0.00     0.163 HD
BRANCH   8  10
HETATM   10  C16 UNL     1      19.203  29.776  12.159  1.00  0.00     0.165 C 
BRANCH  10  11
HETATM   11  C17 UNL     1      17.870  29.150  12.305  1.00  0.00     0.146 C 
BRANCH  11  12
HETATM   12  C18 UNL     1      17.822  27.913  13.107  1.00  0.00     0.174 C 
HETATM   13  O5  UNL     1      17.975  27.869  14.335  1.00  0.00    -0.648 OA
HETATM   14  O6  UNL     1      17.585  26.677  12.452  1.00  0.00    -0.648 OA
ENDBRANCH  11  12
ENDBRANCH  10  11
BRANCH  10  15
HETATM   15  C19 UNL     1      20.148  28.791  11.563  1.00  0.00     0.159 C 
HETATM   16  O7  UNL     1      19.899  28.340  10.466  1.00  0.00    -0.295 OA
BRANCH  15  17
HETATM   17  C20 UNL     1      21.349  28.377  12.286  1.00  0.00     0.162 C 
BRANCH  17  18
HETATM   18  S1  UNL     1      21.980  26.752  11.838  1.00  0.00    -0.086 SA
BRANCH  18  19
HETATM   19  C21 UNL     1      23.744  26.858  11.494  1.00  0.00     0.182 C 
HETATM   20  C22 UNL     1      24.248  28.027  10.687  1.00  0.00     0.104 C 
HETATM   21  O8  UNL     1      24.536  26.031  11.884  1.00  0.00    -0.286 OA
ENDBRANCH  18  19
ENDBRANCH  17  18
ENDBRANCH  15  17
ENDBRANCH  10  15
ENDBRANCH   8  10
ENDBRANCH   5   6
BRANCH   5  22
HETATM   22  C23 UNL     1      22.211  32.290  15.082  1.00  0.00    -0.003 C 
HETATM   23  C24 UNL     1      22.864  31.016  14.606  1.00  0.00     0.021 C 
HETATM   24  C25 UNL     1      22.854  33.458  14.425  1.00  0.00     0.021 C 
HETATM   25  C26 UNL     1      22.393  32.455  16.585  1.00  0.00     0.021 C 
ENDBRANCH   5  22
BRANCH   1  26
HETATM   26  C12 UNL     1      18.114  33.907  16.788  1.00  0.00     0.101 C 
HETATM   27  C4  UNL     1      19.079  34.330  17.815  1.00  0.00     0.097 C 
HETATM   28  C5  UNL     1      18.497  34.871  19.102  1.00  0.00     0.026 C 
HETATM   29  C6  UNL     1      17.194  35.624  18.928  1.00  0.00     0.002 C 
HETATM   30  C7  UNL     1      17.409  37.024  18.480  1.00  0.00     0.000 C 
HETATM   31  C8  UNL     1      16.956  37.372  17.104  1.00  0.00     0.000 C 
HETATM   32  C9  UNL     1      15.872  36.523  16.552  1.00  0.00     0.000 C 
HETATM   33  C10 UNL     1      16.243  35.307  15.808  1.00  0.00     0.001 C 
HETATM   34  C11 UNL     1      17.688  34.925  15.773  1.00  0.00     0.016 C 
BRANCH  27  35
HETATM   35  N1  UNL     1      20.145  35.206  17.431  1.00  0.00    -0.354 N 
HETATM   36  C3  UNL     1      21.335  35.477  18.123  1.00  0.00     0.241 C 
HETATM   37  O2  UNL     1      21.555  34.934  19.220  1.00  0.00    -0.271 OA
ATOM     38  H1  UNL     1      20.024  35.693  16.544  1.00  0.00     0.162 HD
BRANCH  36  39
HETATM   39  C2  UNL     1      22.338  36.400  17.572  1.00  0.00     0.269 C 
BRANCH  39  40
HETATM   40  O1  UNL     1      22.899  37.226  18.544  1.00  0.00    -0.387 OA
HETATM   41  C1  UNL     1      22.476  38.543  18.396  1.00  0.00     0.202 C 
ENDBRANCH  39  40
ENDBRANCH  36  39
ENDBRANCH  27  35
ENDBRANCH   1  26
TORSDOF 13
ENDMDL
MODEL 2
REMARK VINA RESULT: -7.786303679      1.382      1.592
REMARK  13 active torsions:
REMARK  status: ('A' for Active; 'I' for Inactive)
REMARK    1  A    between atoms: O1_2  and  C2_3 
REMARK    2  A    between atoms: C2_3  and  C3_4 
REMARK       I    between atoms: C3_4  and  N1_6 
REMARK    3  A    between atoms: N1_6  and  C4_8 
REMARK    4  A    between atoms: C12_16  and  C13_17 
REMARK       I    between atoms: C13_17  and  N2_19 
REMARK    5  A    between atoms: C14_21  and  C15_22 
REMARK    6  A    between atoms: C14_21  and  C23_38 
REMARK       I    between atoms: C15_22  and  N3_24 
REMARK    7  A    between atoms: N3_24  and  C16_26 
REMARK    8  A    between atoms: C16_26  and  C17_27 
REMARK    9  A    between atoms: C16_26  and  C19_31 
REMARK   10  A    between atoms: C17_27  and  C18_28 
REMARK   11  A    between atoms: C19_31  and  C20_33 
REMARK   12  A    between atoms: C20_33  and  S1_34 
REMARK   13  A    between atoms: S1_34  and  C21_35 
ROOT
HETATM    1  C13 UNL     1      18.770  32.524  16.491  1.00  0.00     0.228 C 
HETATM    2  O3  UNL     1      18.124  31.455  16.264  1.00  0.00    -0.273 OA
HETATM    3  N2  UNL     1      20.101  32.667  16.248  1.00  0.00    -0.325 N 
ATOM      4  H2  UNL     1      20.528  33.185  17.016  1.00  0.00     0.169 HD
HETATM    5  C14 UNL     1      20.981  32.381  15.404  1.00  0.00     0.087 C 
ENDROOT
BRANCH   5   6
HETATM    6  C15 UNL     1      20.679  31.641  14.195  1.00  0.00     0.265 C 
HETATM    7  O4  UNL     1      20.667  32.219  13.051  1.00  0.00    -0.266 OA
HETATM    8  N3  UNL     1      20.372  30.255  14.126  1.00  0.00    -0.344 N 
ATOM      9  H3  UNL     1      20.368  29.708  14.986  1.00  0.00     0.163 HD
BRANCH   8  10
HETATM   10  C16 UNL     1      20.061  29.585  12.855  1.00  0.00     0.165 C 
BRANCH  10  11
HETATM   11  C17 UNL     1      18.716  28.967  12.857  1.00  0.00     0.146 C 
BRANCH  11  12
HETATM   12  C18 UNL     1      17.588  29.875  12.578  1.00  0.00     0.174 C 
HETATM   13  O5  UNL     1      17.352  30.913  13.211  1.00  0.00    -0.648 OA
HETATM   14  O6  UNL     1      16.697  29.561  11.519  1.00  0.00    -0.648 OA
ENDBRANCH  11  12
ENDBRANCH  10  11
BRANCH  10  15
HETATM   15  C19 UNL     1      21.082  28.540  12.567  1.00  0.00     0.159 C 
HETATM   16  O7  UNL     1      21.873  28.246  13.437  1.00  0.00    -0.295 OA
BRANCH  15  17
HETATM   17  C20 UNL     1      21.130  27.881  11.262  1.00  0.00     0.162 C 
BRANCH  17  18
HETATM   18  S1  UNL     1      21.929  26.269  11.257  1.00  0.00    -0.086 SA
BRANCH  18  19
HETATM   19  C21 UNL     1      23.717  26.477  11.226  1.00  0.00     0.182 C 
HETATM   20  C22 UNL     1      24.277  27.795  10.757  1.00  0.00     0.104 C 
HETATM   21  O8  UNL     1      24.481  25.603  11.565  1.00  0.00    -0.286 OA
ENDBRANCH  18  19
ENDBRANCH  17  18
ENDBRANCH  15  17
ENDBRANCH  10  15
ENDBRANCH   8  10
ENDBRANCH   5   6
BRANCH   5  22
HETATM   22  C23 UNL     1      22.373  32.821  15.746  1.00  0.00    -0.003 C 
HETATM   23  C24 UNL     1      22.510  32.765  17.248  1.00  0.00     0.021 C 
HETATM   24  C25 UNL     1      23.444  32.008  15.115  1.00  0.00     0.021 C 
HETATM   25  C26 UNL     1      22.533  34.252  15.248  1.00  0.00     0.021 C 
ENDBRANCH   5  22
BRANCH   1  26
HETATM   26  C12 UNL     1      17.916  33.651  17.073  1.00  0.00     0.101 C 
HETATM   27  C4  UNL     1      18.795  34.551  17.836  1.00  0.00     0.097 C 
HETATM   28  C5  UNL     1      18.211  35.152  19.095  1.00  0.00     0.026 C 
HETATM   29  C6  UNL     1      16.723  35.428  19.021  1.00  0.00     0.002 C 
HETATM   30  C7  UNL     1      16.420  36.699  18.317  1.00  0.00     0.000 C 
HETATM   31  C8  UNL     1      15.733  36.597  16.999  1.00  0.00     0.000 C 
HETATM   32  C9  UNL     1      14.932  35.367  16.787  1.00  0.00     0.000 C 
HETATM   33  C10 UNL     1      15.597  34.188  16.204  1.00  0.00     0.001 C 
HETATM   34  C11 UNL     1      17.075  34.257  15.989  1.00  0.00     0.016 C 
BRANCH  27  35
HETATM   35  N1  UNL     1      19.470  35.603  17.138  1.00  0.00    -0.354 N 
HETATM   36  C3  UNL     1      20.622  36.302  17.528  1.00  0.00     0.241 C 
HETATM   37  O2  UNL     1      21.176  36.035  18.609  1.00  0.00    -0.271 OA
ATOM     38  H1  UNL     1      19.061  35.879  16.246  1.00  0.00     0.162 HD
BRANCH  36  39
HETATM   39  C2  UNL     1      21.196  37.353  16.674  1.00  0.00     0.269 C 
BRANCH  39  40
HETATM   40  O1  UNL     1      21.268  38.586  17.318  1.00  0.00    -0.387 OA
HETATM   41  C1  UNL     1      20.049  39.256  17.268  1.00  0.00     0.202 C 
ENDBRANCH  39  40
ENDBRANCH  36  39
ENDBRANCH  27  35
ENDBRANCH   1  26
TORSDOF 13
ENDMDL
MODEL 3
REMARK VINA RESULT: -7.783274223      3.250      5.997
REMARK  13 active torsions:
REMARK  status: ('A' for Active; 'I' for Inactive)
REMARK    1  A    between atoms: O1_2  and  C2_3 
REMARK    2  A    between atoms: C2_3  and  C3_4 
REMARK       I    between atoms: C3_4  and  N1_6 
REMARK    3  A    between atoms: N1_6  and  C4_8 
REMARK    4  A    between atoms: C12_16  and  C13_17 
REMARK       I    between atoms: C13_17  and  N2_19 
REMARK    5  A    between atoms: C14_21  and  C15_22 
REMARK    6  A    between atoms: C14_21  and  C23_38 
REMARK       I    between atoms: C15_22  and  N3_24 
REMARK    7  A    between atoms: N3_24  and  C16_26 
REMARK    8  A    between atoms: C16_26  and  C17_27 
REMARK    9  A    between atoms: C16_26  and  C19_31 
REMARK   10  A    between atoms: C17_27  and  C18_28 
REMARK   11  A    between atoms: C19_31  and  C20_33 
REMARK   12  A    between atoms: C20_33  and  S1_34 
REMARK   13  A    between atoms: S1_34  and  C21_35 
ROOT
HETATM    1  C13 UNL     1      19.889  29.697  12.511  1.00  0.00     0.228 C 
HETATM    2  O3  UNL     1      21.147  29.848  12.423  1.00  0.00    -0.273 OA
HETATM    3  N2  UNL     1      19.144  29.033  11.586  1.00  0.00    -0.325 N 
ATOM      4  H2  UNL     1      18.273  29.542  11.429  1.00  0.00     0.169 HD
HETATM    5  C14 UNL     1      19.160  28.012  10.861  1.00  0.00     0.087 C 
ENDROOT
BRANCH   5   6
HETATM    6  C15 UNL     1      20.273  27.085  10.859  1.00  0.00     0.265 C 
HETATM    7  O4  UNL     1      20.645  26.494  11.935  1.00  0.00    -0.266 OA
HETATM    8  N3  UNL     1      21.056  26.731   9.727  1.00  0.00    -0.344 N 
ATOM      9  H3  UNL     1      20.829  27.143   8.822  1.00  0.00     0.163 HD
BRANCH   8  10
HETATM   10  C16 UNL     1      22.182  25.790   9.817  1.00  0.00     0.165 C 
BRANCH  10  11
HETATM   11  C17 UNL     1      23.489  26.481   9.900  1.00  0.00     0.146 C 
BRANCH  11  12
HETATM   12  C18 UNL     1      24.051  26.638  11.254  1.00  0.00     0.174 C 
HETATM   13  O5  UNL     1      24.709  25.771  11.844  1.00  0.00    -0.648 OA
HETATM   14  O6  UNL     1      23.839  27.857  11.950  1.00  0.00    -0.648 OA
ENDBRANCH  11  12
ENDBRANCH  10  11
BRANCH  10  15
HETATM   15  C19 UNL     1      22.180  24.880   8.639  1.00  0.00     0.159 C 
HETATM   16  O7  UNL     1      21.120  24.599   8.124  1.00  0.00    -0.295 OA
BRANCH  15  17
HETATM   17  C20 UNL     1      23.432  24.336   8.113  1.00  0.00     0.162 C 
BRANCH  17  18
HETATM   18  S1  UNL     1      23.318  23.634   6.460  1.00  0.00    -0.086 SA
BRANCH  18  19
HETATM   19  C21 UNL     1      23.275  24.957   5.240  1.00  0.00     0.182 C 
HETATM   20  C22 UNL     1      24.356  25.000   4.191  1.00  0.00     0.104 C 
HETATM   21  O8  UNL     1      22.415  25.809   5.230  1.00  0.00    -0.286 OA
ENDBRANCH  18  19
ENDBRANCH  17  18
ENDBRANCH  15  17
ENDBRANCH  10  15
ENDBRANCH   8  10
ENDBRANCH   5   6
BRANCH   5  22
HETATM   22  C23 UNL     1      17.968  27.834   9.968  1.00  0.00    -0.003 C 
HETATM   23  C24 UNL     1      16.929  28.843  10.392  1.00  0.00     0.021 C 
HETATM   24  C25 UNL     1      18.260  27.995   8.520  1.00  0.00     0.021 C 
HETATM   25  C26 UNL     1      17.453  26.416  10.175  1.00  0.00     0.021 C 
ENDBRANCH   5  22
BRANCH   1  26
HETATM   26  C12 UNL     1      19.273  30.335  13.756  1.00  0.00     0.101 C 
HETATM   27  C4  UNL     1      20.348  30.584  14.729  1.00  0.00     0.097 C 
HETATM   28  C5  UNL     1      19.994  30.391  16.187  1.00  0.00     0.026 C 
HETATM   29  C6  UNL     1      18.561  30.743  16.531  1.00  0.00     0.002 C 
HETATM   30  C7  UNL     1      18.370  32.204  16.717  1.00  0.00     0.000 C 
HETATM   31  C8  UNL     1      17.539  32.914  15.704  1.00  0.00     0.000 C 
HETATM   32  C9  UNL     1      16.552  32.074  14.983  1.00  0.00     0.000 C 
HETATM   33  C10 UNL     1      16.975  31.404  13.740  1.00  0.00     0.001 C 
HETATM   34  C11 UNL     1      18.416  31.499  13.353  1.00  0.00     0.016 C 
BRANCH  27  35
HETATM   35  N1  UNL     1      21.088  31.807  14.632  1.00  0.00    -0.354 N 
HETATM   36  C3  UNL     1      22.476  31.988  14.721  1.00  0.00     0.241 C 
HETATM   37  O2  UNL     1      23.220  31.012  14.920  1.00  0.00    -0.271 OA
ATOM     38  H1  UNL     1      20.537  32.650  14.478  1.00  0.00     0.162 HD
BRANCH  36  39
HETATM   39  C2  UNL     1      23.076  33.324  14.582  1.00  0.00     0.269 C 
BRANCH  39  40
HETATM   40  O1  UNL     1      23.616  33.796  15.776  1.00  0.00    -0.387 OA
HETATM   41  C1  UNL     1      22.630  33.975  16.742  1.00  0.00     0.202 C 
ENDBRANCH  39  40
ENDBRANCH  36  39
ENDBRANCH  27  35
ENDBRANCH   1  26
TORSDOF 13
ENDMDL
MODEL 4
REMARK VINA RESULT: -7.641067351      3.315      6.196
REMARK  13 active torsions:
REMARK  status: ('A' for Active; 'I' for Inactive)
REMARK    1  A    between atoms: O1_2  and  C2_3 
REMARK    2  A    between atoms: C2_3  and  C3_4 
REMARK       I    between atoms: C3_4  and  N1_6 
REMARK    3  A    between atoms: N1_6  and  C4_8 
REMARK    4  A    between atoms: C12_16  and  C13_17 
REMARK       I    between atoms: C13_17  and  N2_19 
REMARK    5  A    between atoms: C14_21  and  C15_22 
REMARK    6  A    between atoms: C14_21  and  C23_38 
REMARK       I    between atoms: C15_22  and  N3_24 
REMARK    7  A    between atoms: N3_24  and  C16_26 
REMARK    8  A    between atoms: C16_26  and  C17_27 
REMARK    9  A    between atoms: C16_26  and  C19_31 
REMARK   10  A    between atoms: C17_27  and  C18_28 
REMARK   11  A    between atoms: C19_31  and  C20_33 
REMARK   12  A    between atoms: C20_33  and  S1_34 
REMARK   13  A    between atoms: S1_34  and  C21_35 
ROOT
HETATM    1  C13 UNL     1      20.021  29.287  12.470  1.00  0.00     0.228 C 
HETATM    2  O3  UNL     1      21.291  29.291  12.501  1.00  0.00    -0.273 OA
HETATM    3  N2  UNL     1      19.294  28.723  11.468  1.00  0.00    -0.325 N 
ATOM      4  H2  UNL     1      18.506  29.330  11.243  1.00  0.00     0.169 HD
HETATM    5  C14 UNL     1      19.260  27.713  10.729  1.00  0.00     0.087 C 
ENDROOT
BRANCH   5   6
HETATM    6  C15 UNL     1      20.254  26.662  10.811  1.00  0.00     0.265 C 
HETATM    7  O4  UNL     1      20.021  25.578  11.455  1.00  0.00    -0.266 OA
HETATM    8  N3  UNL     1      21.547  26.696  10.222  1.00  0.00    -0.344 N 
ATOM      9  H3  UNL     1      21.820  27.516   9.680  1.00  0.00     0.163 HD
BRANCH   8  10
HETATM   10  C16 UNL     1      22.503  25.590  10.369  1.00  0.00     0.165 C 
BRANCH  10  11
HETATM   11  C17 UNL     1      23.810  26.040  10.901  1.00  0.00     0.146 C 
BRANCH  11  12
HETATM   12  C18 UNL     1      23.988  27.498  11.026  1.00  0.00     0.174 C 
HETATM   13  O5  UNL     1      23.906  28.297  10.084  1.00  0.00    -0.648 OA
HETATM   14  O6  UNL     1      24.275  28.049  12.302  1.00  0.00    -0.648 OA
ENDBRANCH  11  12
ENDBRANCH  10  11
BRANCH  10  15
HETATM   15  C19 UNL     1      22.712  24.919   9.056  1.00  0.00     0.159 C 
HETATM   16  O7  UNL     1      23.760  24.344   8.858  1.00  0.00    -0.295 OA
BRANCH  15  17
HETATM   17  C20 UNL     1      21.674  24.952   8.027  1.00  0.00     0.162 C 
BRANCH  17  18
HETATM   18  S1  UNL     1      22.160  24.261   6.438  1.00  0.00    -0.086 SA
BRANCH  18  19
HETATM   19  C21 UNL     1      21.938  25.494   5.145  1.00  0.00     0.182 C 
HETATM   20  C22 UNL     1      20.567  26.091   4.951  1.00  0.00     0.104 C 
HETATM   21  O8  UNL     1      22.842  25.861   4.430  1.00  0.00    -0.286 OA
ENDBRANCH  18  19
ENDBRANCH  17  18
ENDBRANCH  15  17
ENDBRANCH  10  15
ENDBRANCH   8  10
ENDBRANCH   5   6
BRANCH   5  22
HETATM   22  C23 UNL     1      18.144  27.682   9.727  1.00  0.00    -0.003 C 
HETATM   23  C24 UNL     1      17.190  28.798  10.076  1.00  0.00     0.021 C 
HETATM   24  C25 UNL     1      18.585  27.824   8.316  1.00  0.00     0.021 C 
HETATM   25  C26 UNL     1      17.454  26.330   9.856  1.00  0.00     0.021 C 
ENDBRANCH   5  22
BRANCH   1  26
HETATM   26  C12 UNL     1      19.370  29.982  13.666  1.00  0.00     0.101 C 
HETATM   27  C4  UNL     1      20.424  30.327  14.632  1.00  0.00     0.097 C 
HETATM   28  C5  UNL     1      20.058  30.214  16.096  1.00  0.00     0.026 C 
HETATM   29  C6  UNL     1      18.610  30.541  16.402  1.00  0.00     0.002 C 
HETATM   30  C7  UNL     1      18.371  32.003  16.493  1.00  0.00     0.000 C 
HETATM   31  C8  UNL     1      17.531  32.621  15.428  1.00  0.00     0.000 C 
HETATM   32  C9  UNL     1      16.580  31.706  14.751  1.00  0.00     0.000 C 
HETATM   33  C10 UNL     1      17.040  30.973  13.558  1.00  0.00     0.001 C 
HETATM   34  C11 UNL     1      18.482  31.090  13.181  1.00  0.00     0.016 C 
BRANCH  27  35
HETATM   35  N1  UNL     1      21.126  31.564  14.466  1.00  0.00    -0.354 N 
HETATM   36  C3  UNL     1      22.494  31.815  14.651  1.00  0.00     0.241 C 
HETATM   37  O2  UNL     1      23.251  30.899  15.016  1.00  0.00    -0.271 OA
ATOM     38  H1  UNL     1      20.561  32.361  14.177  1.00  0.00     0.162 HD
BRANCH  36  39
HETATM   39  C2  UNL     1      23.056  33.154  14.419  1.00  0.00     0.269 C 
BRANCH  39  40
HETATM   40  O1  UNL     1      23.643  33.694  15.561  1.00  0.00    -0.387 OA
HETATM   41  C1  UNL     1      22.699  33.919  16.558  1.00  0.00     0.202 C 
ENDBRANCH  39  40
ENDBRANCH  36  39
ENDBRANCH  27  35
ENDBRANCH   1  26
TORSDOF 13
ENDMDL
MODEL 5
REMARK VINA RESULT: -7.515789098      3.136      6.068
REMARK  13 active torsions:
REMARK  status: ('A' for Active; 'I' for Inactive)
REMARK    1  A    between atoms: O1_2  and  C2_3 
REMARK    2  A    between atoms: C2_3  and  C3_4 
REMARK       I    between atoms: C3_4  and  N1_6 
REMARK    3  A    between atoms: N1_6  and  C4_8 
REMARK    4  A    between atoms: C12_16  and  C13_17 
REMARK       I    between atoms: C13_17  and  N2_19 
REMARK    5  A    between atoms: C14_21  and  C15_22 
REMARK    6  A    between atoms: C14_21  and  C23_38 
REMARK       I    between atoms: C15_22  and  N3_24 
REMARK    7  A    between atoms: N3_24  and  C16_26 
REMARK    8  A    between atoms: C16_26  and  C17_27 
REMARK    9  A    between atoms: C16_26  and  C19_31 
REMARK   10  A    between atoms: C17_27  and  C18_28 
REMARK   11  A    between atoms: C19_31  and  C20_33 
REMARK   12  A    between atoms: C20_33  and  S1_34 
REMARK   13  A    between atoms: S1_34  and  C21_35 
ROOT
HETATM    1  C13 UNL     1      20.406  36.564  17.354  1.00  0.00     0.228 C 
HETATM    2  O3  UNL     1      19.269  36.587  17.920  1.00  0.00    -0.273 OA
HETATM    3  N2  UNL     1      20.980  35.433  16.863  1.00  0.00    -0.325 N 
ATOM      4  H2  UNL     1      21.975  35.437  17.087  1.00  0.00     0.169 HD
HETATM    5  C14 UNL     1      20.705  34.388  16.229  1.00  0.00     0.087 C 
ENDROOT
BRANCH   5   6
HETATM    6  C15 UNL     1      19.363  34.095  15.770  1.00  0.00     0.265 C 
HETATM    7  O4  UNL     1      19.028  34.271  14.545  1.00  0.00    -0.266 OA
HETATM    8  N3  UNL     1      18.301  33.601  16.575  1.00  0.00    -0.344 N 
ATOM      9  H3  UNL     1      18.475  33.419  17.564  1.00  0.00     0.163 HD
BRANCH   8  10
HETATM   10  C16 UNL     1      16.960  33.344  16.031  1.00  0.00     0.165 C 
BRANCH  10  11
HETATM   11  C17 UNL     1      15.886  33.843  16.919  1.00  0.00     0.146 C 
BRANCH  11  12
HETATM   12  C18 UNL     1      16.171  35.100  17.635  1.00  0.00     0.174 C 
HETATM   13  O5  UNL     1      16.359  35.182  18.856  1.00  0.00    -0.648 OA
HETATM   14  O6  UNL     1      16.240  36.311  16.899  1.00  0.00    -0.648 OA
ENDBRANCH  11  12
ENDBRANCH  10  11
BRANCH  10  15
HETATM   15  C19 UNL     1      16.773  31.884  15.804  1.00  0.00     0.159 C 
HETATM   16  O7  UNL     1      15.710  31.383  16.099  1.00  0.00    -0.295 OA
BRANCH  15  17
HETATM   17  C20 UNL     1      17.849  31.072  15.238  1.00  0.00     0.162 C 
BRANCH  17  18
HETATM   18  S1  UNL     1      17.909  31.042  13.440  1.00  0.00    -0.086 SA
BRANCH  18  19
HETATM   19  C21 UNL     1      19.608  31.260  12.885  1.00  0.00     0.182 C 
HETATM   20  C22 UNL     1      20.647  30.273  13.350  1.00  0.00     0.104 C 
HETATM   21  O8  UNL     1      19.945  32.164  12.155  1.00  0.00    -0.286 OA
ENDBRANCH  18  19
ENDBRANCH  17  18
ENDBRANCH  15  17
ENDBRANCH  10  15
ENDBRANCH   8  10
ENDBRANCH   5   6
BRANCH   5  22
HETATM   22  C23 UNL     1      21.851  33.445  16.009  1.00  0.00    -0.003 C 
HETATM   23  C24 UNL     1      21.399  32.073  16.445  1.00  0.00     0.021 C 
HETATM   24  C25 UNL     1      22.336  33.390  14.606  1.00  0.00     0.021 C 
HETATM   25  C26 UNL     1      23.009  33.927  16.873  1.00  0.00     0.021 C 
ENDBRANCH   5  22
BRANCH   1  26
HETATM   26  C12 UNL     1      21.086  37.930  17.276  1.00  0.00     0.101 C 
HETATM   27  C4  UNL     1      20.101  38.912  16.797  1.00  0.00     0.097 C 
HETATM   28  C5  UNL     1      20.624  39.997  15.881  1.00  0.00     0.026 C 
HETATM   29  C6  UNL     1      22.045  40.430  16.177  1.00  0.00     0.002 C 
HETATM   30  C7  UNL     1      22.117  41.397  17.301  1.00  0.00     0.000 C 
HETATM   31  C8  UNL     1      22.766  40.928  18.558  1.00  0.00     0.000 C 
HETATM   32  C9  UNL     1      23.746  39.826  18.401  1.00  0.00     0.000 C 
HETATM   33  C10 UNL     1      23.259  38.437  18.478  1.00  0.00     0.001 C 
HETATM   34  C11 UNL     1      21.783  38.220  18.573  1.00  0.00     0.016 C 
BRANCH  27  35
HETATM   35  N1  UNL     1      19.244  39.543  17.754  1.00  0.00    -0.354 N 
HETATM   36  C3  UNL     1      17.876  39.833  17.634  1.00  0.00     0.241 C 
HETATM   37  O2  UNL     1      17.269  39.544  16.588  1.00  0.00    -0.271 OA
ATOM     38  H1  UNL     1      19.682  39.817  18.633  1.00  0.00     0.162 HD
BRANCH  36  39
HETATM   39  C2  UNL     1      17.139  40.478  18.731  1.00  0.00     0.269 C 
BRANCH  39  40
HETATM   40  O1  UNL     1      16.868  39.604  19.781  1.00  0.00    -0.387 OA
HETATM   41  C1  UNL     1      15.760  38.808  19.505  1.00  0.00     0.202 C 
ENDBRANCH  39  40
ENDBRANCH  36  39
ENDBRANCH  27  35
ENDBRANCH   1  26
TORSDOF 13
ENDMDL
