MODEL 1
REMARK VINA RESULT: -8.581764307      0.000      0.000
REMARK  14 active torsions:
REMARK  status: ('A' for Active; 'I' for Inactive)
REMARK    1  A    between atoms: C2_2  and  N1_3 
REMARK    2  A    between atoms: N1_3  and  C3_6 
REMARK    3  A    between atoms: C3_6  and  C4_7 
REMARK    4  A    between atoms: C4_7  and  C7_10 
REMARK    5  A    between atoms: C7_10  and  C8_11 
REMARK       I    between atoms: C8_11  and  N2_13 
REMARK    6  A    between atoms: N2_13  and  C9_15 
REMARK    7  A    between atoms: C11_17  and  O2_18 
REMARK    8  A    between atoms: O2_18  and  C12_19 
REMARK    9  A    between atoms: C12_19  and  C13_20 
REMARK   10  A    between atoms: C13_20  and  O3_21 
REMARK   11  A    between atoms: C13_20  and  N3_23 
REMARK   12  A    between atoms: C22_34  and  C23_35 
REMARK   13  A    between atoms: C23_35  and  O6_37 
REMARK   14  A    between atoms: O6_37  and  C24_38 
ROOT
HETATM    1  C9  UNL     1      17.162  33.267  16.726  1.00  0.00     0.065 A 
HETATM    2  C10 UNL     1      16.002  33.722  17.312  1.00  0.00     0.068 A 
HETATM    3  C11 UNL     1      16.026  34.734  18.246  1.00  0.00     0.072 A 
HETATM    4  C19 UNL     1      17.189  35.336  18.642  1.00  0.00     0.054 A 
HETATM    5  C20 UNL     1      18.373  34.887  18.059  1.00  0.00     0.047 A 
HETATM    6  C21 UNL     1      19.537  35.514  18.469  1.00  0.00     0.202 A 
HETATM    7  O4  UNL     1      19.506  36.439  19.332  1.00  0.00    -0.286 OA
HETATM    8  C22 UNL     1      20.758  35.116  17.918  1.00  0.00     0.112 A 
HETATM    9  C27 UNL     1      20.696  34.116  16.998  1.00  0.00     0.026 A 
HETATM   10  C28 UNL     1      21.969  33.640  16.366  1.00  0.00     0.069 C 
HETATM   11  N5  UNL     1      19.552  33.525  16.620  1.00  0.00    -0.356 N 
ATOM     12  H5  UNL     1      19.591  32.781  15.923  1.00  0.00     0.166 HD
HETATM   13  C29 UNL     1      18.376  33.872  17.117  1.00  0.00     0.074 A 
ENDROOT
BRANCH   1  14
HETATM   14  N2  UNL     1      17.198  32.214  15.801  1.00  0.00    -0.325 N 
HETATM   15  C8  UNL     1      17.678  32.283  14.479  1.00  0.00     0.223 C 
HETATM   16  O1  UNL     1      18.143  33.282  13.953  1.00  0.00    -0.273 OA
ATOM     17  H2  UNL     1      16.843  31.311  16.115  1.00  0.00     0.169 HD
BRANCH  15  18
HETATM   18  C7  UNL     1      17.620  31.033  13.634  1.00  0.00     0.113 C 
BRANCH  18  19
HETATM   19  C4  UNL     1      19.000  30.429  13.466  1.00  0.00    -0.016 C 
HETATM   20  C5  UNL     1      19.845  31.230  12.504  1.00  0.00     0.017 C 
HETATM   21  C6  UNL     1      19.721  30.310  14.773  1.00  0.00     0.017 C 
BRANCH  19  22
HETATM   22  C3  UNL     1      18.797  29.038  12.858  1.00  0.00     0.241 C 
BRANCH  22  23
HETATM   23  N1  UNL     1      19.002  29.133  11.417  1.00  0.00    -0.075 N 
ATOM     24  H12 UNL     1      19.946  28.852  11.155  1.00  0.00     0.277 HD
ATOM     25  H11 UNL     1      19.035  30.105  11.110  1.00  0.00     0.277 HD
BRANCH  23  26
HETATM   26  C2  UNL     1      18.017  28.390  10.695  1.00  0.00     0.228 C 
HETATM   27  C1  UNL     1      16.719  29.177  10.646  1.00  0.00     0.034 C 
ENDBRANCH  23  26
ENDBRANCH  22  23
ENDBRANCH  19  22
ENDBRANCH  18  19
ENDBRANCH  15  18
ENDBRANCH   1  14
BRANCH   3  28
HETATM   28  O2  UNL     1      14.838  35.154  18.804  1.00  0.00    -0.343 OA
BRANCH  28  29
HETATM   29  C12 UNL     1      14.064  36.130  18.187  1.00  0.00     0.259 C 
BRANCH  29  30
HETATM   30  C13 UNL     1      14.112  37.439  18.830  1.00  0.00     0.138 C 
BRANCH  30  31
HETATM   31  O3  UNL     1      13.001  37.808  19.400  1.00  0.00    -0.348 OA
ATOM     32  H3  UNL     1      12.713  38.686  19.180  1.00  0.00     0.219 HD
ENDBRANCH  30  31
BRANCH  30  33
HETATM   33  N3  UNL     1      15.183  38.324  18.906  1.00  0.00    -0.360 N 
HETATM   34  C14 UNL     1      15.425  39.018  20.198  1.00  0.00     0.155 C 
HETATM   35  C15 UNL     1      16.028  40.337  19.851  1.00  0.00     0.291 C 
HETATM   36  N4  UNL     1      15.518  40.937  18.631  1.00  0.00     0.087 N 
HETATM   37  C16 UNL     1      16.332  42.148  18.432  1.00  0.00     0.310 C 
HETATM   38  C17 UNL     1      15.765  40.106  17.461  1.00  0.00     0.291 C 
HETATM   39  C18 UNL     1      16.130  38.689  17.895  1.00  0.00     0.155 C 
ENDBRANCH  30  33
ENDBRANCH  29  30
ENDBRANCH  28  29
ENDBRANCH   3  28
BRANCH   8  40
HETATM   40  C23 UNL     1      21.979  35.779  18.362  1.00  0.00     0.299 C 
HETATM   41  O5  UNL     1      22.607  35.355  19.360  1.00  0.00    -0.259 OA
BRANCH  40  42
HETATM   42  O6  UNL     1      22.484  36.877  17.717  1.00  0.00    -0.313 OA
BRANCH  42  43
HETATM   43  C24 UNL     1      22.189  38.181  18.143  1.00  0.00     0.124 C 
HETATM   44  C25 UNL     1      23.461  38.971  18.410  1.00  0.00     0.040 C 
HETATM   45  C26 UNL     1      21.339  38.937  17.146  1.00  0.00     0.040 C 
ENDBRANCH  42  43
ENDBRANCH  40  42
ENDBRANCH   8  40
TORSDOF 14
ENDMDL
MODEL 2
REMARK VINA RESULT: -8.408835545      2.903      9.099
REMARK  14 active torsions:
REMARK  status: ('A' for Active; 'I' for Inactive)
REMARK    1  A    between atoms: C2_2  and  N1_3 
REMARK    2  A    between atoms: N1_3  and  C3_6 
REMARK    3  A    between atoms: C3_6  and  C4_7 
REMARK    4  A    between atoms: C4_7  and  C7_10 
REMARK    5  A    between atoms: C7_10  and  C8_11 
REMARK       I    between atoms: C8_11  and  N2_13 
REMARK    6  A    between atoms: N2_13  and  C9_15 
REMARK    7  A    between atoms: C11_17  and  O2_18 
REMARK    8  A    between atoms: O2_18  and  C12_19 
REMARK    9  A    between atoms: C12_19  and  C13_20 
REMARK   10  A    between atoms: C13_20  and  O3_21 
REMARK   11  A    between atoms: C13_20  and  N3_23 
REMARK   12  A    between atoms: C22_34  and  C23_35 
REMARK   13  A    between atoms: C23_35  and  O6_37 
REMARK   14  A    between atoms: O6_37  and  C24_38 
ROOT
HETATM    1  C9  UNL     1      18.947  31.843  13.993  1.00  0.00     0.065 A 
HETATM    2  C10 UNL     1      20.159  32.156  14.566  1.00  0.00     0.068 A 
HETATM    3  C11 UNL     1      21.297  31.447  14.253  1.00  0.00     0.072 A 
HETATM    4  C19 UNL     1      21.289  30.404  13.368  1.00  0.00     0.054 A 
HETATM    5  C20 UNL     1      20.070  30.075  12.778  1.00  0.00     0.047 A 
HETATM    6  C21 UNL     1      20.087  29.020  11.880  1.00  0.00     0.202 A 
HETATM    7  O4  UNL     1      21.160  28.400  11.628  1.00  0.00    -0.286 OA
HETATM    8  C22 UNL     1      18.899  28.643  11.249  1.00  0.00     0.112 A 
HETATM    9  C27 UNL     1      17.795  29.366  11.580  1.00  0.00     0.026 A 
HETATM   10  C28 UNL     1      16.486  29.015  10.939  1.00  0.00     0.069 C 
HETATM   11  N5  UNL     1      17.808  30.383  12.455  1.00  0.00    -0.356 N 
ATOM     12  H5  UNL     1      16.937  30.875  12.650  1.00  0.00     0.166 HD
HETATM   13  C29 UNL     1      18.911  30.772  13.074  1.00  0.00     0.074 A 
ENDROOT
BRANCH   1  14
HETATM   14  N2  UNL     1      17.750  32.506  14.305  1.00  0.00    -0.325 N 
HETATM   15  C8  UNL     1      16.837  32.143  15.313  1.00  0.00     0.223 C 
HETATM   16  O1  UNL     1      16.968  31.194  16.071  1.00  0.00    -0.273 OA
ATOM     17  H2  UNL     1      17.519  33.329  13.749  1.00  0.00     0.169 HD
BRANCH  15  18
HETATM   18  C7  UNL     1      15.594  32.984  15.484  1.00  0.00     0.113 C 
BRANCH  18  19
HETATM   19  C4  UNL     1      15.865  34.173  16.384  1.00  0.00    -0.016 C 
HETATM   20  C5  UNL     1      16.774  33.806  17.533  1.00  0.00     0.017 C 
HETATM   21  C6  UNL     1      16.464  35.319  15.629  1.00  0.00     0.017 C 
BRANCH  19  22
HETATM   22  C3  UNL     1      14.515  34.591  16.975  1.00  0.00     0.241 C 
BRANCH  22  23
HETATM   23  N1  UNL     1      14.722  34.960  18.371  1.00  0.00    -0.075 N 
ATOM     24  H12 UNL     1      15.705  34.888  18.634  1.00  0.00     0.277 HD
ATOM     25  H11 UNL     1      14.337  34.257  19.003  1.00  0.00     0.277 HD
BRANCH  23  26
HETATM   26  C2  UNL     1      14.199  36.260  18.655  1.00  0.00     0.228 C 
HETATM   27  C1  UNL     1      15.333  37.270  18.683  1.00  0.00     0.034 C 
ENDBRANCH  23  26
ENDBRANCH  22  23
ENDBRANCH  19  22
ENDBRANCH  18  19
ENDBRANCH  15  18
ENDBRANCH   1  14
BRANCH   3  28
HETATM   28  O2  UNL     1      22.487  31.798  14.855  1.00  0.00    -0.343 OA
BRANCH  28  29
HETATM   29  C12 UNL     1      22.628  33.023  15.499  1.00  0.00     0.259 C 
BRANCH  29  30
HETATM   30  C13 UNL     1      22.088  33.060  16.854  1.00  0.00     0.138 C 
BRANCH  30  31
HETATM   31  O3  UNL     1      22.149  31.929  17.497  1.00  0.00    -0.348 OA
ATOM     32  H3  UNL     1      23.022  31.565  17.581  1.00  0.00     0.219 HD
ENDBRANCH  30  31
BRANCH  30  33
HETATM   33  N3  UNL     1      21.525  34.139  17.529  1.00  0.00    -0.360 N 
HETATM   34  C14 UNL     1      20.143  34.546  17.165  1.00  0.00     0.155 C 
HETATM   35  C15 UNL     1      20.071  36.017  17.402  1.00  0.00     0.291 C 
HETATM   36  N4  UNL     1      21.292  36.742  17.102  1.00  0.00     0.087 N 
HETATM   37  C16 UNL     1      21.025  38.128  17.522  1.00  0.00     0.310 C 
HETATM   38  C17 UNL     1      22.414  36.298  17.917  1.00  0.00     0.291 C 
HETATM   39  C18 UNL     1      22.089  34.954  18.563  1.00  0.00     0.155 C 
ENDBRANCH  30  33
ENDBRANCH  29  30
ENDBRANCH  28  29
ENDBRANCH   3  28
BRANCH   8  40
HETATM   40  C23 UNL     1      18.926  27.528  10.309  1.00  0.00     0.299 C 
HETATM   41  O5  UNL     1      18.638  26.368  10.690  1.00  0.00    -0.259 OA
BRANCH  40  42
HETATM   42  O6  UNL     1      19.261  27.696   8.993  1.00  0.00    -0.313 OA
BRANCH  42  43
HETATM   43  C24 UNL     1      18.659  26.937   7.977  1.00  0.00     0.124 C 
HETATM   44  C25 UNL     1      18.315  27.805   6.775  1.00  0.00     0.040 C 
HETATM   45  C26 UNL     1      19.528  25.786   7.522  1.00  0.00     0.040 C 
ENDBRANCH  42  43
ENDBRANCH  40  42
ENDBRANCH   8  40
TORSDOF 14
ENDMDL
MODEL 3
REMARK VINA RESULT: -8.396838004      1.061      1.552
REMARK  14 active torsions:
REMARK  status: ('A' for Active; 'I' for Inactive)
REMARK    1  A    between atoms: C2_2  and  N1_3 
REMARK    2  A    between atoms: N1_3  and  C3_6 
REMARK    3  A    between atoms: C3_6  and  C4_7 
REMARK    4  A    between atoms: C4_7  and  C7_10 
REMARK    5  A    between atoms: C7_10  and  C8_11 
REMARK       I    between atoms: C8_11  and  N2_13 
REMARK    6  A    between atoms: N2_13  and  C9_15 
REMARK    7  A    between atoms: C11_17  and  O2_18 
REMARK    8  A    between atoms: O2_18  and  C12_19 
REMARK    9  A    between atoms: C12_19  and  C13_20 
REMARK   10  A    between atoms: C13_20  and  O3_21 
REMARK   11  A    between atoms: C13_20  and  N3_23 
REMARK   12  A    between atoms: C22_34  and  C23_35 
REMARK   13  A    between atoms: C23_35  and  O6_37 
REMARK   14  A    between atoms: O6_37  and  C24_38 
ROOT
HETATM    1  C9  UNL     1      17.163  33.732  16.189  1.00  0.00     0.065 A 
HETATM    2  C10 UNL     1      16.015  34.046  16.880  1.00  0.00     0.068 A 
HETATM    3  C11 UNL     1      16.064  34.784  18.042  1.00  0.00     0.072 A 
HETATM    4  C19 UNL     1      17.241  35.239  18.570  1.00  0.00     0.054 A 
HETATM    5  C20 UNL     1      18.413  34.930  17.882  1.00  0.00     0.047 A 
HETATM    6  C21 UNL     1      19.592  35.406  18.432  1.00  0.00     0.202 A 
HETATM    7  O4  UNL     1      19.583  36.079  19.503  1.00  0.00    -0.286 OA
HETATM    8  C22 UNL     1      20.802  35.137  17.788  1.00  0.00     0.112 A 
HETATM    9  C27 UNL     1      20.716  34.407  16.643  1.00  0.00     0.026 A 
HETATM   10  C28 UNL     1      21.977  34.082  15.900  1.00  0.00     0.069 C 
HETATM   11  N5  UNL     1      19.559  33.958  16.134  1.00  0.00    -0.356 N 
ATOM     12  H5  UNL     1      19.580  33.417  15.270  1.00  0.00     0.166 HD
HETATM   13  C29 UNL     1      18.391  34.191  16.712  1.00  0.00     0.074 A 
ENDROOT
BRANCH   1  14
HETATM   14  N2  UNL     1      17.175  32.950  15.024  1.00  0.00    -0.325 N 
HETATM   15  C8  UNL     1      17.180  31.544  14.965  1.00  0.00     0.223 C 
HETATM   16  O1  UNL     1      17.166  30.801  15.934  1.00  0.00    -0.273 OA
ATOM     17  H2  UNL     1      17.180  33.449  14.134  1.00  0.00     0.169 HD
BRANCH  15  18
HETATM   18  C7  UNL     1      17.204  30.888  13.605  1.00  0.00     0.113 C 
BRANCH  18  19
HETATM   19  C4  UNL     1      18.611  30.468  13.231  1.00  0.00    -0.016 C 
HETATM   20  C5  UNL     1      18.632  29.667  11.951  1.00  0.00     0.017 C 
HETATM   21  C6  UNL     1      19.528  31.643  13.092  1.00  0.00     0.017 C 
BRANCH  19  22
HETATM   22  C3  UNL     1      19.108  29.555  14.357  1.00  0.00     0.241 C 
BRANCH  22  23
HETATM   23  N1  UNL     1      19.974  28.537  13.772  1.00  0.00    -0.075 N 
ATOM     24  H12 UNL     1      19.935  28.555  12.753  1.00  0.00     0.277 HD
ATOM     25  H11 UNL     1      19.606  27.599  13.929  1.00  0.00     0.277 HD
BRANCH  23  26
HETATM   26  C2  UNL     1      21.319  28.656  14.244  1.00  0.00     0.228 C 
HETATM   27  C1  UNL     1      22.275  28.658  13.064  1.00  0.00     0.034 C 
ENDBRANCH  23  26
ENDBRANCH  22  23
ENDBRANCH  19  22
ENDBRANCH  18  19
ENDBRANCH  15  18
ENDBRANCH   1  14
BRANCH   3  28
HETATM   28  O2  UNL     1      14.886  35.072  18.698  1.00  0.00    -0.343 OA
BRANCH  28  29
HETATM   29  C12 UNL     1      13.951  35.937  18.140  1.00  0.00     0.259 C 
BRANCH  29  30
HETATM   30  C13 UNL     1      13.921  37.266  18.742  1.00  0.00     0.138 C 
BRANCH  30  31
HETATM   31  O3  UNL     1      12.743  37.661  19.135  1.00  0.00    -0.348 OA
ATOM     32  H3  UNL     1      12.630  38.603  19.168  1.00  0.00     0.219 HD
ENDBRANCH  30  31
BRANCH  30  33
HETATM   33  N3  UNL     1      14.979  38.147  18.942  1.00  0.00    -0.360 N 
HETATM   34  C14 UNL     1      15.118  38.779  20.280  1.00  0.00     0.155 C 
HETATM   35  C15 UNL     1      15.741  40.114  20.042  1.00  0.00     0.291 C 
HETATM   36  N4  UNL     1      15.323  40.770  18.816  1.00  0.00     0.087 N 
HETATM   37  C16 UNL     1      16.146  41.989  18.738  1.00  0.00     0.310 C 
HETATM   38  C17 UNL     1      15.663  39.995  17.631  1.00  0.00     0.291 C 
HETATM   39  C18 UNL     1      16.000  38.559  18.026  1.00  0.00     0.155 C 
ENDBRANCH  30  33
ENDBRANCH  29  30
ENDBRANCH  28  29
ENDBRANCH   3  28
BRANCH   8  40
HETATM   40  C23 UNL     1      22.038  35.638  18.377  1.00  0.00     0.299 C 
HETATM   41  O5  UNL     1      22.569  35.043  19.345  1.00  0.00    -0.259 OA
BRANCH  40  42
HETATM   42  O6  UNL     1      22.663  36.762  17.908  1.00  0.00    -0.313 OA
BRANCH  42  43
HETATM   43  C24 UNL     1      22.279  38.046  18.325  1.00  0.00     0.124 C 
HETATM   44  C25 UNL     1      23.495  38.921  18.593  1.00  0.00     0.040 C 
HETATM   45  C26 UNL     1      21.386  38.739  17.320  1.00  0.00     0.040 C 
ENDBRANCH  42  43
ENDBRANCH  40  42
ENDBRANCH   8  40
TORSDOF 14
ENDMDL
MODEL 4
REMARK VINA RESULT: -8.311962807      2.265      3.034
REMARK  14 active torsions:
REMARK  status: ('A' for Active; 'I' for Inactive)
REMARK    1  A    between atoms: C2_2  and  N1_3 
REMARK    2  A    between atoms: N1_3  and  C3_6 
REMARK    3  A    between atoms: C3_6  and  C4_7 
REMARK    4  A    between atoms: C4_7  and  C7_10 
REMARK    5  A    between atoms: C7_10  and  C8_11 
REMARK       I    between atoms: C8_11  and  N2_13 
REMARK    6  A    between atoms: N2_13  and  C9_15 
REMARK    7  A    between atoms: C11_17  and  O2_18 
REMARK    8  A    between atoms: O2_18  and  C12_19 
REMARK    9  A    between atoms: C12_19  and  C13_20 
REMARK   10  A    between atoms: C13_20  and  O3_21 
REMARK   11  A    between atoms: C13_20  and  N3_23 
REMARK   12  A    between atoms: C22_34  and  C23_35 
REMARK   13  A    between atoms: C23_35  and  O6_37 
REMARK   14  A    between atoms: O6_37  and  C24_38 
ROOT
HETATM    1  C9  UNL     1      18.351  31.713  15.074  1.00  0.00     0.065 A 
HETATM    2  C10 UNL     1      17.016  31.815  15.391  1.00  0.00     0.068 A 
HETATM    3  C11 UNL     1      16.575  32.717  16.334  1.00  0.00     0.072 A 
HETATM    4  C19 UNL     1      17.428  33.551  17.002  1.00  0.00     0.054 A 
HETATM    5  C20 UNL     1      18.784  33.461  16.693  1.00  0.00     0.047 A 
HETATM    6  C21 UNL     1      19.629  34.320  17.377  1.00  0.00     0.202 A 
HETATM    7  O4  UNL     1      19.174  35.130  18.235  1.00  0.00    -0.286 OA
HETATM    8  C22 UNL     1      21.000  34.285  17.109  1.00  0.00     0.112 A 
HETATM    9  C27 UNL     1      21.399  33.384  16.172  1.00  0.00     0.026 A 
HETATM   10  C28 UNL     1      22.857  33.294  15.835  1.00  0.00     0.069 C 
HETATM   11  N5  UNL     1      20.557  32.563  15.524  1.00  0.00    -0.356 N 
ATOM     12  H5  UNL     1      20.936  31.915  14.835  1.00  0.00     0.166 HD
HETATM   13  C29 UNL     1      19.253  32.564  15.748  1.00  0.00     0.074 A 
ENDROOT
BRANCH   1  14
HETATM   14  N2  UNL     1      18.858  30.785  14.152  1.00  0.00    -0.325 N 
HETATM   15  C8  UNL     1      19.588  29.621  14.458  1.00  0.00     0.223 C 
HETATM   16  O1  UNL     1      19.875  29.250  15.585  1.00  0.00    -0.273 OA
ATOM     17  H2  UNL     1      18.682  30.973  13.165  1.00  0.00     0.169 HD
BRANCH  15  18
HETATM   18  C7  UNL     1      20.057  28.754  13.314  1.00  0.00     0.113 C 
BRANCH  18  19
HETATM   19  C4  UNL     1      21.332  29.303  12.707  1.00  0.00    -0.016 C 
HETATM   20  C5  UNL     1      21.128  30.690  12.144  1.00  0.00     0.017 C 
HETATM   21  C6  UNL     1      22.455  29.334  13.697  1.00  0.00     0.017 C 
BRANCH  19  22
HETATM   22  C3  UNL     1      21.695  28.379  11.541  1.00  0.00     0.241 C 
BRANCH  22  23
HETATM   23  N1  UNL     1      22.348  27.193  12.082  1.00  0.00    -0.075 N 
ATOM     24  H12 UNL     1      21.671  26.464  12.307  1.00  0.00     0.277 HD
ATOM     25  H11 UNL     1      22.714  27.364  13.019  1.00  0.00     0.277 HD
BRANCH  23  26
HETATM   26  C2  UNL     1      23.367  26.706  11.205  1.00  0.00     0.228 C 
HETATM   27  C1  UNL     1      24.733  26.992  11.803  1.00  0.00     0.034 C 
ENDBRANCH  23  26
ENDBRANCH  22  23
ENDBRANCH  19  22
ENDBRANCH  18  19
ENDBRANCH  15  18
ENDBRANCH   1  14
BRANCH   3  28
HETATM   28  O2  UNL     1      15.227  32.780  16.617  1.00  0.00    -0.343 OA
BRANCH  28  29
HETATM   29  C12 UNL     1      14.539  33.987  16.553  1.00  0.00     0.259 C 
BRANCH  29  30
HETATM   30  C13 UNL     1      14.832  34.909  17.645  1.00  0.00     0.138 C 
BRANCH  30  31
HETATM   31  O3  UNL     1      14.746  34.389  18.837  1.00  0.00    -0.348 OA
ATOM     32  H3  UNL     1      14.849  35.009  19.550  1.00  0.00     0.219 HD
ENDBRANCH  30  31
BRANCH  30  33
HETATM   33  N3  UNL     1      15.185  36.253  17.569  1.00  0.00    -0.360 N 
HETATM   34  C14 UNL     1      16.267  36.638  16.625  1.00  0.00     0.155 C 
HETATM   35  C15 UNL     1      16.935  37.827  17.228  1.00  0.00     0.291 C 
HETATM   36  N4  UNL     1      17.020  37.807  18.678  1.00  0.00     0.087 N 
HETATM   37  C16 UNL     1      17.596  39.112  19.044  1.00  0.00     0.310 C 
HETATM   38  C17 UNL     1      15.708  37.770  19.308  1.00  0.00     0.291 C 
HETATM   39  C18 UNL     1      14.648  37.372  18.284  1.00  0.00     0.155 C 
ENDBRANCH  30  33
ENDBRANCH  29  30
ENDBRANCH  28  29
ENDBRANCH   3  28
BRANCH   8  40
HETATM   40  C23 UNL     1      21.881  35.189  17.839  1.00  0.00     0.299 C 
HETATM   41  O5  UNL     1      22.306  34.882  18.978  1.00  0.00    -0.259 OA
BRANCH  40  42
HETATM   42  O6  UNL     1      22.276  36.393  17.320  1.00  0.00    -0.313 OA
BRANCH  42  43
HETATM   43  C24 UNL     1      22.022  37.601  17.988  1.00  0.00     0.124 C 
HETATM   44  C25 UNL     1      23.315  38.245  18.466  1.00  0.00     0.040 C 
HETATM   45  C26 UNL     1      21.267  38.590  17.128  1.00  0.00     0.040 C 
ENDBRANCH  42  43
ENDBRANCH  40  42
ENDBRANCH   8  40
TORSDOF 14
ENDMDL
MODEL 5
REMARK VINA RESULT: -8.286761712      3.092      9.042
REMARK  14 active torsions:
REMARK  status: ('A' for Active; 'I' for Inactive)
REMARK    1  A    between atoms: C2_2  and  N1_3 
REMARK    2  A    between atoms: N1_3  and  C3_6 
REMARK    3  A    between atoms: C3_6  and  C4_7 
REMARK    4  A    between atoms: C4_7  and  C7_10 
REMARK    5  A    between atoms: C7_10  and  C8_11 
REMARK       I    between atoms: C8_11  and  N2_13 
REMARK    6  A    between atoms: N2_13  and  C9_15 
REMARK    7  A    between atoms: C11_17  and  O2_18 
REMARK    8  A    between atoms: O2_18  and  C12_19 
REMARK    9  A    between atoms: C12_19  and  C13_20 
REMARK   10  A    between atoms: C13_20  and  O3_21 
REMARK   11  A    between atoms: C13_20  and  N3_23 
REMARK   12  A    between atoms: C22_34  and  C23_35 
REMARK   13  A    between atoms: C23_35  and  O6_37 
REMARK   14  A    between atoms: O6_37  and  C24_38 
ROOT
HETATM    1  C9  UNL     1      18.919  32.093  13.770  1.00  0.00     0.065 A 
HETATM    2  C10 UNL     1      20.085  32.760  14.071  1.00  0.00     0.068 A 
HETATM    3  C11 UNL     1      21.303  32.303  13.619  1.00  0.00     0.072 A 
HETATM    4  C19 UNL     1      21.422  31.174  12.856  1.00  0.00     0.054 A 
HETATM    5  C20 UNL     1      20.251  30.487  12.542  1.00  0.00     0.047 A 
HETATM    6  C21 UNL     1      20.396  29.350  11.763  1.00  0.00     0.202 A 
HETATM    7  O4  UNL     1      21.538  28.972  11.374  1.00  0.00    -0.286 OA
HETATM    8  C22 UNL     1      19.260  28.619  11.407  1.00  0.00     0.112 A 
HETATM    9  C27 UNL     1      18.074  29.100  11.869  1.00  0.00     0.026 A 
HETATM   10  C28 UNL     1      16.815  28.364  11.523  1.00  0.00     0.069 C 
HETATM   11  N5  UNL     1      17.965  30.204  12.623  1.00  0.00    -0.356 N 
ATOM     12  H5  UNL     1      17.038  30.499  12.930  1.00  0.00     0.166 HD
HETATM   13  C29 UNL     1      19.014  30.925  12.983  1.00  0.00     0.074 A 
ENDROOT
BRANCH   1  14
HETATM   14  N2  UNL     1      17.657  32.492  14.237  1.00  0.00    -0.325 N 
HETATM   15  C8  UNL     1      17.021  32.035  15.407  1.00  0.00     0.223 C 
HETATM   16  O1  UNL     1      17.491  31.225  16.191  1.00  0.00    -0.273 OA
ATOM     17  H2  UNL     1      17.153  33.178  13.676  1.00  0.00     0.169 HD
BRANCH  15  18
HETATM   18  C7  UNL     1      15.651  32.582  15.731  1.00  0.00     0.113 C 
BRANCH  18  19
HETATM   19  C4  UNL     1      15.754  33.932  16.411  1.00  0.00    -0.016 C 
HETATM   20  C5  UNL     1      16.643  33.875  17.631  1.00  0.00     0.017 C 
HETATM   21  C6  UNL     1      16.261  34.989  15.480  1.00  0.00     0.017 C 
BRANCH  19  22
HETATM   22  C3  UNL     1      14.342  34.293  16.884  1.00  0.00     0.241 C 
BRANCH  22  23
HETATM   23  N1  UNL     1      14.438  34.854  18.227  1.00  0.00    -0.075 N 
ATOM     24  H12 UNL     1      15.394  34.809  18.582  1.00  0.00     0.277 HD
ATOM     25  H11 UNL     1      13.985  34.252  18.915  1.00  0.00     0.277 HD
BRANCH  23  26
HETATM   26  C2  UNL     1      13.924  36.187  18.279  1.00  0.00     0.228 C 
HETATM   27  C1  UNL     1      15.075  37.174  18.369  1.00  0.00     0.034 C 
ENDBRANCH  23  26
ENDBRANCH  22  23
ENDBRANCH  19  22
ENDBRANCH  18  19
ENDBRANCH  15  18
ENDBRANCH   1  14
BRANCH   3  28
HETATM   28  O2  UNL     1      22.442  33.006  13.949  1.00  0.00    -0.343 OA
BRANCH  28  29
HETATM   29  C12 UNL     1      23.150  32.715  15.110  1.00  0.00     0.259 C 
BRANCH  29  30
HETATM   30  C13 UNL     1      22.433  33.007  16.346  1.00  0.00     0.138 C 
BRANCH  30  31
HETATM   31  O3  UNL     1      22.146  31.963  17.071  1.00  0.00    -0.348 OA
ATOM     32  H3  UNL     1      21.496  32.114  17.746  1.00  0.00     0.219 HD
ENDBRANCH  30  31
BRANCH  30  33
HETATM   33  N3  UNL     1      22.024  34.244  16.835  1.00  0.00    -0.360 N 
HETATM   34  C14 UNL     1      22.450  34.628  18.207  1.00  0.00     0.155 C 
HETATM   35  C15 UNL     1      21.369  35.503  18.744  1.00  0.00     0.291 C 
HETATM   36  N4  UNL     1      20.026  35.137  18.328  1.00  0.00     0.087 N 
HETATM   37  C16 UNL     1      19.157  36.194  18.871  1.00  0.00     0.310 C 
HETATM   38  C17 UNL     1      19.860  35.201  16.882  1.00  0.00     0.291 C 
HETATM   39  C18 UNL     1      21.225  35.250  16.201  1.00  0.00     0.155 C 
ENDBRANCH  30  33
ENDBRANCH  29  30
ENDBRANCH  28  29
ENDBRANCH   3  28
BRANCH   8  40
HETATM   40  C23 UNL     1      19.423  27.421  10.591  1.00  0.00     0.299 C 
HETATM   41  O5  UNL     1      19.576  26.299  11.131  1.00  0.00    -0.259 OA
BRANCH  40  42
HETATM   42  O6  UNL     1      19.417  27.467   9.223  1.00  0.00    -0.313 OA
BRANCH  42  43
HETATM   43  C24 UNL     1      18.223  27.389   8.489  1.00  0.00     0.124 C 
HETATM   44  C25 UNL     1      18.464  27.694   7.018  1.00  0.00     0.040 C 
HETATM   45  C26 UNL     1      17.557  26.036   8.610  1.00  0.00     0.040 C 
ENDBRANCH  42  43
ENDBRANCH  40  42
ENDBRANCH   8  40
TORSDOF 14
ENDMDL
