MODEL 1
REMARK VINA RESULT: -8.897224484      0.000      0.000
REMARK  11 active torsions:
REMARK  status: ('A' for Active; 'I' for Inactive)
REMARK    1  A    between atoms: C3_3  and  N1_4 
REMARK       I    between atoms: N1_4  and  C4_5 
REMARK    2  A    between atoms: N1_4  and  C20_29 
REMARK    3  A    between atoms: C4_5  and  C5_7 
REMARK    4  A    between atoms: C5_7  and  N2_8 
REMARK    5  A    between atoms: N2_8  and  C7_10 
REMARK    6  A    between atoms: C7_10  and  C8_11 
REMARK       I    between atoms: C8_11  and  N3_13 
REMARK    7  A    between atoms: N3_13  and  C9_15 
REMARK    8  A    between atoms: C12_19  and  C13_20 
REMARK    9  A    between atoms: C13_20  and  O4_22 
REMARK   10  A    between atoms: O4_22  and  C14_23 
REMARK   11  A    between atoms: C21_30  and  C22_31 
ROOT
HETATM    1  C1  UNL     1      16.438  32.032  15.754  1.00  0.00     0.014 C 
HETATM    2  C2  UNL     1      17.054  31.564  14.813  1.00  0.00    -0.097 C 
HETATM    3  C3  UNL     1      17.777  30.995  13.650  1.00  0.00     0.225 C 
ENDROOT
BRANCH   3   4
HETATM    4  N1  UNL     1      18.959  30.330  14.194  1.00  0.00    -0.300 N 
HETATM    5  C4  UNL     1      18.993  28.919  13.964  1.00  0.00     0.238 C 
HETATM    6  O1  UNL     1      19.972  28.284  14.411  1.00  0.00    -0.272 OA
BRANCH   5   7
HETATM    7  C5  UNL     1      17.950  28.159  13.238  1.00  0.00     0.197 C 
BRANCH   7   8
HETATM    8  N2  UNL     1      18.547  27.551  12.084  1.00  0.00    -0.283 NA
HETATM    9  C6  UNL     1      17.929  26.292  11.815  1.00  0.00     0.116 C 
BRANCH   8  10
HETATM   10  C7  UNL     1      18.727  28.327  10.934  1.00  0.00     0.134 C 
BRANCH  10  11
HETATM   11  C8  UNL     1      19.256  27.537   9.747  1.00  0.00     0.256 C 
HETATM   12  O2  UNL     1      18.656  27.785   8.700  1.00  0.00    -0.267 OA
HETATM   13  N3  UNL     1      20.305  26.657   9.918  1.00  0.00    -0.316 N 
ATOM     14  H3  UNL     1      20.585  26.616  10.898  1.00  0.00     0.169 HD
BRANCH  13  15
HETATM   15  C9  UNL     1      21.095  25.803   9.143  1.00  0.00     0.094 A 
HETATM   16  S1  UNL     1      20.424  25.150   7.639  1.00  0.00    -0.075 SA
HETATM   17  C10 UNL     1      21.720  24.227   7.124  1.00  0.00    -0.008 A 
HETATM   18  C11 UNL     1      22.653  24.420   8.105  1.00  0.00    -0.026 A 
HETATM   19  C19 UNL     1      22.081  23.321   5.969  1.00  0.00     0.047 C 
HETATM   20  C12 UNL     1      22.326  25.228   9.147  1.00  0.00     0.080 A 
HETATM   21  C16 UNL     1      23.924  23.665   7.781  1.00  0.00     0.041 C 
HETATM   22  C17 UNL     1      24.378  24.005   6.375  1.00  0.00     0.005 C 
HETATM   23  C18 UNL     1      23.316  23.909   5.340  1.00  0.00     0.005 C 
BRANCH  20  24
HETATM   24  C13 UNL     1      23.196  25.276  10.357  1.00  0.00     0.296 C 
HETATM   25  O3  UNL     1      24.197  24.586  10.450  1.00  0.00    -0.259 OA
BRANCH  24  26
HETATM   26  O4  UNL     1      22.936  26.093  11.448  1.00  0.00    -0.318 OA
BRANCH  26  27
HETATM   27  C14 UNL     1      23.753  27.240  11.724  1.00  0.00     0.174 C 
HETATM   28  C15 UNL     1      23.909  28.128  10.523  1.00  0.00     0.034 C 
ENDBRANCH  26  27
ENDBRANCH  24  26
ENDBRANCH  20  24
ENDBRANCH  13  15
ENDBRANCH  10  11
ENDBRANCH   8  10
ENDBRANCH   7   8
ENDBRANCH   5   7
BRANCH   4  29
HETATM   29  C20 UNL     1      19.937  31.035  14.874  1.00  0.00     0.113 A 
HETATM   30  C21 UNL     1      20.842  31.835  14.250  1.00  0.00    -0.017 A 
HETATM   31  C24 UNL     1      21.807  32.539  14.999  1.00  0.00    -0.012 A 
HETATM   32  C25 UNL     1      22.774  33.402  14.260  1.00  0.00     0.052 C 
HETATM   33  C26 UNL     1      21.814  32.403  16.350  1.00  0.00     0.125 A 
HETATM   34  N4  UNL     1      22.821  33.143  17.068  1.00  0.00    -0.082 NA
HETATM   35  N5  UNL     1      20.932  31.618  16.992  1.00  0.00    -0.309 N 
HETATM   36  C27 UNL     1      20.013  30.950  16.257  1.00  0.00     0.274 A 
ATOM     37  H5  UNL     1      20.954  31.529  18.008  1.00  0.00     0.170 HD
HETATM   38  O5  UNL     1      19.220  30.238  16.882  1.00  0.00    -0.266 OA
BRANCH  30  39
HETATM   39  C22 UNL     1      20.871  31.967  12.789  1.00  0.00     0.037 C 
HETATM   40  C23 UNL     1      21.369  30.672  12.177  1.00  0.00     0.010 C 
ENDBRANCH  30  39
ENDBRANCH   4  29
ENDBRANCH   3   4
TORSDOF 11
ENDMDL
MODEL 2
REMARK VINA RESULT: -8.650958221      4.721     11.349
REMARK  11 active torsions:
REMARK  status: ('A' for Active; 'I' for Inactive)
REMARK    1  A    between atoms: C3_3  and  N1_4 
REMARK       I    between atoms: N1_4  and  C4_5 
REMARK    2  A    between atoms: N1_4  and  C20_29 
REMARK    3  A    between atoms: C4_5  and  C5_7 
REMARK    4  A    between atoms: C5_7  and  N2_8 
REMARK    5  A    between atoms: N2_8  and  C7_10 
REMARK    6  A    between atoms: C7_10  and  C8_11 
REMARK       I    between atoms: C8_11  and  N3_13 
REMARK    7  A    between atoms: N3_13  and  C9_15 
REMARK    8  A    between atoms: C12_19  and  C13_20 
REMARK    9  A    between atoms: C13_20  and  O4_22 
REMARK   10  A    between atoms: O4_22  and  C14_23 
REMARK   11  A    between atoms: C21_30  and  C22_31 
ROOT
HETATM    1  C1  UNL     1      17.514  31.105  15.735  1.00  0.00     0.014 C 
HETATM    2  C2  UNL     1      18.616  30.605  15.595  1.00  0.00    -0.097 C 
HETATM    3  C3  UNL     1      19.963  30.000  15.455  1.00  0.00     0.225 C 
ENDROOT
BRANCH   3   4
HETATM    4  N1  UNL     1      20.297  30.081  14.035  1.00  0.00    -0.300 N 
HETATM    5  C4  UNL     1      20.549  31.410  13.569  1.00  0.00     0.238 C 
HETATM    6  O1  UNL     1      20.832  31.555  12.361  1.00  0.00    -0.272 OA
BRANCH   5   7
HETATM    7  C5  UNL     1      20.494  32.623  14.416  1.00  0.00     0.197 C 
BRANCH   7   8
HETATM    8  N2  UNL     1      21.657  32.647  15.255  1.00  0.00    -0.283 NA
HETATM    9  C6  UNL     1      22.755  33.238  14.560  1.00  0.00     0.116 C 
BRANCH   8  10
HETATM   10  C7  UNL     1      21.527  33.114  16.568  1.00  0.00     0.134 C 
BRANCH  10  11
HETATM   11  C8  UNL     1      20.664  34.360  16.686  1.00  0.00     0.256 C 
HETATM   12  O2  UNL     1      21.210  35.367  16.233  1.00  0.00    -0.267 OA
HETATM   13  N3  UNL     1      19.410  34.277  17.256  1.00  0.00    -0.316 N 
ATOM     14  H3  UNL     1      19.225  33.329  17.584  1.00  0.00     0.169 HD
BRANCH  13  15
HETATM   15  C9  UNL     1      18.318  35.110  17.517  1.00  0.00     0.094 A 
HETATM   16  S1  UNL     1      16.685  34.504  17.192  1.00  0.00    -0.075 SA
HETATM   17  C10 UNL     1      15.788  35.839  17.652  1.00  0.00    -0.008 A 
HETATM   18  C11 UNL     1      16.740  36.738  18.044  1.00  0.00    -0.026 A 
HETATM   19  C19 UNL     1      14.338  36.261  17.728  1.00  0.00     0.047 C 
HETATM   20  C12 UNL     1      18.044  36.362  17.968  1.00  0.00     0.080 A 
HETATM   21  C16 UNL     1      16.092  38.018  18.527  1.00  0.00     0.041 C 
HETATM   22  C17 UNL     1      15.033  37.698  19.562  1.00  0.00     0.005 C 
HETATM   23  C18 UNL     1      14.080  36.629  19.165  1.00  0.00     0.005 C 
BRANCH  20  24
HETATM   24  C13 UNL     1      19.125  37.374  18.142  1.00  0.00     0.296 C 
HETATM   25  O3  UNL     1      19.853  37.367  19.121  1.00  0.00    -0.259 OA
BRANCH  24  26
HETATM   26  O4  UNL     1      19.379  38.381  17.222  1.00  0.00    -0.318 OA
BRANCH  26  27
HETATM   27  C14 UNL     1      19.283  39.763  17.594  1.00  0.00     0.174 C 
HETATM   28  C15 UNL     1      18.924  40.641  16.430  1.00  0.00     0.034 C 
ENDBRANCH  26  27
ENDBRANCH  24  26
ENDBRANCH  20  24
ENDBRANCH  13  15
ENDBRANCH  10  11
ENDBRANCH   8  10
ENDBRANCH   7   8
ENDBRANCH   5   7
BRANCH   4  29
HETATM   29  C20 UNL     1      20.350  28.950  13.238  1.00  0.00     0.113 A 
HETATM   30  C21 UNL     1      19.245  28.376  12.695  1.00  0.00    -0.017 A 
HETATM   31  C24 UNL     1      19.363  27.231  11.880  1.00  0.00    -0.012 A 
HETATM   32  C25 UNL     1      18.116  26.645  11.311  1.00  0.00     0.052 C 
HETATM   33  C26 UNL     1      20.598  26.717  11.650  1.00  0.00     0.125 A 
HETATM   34  N4  UNL     1      20.665  25.547  10.811  1.00  0.00    -0.082 NA
HETATM   35  N5  UNL     1      21.708  27.265  12.176  1.00  0.00    -0.309 N 
HETATM   36  C27 UNL     1      21.575  28.362  12.955  1.00  0.00     0.274 A 
ATOM     37  H5  UNL     1      22.628  26.863  11.991  1.00  0.00     0.170 HD
HETATM   38  O5  UNL     1      22.616  28.836  13.422  1.00  0.00    -0.266 OA
BRANCH  30  39
HETATM   39  C22 UNL     1      17.899  28.897  12.961  1.00  0.00     0.037 C 
HETATM   40  C23 UNL     1      17.532  29.909  11.892  1.00  0.00     0.010 C 
ENDBRANCH  30  39
ENDBRANCH   4  29
ENDBRANCH   3   4
TORSDOF 11
ENDMDL
MODEL 3
REMARK VINA RESULT: -8.632569402      4.136     10.942
REMARK  11 active torsions:
REMARK  status: ('A' for Active; 'I' for Inactive)
REMARK    1  A    between atoms: C3_3  and  N1_4 
REMARK       I    between atoms: N1_4  and  C4_5 
REMARK    2  A    between atoms: N1_4  and  C20_29 
REMARK    3  A    between atoms: C4_5  and  C5_7 
REMARK    4  A    between atoms: C5_7  and  N2_8 
REMARK    5  A    between atoms: N2_8  and  C7_10 
REMARK    6  A    between atoms: C7_10  and  C8_11 
REMARK       I    between atoms: C8_11  and  N3_13 
REMARK    7  A    between atoms: N3_13  and  C9_15 
REMARK    8  A    between atoms: C12_19  and  C13_20 
REMARK    9  A    between atoms: C13_20  and  O4_22 
REMARK   10  A    between atoms: O4_22  and  C14_23 
REMARK   11  A    between atoms: C21_30  and  C22_31 
ROOT
HETATM    1  C1  UNL     1      17.073  31.592  14.183  1.00  0.00     0.014 C 
HETATM    2  C2  UNL     1      18.080  31.436  13.517  1.00  0.00    -0.097 C 
HETATM    3  C3  UNL     1      19.296  31.267  12.684  1.00  0.00     0.225 C 
ENDROOT
BRANCH   3   4
HETATM    4  N1  UNL     1      19.899  30.002  13.100  1.00  0.00    -0.300 N 
HETATM    5  C4  UNL     1      20.402  30.007  14.439  1.00  0.00     0.238 C 
HETATM    6  O1  UNL     1      20.940  28.960  14.857  1.00  0.00    -0.272 OA
BRANCH   5   7
HETATM    7  C5  UNL     1      20.333  31.165  15.359  1.00  0.00     0.197 C 
BRANCH   7   8
HETATM    8  N2  UNL     1      21.670  31.552  15.707  1.00  0.00    -0.283 NA
HETATM    9  C6  UNL     1      22.441  31.782  14.527  1.00  0.00     0.116 C 
BRANCH   8  10
HETATM   10  C7  UNL     1      21.850  32.542  16.679  1.00  0.00     0.134 C 
BRANCH  10  11
HETATM   11  C8  UNL     1      20.903  33.722  16.525  1.00  0.00     0.256 C 
HETATM   12  O2  UNL     1      21.259  34.512  15.649  1.00  0.00    -0.267 OA
HETATM   13  N3  UNL     1      19.785  33.815  17.329  1.00  0.00    -0.316 N 
ATOM     14  H3  UNL     1      19.756  33.045  17.996  1.00  0.00     0.169 HD
BRANCH  13  15
HETATM   15  C9  UNL     1      18.680  34.656  17.495  1.00  0.00     0.094 A 
HETATM   16  S1  UNL     1      17.073  34.049  17.059  1.00  0.00    -0.075 SA
HETATM   17  C10 UNL     1      16.150  35.394  17.432  1.00  0.00    -0.008 A 
HETATM   18  C11 UNL     1      17.074  36.296  17.881  1.00  0.00    -0.026 A 
HETATM   19  C19 UNL     1      14.700  35.821  17.394  1.00  0.00     0.047 C 
HETATM   20  C12 UNL     1      18.378  35.915  17.907  1.00  0.00     0.080 A 
HETATM   21  C16 UNL     1      16.397  37.584  18.295  1.00  0.00     0.041 C 
HETATM   22  C17 UNL     1      15.263  37.282  19.253  1.00  0.00     0.005 C 
HETATM   23  C18 UNL     1      14.338  36.210  18.803  1.00  0.00     0.005 C 
BRANCH  20  24
HETATM   24  C13 UNL     1      19.447  36.926  18.146  1.00  0.00     0.296 C 
HETATM   25  O3  UNL     1      19.495  37.572  19.180  1.00  0.00    -0.259 OA
BRANCH  24  26
HETATM   26  O4  UNL     1      20.449  37.205  17.226  1.00  0.00    -0.318 OA
BRANCH  26  27
HETATM   27  C14 UNL     1      21.746  37.642  17.657  1.00  0.00     0.174 C 
HETATM   28  C15 UNL     1      22.570  36.515  18.211  1.00  0.00     0.034 C 
ENDBRANCH  26  27
ENDBRANCH  24  26
ENDBRANCH  20  24
ENDBRANCH  13  15
ENDBRANCH  10  11
ENDBRANCH   8  10
ENDBRANCH   7   8
ENDBRANCH   5   7
BRANCH   4  29
HETATM   29  C20 UNL     1      19.966  28.917  12.243  1.00  0.00     0.113 A 
HETATM   30  C21 UNL     1      18.931  28.058  12.053  1.00  0.00    -0.017 A 
HETATM   31  C24 UNL     1      19.055  26.978  11.156  1.00  0.00    -0.012 A 
HETATM   32  C25 UNL     1      17.885  26.068  10.989  1.00  0.00     0.052 C 
HETATM   33  C26 UNL     1      20.225  26.813  10.488  1.00  0.00     0.125 A 
HETATM   34  N4  UNL     1      20.301  25.694   9.584  1.00  0.00    -0.082 NA
HETATM   35  N5  UNL     1      21.267  27.647  10.657  1.00  0.00    -0.309 N 
HETATM   36  C27 UNL     1      21.128  28.678  11.523  1.00  0.00     0.274 A 
ATOM     37  H5  UNL     1      22.138  27.506  10.146  1.00  0.00     0.170 HD
HETATM   38  O5  UNL     1      22.106  29.422  11.653  1.00  0.00    -0.266 OA
BRANCH  30  39
HETATM   39  C22 UNL     1      17.670  28.200  12.792  1.00  0.00     0.037 C 
HETATM   40  C23 UNL     1      17.802  27.525  14.144  1.00  0.00     0.010 C 
ENDBRANCH  30  39
ENDBRANCH   4  29
ENDBRANCH   3   4
TORSDOF 11
ENDMDL
MODEL 4
REMARK VINA RESULT: -8.629580426      1.977      2.416
REMARK  11 active torsions:
REMARK  status: ('A' for Active; 'I' for Inactive)
REMARK    1  A    between atoms: C3_3  and  N1_4 
REMARK       I    between atoms: N1_4  and  C4_5 
REMARK    2  A    between atoms: N1_4  and  C20_29 
REMARK    3  A    between atoms: C4_5  and  C5_7 
REMARK    4  A    between atoms: C5_7  and  N2_8 
REMARK    5  A    between atoms: N2_8  and  C7_10 
REMARK    6  A    between atoms: C7_10  and  C8_11 
REMARK       I    between atoms: C8_11  and  N3_13 
REMARK    7  A    between atoms: N3_13  and  C9_15 
REMARK    8  A    between atoms: C12_19  and  C13_20 
REMARK    9  A    between atoms: C13_20  and  O4_22 
REMARK   10  A    between atoms: O4_22  and  C14_23 
REMARK   11  A    between atoms: C21_30  and  C22_31 
ROOT
HETATM    1  C1  UNL     1      15.160  32.412  15.979  1.00  0.00     0.014 C 
HETATM    2  C2  UNL     1      16.268  31.910  16.034  1.00  0.00    -0.097 C 
HETATM    3  C3  UNL     1      17.610  31.284  16.129  1.00  0.00     0.225 C 
ENDROOT
BRANCH   3   4
HETATM    4  N1  UNL     1      18.486  32.074  15.268  1.00  0.00    -0.300 N 
HETATM    5  C4  UNL     1      18.393  31.745  13.880  1.00  0.00     0.238 C 
HETATM    6  O1  UNL     1      19.123  32.375  13.086  1.00  0.00    -0.272 OA
BRANCH   5   7
HETATM    7  C5  UNL     1      17.496  30.708  13.319  1.00  0.00     0.197 C 
BRANCH   7   8
HETATM    8  N2  UNL     1      18.297  29.610  12.861  1.00  0.00    -0.283 NA
HETATM    9  C6  UNL     1      18.367  28.597  13.864  1.00  0.00     0.116 C 
BRANCH   8  10
HETATM   10  C7  UNL     1      18.061  29.096  11.581  1.00  0.00     0.134 C 
BRANCH  10  11
HETATM   11  C8  UNL     1      19.286  28.455  10.949  1.00  0.00     0.256 C 
HETATM   12  O2  UNL     1      20.339  29.001  11.282  1.00  0.00    -0.267 OA
HETATM   13  N3  UNL     1      19.138  27.376  10.102  1.00  0.00    -0.316 N 
ATOM     14  H3  UNL     1      18.152  27.155   9.969  1.00  0.00     0.169 HD
BRANCH  13  15
HETATM   15  C9  UNL     1      19.944  26.496   9.373  1.00  0.00     0.094 A 
HETATM   16  S1  UNL     1      19.411  25.987   7.761  1.00  0.00    -0.075 SA
HETATM   17  C10 UNL     1      20.679  24.978   7.346  1.00  0.00    -0.008 A 
HETATM   18  C11 UNL     1      21.497  25.034   8.440  1.00  0.00    -0.026 A 
HETATM   19  C19 UNL     1      21.102  24.105   6.186  1.00  0.00     0.047 C 
HETATM   20  C12 UNL     1      21.113  25.813   9.486  1.00  0.00     0.080 A 
HETATM   21  C16 UNL     1      22.731  24.186   8.221  1.00  0.00     0.041 C 
HETATM   22  C17 UNL     1      23.381  24.556   6.903  1.00  0.00     0.005 C 
HETATM   23  C18 UNL     1      22.450  24.612   5.746  1.00  0.00     0.005 C 
BRANCH  20  24
HETATM   24  C13 UNL     1      21.828  25.718  10.790  1.00  0.00     0.296 C 
HETATM   25  O3  UNL     1      21.597  24.818  11.581  1.00  0.00    -0.259 OA
BRANCH  24  26
HETATM   26  O4  UNL     1      22.791  26.632  11.198  1.00  0.00    -0.318 OA
BRANCH  26  27
HETATM   27  C14 UNL     1      24.167  26.247  11.324  1.00  0.00     0.174 C 
HETATM   28  C15 UNL     1      25.026  27.371  11.828  1.00  0.00     0.034 C 
ENDBRANCH  26  27
ENDBRANCH  24  26
ENDBRANCH  20  24
ENDBRANCH  13  15
ENDBRANCH  10  11
ENDBRANCH   8  10
ENDBRANCH   7   8
ENDBRANCH   5   7
BRANCH   4  29
HETATM   29  C20 UNL     1      19.327  33.044  15.787  1.00  0.00     0.113 A 
HETATM   30  C21 UNL     1      20.612  32.792  16.150  1.00  0.00    -0.017 A 
HETATM   31  C24 UNL     1      21.425  33.825  16.660  1.00  0.00    -0.012 A 
HETATM   32  C25 UNL     1      22.827  33.490  17.042  1.00  0.00     0.052 C 
HETATM   33  C26 UNL     1      20.900  35.071  16.780  1.00  0.00     0.125 A 
HETATM   34  N4  UNL     1      21.771  36.092  17.307  1.00  0.00    -0.082 NA
HETATM   35  N5  UNL     1      19.632  35.348  16.430  1.00  0.00    -0.309 N 
HETATM   36  C27 UNL     1      18.867  34.344  15.943  1.00  0.00     0.274 A 
ATOM     37  H5  UNL     1      19.256  36.292  16.528  1.00  0.00     0.170 HD
HETATM   38  O5  UNL     1      17.707  34.635  15.633  1.00  0.00    -0.266 OA
BRANCH  30  39
HETATM   39  C22 UNL     1      21.186  31.445  16.060  1.00  0.00     0.037 C 
HETATM   40  C23 UNL     1      21.911  31.295  14.735  1.00  0.00     0.010 C 
ENDBRANCH  30  39
ENDBRANCH   4  29
ENDBRANCH   3   4
TORSDOF 11
ENDMDL
MODEL 5
REMARK VINA RESULT: -8.586466115      4.658     11.262
REMARK  11 active torsions:
REMARK  status: ('A' for Active; 'I' for Inactive)
REMARK    1  A    between atoms: C3_3  and  N1_4 
REMARK       I    between atoms: N1_4  and  C4_5 
REMARK    2  A    between atoms: N1_4  and  C20_29 
REMARK    3  A    between atoms: C4_5  and  C5_7 
REMARK    4  A    between atoms: C5_7  and  N2_8 
REMARK    5  A    between atoms: N2_8  and  C7_10 
REMARK    6  A    between atoms: C7_10  and  C8_11 
REMARK       I    between atoms: C8_11  and  N3_13 
REMARK    7  A    between atoms: N3_13  and  C9_15 
REMARK    8  A    between atoms: C12_19  and  C13_20 
REMARK    9  A    between atoms: C13_20  and  O4_22 
REMARK   10  A    between atoms: O4_22  and  C14_23 
REMARK   11  A    between atoms: C21_30  and  C22_31 
ROOT
HETATM    1  C1  UNL     1      16.869  31.290  15.123  1.00  0.00     0.014 C 
HETATM    2  C2  UNL     1      17.947  30.737  15.001  1.00  0.00    -0.097 C 
HETATM    3  C3  UNL     1      19.264  30.063  14.883  1.00  0.00     0.225 C 
ENDROOT
BRANCH   3   4
HETATM    4  N1  UNL     1      19.705  30.275  13.507  1.00  0.00    -0.300 N 
HETATM    5  C4  UNL     1      20.244  31.577  13.260  1.00  0.00     0.238 C 
HETATM    6  O1  UNL     1      20.632  31.831  12.100  1.00  0.00    -0.272 OA
BRANCH   5   7
HETATM    7  C5  UNL     1      20.368  32.643  14.280  1.00  0.00     0.197 C 
BRANCH   7   8
HETATM    8  N2  UNL     1      21.400  32.273  15.205  1.00  0.00    -0.283 NA
HETATM    9  C6  UNL     1      22.686  32.482  14.619  1.00  0.00     0.116 C 
BRANCH   8  10
HETATM   10  C7  UNL     1      21.318  32.737  16.522  1.00  0.00     0.134 C 
BRANCH  10  11
HETATM   11  C8  UNL     1      20.541  34.037  16.661  1.00  0.00     0.256 C 
HETATM   12  O2  UNL     1      21.158  35.013  16.230  1.00  0.00    -0.267 OA
HETATM   13  N3  UNL     1      19.281  34.028  17.223  1.00  0.00    -0.316 N 
ATOM     14  H3  UNL     1      19.031  33.089  17.531  1.00  0.00     0.169 HD
BRANCH  13  15
HETATM   15  C9  UNL     1      18.247  34.930  17.495  1.00  0.00     0.094 A 
HETATM   16  S1  UNL     1      16.576  34.428  17.188  1.00  0.00    -0.075 SA
HETATM   17  C10 UNL     1      15.770  35.818  17.656  1.00  0.00    -0.008 A 
HETATM   18  C11 UNL     1      16.782  36.655  18.038  1.00  0.00    -0.026 A 
HETATM   19  C19 UNL     1      14.351  36.331  17.748  1.00  0.00     0.047 C 
HETATM   20  C12 UNL     1      18.058  36.197  17.948  1.00  0.00     0.080 A 
HETATM   21  C16 UNL     1      16.221  37.973  18.526  1.00  0.00     0.041 C 
HETATM   22  C17 UNL     1      15.155  37.721  19.573  1.00  0.00     0.005 C 
HETATM   23  C18 UNL     1      14.133  36.714  19.188  1.00  0.00     0.005 C 
BRANCH  20  24
HETATM   24  C13 UNL     1      19.203  37.138  18.109  1.00  0.00     0.296 C 
HETATM   25  O3  UNL     1      19.936  37.089  19.083  1.00  0.00    -0.259 OA
BRANCH  24  26
HETATM   26  O4  UNL     1      19.514  38.123  17.182  1.00  0.00    -0.318 OA
BRANCH  26  27
HETATM   27  C14 UNL     1      19.486  39.511  17.543  1.00  0.00     0.174 C 
HETATM   28  C15 UNL     1      19.206  40.398  16.364  1.00  0.00     0.034 C 
ENDBRANCH  26  27
ENDBRANCH  24  26
ENDBRANCH  20  24
ENDBRANCH  13  15
ENDBRANCH  10  11
ENDBRANCH   8  10
ENDBRANCH   7   8
ENDBRANCH   5   7
BRANCH   4  29
HETATM   29  C20 UNL     1      19.591  29.282  12.550  1.00  0.00     0.113 A 
HETATM   30  C21 UNL     1      20.492  28.274  12.417  1.00  0.00    -0.017 A 
HETATM   31  C24 UNL     1      20.314  27.283  11.431  1.00  0.00    -0.012 A 
HETATM   32  C25 UNL     1      21.336  26.200  11.333  1.00  0.00     0.052 C 
HETATM   33  C26 UNL     1      19.229  27.355  10.619  1.00  0.00     0.125 A 
HETATM   34  N4  UNL     1      19.093  26.318   9.627  1.00  0.00    -0.082 NA
HETATM   35  N5  UNL     1      18.322  28.342  10.727  1.00  0.00    -0.309 N 
HETATM   36  C27 UNL     1      18.510  29.284  11.680  1.00  0.00     0.274 A 
ATOM     37  H5  UNL     1      17.513  28.379  10.107  1.00  0.00     0.170 HD
HETATM   38  O5  UNL     1      17.657  30.176  11.748  1.00  0.00    -0.266 OA
BRANCH  30  39
HETATM   39  C22 UNL     1      21.689  28.198  13.263  1.00  0.00     0.037 C 
HETATM   40  C23 UNL     1      22.829  28.937  12.588  1.00  0.00     0.010 C 
ENDBRANCH  30  39
ENDBRANCH   4  29
ENDBRANCH   3   4
TORSDOF 11
ENDMDL
