MODEL 1
REMARK VINA RESULT: -9.734023445      0.000      0.000
REMARK  12 active torsions:
REMARK  status: ('A' for Active; 'I' for Inactive)
REMARK    1  A    between atoms: C2_2  and  C3_3 
REMARK    2  A    between atoms: C3_3  and  C4_4 
REMARK    3  A    between atoms: C4_4  and  C5_5 
REMARK    4  A    between atoms: C5_5  and  C6_6 
REMARK    5  A    between atoms: C6_6  and  O1_7 
REMARK    6  A    between atoms: C6_6  and  C7_9 
REMARK    7  A    between atoms: C7_9  and  N1_10 
REMARK    8  A    between atoms: C9_15  and  C10_16 
REMARK    9  A    between atoms: C10_16  and  C11_18 
REMARK   10  A    between atoms: C11_18  and  C12_19 
REMARK   11  A    between atoms: N3_21  and  C14_22 
REMARK   12  A    between atoms: C14_22  and  C15_23 
REMARK       I    between atoms: C15_23  and  N4_25 
ROOT
HETATM    1  C12 UNL     1      21.834  30.085  14.152  1.00  0.00    -0.021 A 
HETATM    2  C13 UNL     1      20.471  29.971  14.302  1.00  0.00     0.101 A 
HETATM    3  N3  UNL     1      20.045  28.837  13.671  1.00  0.00    -0.333 N 
HETATM    4  C20 UNL     1      21.131  28.257  13.136  1.00  0.00     0.121 A 
HETATM    5  N5  UNL     1      21.312  27.135  12.414  1.00  0.00    -0.308 N 
ATOM      6  H5  UNL     1      20.492  26.568  12.197  1.00  0.00     0.170 HD
HETATM    7  C21 UNL     1      22.508  26.713  11.959  1.00  0.00     0.252 A 
HETATM    8  O5  UNL     1      22.616  25.642  11.279  1.00  0.00    -0.268 OA
HETATM    9  C22 UNL     1      23.658  27.429  12.215  1.00  0.00     0.007 A 
HETATM   10  C23 UNL     1      24.985  26.968  11.716  1.00  0.00     0.054 C 
HETATM   11  C24 UNL     1      23.510  28.585  12.953  1.00  0.00     0.028 A 
HETATM   12  C25 UNL     1      22.271  28.992  13.406  1.00  0.00     0.017 A 
ENDROOT
BRANCH   1  13
HETATM   13  C11 UNL     1      22.745  31.140  14.658  1.00  0.00     0.125 C 
BRANCH  13  14
HETATM   14  C10 UNL     1      22.131  32.481  14.522  1.00  0.00     0.171 C 
HETATM   15  O3  UNL     1      22.298  33.122  13.457  1.00  0.00    -0.292 OA
BRANCH  14  16
HETATM   16  C9  UNL     1      21.346  33.051  15.601  1.00  0.00     0.103 A 
HETATM   17  C8  UNL     1      21.839  33.353  16.872  1.00  0.00     0.275 A 
HETATM   18  N2  UNL     1      20.816  33.858  17.585  1.00  0.00    -0.263 N 
HETATM   19  O2  UNL     1      23.005  33.201  17.315  1.00  0.00    -0.266 OA
HETATM   20  N1  UNL     1      19.713  33.899  16.859  1.00  0.00    -0.290 N 
ATOM     21  H2  UNL     1      20.883  34.168  18.555  1.00  0.00     0.190 HD
HETATM   22  C26 UNL     1      20.023  33.401  15.623  1.00  0.00     0.044 A 
HETATM   23  C27 UNL     1      19.060  33.265  14.482  1.00  0.00     0.071 C 
BRANCH  20  24
HETATM   24  C7  UNL     1      18.396  34.350  17.252  1.00  0.00     0.180 C 
BRANCH  24  25
HETATM   25  C6  UNL     1      18.475  35.325  18.419  1.00  0.00     0.138 C 
BRANCH  25  26
HETATM   26  C5  UNL     1      17.248  36.180  18.490  1.00  0.00     0.033 C 
BRANCH  26  27
HETATM   27  C4  UNL     1      16.425  36.273  17.262  1.00  0.00     0.002 C 
BRANCH  27  28
HETATM   28  C3  UNL     1      14.994  35.907  17.410  1.00  0.00    -0.000 C 
BRANCH  28  29
HETATM   29  C2  UNL     1      14.784  34.434  17.684  1.00  0.00    -0.005 C 
HETATM   30  C1  UNL     1      14.822  33.622  16.407  1.00  0.00     0.005 C 
ENDBRANCH  28  29
ENDBRANCH  27  28
ENDBRANCH  26  27
ENDBRANCH  25  26
BRANCH  25  31
HETATM   31  O1  UNL     1      18.866  34.751  19.597  1.00  0.00    -0.394 OA
ATOM     32  H1  UNL     1      18.571  33.860  19.738  1.00  0.00     0.210 HD
ENDBRANCH  25  31
ENDBRANCH  24  25
ENDBRANCH  20  24
ENDBRANCH  14  16
ENDBRANCH  13  14
ENDBRANCH   1  13
BRANCH   3  33
HETATM   33  C14 UNL     1      18.650  28.391  13.629  1.00  0.00     0.232 C 
BRANCH  33  34
HETATM   34  C15 UNL     1      18.195  28.559  12.215  1.00  0.00     0.238 C 
HETATM   35  O4  UNL     1      18.331  29.737  11.725  1.00  0.00    -0.272 OA
HETATM   36  N4  UNL     1      17.647  27.552  11.412  1.00  0.00    -0.349 N 
HETATM   37  C16 UNL     1      17.226  27.906  10.052  1.00  0.00     0.136 C 
HETATM   38  C19 UNL     1      17.456  26.171  11.778  1.00  0.00     0.136 C 
HETATM   39  C17 UNL     1      18.391  27.603   9.140  1.00  0.00     0.093 C 
HETATM   40  S1  UNL     1      19.329  26.164   9.730  1.00  0.00    -0.166 SA
HETATM   41  C18 UNL     1      18.478  25.310  11.059  1.00  0.00     0.093 C 
ENDBRANCH  33  34
ENDBRANCH   3  33
TORSDOF 12
ENDMDL
MODEL 2
REMARK VINA RESULT: -9.550798592      3.015      9.968
REMARK  12 active torsions:
REMARK  status: ('A' for Active; 'I' for Inactive)
REMARK    1  A    between atoms: C2_2  and  C3_3 
REMARK    2  A    between atoms: C3_3  and  C4_4 
REMARK    3  A    between atoms: C4_4  and  C5_5 
REMARK    4  A    between atoms: C5_5  and  C6_6 
REMARK    5  A    between atoms: C6_6  and  O1_7 
REMARK    6  A    between atoms: C6_6  and  C7_9 
REMARK    7  A    between atoms: C7_9  and  N1_10 
REMARK    8  A    between atoms: C9_15  and  C10_16 
REMARK    9  A    between atoms: C10_16  and  C11_18 
REMARK   10  A    between atoms: C11_18  and  C12_19 
REMARK   11  A    between atoms: N3_21  and  C14_22 
REMARK   12  A    between atoms: C14_22  and  C15_23 
REMARK       I    between atoms: C15_23  and  N4_25 
ROOT
HETATM    1  C12 UNL     1      19.021  31.733  14.498  1.00  0.00    -0.021 A 
HETATM    2  C13 UNL     1      20.301  31.873  14.981  1.00  0.00     0.101 A 
HETATM    3  N3  UNL     1      20.271  32.632  16.117  1.00  0.00    -0.333 N 
HETATM    4  C20 UNL     1      18.987  32.959  16.332  1.00  0.00     0.121 A 
HETATM    5  N5  UNL     1      18.370  33.681  17.288  1.00  0.00    -0.308 N 
ATOM      6  H5  UNL     1      18.946  34.090  18.025  1.00  0.00     0.170 HD
HETATM    7  C21 UNL     1      17.041  33.900  17.331  1.00  0.00     0.252 A 
HETATM    8  O5  UNL     1      16.516  34.593  18.261  1.00  0.00    -0.268 OA
HETATM    9  C22 UNL     1      16.204  33.378  16.368  1.00  0.00     0.007 A 
HETATM   10  C23 UNL     1      14.733  33.614  16.410  1.00  0.00     0.054 C 
HETATM   11  C24 UNL     1      16.802  32.632  15.374  1.00  0.00     0.028 A 
HETATM   12  C25 UNL     1      18.166  32.425  15.355  1.00  0.00     0.017 A 
ENDROOT
BRANCH   1  13
HETATM   13  C11 UNL     1      18.549  31.000  13.298  1.00  0.00     0.125 C 
BRANCH  13  14
HETATM   14  C10 UNL     1      19.687  30.618  12.429  1.00  0.00     0.171 C 
HETATM   15  O3  UNL     1      20.336  31.518  11.845  1.00  0.00    -0.292 OA
BRANCH  14  16
HETATM   16  C9  UNL     1      20.050  29.225  12.252  1.00  0.00     0.103 A 
HETATM   17  C8  UNL     1      21.127  28.596  12.881  1.00  0.00     0.275 A 
HETATM   18  N2  UNL     1      21.137  27.317  12.464  1.00  0.00    -0.263 N 
HETATM   19  O2  UNL     1      21.956  29.086  13.688  1.00  0.00    -0.266 OA
HETATM   20  N1  UNL     1      20.147  27.089  11.620  1.00  0.00    -0.290 N 
ATOM     21  H2  UNL     1      21.818  26.617  12.761  1.00  0.00     0.190 HD
HETATM   22  C26 UNL     1      19.460  28.264  11.476  1.00  0.00     0.044 A 
HETATM   23  C27 UNL     1      18.256  28.457  10.605  1.00  0.00     0.071 C 
BRANCH  20  24
HETATM   24  C7  UNL     1      19.818  25.861  10.932  1.00  0.00     0.180 C 
BRANCH  24  25
HETATM   25  C6  UNL     1      21.018  24.925  10.876  1.00  0.00     0.138 C 
BRANCH  25  26
HETATM   26  C5  UNL     1      22.034  25.411   9.889  1.00  0.00     0.033 C 
BRANCH  26  27
HETATM   27  C4  UNL     1      23.458  25.239  10.255  1.00  0.00     0.002 C 
BRANCH  27  28
HETATM   28  C3  UNL     1      24.367  26.347   9.868  1.00  0.00    -0.000 C 
BRANCH  28  29
HETATM   29  C2  UNL     1      24.317  27.517  10.825  1.00  0.00    -0.005 C 
HETATM   30  C1  UNL     1      24.959  27.175  12.153  1.00  0.00     0.005 C 
ENDBRANCH  28  29
ENDBRANCH  27  28
ENDBRANCH  26  27
ENDBRANCH  25  26
BRANCH  25  31
HETATM   31  O1  UNL     1      21.507  24.574  12.105  1.00  0.00    -0.394 OA
ATOM     32  H1  UNL     1      21.242  23.720  12.424  1.00  0.00     0.210 HD
ENDBRANCH  25  31
ENDBRANCH  24  25
ENDBRANCH  20  24
ENDBRANCH  14  16
ENDBRANCH  13  14
ENDBRANCH   1  13
BRANCH   3  33
HETATM   33  C14 UNL     1      21.454  32.982  16.907  1.00  0.00     0.232 C 
BRANCH  33  34
HETATM   34  C15 UNL     1      21.656  34.453  16.736  1.00  0.00     0.238 C 
HETATM   35  O4  UNL     1      21.676  34.874  15.524  1.00  0.00    -0.272 OA
HETATM   36  N4  UNL     1      21.820  35.377  17.776  1.00  0.00    -0.349 N 
HETATM   37  C16 UNL     1      22.037  36.784  17.421  1.00  0.00     0.136 C 
HETATM   38  C19 UNL     1      21.787  35.095  19.189  1.00  0.00     0.136 C 
HETATM   39  C17 UNL     1      20.683  37.452  17.425  1.00  0.00     0.093 C 
HETATM   40  S1  UNL     1      19.598  36.725  18.687  1.00  0.00    -0.166 SA
HETATM   41  C18 UNL     1      20.491  35.618  19.780  1.00  0.00     0.093 C 
ENDBRANCH  33  34
ENDBRANCH   3  33
TORSDOF 12
ENDMDL
MODEL 3
REMARK VINA RESULT: -9.524077497      1.012      1.500
REMARK  12 active torsions:
REMARK  status: ('A' for Active; 'I' for Inactive)
REMARK    1  A    between atoms: C2_2  and  C3_3 
REMARK    2  A    between atoms: C3_3  and  C4_4 
REMARK    3  A    between atoms: C4_4  and  C5_5 
REMARK    4  A    between atoms: C5_5  and  C6_6 
REMARK    5  A    between atoms: C6_6  and  O1_7 
REMARK    6  A    between atoms: C6_6  and  C7_9 
REMARK    7  A    between atoms: C7_9  and  N1_10 
REMARK    8  A    between atoms: C9_15  and  C10_16 
REMARK    9  A    between atoms: C10_16  and  C11_18 
REMARK   10  A    between atoms: C11_18  and  C12_19 
REMARK   11  A    between atoms: N3_21  and  C14_22 
REMARK   12  A    between atoms: C14_22  and  C15_23 
REMARK       I    between atoms: C15_23  and  N4_25 
ROOT
HETATM    1  C12 UNL     1      21.269  30.135  14.548  1.00  0.00    -0.021 A 
HETATM    2  C13 UNL     1      19.932  29.851  14.709  1.00  0.00     0.101 A 
HETATM    3  N3  UNL     1      19.626  28.722  14.003  1.00  0.00    -0.333 N 
HETATM    4  C20 UNL     1      20.759  28.314  13.411  1.00  0.00     0.121 A 
HETATM    5  N5  UNL     1      21.053  27.275  12.605  1.00  0.00    -0.308 N 
ATOM      6  H5  UNL     1      20.299  26.632  12.360  1.00  0.00     0.170 HD
HETATM    7  C21 UNL     1      22.279  27.030  12.103  1.00  0.00     0.252 A 
HETATM    8  O5  UNL     1      22.494  26.029  11.345  1.00  0.00    -0.268 OA
HETATM    9  C22 UNL     1      23.343  27.856  12.394  1.00  0.00     0.007 A 
HETATM   10  C23 UNL     1      24.703  27.590  11.843  1.00  0.00     0.054 C 
HETATM   11  C24 UNL     1      23.079  28.930  13.217  1.00  0.00     0.028 A 
HETATM   12  C25 UNL     1      21.813  29.156  13.717  1.00  0.00     0.017 A 
ENDROOT
BRANCH   1  13
HETATM   13  C11 UNL     1      22.063  31.251  15.116  1.00  0.00     0.125 C 
BRANCH  13  14
HETATM   14  C10 UNL     1      21.659  32.546  14.521  1.00  0.00     0.171 C 
HETATM   15  O3  UNL     1      22.087  32.854  13.384  1.00  0.00    -0.292 OA
BRANCH  14  16
HETATM   16  C9  UNL     1      20.780  33.450  15.239  1.00  0.00     0.103 A 
HETATM   17  C8  UNL     1      19.425  33.635  14.956  1.00  0.00     0.275 A 
HETATM   18  N2  UNL     1      18.959  34.547  15.829  1.00  0.00    -0.263 N 
HETATM   19  O2  UNL     1      18.728  33.081  14.069  1.00  0.00    -0.266 OA
HETATM   20  N1  UNL     1      19.917  34.951  16.643  1.00  0.00    -0.290 N 
ATOM     21  H2  UNL     1      17.995  34.880  15.859  1.00  0.00     0.190 HD
HETATM   22  C26 UNL     1      21.057  34.281  16.291  1.00  0.00     0.044 A 
HETATM   23  C27 UNL     1      22.390  34.437  16.957  1.00  0.00     0.071 C 
BRANCH  20  24
HETATM   24  C7  UNL     1      19.840  35.931  17.704  1.00  0.00     0.180 C 
BRANCH  24  25
HETATM   25  C6  UNL     1      18.628  35.685  18.591  1.00  0.00     0.138 C 
BRANCH  25  26
HETATM   26  C5  UNL     1      17.604  36.763  18.414  1.00  0.00     0.033 C 
BRANCH  26  27
HETATM   27  C4  UNL     1      16.444  36.450  17.548  1.00  0.00     0.002 C 
BRANCH  27  28
HETATM   28  C3  UNL     1      15.110  36.529  18.195  1.00  0.00    -0.000 C 
BRANCH  28  29
HETATM   29  C2  UNL     1      14.154  35.461  17.715  1.00  0.00    -0.005 C 
HETATM   30  C1  UNL     1      14.892  34.305  17.071  1.00  0.00     0.005 C 
ENDBRANCH  28  29
ENDBRANCH  27  28
ENDBRANCH  26  27
ENDBRANCH  25  26
BRANCH  25  31
HETATM   31  O1  UNL     1      18.153  34.403  18.540  1.00  0.00    -0.394 OA
ATOM     32  H1  UNL     1      18.691  33.784  18.062  1.00  0.00     0.210 HD
ENDBRANCH  25  31
ENDBRANCH  24  25
ENDBRANCH  20  24
ENDBRANCH  14  16
ENDBRANCH  13  14
ENDBRANCH   1  13
BRANCH   3  33
HETATM   33  C14 UNL     1      18.292  28.120  13.949  1.00  0.00     0.232 C 
BRANCH  33  34
HETATM   34  C15 UNL     1      17.772  28.367  12.570  1.00  0.00     0.238 C 
HETATM   35  O4  UNL     1      17.679  29.600  12.224  1.00  0.00    -0.272 OA
HETATM   36  N4  UNL     1      17.390  27.378  11.655  1.00  0.00    -0.349 N 
HETATM   37  C16 UNL     1      16.872  27.807  10.350  1.00  0.00     0.136 C 
HETATM   38  C19 UNL     1      17.462  25.952  11.852  1.00  0.00     0.136 C 
HETATM   39  C17 UNL     1      18.045  27.831   9.399  1.00  0.00     0.093 C 
HETATM   40  S1  UNL     1      19.244  26.528   9.804  1.00  0.00    -0.166 SA
HETATM   41  C18 UNL     1      18.600  25.383  11.026  1.00  0.00     0.093 C 
ENDBRANCH  33  34
ENDBRANCH   3  33
TORSDOF 12
ENDMDL
MODEL 4
REMARK VINA RESULT: -9.429392863      1.660      2.334
REMARK  12 active torsions:
REMARK  status: ('A' for Active; 'I' for Inactive)
REMARK    1  A    between atoms: C2_2  and  C3_3 
REMARK    2  A    between atoms: C3_3  and  C4_4 
REMARK    3  A    between atoms: C4_4  and  C5_5 
REMARK    4  A    between atoms: C5_5  and  C6_6 
REMARK    5  A    between atoms: C6_6  and  O1_7 
REMARK    6  A    between atoms: C6_6  and  C7_9 
REMARK    7  A    between atoms: C7_9  and  N1_10 
REMARK    8  A    between atoms: C9_15  and  C10_16 
REMARK    9  A    between atoms: C10_16  and  C11_18 
REMARK   10  A    between atoms: C11_18  and  C12_19 
REMARK   11  A    between atoms: N3_21  and  C14_22 
REMARK   12  A    between atoms: C14_22  and  C15_23 
REMARK       I    between atoms: C15_23  and  N4_25 
ROOT
HETATM    1  C12 UNL     1      21.786  30.082  14.339  1.00  0.00    -0.021 A 
HETATM    2  C13 UNL     1      20.487  29.846  14.727  1.00  0.00     0.101 A 
HETATM    3  N3  UNL     1      20.038  28.707  14.121  1.00  0.00    -0.333 N 
HETATM    4  C20 UNL     1      21.047  28.245  13.366  1.00  0.00     0.121 A 
HETATM    5  N5  UNL     1      21.175  27.173  12.560  1.00  0.00    -0.308 N 
ATOM      6  H5  UNL     1      20.374  26.548  12.464  1.00  0.00     0.170 HD
HETATM    7  C21 UNL     1      22.294  26.874  11.872  1.00  0.00     0.252 A 
HETATM    8  O5  UNL     1      22.354  25.844  11.124  1.00  0.00    -0.268 OA
HETATM    9  C22 UNL     1      23.414  27.673  11.955  1.00  0.00     0.007 A 
HETATM   10  C23 UNL     1      24.656  27.348  11.197  1.00  0.00     0.054 C 
HETATM   11  C24 UNL     1      23.318  28.780  12.772  1.00  0.00     0.028 A 
HETATM   12  C25 UNL     1      22.158  29.061  13.465  1.00  0.00     0.017 A 
ENDROOT
BRANCH   1  13
HETATM   13  C11 UNL     1      22.692  31.189  14.730  1.00  0.00     0.125 C 
BRANCH  13  14
HETATM   14  C10 UNL     1      22.194  32.487  14.221  1.00  0.00     0.171 C 
HETATM   15  O3  UNL     1      23.018  33.331  13.794  1.00  0.00    -0.292 OA
BRANCH  14  16
HETATM   16  C9  UNL     1      20.774  32.786  14.213  1.00  0.00     0.103 A 
HETATM   17  C8  UNL     1      19.923  32.579  13.126  1.00  0.00     0.275 A 
HETATM   18  N2  UNL     1      18.694  32.977  13.504  1.00  0.00    -0.263 N 
HETATM   19  O2  UNL     1      20.200  32.113  11.992  1.00  0.00    -0.266 OA
HETATM   20  N1  UNL     1      18.705  33.419  14.748  1.00  0.00    -0.290 N 
ATOM     21  H2  UNL     1      17.866  32.942  12.909  1.00  0.00     0.190 HD
HETATM   22  C26 UNL     1      19.990  33.308  15.206  1.00  0.00     0.044 A 
HETATM   23  C27 UNL     1      20.454  33.699  16.576  1.00  0.00     0.071 C 
BRANCH  20  24
HETATM   24  C7  UNL     1      17.606  33.953  15.521  1.00  0.00     0.180 C 
BRANCH  24  25
HETATM   25  C6  UNL     1      16.672  32.844  15.986  1.00  0.00     0.138 C 
BRANCH  25  26
HETATM   26  C5  UNL     1      15.320  33.388  16.332  1.00  0.00     0.033 C 
BRANCH  26  27
HETATM   27  C4  UNL     1      15.190  34.079  17.634  1.00  0.00     0.002 C 
BRANCH  27  28
HETATM   28  C3  UNL     1      14.405  35.339  17.626  1.00  0.00    -0.000 C 
BRANCH  28  29
HETATM   29  C2  UNL     1      15.033  36.436  18.456  1.00  0.00    -0.005 C 
HETATM   30  C1  UNL     1      14.012  37.479  18.861  1.00  0.00     0.005 C 
ENDBRANCH  28  29
ENDBRANCH  27  28
ENDBRANCH  26  27
ENDBRANCH  25  26
BRANCH  25  31
HETATM   31  O1  UNL     1      16.677  31.739  15.179  1.00  0.00    -0.394 OA
ATOM     32  H1  UNL     1      17.472  31.220  15.198  1.00  0.00     0.210 HD
ENDBRANCH  25  31
ENDBRANCH  24  25
ENDBRANCH  20  24
ENDBRANCH  14  16
ENDBRANCH  13  14
ENDBRANCH   1  13
BRANCH   3  33
HETATM   33  C14 UNL     1      18.698  28.146  14.308  1.00  0.00     0.232 C 
BRANCH  33  34
HETATM   34  C15 UNL     1      17.890  28.579  13.127  1.00  0.00     0.238 C 
HETATM   35  O4  UNL     1      17.722  29.846  13.004  1.00  0.00    -0.272 OA
HETATM   36  N4  UNL     1      17.320  27.725  12.175  1.00  0.00    -0.349 N 
HETATM   37  C16 UNL     1      16.531  28.327  11.094  1.00  0.00     0.136 C 
HETATM   38  C19 UNL     1      17.436  26.290  12.131  1.00  0.00     0.136 C 
HETATM   39  C17 UNL     1      17.469  28.534   9.928  1.00  0.00     0.093 C 
HETATM   40  S1  UNL     1      18.729  27.227   9.861  1.00  0.00    -0.166 SA
HETATM   41  C18 UNL     1      18.369  25.891  11.002  1.00  0.00     0.093 C 
ENDBRANCH  33  34
ENDBRANCH   3  33
TORSDOF 12
ENDMDL
MODEL 5
REMARK VINA RESULT: -9.194632910      2.968     10.135
REMARK  12 active torsions:
REMARK  status: ('A' for Active; 'I' for Inactive)
REMARK    1  A    between atoms: C2_2  and  C3_3 
REMARK    2  A    between atoms: C3_3  and  C4_4 
REMARK    3  A    between atoms: C4_4  and  C5_5 
REMARK    4  A    between atoms: C5_5  and  C6_6 
REMARK    5  A    between atoms: C6_6  and  O1_7 
REMARK    6  A    between atoms: C6_6  and  C7_9 
REMARK    7  A    between atoms: C7_9  and  N1_10 
REMARK    8  A    between atoms: C9_15  and  C10_16 
REMARK    9  A    between atoms: C10_16  and  C11_18 
REMARK   10  A    between atoms: C11_18  and  C12_19 
REMARK   11  A    between atoms: N3_21  and  C14_22 
REMARK   12  A    between atoms: C14_22  and  C15_23 
REMARK       I    between atoms: C15_23  and  N4_25 
ROOT
HETATM    1  C12 UNL     1      18.699  31.427  14.706  1.00  0.00    -0.021 A 
HETATM    2  C13 UNL     1      20.008  31.535  15.116  1.00  0.00     0.101 A 
HETATM    3  N3  UNL     1      20.077  32.405  16.167  1.00  0.00    -0.333 N 
HETATM    4  C20 UNL     1      18.826  32.830  16.403  1.00  0.00     0.121 A 
HETATM    5  N5  UNL     1      18.299  33.683  17.304  1.00  0.00    -0.308 N 
ATOM      6  H5  UNL     1      18.933  34.127  17.969  1.00  0.00     0.170 HD
HETATM    7  C21 UNL     1      16.989  33.985  17.382  1.00  0.00     0.252 A 
HETATM    8  O5  UNL     1      16.551  34.801  18.257  1.00  0.00    -0.268 OA
HETATM    9  C22 UNL     1      16.077  33.422  16.516  1.00  0.00     0.007 A 
HETATM   10  C23 UNL     1      14.625  33.752  16.597  1.00  0.00     0.054 C 
HETATM   11  C24 UNL     1      16.581  32.544  15.580  1.00  0.00     0.028 A 
HETATM   12  C25 UNL     1      17.929  32.252  15.523  1.00  0.00     0.017 A 
ENDROOT
BRANCH   1  13
HETATM   13  C11 UNL     1      18.128  30.607  13.610  1.00  0.00     0.125 C 
BRANCH  13  14
HETATM   14  C10 UNL     1      19.101  30.446  12.505  1.00  0.00     0.171 C 
HETATM   15  O3  UNL     1      19.723  31.453  12.090  1.00  0.00    -0.292 OA
BRANCH  14  16
HETATM   16  C9  UNL     1      19.338  29.145  11.908  1.00  0.00     0.103 A 
HETATM   17  C8  UNL     1      18.552  28.575  10.904  1.00  0.00     0.275 A 
HETATM   18  N2  UNL     1      19.085  27.373  10.618  1.00  0.00    -0.263 N 
HETATM   19  O2  UNL     1      17.534  29.051  10.342  1.00  0.00    -0.266 OA
HETATM   20  N1  UNL     1      20.149  27.141  11.365  1.00  0.00    -0.290 N 
ATOM     21  H2  UNL     1      18.716  26.728   9.918  1.00  0.00     0.190 HD
HETATM   22  C26 UNL     1      20.322  28.231  12.173  1.00  0.00     0.044 A 
HETATM   23  C27 UNL     1      21.416  28.390  13.185  1.00  0.00     0.071 C 
BRANCH  20  24
HETATM   24  C7  UNL     1      20.993  25.967  11.385  1.00  0.00     0.180 C 
BRANCH  24  25
HETATM   25  C6  UNL     1      21.507  25.636   9.991  1.00  0.00     0.138 C 
BRANCH  25  26
HETATM   26  C5  UNL     1      22.821  24.920  10.057  1.00  0.00     0.033 C 
BRANCH  26  27
HETATM   27  C4  UNL     1      24.042  25.756  10.001  1.00  0.00     0.002 C 
BRANCH  27  28
HETATM   28  C3  UNL     1      24.652  26.103  11.309  1.00  0.00    -0.000 C 
BRANCH  28  29
HETATM   29  C2  UNL     1      24.680  27.592  11.572  1.00  0.00    -0.005 C 
HETATM   30  C1  UNL     1      23.885  28.355  10.533  1.00  0.00     0.005 C 
ENDBRANCH  28  29
ENDBRANCH  27  28
ENDBRANCH  26  27
ENDBRANCH  25  26
BRANCH  25  31
HETATM   31  O1  UNL     1      20.567  25.074   9.171  1.00  0.00    -0.394 OA
ATOM     32  H1  UNL     1      20.087  25.681   8.620  1.00  0.00     0.210 HD
ENDBRANCH  25  31
ENDBRANCH  24  25
ENDBRANCH  20  24
ENDBRANCH  14  16
ENDBRANCH  13  14
ENDBRANCH   1  13
BRANCH   3  33
HETATM   33  C14 UNL     1      21.315  32.760  16.864  1.00  0.00     0.232 C 
BRANCH  33  34
HETATM   34  C15 UNL     1      21.525  34.222  16.637  1.00  0.00     0.238 C 
HETATM   35  O4  UNL     1      21.437  34.613  15.418  1.00  0.00    -0.272 OA
HETATM   36  N4  UNL     1      21.802  35.168  17.632  1.00  0.00    -0.349 N 
HETATM   37  C16 UNL     1      22.008  36.562  17.221  1.00  0.00     0.136 C 
HETATM   38  C19 UNL     1      21.898  34.921  19.048  1.00  0.00     0.136 C 
HETATM   39  C17 UNL     1      20.672  37.255  17.335  1.00  0.00     0.093 C 
HETATM   40  S1  UNL     1      19.699  36.580  18.713  1.00  0.00    -0.166 SA
HETATM   41  C18 UNL     1      20.673  35.483  19.745  1.00  0.00     0.093 C 
ENDBRANCH  33  34
ENDBRANCH   3  33
TORSDOF 12
ENDMDL
