MODEL 1
REMARK VINA RESULT: -9.180260191      0.000      0.000
REMARK  11 active torsions:
REMARK  status: ('A' for Active; 'I' for Inactive)
REMARK    1  A    between atoms: C1_2  and  C2_4 
REMARK    2  A    between atoms: C2_4  and  C3_5 
REMARK    3  A    between atoms: C3_5  and  N1_6 
REMARK       I    between atoms: N1_6  and  C4_8 
REMARK    4  A    between atoms: C4_8  and  C5_10 
REMARK    5  A    between atoms: C7_12  and  O4_13 
REMARK    6  A    between atoms: O4_13  and  C8_14 
REMARK    7  A    between atoms: C8_14  and  C9_15 
REMARK    8  A    between atoms: N2_22  and  C16_23 
REMARK    9  A    between atoms: C16_23  and  C17_24 
REMARK       I    between atoms: C17_24  and  N3_26 
REMARK   10  A    between atoms: N3_26  and  C18_28 
REMARK   11  A    between atoms: N4_32  and  C22_33 
ROOT
HETATM    1  C9  UNL     1      21.262  31.989  13.845  1.00  0.00     0.014 C 
HETATM    2  C10 UNL     1      22.451  32.863  13.888  1.00  0.00     0.042 C 
HETATM    3  C11 UNL     1      22.652  33.596  15.204  1.00  0.00     0.224 C 
HETATM    4  C12 UNL     1      22.899  32.523  16.251  1.00  0.00     0.038 C 
HETATM    5  C13 UNL     1      21.516  32.088  16.688  1.00  0.00     0.038 C 
HETATM    6  C14 UNL     1      20.611  33.050  15.994  1.00  0.00     0.224 C 
HETATM    7  C15 UNL     1      20.097  32.446  14.702  1.00  0.00     0.042 C 
HETATM    8  N2  UNL     1      21.429  34.211  15.666  1.00  0.00     0.106 N 
ENDROOT
BRANCH   1   9
HETATM    9  C8  UNL     1      20.735  31.722  12.458  1.00  0.00     0.181 C 
BRANCH   9  10
HETATM   10  O4  UNL     1      19.888  30.773  12.209  1.00  0.00    -0.342 OA
BRANCH  10  11
HETATM   11  C7  UNL     1      19.633  29.469  12.223  1.00  0.00     0.128 A 
HETATM   12  C6  UNL     1      20.346  28.487  11.505  1.00  0.00     0.081 A 
HETATM   13  C5  UNL     1      19.936  27.230  11.650  1.00  0.00     0.110 A 
HETATM   14  N5  UNL     1      18.900  26.988  12.448  1.00  0.00    -0.320 N 
HETATM   15  S1  UNL     1      18.464  28.498  13.021  1.00  0.00     0.011 SA
ATOM     16  H5  UNL     1      18.469  26.089  12.661  1.00  0.00     0.174 HD
BRANCH  13  17
HETATM   17  C4  UNL     1      20.620  26.093  10.952  1.00  0.00     0.268 C 
HETATM   18  N1  UNL     1      21.772  26.311  10.149  1.00  0.00    -0.355 N 
ATOM     19  H1  UNL     1      22.107  27.272  10.074  1.00  0.00     0.162 HD
HETATM   20  O3  UNL     1      20.185  24.935  11.066  1.00  0.00    -0.266 OA
BRANCH  18  21
HETATM   21  C3  UNL     1      22.504  25.315   9.435  1.00  0.00     0.133 C 
BRANCH  21  22
HETATM   22  C2  UNL     1      24.001  25.484   9.520  1.00  0.00     0.133 C 
BRANCH  22  23
HETATM   23  C1  UNL     1      24.361  26.234  10.757  1.00  0.00     0.174 C 
HETATM   24  O1  UNL     1      24.574  25.571  11.805  1.00  0.00    -0.648 OA
HETATM   25  O2  UNL     1      24.461  27.595  10.779  1.00  0.00    -0.648 OA
ENDBRANCH  22  23
ENDBRANCH  21  22
ENDBRANCH  18  21
ENDBRANCH  13  17
ENDBRANCH  10  11
ENDBRANCH   9  10
ENDBRANCH   1   9
BRANCH   8  26
HETATM   26  C16 UNL     1      21.736  34.883  16.926  1.00  0.00     0.375 C 
BRANCH  26  27
HETATM   27  C17 UNL     1      20.509  35.324  17.624  1.00  0.00     0.247 C 
HETATM   28  O5  UNL     1      20.258  35.093  18.825  1.00  0.00    -0.272 OA
HETATM   29  N3  UNL     1      19.503  36.083  16.920  1.00  0.00    -0.330 N 
ATOM     30  H3  UNL     1      19.637  36.297  15.931  1.00  0.00     0.164 HD
BRANCH  29  31
HETATM   31  C18 UNL     1      18.301  36.549  17.596  1.00  0.00     0.324 C 
HETATM   32  C19 UNL     1      18.308  38.072  17.276  1.00  0.00     0.059 C 
HETATM   33  C20 UNL     1      16.861  38.396  17.329  1.00  0.00     0.034 C 
HETATM   34  C21 UNL     1      16.136  37.081  17.398  1.00  0.00     0.276 C 
HETATM   35  N4  UNL     1      17.101  36.032  17.033  1.00  0.00     0.116 N 
BRANCH  35  36
HETATM   36  C22 UNL     1      16.669  34.826  17.659  1.00  0.00     0.225 C 
HETATM   37  C23 UNL     1      15.200  34.653  17.818  1.00  0.00     0.036 C 
HETATM   38  C24 UNL     1      14.667  33.505  16.949  1.00  0.00     0.002 C 
HETATM   39  C25 UNL     1      15.285  33.710  15.570  1.00  0.00     0.000 C 
HETATM   40  C26 UNL     1      16.739  33.299  15.665  1.00  0.00     0.002 C 
HETATM   41  C27 UNL     1      17.255  33.583  17.034  1.00  0.00     0.036 C 
ENDBRANCH  35  36
ENDBRANCH  29  31
ENDBRANCH  26  27
ENDBRANCH   8  26
TORSDOF 11
ENDMDL
MODEL 2
REMARK VINA RESULT: -9.078628682      2.532     11.090
REMARK  11 active torsions:
REMARK  status: ('A' for Active; 'I' for Inactive)
REMARK    1  A    between atoms: C1_2  and  C2_4 
REMARK    2  A    between atoms: C2_4  and  C3_5 
REMARK    3  A    between atoms: C3_5  and  N1_6 
REMARK       I    between atoms: N1_6  and  C4_8 
REMARK    4  A    between atoms: C4_8  and  C5_10 
REMARK    5  A    between atoms: C7_12  and  O4_13 
REMARK    6  A    between atoms: O4_13  and  C8_14 
REMARK    7  A    between atoms: C8_14  and  C9_15 
REMARK    8  A    between atoms: N2_22  and  C16_23 
REMARK    9  A    between atoms: C16_23  and  C17_24 
REMARK       I    between atoms: C17_24  and  N3_26 
REMARK   10  A    between atoms: N3_26  and  C18_28 
REMARK   11  A    between atoms: N4_32  and  C22_33 
ROOT
HETATM    1  C9  UNL     1      20.539  31.224  13.824  1.00  0.00     0.014 C 
HETATM    2  C10 UNL     1      19.468  31.650  12.902  1.00  0.00     0.042 C 
HETATM    3  C11 UNL     1      18.539  30.534  12.452  1.00  0.00     0.224 C 
HETATM    4  C12 UNL     1      17.828  30.046  13.703  1.00  0.00     0.038 C 
HETATM    5  C13 UNL     1      18.774  29.033  14.312  1.00  0.00     0.038 C 
HETATM    6  C14 UNL     1      19.851  28.900  13.287  1.00  0.00     0.224 C 
HETATM    7  C15 UNL     1      21.020  29.798  13.637  1.00  0.00     0.042 C 
HETATM    8  N2  UNL     1      19.273  29.364  12.031  1.00  0.00     0.106 N 
ENDROOT
BRANCH   1   9
HETATM    9  C8  UNL     1      21.751  32.121  13.826  1.00  0.00     0.181 C 
BRANCH   9  10
HETATM   10  O4  UNL     1      21.881  33.111  14.654  1.00  0.00    -0.342 OA
BRANCH  10  11
HETATM   11  C7  UNL     1      21.551  33.636  15.830  1.00  0.00     0.128 A 
HETATM   12  C6  UNL     1      20.303  34.208  16.149  1.00  0.00     0.081 A 
HETATM   13  C5  UNL     1      20.166  34.683  17.384  1.00  0.00     0.110 A 
HETATM   14  N5  UNL     1      21.197  34.589  18.219  1.00  0.00    -0.320 N 
HETATM   15  S1  UNL     1      22.386  33.837  17.315  1.00  0.00     0.011 SA
ATOM     16  H5  UNL     1      21.251  34.903  19.187  1.00  0.00     0.174 HD
BRANCH  13  17
HETATM   17  C4  UNL     1      18.883  35.302  17.852  1.00  0.00     0.268 C 
HETATM   18  N1  UNL     1      18.158  36.202  17.025  1.00  0.00    -0.355 N 
ATOM     19  H1  UNL     1      18.551  36.402  16.105  1.00  0.00     0.162 HD
HETATM   20  O3  UNL     1      18.433  35.036  18.978  1.00  0.00    -0.266 OA
BRANCH  18  21
HETATM   21  C3  UNL     1      16.933  36.855  17.360  1.00  0.00     0.133 C 
BRANCH  21  22
HETATM   22  C2  UNL     1      15.703  36.053  17.010  1.00  0.00     0.133 C 
BRANCH  22  23
HETATM   23  C1  UNL     1      15.068  35.525  18.251  1.00  0.00     0.174 C 
HETATM   24  O1  UNL     1      15.224  34.305  18.518  1.00  0.00    -0.648 OA
HETATM   25  O2  UNL     1      14.335  36.318  19.086  1.00  0.00    -0.648 OA
ENDBRANCH  22  23
ENDBRANCH  21  22
ENDBRANCH  18  21
ENDBRANCH  13  17
ENDBRANCH  10  11
ENDBRANCH   9  10
ENDBRANCH   1   9
BRANCH   8  26
HETATM   26  C16 UNL     1      18.290  28.364  11.622  1.00  0.00     0.375 C 
BRANCH  26  27
HETATM   27  C17 UNL     1      18.934  27.090  11.232  1.00  0.00     0.247 C 
HETATM   28  O5  UNL     1      18.720  25.993  11.786  1.00  0.00    -0.272 OA
HETATM   29  N3  UNL     1      19.875  27.055  10.137  1.00  0.00    -0.330 N 
ATOM     30  H3  UNL     1      20.106  27.919   9.647  1.00  0.00     0.164 HD
BRANCH  29  31
HETATM   31  C18 UNL     1      20.498  25.808   9.721  1.00  0.00     0.324 C 
HETATM   32  C19 UNL     1      19.927  25.612   8.287  1.00  0.00     0.059 C 
HETATM   33  C20 UNL     1      21.004  24.822   7.640  1.00  0.00     0.034 C 
HETATM   34  C21 UNL     1      22.171  24.845   8.587  1.00  0.00     0.276 C 
HETATM   35  N4  UNL     1      21.910  25.905   9.575  1.00  0.00     0.116 N 
BRANCH  35  36
HETATM   36  C22 UNL     1      22.616  25.555  10.763  1.00  0.00     0.225 C 
HETATM   37  C23 UNL     1      24.060  25.236  10.605  1.00  0.00     0.036 C 
HETATM   38  C24 UNL     1      24.951  26.285  11.284  1.00  0.00     0.002 C 
HETATM   39  C25 UNL     1      24.399  27.639  10.851  1.00  0.00     0.000 C 
HETATM   40  C26 UNL     1      23.114  27.864  11.619  1.00  0.00     0.002 C 
HETATM   41  C27 UNL     1      22.445  26.558  11.879  1.00  0.00     0.036 C 
ENDBRANCH  35  36
ENDBRANCH  29  31
ENDBRANCH  26  27
ENDBRANCH   8  26
TORSDOF 11
ENDMDL
MODEL 3
REMARK VINA RESULT: -9.020485697      3.063     10.787
REMARK  11 active torsions:
REMARK  status: ('A' for Active; 'I' for Inactive)
REMARK    1  A    between atoms: C1_2  and  C2_4 
REMARK    2  A    between atoms: C2_4  and  C3_5 
REMARK    3  A    between atoms: C3_5  and  N1_6 
REMARK       I    between atoms: N1_6  and  C4_8 
REMARK    4  A    between atoms: C4_8  and  C5_10 
REMARK    5  A    between atoms: C7_12  and  O4_13 
REMARK    6  A    between atoms: O4_13  and  C8_14 
REMARK    7  A    between atoms: C8_14  and  C9_15 
REMARK    8  A    between atoms: N2_22  and  C16_23 
REMARK    9  A    between atoms: C16_23  and  C17_24 
REMARK       I    between atoms: C17_24  and  N3_26 
REMARK   10  A    between atoms: N3_26  and  C18_28 
REMARK   11  A    between atoms: N4_32  and  C22_33 
ROOT
HETATM    1  C9  UNL     1      20.002  32.531  16.038  1.00  0.00     0.014 C 
HETATM    2  C10 UNL     1      19.720  33.101  14.706  1.00  0.00     0.042 C 
HETATM    3  C11 UNL     1      18.669  32.350  13.905  1.00  0.00     0.224 C 
HETATM    4  C12 UNL     1      17.372  32.478  14.685  1.00  0.00     0.038 C 
HETATM    5  C13 UNL     1      17.421  31.356  15.699  1.00  0.00     0.038 C 
HETATM    6  C14 UNL     1      18.639  30.586  15.312  1.00  0.00     0.224 C 
HETATM    7  C15 UNL     1      19.826  31.028  16.145  1.00  0.00     0.042 C 
HETATM    8  N2  UNL     1      18.905  30.924  13.918  1.00  0.00     0.106 N 
ENDROOT
BRANCH   1   9
HETATM    9  C8  UNL     1      21.364  32.873  16.587  1.00  0.00     0.181 C 
BRANCH   9  10
HETATM   10  O4  UNL     1      21.567  33.903  17.348  1.00  0.00    -0.342 OA
BRANCH  10  11
HETATM   11  C7  UNL     1      21.035  34.916  18.025  1.00  0.00     0.128 A 
HETATM   12  C6  UNL     1      19.844  35.590  17.689  1.00  0.00     0.081 A 
HETATM   13  C5  UNL     1      19.474  36.582  18.495  1.00  0.00     0.110 A 
HETATM   14  N5  UNL     1      20.241  36.866  19.544  1.00  0.00    -0.320 N 
HETATM   15  S1  UNL     1      21.495  35.764  19.444  1.00  0.00     0.011 SA
ATOM     16  H5  UNL     1      20.097  37.590  20.248  1.00  0.00     0.174 HD
BRANCH  13  17
HETATM   17  C4  UNL     1      18.221  37.367  18.253  1.00  0.00     0.268 C 
HETATM   18  N1  UNL     1      16.979  36.958  18.811  1.00  0.00    -0.355 N 
ATOM     19  H1  UNL     1      16.986  36.112  19.381  1.00  0.00     0.162 HD
HETATM   20  O3  UNL     1      18.249  38.394  17.556  1.00  0.00    -0.266 OA
BRANCH  18  21
HETATM   21  C3  UNL     1      15.724  37.618  18.651  1.00  0.00     0.133 C 
BRANCH  21  22
HETATM   22  C2  UNL     1      14.594  36.691  18.274  1.00  0.00     0.133 C 
BRANCH  22  23
HETATM   23  C1  UNL     1      15.139  35.383  17.813  1.00  0.00     0.174 C 
HETATM   24  O1  UNL     1      15.157  34.431  18.636  1.00  0.00    -0.648 OA
HETATM   25  O2  UNL     1      15.612  35.198  16.546  1.00  0.00    -0.648 OA
ENDBRANCH  22  23
ENDBRANCH  21  22
ENDBRANCH  18  21
ENDBRANCH  13  17
ENDBRANCH  10  11
ENDBRANCH   9  10
ENDBRANCH   1   9
BRANCH   8  26
HETATM   26  C16 UNL     1      17.847  30.307  13.123  1.00  0.00     0.375 C 
BRANCH  26  27
HETATM   27  C17 UNL     1      18.203  28.932  12.710  1.00  0.00     0.247 C 
HETATM   28  O5  UNL     1      18.062  27.920  13.427  1.00  0.00    -0.272 OA
HETATM   29  N3  UNL     1      18.746  28.685  11.395  1.00  0.00    -0.330 N 
ATOM     30  H3  UNL     1      18.899  29.469  10.761  1.00  0.00     0.164 HD
BRANCH  29  31
HETATM   31  C18 UNL     1      19.078  27.336  10.959  1.00  0.00     0.324 C 
HETATM   32  C19 UNL     1      18.229  27.186   9.665  1.00  0.00     0.059 C 
HETATM   33  C20 UNL     1      19.030  26.204   8.893  1.00  0.00     0.034 C 
HETATM   34  C21 UNL     1      20.340  26.067   9.616  1.00  0.00     0.276 C 
HETATM   35  N4  UNL     1      20.436  27.191  10.561  1.00  0.00     0.116 N 
BRANCH  35  36
HETATM   36  C22 UNL     1      21.286  26.773  11.627  1.00  0.00     0.225 C 
HETATM   37  C23 UNL     1      22.279  25.714  11.305  1.00  0.00     0.036 C 
HETATM   38  C24 UNL     1      23.717  26.247  11.371  1.00  0.00     0.002 C 
HETATM   39  C25 UNL     1      23.705  27.565  10.605  1.00  0.00     0.000 C 
HETATM   40  C26 UNL     1      23.017  28.587  11.485  1.00  0.00     0.002 C 
HETATM   41  C27 UNL     1      21.983  27.918  12.322  1.00  0.00     0.036 C 
ENDBRANCH  35  36
ENDBRANCH  29  31
ENDBRANCH  26  27
ENDBRANCH   8  26
TORSDOF 11
ENDMDL
MODEL 4
REMARK VINA RESULT: -8.953418059      3.249     11.909
REMARK  11 active torsions:
REMARK  status: ('A' for Active; 'I' for Inactive)
REMARK    1  A    between atoms: C1_2  and  C2_4 
REMARK    2  A    between atoms: C2_4  and  C3_5 
REMARK    3  A    between atoms: C3_5  and  N1_6 
REMARK       I    between atoms: N1_6  and  C4_8 
REMARK    4  A    between atoms: C4_8  and  C5_10 
REMARK    5  A    between atoms: C7_12  and  O4_13 
REMARK    6  A    between atoms: O4_13  and  C8_14 
REMARK    7  A    between atoms: C8_14  and  C9_15 
REMARK    8  A    between atoms: N2_22  and  C16_23 
REMARK    9  A    between atoms: C16_23  and  C17_24 
REMARK       I    between atoms: C17_24  and  N3_26 
REMARK   10  A    between atoms: N3_26  and  C18_28 
REMARK   11  A    between atoms: N4_32  and  C22_33 
ROOT
HETATM    1  C9  UNL     1      17.836  29.434  13.461  1.00  0.00     0.014 C 
HETATM    2  C10 UNL     1      17.415  30.048  12.186  1.00  0.00     0.042 C 
HETATM    3  C11 UNL     1      17.222  29.066  11.043  1.00  0.00     0.224 C 
HETATM    4  C12 UNL     1      16.076  28.157  11.454  1.00  0.00     0.038 C 
HETATM    5  C13 UNL     1      16.724  27.076  12.292  1.00  0.00     0.038 C 
HETATM    6  C14 UNL     1      18.184  27.353  12.152  1.00  0.00     0.224 C 
HETATM    7  C15 UNL     1      18.676  28.179  13.324  1.00  0.00     0.042 C 
HETATM    8  N2  UNL     1      18.331  28.145  10.936  1.00  0.00     0.106 N 
ENDROOT
BRANCH   1   9
HETATM    9  C8  UNL     1      18.559  30.370  14.395  1.00  0.00     0.181 C 
BRANCH   9  10
HETATM   10  O4  UNL     1      17.932  31.212  15.157  1.00  0.00    -0.342 OA
BRANCH  10  11
HETATM   11  C7  UNL     1      17.545  32.467  15.356  1.00  0.00     0.128 A 
HETATM   12  C6  UNL     1      16.715  32.912  16.404  1.00  0.00     0.081 A 
HETATM   13  C5  UNL     1      16.439  34.214  16.433  1.00  0.00     0.110 A 
HETATM   14  N5  UNL     1      16.957  34.993  15.487  1.00  0.00    -0.320 N 
HETATM   15  S1  UNL     1      17.841  33.943  14.531  1.00  0.00     0.011 SA
ATOM     16  H5  UNL     1      16.841  35.999  15.370  1.00  0.00     0.174 HD
BRANCH  13  17
HETATM   17  C4  UNL     1      15.580  34.814  17.504  1.00  0.00     0.268 C 
HETATM   18  N1  UNL     1      15.205  36.184  17.463  1.00  0.00    -0.355 N 
ATOM     19  H1  UNL     1      15.546  36.732  16.673  1.00  0.00     0.162 HD
HETATM   20  O3  UNL     1      15.180  34.116  18.450  1.00  0.00    -0.266 OA
BRANCH  18  21
HETATM   21  C3  UNL     1      14.397  36.866  18.422  1.00  0.00     0.133 C 
BRANCH  21  22
HETATM   22  C2  UNL     1      15.080  38.052  19.059  1.00  0.00     0.133 C 
BRANCH  22  23
HETATM   23  C1  UNL     1      16.297  38.419  18.280  1.00  0.00     0.174 C 
HETATM   24  O1  UNL     1      16.164  39.238  17.334  1.00  0.00    -0.648 OA
HETATM   25  O2  UNL     1      17.526  37.895  18.562  1.00  0.00    -0.648 OA
ENDBRANCH  22  23
ENDBRANCH  21  22
ENDBRANCH  18  21
ENDBRANCH  13  17
ENDBRANCH  10  11
ENDBRANCH   9  10
ENDBRANCH   1   9
BRANCH   8  26
HETATM   26  C16 UNL     1      18.044  27.256   9.814  1.00  0.00     0.375 C 
BRANCH  26  27
HETATM   27  C17 UNL     1      19.004  26.133   9.745  1.00  0.00     0.247 C 
HETATM   28  O5  UNL     1      18.758  24.969  10.125  1.00  0.00    -0.272 OA
HETATM   29  N3  UNL     1      20.327  26.337   9.204  1.00  0.00    -0.330 N 
ATOM     30  H3  UNL     1      20.600  27.267   8.887  1.00  0.00     0.164 HD
BRANCH  29  31
HETATM   31  C18 UNL     1      21.277  25.239   9.104  1.00  0.00     0.324 C 
HETATM   32  C19 UNL     1      21.214  24.882   7.591  1.00  0.00     0.059 C 
HETATM   33  C20 UNL     1      22.569  24.320   7.360  1.00  0.00     0.034 C 
HETATM   34  C21 UNL     1      23.368  24.621   8.596  1.00  0.00     0.276 C 
HETATM   35  N4  UNL     1      22.620  25.630   9.363  1.00  0.00     0.116 N 
BRANCH  35  36
HETATM   36  C22 UNL     1      22.989  25.477  10.732  1.00  0.00     0.225 C 
HETATM   37  C23 UNL     1      24.444  25.520  11.034  1.00  0.00     0.036 C 
HETATM   38  C24 UNL     1      24.816  26.762  11.855  1.00  0.00     0.002 C 
HETATM   39  C25 UNL     1      24.127  27.935  11.166  1.00  0.00     0.000 C 
HETATM   40  C26 UNL     1      22.653  27.846  11.498  1.00  0.00     0.002 C 
HETATM   41  C27 UNL     1      22.257  26.418  11.659  1.00  0.00     0.036 C 
ENDBRANCH  35  36
ENDBRANCH  29  31
ENDBRANCH  26  27
ENDBRANCH   8  26
TORSDOF 11
ENDMDL
MODEL 5
REMARK VINA RESULT: -8.951749362      2.940     11.204
REMARK  11 active torsions:
REMARK  status: ('A' for Active; 'I' for Inactive)
REMARK    1  A    between atoms: C1_2  and  C2_4 
REMARK    2  A    between atoms: C2_4  and  C3_5 
REMARK    3  A    between atoms: C3_5  and  N1_6 
REMARK       I    between atoms: N1_6  and  C4_8 
REMARK    4  A    between atoms: C4_8  and  C5_10 
REMARK    5  A    between atoms: C7_12  and  O4_13 
REMARK    6  A    between atoms: O4_13  and  C8_14 
REMARK    7  A    between atoms: C8_14  and  C9_15 
REMARK    8  A    between atoms: N2_22  and  C16_23 
REMARK    9  A    between atoms: C16_23  and  C17_24 
REMARK       I    between atoms: C17_24  and  N3_26 
REMARK   10  A    between atoms: N3_26  and  C18_28 
REMARK   11  A    between atoms: N4_32  and  C22_33 
ROOT
HETATM    1  C9  UNL     1      17.845  29.392  13.359  1.00  0.00     0.014 C 
HETATM    2  C10 UNL     1      17.369  29.979  12.091  1.00  0.00     0.042 C 
HETATM    3  C11 UNL     1      17.189  28.982  10.959  1.00  0.00     0.224 C 
HETATM    4  C12 UNL     1      16.091  28.032  11.404  1.00  0.00     0.038 C 
HETATM    5  C13 UNL     1      16.802  26.983  12.233  1.00  0.00     0.038 C 
HETATM    6  C14 UNL     1      18.246  27.317  12.056  1.00  0.00     0.224 C 
HETATM    7  C15 UNL     1      18.732  28.171  13.210  1.00  0.00     0.042 C 
HETATM    8  N2  UNL     1      18.331  28.106  10.832  1.00  0.00     0.106 N 
ENDROOT
BRANCH   1   9
HETATM    9  C8  UNL     1      18.551  30.364  14.270  1.00  0.00     0.181 C 
BRANCH   9  10
HETATM   10  O4  UNL     1      18.074  31.541  14.533  1.00  0.00    -0.342 OA
BRANCH  10  11
HETATM   11  C7  UNL     1      17.493  32.339  15.423  1.00  0.00     0.128 A 
HETATM   12  C6  UNL     1      18.167  33.155  16.354  1.00  0.00     0.081 A 
HETATM   13  C5  UNL     1      17.405  33.884  17.166  1.00  0.00     0.110 A 
HETATM   14  N5  UNL     1      16.083  33.795  17.046  1.00  0.00    -0.320 N 
HETATM   15  S1  UNL     1      15.859  32.698  15.804  1.00  0.00     0.011 SA
ATOM     16  H5  UNL     1      15.370  34.283  17.587  1.00  0.00     0.174 HD
BRANCH  13  17
HETATM   17  C4  UNL     1      18.000  34.803  18.190  1.00  0.00     0.268 C 
HETATM   18  N1  UNL     1      19.389  34.769  18.487  1.00  0.00    -0.355 N 
ATOM     19  H1  UNL     1      19.956  34.096  17.971  1.00  0.00     0.162 HD
HETATM   20  O3  UNL     1      17.281  35.612  18.798  1.00  0.00    -0.266 OA
BRANCH  18  21
HETATM   21  C3  UNL     1      20.068  35.588  19.439  1.00  0.00     0.133 C 
BRANCH  21  22
HETATM   22  C2  UNL     1      21.570  35.584  19.283  1.00  0.00     0.133 C 
BRANCH  22  23
HETATM   23  C1  UNL     1      21.940  35.091  17.926  1.00  0.00     0.174 C 
HETATM   24  O1  UNL     1      21.915  35.914  16.974  1.00  0.00    -0.648 OA
HETATM   25  O2  UNL     1      22.297  33.794  17.697  1.00  0.00    -0.648 OA
ENDBRANCH  22  23
ENDBRANCH  21  22
ENDBRANCH  18  21
ENDBRANCH  13  17
ENDBRANCH  10  11
ENDBRANCH   9  10
ENDBRANCH   1   9
BRANCH   8  26
HETATM   26  C16 UNL     1      18.054  27.197   9.723  1.00  0.00     0.375 C 
BRANCH  26  27
HETATM   27  C17 UNL     1      19.029  26.086   9.667  1.00  0.00     0.247 C 
HETATM   28  O5  UNL     1      18.798  24.923  10.059  1.00  0.00    -0.272 OA
HETATM   29  N3  UNL     1      20.350  26.303   9.127  1.00  0.00    -0.330 N 
ATOM     30  H3  UNL     1      20.612  27.233   8.800  1.00  0.00     0.164 HD
BRANCH  29  31
HETATM   31  C18 UNL     1      21.315  25.216   9.039  1.00  0.00     0.324 C 
HETATM   32  C19 UNL     1      21.280  24.861   7.525  1.00  0.00     0.059 C 
HETATM   33  C20 UNL     1      22.645  24.317   7.313  1.00  0.00     0.034 C 
HETATM   34  C21 UNL     1      23.421  24.624   8.563  1.00  0.00     0.276 C 
HETATM   35  N4  UNL     1      22.649  25.624   9.319  1.00  0.00     0.116 N 
BRANCH  35  36
HETATM   36  C22 UNL     1      22.999  25.472  10.693  1.00  0.00     0.225 C 
HETATM   37  C23 UNL     1      24.452  25.468  11.010  1.00  0.00     0.036 C 
HETATM   38  C24 UNL     1      24.860  26.705  11.821  1.00  0.00     0.002 C 
HETATM   39  C25 UNL     1      24.218  27.894  11.113  1.00  0.00     0.000 C 
HETATM   40  C26 UNL     1      22.739  27.860  11.431  1.00  0.00     0.002 C 
HETATM   41  C27 UNL     1      22.292  26.449  11.603  1.00  0.00     0.036 C 
ENDBRANCH  35  36
ENDBRANCH  29  31
ENDBRANCH  26  27
ENDBRANCH   8  26
TORSDOF 11
ENDMDL
