MODEL 1
REMARK VINA RESULT: -8.719387761      0.000      0.000
REMARK  13 active torsions:
REMARK  status: ('A' for Active; 'I' for Inactive)
REMARK    1  A    between atoms: C1_2  and  C2_3 
REMARK       I    between atoms: C1_2  and  N1_13 
REMARK    2  A    between atoms: C2_3  and  C3_4 
REMARK    3  A    between atoms: N1_13  and  C10_15 
REMARK    4  A    between atoms: C11_20  and  C12_21 
REMARK    5  A    between atoms: C12_21  and  C13_22 
REMARK    6  A    between atoms: C13_22  and  C14_23 
REMARK    7  A    between atoms: C14_23  and  C15_24 
REMARK    8  A    between atoms: C15_24  and  C16_25 
REMARK    9  A    between atoms: C18_29  and  N5_30 
REMARK   10  A    between atoms: N5_30  and  C19_32 
REMARK   11  A    between atoms: C19_32  and  C20_33 
REMARK   12  A    between atoms: C20_33  and  C21_34 
REMARK   13  A    between atoms: C21_34  and  N6_35 
ROOT
HETATM    1  C12 UNL     1      18.417  27.432  12.239  1.00  0.00     0.066 C 
ENDROOT
BRANCH   1   2
HETATM    2  C11 UNL     1      18.293  28.607  13.163  1.00  0.00     0.069 A 
HETATM    3  N3  UNL     1      18.633  28.635  14.456  1.00  0.00    -0.296 N 
HETATM    4  N2  UNL     1      18.494  29.669  15.144  1.00  0.00    -0.279 N 
ATOM      5  H3  UNL     1      19.014  27.794  14.890  1.00  0.00     0.187 HD
HETATM    6  C10 UNL     1      17.985  30.783  14.548  1.00  0.00     0.167 A 
ATOM      7  H2  UNL     1      18.757  29.678  16.130  1.00  0.00     0.189 HD
HETATM    8  S2  UNL     1      17.738  30.205  12.955  1.00  0.00    -0.038 SA
BRANCH   6   9
HETATM    9  N1  UNL     1      17.789  31.908  15.137  1.00  0.00    -0.306 N 
HETATM   10  C1  UNL     1      18.309  33.113  14.669  1.00  0.00     0.227 C 
HETATM   11  O1  UNL     1      19.544  33.291  14.593  1.00  0.00    -0.273 OA
ATOM     12  H1  UNL     1      17.227  31.920  15.988  1.00  0.00     0.171 HD
BRANCH  10  13
HETATM   13  C2  UNL     1      17.347  34.202  14.258  1.00  0.00     0.141 C 
BRANCH  13  14
HETATM   14  C3  UNL     1      16.474  34.488  15.437  1.00  0.00    -0.047 A 
HETATM   15  C4  UNL     1      15.493  33.638  15.874  1.00  0.00     0.010 A 
HETATM   16  C5  UNL     1      14.716  33.986  16.988  1.00  0.00     0.040 A 
HETATM   17  C6  UNL     1      14.896  35.166  17.678  1.00  0.00     0.105 A 
HETATM   18  C7  UNL     1      15.898  36.034  17.231  1.00  0.00     0.105 A 
HETATM   19  O3  UNL     1      14.286  35.762  18.794  1.00  0.00    -0.323 OA
HETATM   20  C8  UNL     1      16.653  35.685  16.141  1.00  0.00     0.047 A 
HETATM   21  O2  UNL     1      15.846  37.120  18.103  1.00  0.00    -0.323 OA
HETATM   22  C9  UNL     1      14.512  37.174  18.636  1.00  0.00     0.352 C 
ENDBRANCH  13  14
ENDBRANCH  10  13
ENDBRANCH   6   9
ENDBRANCH   1   2
BRANCH   1  23
HETATM   23  C13 UNL     1      19.324  27.799  11.095  1.00  0.00     0.007 C 
BRANCH  23  24
HETATM   24  C14 UNL     1      20.701  27.251  11.356  1.00  0.00     0.006 C 
BRANCH  24  25
HETATM   25  C15 UNL     1      21.817  28.224  11.134  1.00  0.00     0.048 C 
BRANCH  25  26
HETATM   26  C16 UNL     1      21.745  29.306  12.160  1.00  0.00     0.001 A 
HETATM   27  C17 UNL     1      21.341  30.606  12.062  1.00  0.00     0.104 A 
HETATM   28  N4  UNL     1      21.398  31.358  13.120  1.00  0.00    -0.346 N 
HETATM   29  C18 UNL     1      21.848  30.831  14.262  1.00  0.00     0.144 A 
ATOM     30  H4  UNL     1      21.103  32.333  13.080  1.00  0.00     0.167 HD
HETATM   31  S1  UNL     1      22.200  29.226  13.829  1.00  0.00    -0.058 SA
BRANCH  29  32
HETATM   32  N5  UNL     1      22.007  31.441  15.418  1.00  0.00    -0.370 N 
ATOM     33  H5  UNL     1      21.290  31.310  16.132  1.00  0.00     0.161 HD
BRANCH  32  34
HETATM   34  C19 UNL     1      23.112  32.267  15.731  1.00  0.00     0.123 C 
BRANCH  34  35
HETATM   35  C20 UNL     1      22.748  33.672  16.056  1.00  0.00     0.039 C 
BRANCH  35  36
HETATM   36  C21 UNL     1      22.223  33.836  17.453  1.00  0.00     0.129 C 
BRANCH  36  37
HETATM   37  N6  UNL     1      21.644  35.163  17.528  1.00  0.00    -0.333 N 
HETATM   38  C22 UNL     1      22.337  36.411  17.648  1.00  0.00     0.147 C 
HETATM   39  C23 UNL     1      21.420  37.461  17.016  1.00  0.00     0.144 C 
HETATM   40  N7  UNL     1      20.109  36.849  17.168  1.00  0.00    -0.341 N 
HETATM   41  C24 UNL     1      20.236  35.474  17.480  1.00  0.00     0.318 C 
ATOM     42  H7  UNL     1      19.222  37.342  17.065  1.00  0.00     0.164 HD
HETATM   43  O4  UNL     1      19.351  34.619  17.691  1.00  0.00    -0.247 OA
ENDBRANCH  36  37
ENDBRANCH  35  36
ENDBRANCH  34  35
ENDBRANCH  32  34
ENDBRANCH  29  32
ENDBRANCH  25  26
ENDBRANCH  24  25
ENDBRANCH  23  24
ENDBRANCH   1  23
TORSDOF 13
ENDMDL
MODEL 2
REMARK VINA RESULT: -8.551405379      2.659      7.351
REMARK  13 active torsions:
REMARK  status: ('A' for Active; 'I' for Inactive)
REMARK    1  A    between atoms: C1_2  and  C2_3 
REMARK       I    between atoms: C1_2  and  N1_13 
REMARK    2  A    between atoms: C2_3  and  C3_4 
REMARK    3  A    between atoms: N1_13  and  C10_15 
REMARK    4  A    between atoms: C11_20  and  C12_21 
REMARK    5  A    between atoms: C12_21  and  C13_22 
REMARK    6  A    between atoms: C13_22  and  C14_23 
REMARK    7  A    between atoms: C14_23  and  C15_24 
REMARK    8  A    between atoms: C15_24  and  C16_25 
REMARK    9  A    between atoms: C18_29  and  N5_30 
REMARK   10  A    between atoms: N5_30  and  C19_32 
REMARK   11  A    between atoms: C19_32  and  C20_33 
REMARK   12  A    between atoms: C20_33  and  C21_34 
REMARK   13  A    between atoms: C21_34  and  N6_35 
ROOT
HETATM    1  C12 UNL     1      22.329  35.545  17.580  1.00  0.00     0.066 C 
ENDROOT
BRANCH   1   2
HETATM    2  C11 UNL     1      20.945  36.079  17.802  1.00  0.00     0.069 A 
HETATM    3  N3  UNL     1      20.317  36.986  17.044  1.00  0.00    -0.296 N 
HETATM    4  N2  UNL     1      19.157  37.366  17.310  1.00  0.00    -0.279 N 
ATOM      5  H3  UNL     1      20.796  37.376  16.232  1.00  0.00     0.187 HD
HETATM    6  C10 UNL     1      18.532  36.835  18.399  1.00  0.00     0.167 A 
ATOM      7  H2  UNL     1      18.688  38.058  16.726  1.00  0.00     0.189 HD
HETATM    8  S2  UNL     1      19.746  35.772  18.974  1.00  0.00    -0.038 SA
BRANCH   6   9
HETATM    9  N1  UNL     1      17.344  37.137  18.785  1.00  0.00    -0.306 N 
HETATM   10  C1  UNL     1      16.338  37.538  17.909  1.00  0.00     0.227 C 
HETATM   11  O1  UNL     1      16.457  38.583  17.233  1.00  0.00    -0.273 OA
ATOM     12  H1  UNL     1      17.128  37.081  19.780  1.00  0.00     0.171 HD
BRANCH  10  13
HETATM   13  C2  UNL     1      15.098  36.684  17.797  1.00  0.00     0.141 C 
BRANCH  13  14
HETATM   14  C3  UNL     1      15.483  35.440  17.062  1.00  0.00    -0.047 A 
HETATM   15  C4  UNL     1      15.026  34.193  17.397  1.00  0.00     0.010 A 
HETATM   16  C5  UNL     1      15.441  33.078  16.655  1.00  0.00     0.040 A 
HETATM   17  C6  UNL     1      16.303  33.179  15.584  1.00  0.00     0.105 A 
HETATM   18  C7  UNL     1      16.769  34.453  15.242  1.00  0.00     0.105 A 
HETATM   19  O3  UNL     1      16.874  32.264  14.685  1.00  0.00    -0.323 OA
HETATM   20  C8  UNL     1      16.358  35.538  15.974  1.00  0.00     0.047 A 
HETATM   21  O2  UNL     1      17.604  34.247  14.147  1.00  0.00    -0.323 OA
HETATM   22  C9  UNL     1      18.083  32.893  14.226  1.00  0.00     0.352 C 
ENDBRANCH  13  14
ENDBRANCH  10  13
ENDBRANCH   6   9
ENDBRANCH   1   2
BRANCH   1  23
HETATM   23  C13 UNL     1      22.260  34.050  17.419  1.00  0.00     0.007 C 
BRANCH  23  24
HETATM   24  C14 UNL     1      21.833  33.721  16.014  1.00  0.00     0.006 C 
BRANCH  24  25
HETATM   25  C15 UNL     1      22.436  32.471  15.451  1.00  0.00     0.048 C 
BRANCH  25  26
HETATM   26  C16 UNL     1      21.411  31.387  15.437  1.00  0.00     0.001 A 
HETATM   27  C17 UNL     1      20.387  31.112  16.297  1.00  0.00     0.104 A 
HETATM   28  N4  UNL     1      19.638  30.077  16.065  1.00  0.00    -0.346 N 
HETATM   29  C18 UNL     1      19.897  29.320  14.996  1.00  0.00     0.144 A 
ATOM     30  H4  UNL     1      18.865  29.845  16.689  1.00  0.00     0.167 HD
HETATM   31  S1  UNL     1      21.237  30.096  14.295  1.00  0.00    -0.058 SA
BRANCH  29  32
HETATM   32  N5  UNL     1      19.274  28.223  14.621  1.00  0.00    -0.370 N 
ATOM     33  H5  UNL     1      19.674  27.326  14.899  1.00  0.00     0.161 HD
BRANCH  32  34
HETATM   34  C19 UNL     1      18.085  28.209  13.856  1.00  0.00     0.123 C 
BRANCH  34  35
HETATM   35  C20 UNL     1      18.218  28.834  12.513  1.00  0.00     0.039 C 
BRANCH  35  36
HETATM   36  C21 UNL     1      18.108  27.842  11.390  1.00  0.00     0.129 C 
BRANCH  36  37
HETATM   37  N6  UNL     1      19.400  27.194  11.280  1.00  0.00    -0.333 N 
HETATM   38  C22 UNL     1      20.687  27.820  11.220  1.00  0.00     0.147 C 
HETATM   39  C23 UNL     1      21.676  26.798  11.787  1.00  0.00     0.144 C 
HETATM   40  N7  UNL     1      20.990  25.540  11.532  1.00  0.00    -0.341 N 
HETATM   41  C24 UNL     1      19.628  25.771  11.223  1.00  0.00     0.318 C 
ATOM     42  H7  UNL     1      21.430  24.621  11.570  1.00  0.00     0.164 HD
HETATM   43  O4  UNL     1      18.726  24.956  10.940  1.00  0.00    -0.247 OA
ENDBRANCH  36  37
ENDBRANCH  35  36
ENDBRANCH  34  35
ENDBRANCH  32  34
ENDBRANCH  29  32
ENDBRANCH  25  26
ENDBRANCH  24  25
ENDBRANCH  23  24
ENDBRANCH   1  23
TORSDOF 13
ENDMDL
MODEL 3
REMARK VINA RESULT: -8.538103841      1.013      1.218
REMARK  13 active torsions:
REMARK  status: ('A' for Active; 'I' for Inactive)
REMARK    1  A    between atoms: C1_2  and  C2_3 
REMARK       I    between atoms: C1_2  and  N1_13 
REMARK    2  A    between atoms: C2_3  and  C3_4 
REMARK    3  A    between atoms: N1_13  and  C10_15 
REMARK    4  A    between atoms: C11_20  and  C12_21 
REMARK    5  A    between atoms: C12_21  and  C13_22 
REMARK    6  A    between atoms: C13_22  and  C14_23 
REMARK    7  A    between atoms: C14_23  and  C15_24 
REMARK    8  A    between atoms: C15_24  and  C16_25 
REMARK    9  A    between atoms: C18_29  and  N5_30 
REMARK   10  A    between atoms: N5_30  and  C19_32 
REMARK   11  A    between atoms: C19_32  and  C20_33 
REMARK   12  A    between atoms: C20_33  and  C21_34 
REMARK   13  A    between atoms: C21_34  and  N6_35 
ROOT
HETATM    1  C12 UNL     1      18.375  27.430  12.095  1.00  0.00     0.066 C 
ENDROOT
BRANCH   1   2
HETATM    2  C11 UNL     1      18.262  28.596  13.031  1.00  0.00     0.069 A 
HETATM    3  N3  UNL     1      18.607  28.609  14.324  1.00  0.00    -0.296 N 
HETATM    4  N2  UNL     1      18.477  29.636  15.023  1.00  0.00    -0.279 N 
ATOM      5  H3  UNL     1      18.983  27.761  14.748  1.00  0.00     0.187 HD
HETATM    6  C10 UNL     1      17.974  30.760  14.439  1.00  0.00     0.167 A 
ATOM      7  H2  UNL     1      18.743  29.635  16.007  1.00  0.00     0.189 HD
HETATM    8  S2  UNL     1      17.717  30.200  12.841  1.00  0.00    -0.038 SA
BRANCH   6   9
HETATM    9  N1  UNL     1      17.787  31.881  15.040  1.00  0.00    -0.306 N 
HETATM   10  C1  UNL     1      18.259  33.096  14.548  1.00  0.00     0.227 C 
HETATM   11  O1  UNL     1      19.485  33.297  14.408  1.00  0.00    -0.273 OA
ATOM     12  H1  UNL     1      17.270  31.881  15.920  1.00  0.00     0.171 HD
BRANCH  10  13
HETATM   13  C2  UNL     1      17.256  34.166  14.191  1.00  0.00     0.141 C 
BRANCH  13  14
HETATM   14  C3  UNL     1      16.447  34.441  15.417  1.00  0.00    -0.047 A 
HETATM   15  C4  UNL     1      15.520  33.568  15.921  1.00  0.00     0.010 A 
HETATM   16  C5  UNL     1      14.801  33.907  17.076  1.00  0.00     0.040 A 
HETATM   17  C6  UNL     1      14.986  35.100  17.741  1.00  0.00     0.105 A 
HETATM   18  C7  UNL     1      15.933  35.992  17.226  1.00  0.00     0.105 A 
HETATM   19  O3  UNL     1      14.426  35.691  18.885  1.00  0.00    -0.323 OA
HETATM   20  C8  UNL     1      16.631  35.652  16.095  1.00  0.00     0.047 A 
HETATM   21  O2  UNL     1      15.900  37.086  18.087  1.00  0.00    -0.323 OA
HETATM   22  C9  UNL     1      14.599  37.107  18.698  1.00  0.00     0.352 C 
ENDBRANCH  13  14
ENDBRANCH  10  13
ENDBRANCH   6   9
ENDBRANCH   1   2
BRANCH   1  23
HETATM   23  C13 UNL     1      19.819  27.016  11.995  1.00  0.00     0.007 C 
BRANCH  23  24
HETATM   24  C14 UNL     1      20.480  27.784  10.883  1.00  0.00     0.006 C 
BRANCH  24  25
HETATM   25  C15 UNL     1      21.853  28.291  11.200  1.00  0.00     0.048 C 
BRANCH  25  26
HETATM   26  C16 UNL     1      21.759  29.375  12.221  1.00  0.00     0.001 A 
HETATM   27  C17 UNL     1      21.328  30.667  12.118  1.00  0.00     0.104 A 
HETATM   28  N4  UNL     1      21.370  31.424  13.172  1.00  0.00    -0.346 N 
HETATM   29  C18 UNL     1      21.831  30.912  14.316  1.00  0.00     0.144 A 
ATOM     30  H4  UNL     1      21.055  32.392  13.128  1.00  0.00     0.167 HD
HETATM   31  S1  UNL     1      22.216  29.313  13.890  1.00  0.00    -0.058 SA
BRANCH  29  32
HETATM   32  N5  UNL     1      21.979  31.531  15.469  1.00  0.00    -0.370 N 
ATOM     33  H5  UNL     1      21.457  31.178  16.272  1.00  0.00     0.161 HD
BRANCH  32  34
HETATM   34  C19 UNL     1      22.816  32.654  15.664  1.00  0.00     0.123 C 
BRANCH  34  35
HETATM   35  C20 UNL     1      22.136  33.817  16.293  1.00  0.00     0.039 C 
BRANCH  35  36
HETATM   36  C21 UNL     1      22.366  33.902  17.774  1.00  0.00     0.129 C 
BRANCH  36  37
HETATM   37  N6  UNL     1      21.338  34.776  18.305  1.00  0.00    -0.333 N 
HETATM   38  C22 UNL     1      20.077  35.102  17.709  1.00  0.00     0.147 C 
HETATM   39  C23 UNL     1      19.141  35.443  18.871  1.00  0.00     0.144 C 
HETATM   40  N7  UNL     1      20.078  35.873  19.899  1.00  0.00    -0.341 N 
HETATM   41  C24 UNL     1      21.396  35.480  19.563  1.00  0.00     0.318 C 
ATOM     42  H7  UNL     1      19.821  36.384  20.742  1.00  0.00     0.164 HD
HETATM   43  O4  UNL     1      22.465  35.668  20.180  1.00  0.00    -0.247 OA
ENDBRANCH  36  37
ENDBRANCH  35  36
ENDBRANCH  34  35
ENDBRANCH  32  34
ENDBRANCH  29  32
ENDBRANCH  25  26
ENDBRANCH  24  25
ENDBRANCH  23  24
ENDBRANCH   1  23
TORSDOF 13
ENDMDL
MODEL 4
REMARK VINA RESULT: -8.515141562      2.590      7.240
REMARK  13 active torsions:
REMARK  status: ('A' for Active; 'I' for Inactive)
REMARK    1  A    between atoms: C1_2  and  C2_3 
REMARK       I    between atoms: C1_2  and  N1_13 
REMARK    2  A    between atoms: C2_3  and  C3_4 
REMARK    3  A    between atoms: N1_13  and  C10_15 
REMARK    4  A    between atoms: C11_20  and  C12_21 
REMARK    5  A    between atoms: C12_21  and  C13_22 
REMARK    6  A    between atoms: C13_22  and  C14_23 
REMARK    7  A    between atoms: C14_23  and  C15_24 
REMARK    8  A    between atoms: C15_24  and  C16_25 
REMARK    9  A    between atoms: C18_29  and  N5_30 
REMARK   10  A    between atoms: N5_30  and  C19_32 
REMARK   11  A    between atoms: C19_32  and  C20_33 
REMARK   12  A    between atoms: C20_33  and  C21_34 
REMARK   13  A    between atoms: C21_34  and  N6_35 
ROOT
HETATM    1  C12 UNL     1      22.326  34.459  17.872  1.00  0.00     0.066 C 
ENDROOT
BRANCH   1   2
HETATM    2  C11 UNL     1      21.185  35.430  17.935  1.00  0.00     0.069 A 
HETATM    3  N3  UNL     1      20.810  36.273  16.966  1.00  0.00    -0.296 N 
HETATM    4  N2  UNL     1      19.838  37.045  17.113  1.00  0.00    -0.279 N 
ATOM      5  H3  UNL     1      21.329  36.285  16.087  1.00  0.00     0.187 HD
HETATM    6  C10 UNL     1      19.157  37.013  18.293  1.00  0.00     0.167 A 
ATOM      7  H2  UNL     1      19.562  37.683  16.368  1.00  0.00     0.189 HD
HETATM    8  S2  UNL     1      20.030  35.803  19.132  1.00  0.00    -0.038 SA
BRANCH   6   9
HETATM    9  N1  UNL     1      18.144  37.752  18.577  1.00  0.00    -0.306 N 
HETATM   10  C1  UNL     1      17.202  38.149  17.629  1.00  0.00     0.227 C 
HETATM   11  O1  UNL     1      17.534  38.860  16.656  1.00  0.00    -0.273 OA
ATOM     12  H1  UNL     1      18.023  38.062  19.541  1.00  0.00     0.171 HD
BRANCH  10  13
HETATM   13  C2  UNL     1      15.771  37.703  17.805  1.00  0.00     0.141 C 
BRANCH  13  14
HETATM   14  C3  UNL     1      15.694  36.277  17.362  1.00  0.00    -0.047 A 
HETATM   15  C4  UNL     1      14.969  35.320  18.019  1.00  0.00     0.010 A 
HETATM   16  C5  UNL     1      14.955  34.004  17.535  1.00  0.00     0.040 A 
HETATM   17  C6  UNL     1      15.649  33.620  16.408  1.00  0.00     0.105 A 
HETATM   18  C7  UNL     1      16.389  34.599  15.736  1.00  0.00     0.105 A 
HETATM   19  O3  UNL     1      15.814  32.412  15.712  1.00  0.00    -0.323 OA
HETATM   20  C8  UNL     1      16.398  35.883  16.217  1.00  0.00     0.047 A 
HETATM   21  O2  UNL     1      16.971  33.932  14.660  1.00  0.00    -0.323 OA
HETATM   22  C9  UNL     1      17.071  32.545  15.024  1.00  0.00     0.352 C 
ENDBRANCH  13  14
ENDBRANCH  10  13
ENDBRANCH   6   9
ENDBRANCH   1   2
BRANCH   1  23
HETATM   23  C13 UNL     1      21.966  33.335  16.938  1.00  0.00     0.007 C 
BRANCH  23  24
HETATM   24  C14 UNL     1      22.727  33.496  15.650  1.00  0.00     0.006 C 
BRANCH  24  25
HETATM   25  C15 UNL     1      23.277  32.224  15.083  1.00  0.00     0.048 C 
BRANCH  25  26
HETATM   26  C16 UNL     1      22.195  31.492  14.362  1.00  0.00     0.001 A 
HETATM   27  C17 UNL     1      22.023  30.159  14.120  1.00  0.00     0.104 A 
HETATM   28  N4  UNL     1      20.987  29.778  13.437  1.00  0.00    -0.346 N 
HETATM   29  C18 UNL     1      20.129  30.702  12.996  1.00  0.00     0.144 A 
ATOM     30  H4  UNL     1      20.830  28.790  13.240  1.00  0.00     0.167 HD
HETATM   31  S1  UNL     1      20.805  32.153  13.567  1.00  0.00    -0.058 SA
BRANCH  29  32
HETATM   32  N5  UNL     1      19.050  30.510  12.266  1.00  0.00    -0.370 N 
ATOM     33  H5  UNL     1      19.069  30.819  11.293  1.00  0.00     0.161 HD
BRANCH  32  34
HETATM   34  C19 UNL     1      17.867  29.903  12.746  1.00  0.00     0.123 C 
BRANCH  34  35
HETATM   35  C20 UNL     1      16.973  29.383  11.677  1.00  0.00     0.039 C 
BRANCH  35  36
HETATM   36  C21 UNL     1      17.709  28.609  10.621  1.00  0.00     0.129 C 
BRANCH  36  37
HETATM   37  N6  UNL     1      18.177  27.389  11.250  1.00  0.00    -0.333 N 
HETATM   38  C22 UNL     1      17.386  26.363  11.861  1.00  0.00     0.147 C 
HETATM   39  C23 UNL     1      18.205  25.076  11.740  1.00  0.00     0.144 C 
HETATM   40  N7  UNL     1      19.564  25.588  11.654  1.00  0.00    -0.341 N 
HETATM   41  C24 UNL     1      19.555  26.974  11.366  1.00  0.00     0.318 C 
ATOM     42  H7  UNL     1      20.406  25.028  11.783  1.00  0.00     0.164 HD
HETATM   43  O4  UNL     1      20.509  27.766  11.224  1.00  0.00    -0.247 OA
ENDBRANCH  36  37
ENDBRANCH  35  36
ENDBRANCH  34  35
ENDBRANCH  32  34
ENDBRANCH  29  32
ENDBRANCH  25  26
ENDBRANCH  24  25
ENDBRANCH  23  24
ENDBRANCH   1  23
TORSDOF 13
ENDMDL
MODEL 5
REMARK VINA RESULT: -8.487909804      3.521      8.690
REMARK  13 active torsions:
REMARK  status: ('A' for Active; 'I' for Inactive)
REMARK    1  A    between atoms: C1_2  and  C2_3 
REMARK       I    between atoms: C1_2  and  N1_13 
REMARK    2  A    between atoms: C2_3  and  C3_4 
REMARK    3  A    between atoms: N1_13  and  C10_15 
REMARK    4  A    between atoms: C11_20  and  C12_21 
REMARK    5  A    between atoms: C12_21  and  C13_22 
REMARK    6  A    between atoms: C13_22  and  C14_23 
REMARK    7  A    between atoms: C14_23  and  C15_24 
REMARK    8  A    between atoms: C15_24  and  C16_25 
REMARK    9  A    between atoms: C18_29  and  N5_30 
REMARK   10  A    between atoms: N5_30  and  C19_32 
REMARK   11  A    between atoms: C19_32  and  C20_33 
REMARK   12  A    between atoms: C20_33  and  C21_34 
REMARK   13  A    between atoms: C21_34  and  N6_35 
ROOT
HETATM    1  C12 UNL     1      18.354  34.760  17.626  1.00  0.00     0.066 C 
ENDROOT
BRANCH   1   2
HETATM    2  C11 UNL     1      18.461  33.698  16.571  1.00  0.00     0.069 A 
HETATM    3  N3  UNL     1      18.589  32.384  16.783  1.00  0.00    -0.296 N 
HETATM    4  N2  UNL     1      18.667  31.576  15.833  1.00  0.00    -0.279 N 
ATOM      5  H3  UNL     1      18.624  32.034  17.741  1.00  0.00     0.187 HD
HETATM    6  C10 UNL     1      18.618  32.061  14.560  1.00  0.00     0.167 A 
ATOM      7  H2  UNL     1      18.765  30.575  16.006  1.00  0.00     0.189 HD
HETATM    8  S2  UNL     1      18.454  33.738  14.867  1.00  0.00    -0.038 SA
BRANCH   6   9
HETATM    9  N1  UNL     1      18.688  31.343  13.496  1.00  0.00    -0.306 N 
HETATM   10  C1  UNL     1      18.198  30.041  13.423  1.00  0.00     0.227 C 
HETATM   11  O1  UNL     1      18.672  29.137  14.145  1.00  0.00    -0.273 OA
ATOM     12  H1  UNL     1      19.124  31.746  12.667  1.00  0.00     0.171 HD
BRANCH  10  13
HETATM   13  C2  UNL     1      17.084  29.745  12.449  1.00  0.00     0.141 C 
BRANCH  13  14
HETATM   14  C3  UNL     1      17.418  28.453  11.774  1.00  0.00    -0.047 A 
HETATM   15  C4  UNL     1      17.080  27.227  12.281  1.00  0.00     0.010 A 
HETATM   16  C5  UNL     1      17.437  26.064  11.583  1.00  0.00     0.040 A 
HETATM   17  C6  UNL     1      18.125  26.097  10.389  1.00  0.00     0.105 A 
HETATM   18  C7  UNL     1      18.469  27.350   9.872  1.00  0.00     0.105 A 
HETATM   19  O3  UNL     1      18.602  25.123   9.496  1.00  0.00    -0.323 OA
HETATM   20  C8  UNL     1      18.117  28.482  10.561  1.00  0.00     0.047 A 
HETATM   21  O2  UNL     1      19.143  27.074   8.684  1.00  0.00    -0.323 OA
HETATM   22  C9  UNL     1      19.696  25.752   8.806  1.00  0.00     0.352 C 
ENDBRANCH  13  14
ENDBRANCH  10  13
ENDBRANCH   6   9
ENDBRANCH   1   2
BRANCH   1  23
HETATM   23  C13 UNL     1      19.525  35.696  17.503  1.00  0.00     0.007 C 
BRANCH  23  24
HETATM   24  C14 UNL     1      20.770  35.004  17.989  1.00  0.00     0.006 C 
BRANCH  24  25
HETATM   25  C15 UNL     1      21.967  35.169  17.105  1.00  0.00     0.048 C 
BRANCH  25  26
HETATM   26  C16 UNL     1      22.093  33.981  16.212  1.00  0.00     0.001 A 
HETATM   27  C17 UNL     1      22.121  33.883  14.850  1.00  0.00     0.104 A 
HETATM   28  N4  UNL     1      22.220  32.706  14.311  1.00  0.00    -0.346 N 
HETATM   29  C18 UNL     1      22.289  31.636  15.107  1.00  0.00     0.144 A 
ATOM     30  H4  UNL     1      22.244  32.600  13.297  1.00  0.00     0.167 HD
HETATM   31  S1  UNL     1      22.216  32.313  16.664  1.00  0.00    -0.058 SA
BRANCH  29  32
HETATM   32  N5  UNL     1      22.357  30.372  14.746  1.00  0.00    -0.370 N 
ATOM     33  H5  UNL     1      22.654  29.689  15.444  1.00  0.00     0.161 HD
BRANCH  32  34
HETATM   34  C19 UNL     1      22.043  29.900  13.450  1.00  0.00     0.123 C 
BRANCH  34  35
HETATM   35  C20 UNL     1      21.975  28.419  13.341  1.00  0.00     0.039 C 
BRANCH  35  36
HETATM   36  C21 UNL     1      21.530  27.949  11.986  1.00  0.00     0.129 C 
BRANCH  36  37
HETATM   37  N6  UNL     1      22.658  27.253  11.396  1.00  0.00    -0.333 N 
HETATM   38  C22 UNL     1      23.809  27.832  10.769  1.00  0.00     0.147 C 
HETATM   39  C23 UNL     1      24.937  26.813  10.945  1.00  0.00     0.144 C 
HETATM   40  N7  UNL     1      24.200  25.565  11.080  1.00  0.00    -0.341 N 
HETATM   41  C24 UNL     1      22.834  25.822  11.345  1.00  0.00     0.318 C 
ATOM     42  H7  UNL     1      24.611  24.636  10.996  1.00  0.00     0.164 HD
HETATM   43  O4  UNL     1      21.890  25.022  11.515  1.00  0.00    -0.247 OA
ENDBRANCH  36  37
ENDBRANCH  35  36
ENDBRANCH  34  35
ENDBRANCH  32  34
ENDBRANCH  29  32
ENDBRANCH  25  26
ENDBRANCH  24  25
ENDBRANCH  23  24
ENDBRANCH   1  23
TORSDOF 13
ENDMDL
