MODEL 1
REMARK VINA RESULT: -8.850099514      0.000      0.000
REMARK  12 active torsions:
REMARK  status: ('A' for Active; 'I' for Inactive)
REMARK    1  A    between atoms: C4_8  and  O1_9 
REMARK    2  A    between atoms: O1_9  and  C5_10 
REMARK    3  A    between atoms: C5_10  and  C6_11 
REMARK    4  A    between atoms: C6_11  and  S1_12 
REMARK    5  A    between atoms: S1_12  and  C7_13 
REMARK    6  A    between atoms: C7_13  and  C8_14 
REMARK       I    between atoms: C8_14  and  N3_16 
REMARK    7  A    between atoms: N3_16  and  C9_18 
REMARK    8  A    between atoms: C9_18  and  C10_19 
REMARK    9  A    between atoms: C10_19  and  C11_20 
REMARK   10  A    between atoms: C11_20  and  N4_21 
REMARK   11  A    between atoms: C19_29  and  N5_30 
REMARK   12  A    between atoms: N5_30  and  C20_31 
ROOT
HETATM    1  C1  UNL     1      16.076  29.392  11.332  1.00  0.00     0.070 C 
HETATM    2  C2  UNL     1      17.541  29.393  11.710  1.00  0.00     0.029 A 
HETATM    3  N1  UNL     1      17.986  30.142  12.725  1.00  0.00    -0.343 N 
ATOM      4  H1  UNL     1      17.347  30.723  13.267  1.00  0.00     0.167 HD
HETATM    5  C3  UNL     1      19.320  30.106  13.016  1.00  0.00     0.138 A 
HETATM    6  N2  UNL     1      19.793  30.857  14.013  1.00  0.00    -0.320 N 
ATOM      7  H2  UNL     1      19.139  31.430  14.545  1.00  0.00     0.169 HD
HETATM    8  C4  UNL     1      21.123  30.889  14.351  1.00  0.00     0.162 A 
HETATM    9  C18 UNL     1      22.029  30.107  13.628  1.00  0.00     0.104 A 
HETATM   10  C19 UNL     1      21.591  29.296  12.570  1.00  0.00     0.135 A 
HETATM   11  C25 UNL     1      20.219  29.345  12.322  1.00  0.00     0.118 A 
HETATM   12  N7  UNL     1      19.752  28.606  11.311  1.00  0.00    -0.353 N 
ATOM     13  H7  UNL     1      20.393  28.025  10.770  1.00  0.00     0.166 HD
HETATM   14  C26 UNL     1      18.432  28.623  11.002  1.00  0.00     0.028 A 
HETATM   15  C27 UNL     1      17.947  27.780   9.871  1.00  0.00     0.070 C 
ENDROOT
BRANCH   8  16
HETATM   16  O1  UNL     1      21.487  31.658  15.339  1.00  0.00    -0.255 OA
BRANCH  16  17
HETATM   17  C5  UNL     1      21.863  32.402  16.270  1.00  0.00    -0.008 C 
BRANCH  17  18
HETATM   18  C6  UNL     1      22.291  33.259  17.330  1.00  0.00     0.186 C 
BRANCH  18  19
HETATM   19  S1  UNL     1      21.892  35.035  17.198  1.00  0.00    -0.146 SA
BRANCH  19  20
HETATM   20  C7  UNL     1      20.904  35.531  18.652  1.00  0.00     0.177 C 
BRANCH  20  21
HETATM   21  C8  UNL     1      19.835  36.479  18.243  1.00  0.00     0.226 C 
HETATM   22  O2  UNL     1      20.127  37.322  17.332  1.00  0.00    -0.273 OA
HETATM   23  N3  UNL     1      18.546  36.476  18.808  1.00  0.00    -0.360 N 
ATOM     24  H3  UNL     1      18.349  35.787  19.534  1.00  0.00     0.162 HD
BRANCH  23  25
HETATM   25  C9  UNL     1      17.498  37.364  18.439  1.00  0.00     0.124 C 
BRANCH  25  26
HETATM   26  C10 UNL     1      16.156  36.771  18.128  1.00  0.00     0.050 C 
BRANCH  26  27
HETATM   27  C11 UNL     1      16.184  35.913  16.898  1.00  0.00     0.274 C 
BRANCH  27  28
HETATM   28  N4  UNL     1      16.038  34.494  17.260  1.00  0.00     0.088 N 
HETATM   29  C12 UNL     1      17.346  33.842  17.086  1.00  0.00     0.272 C 
HETATM   30  C13 UNL     1      17.960  34.086  15.755  1.00  0.00     0.030 C 
HETATM   31  C14 UNL     1      17.294  33.277  14.655  1.00  0.00     0.002 C 
HETATM   32  C15 UNL     1      16.555  32.086  15.242  1.00  0.00     0.002 C 
HETATM   33  C16 UNL     1      15.394  32.463  16.107  1.00  0.00     0.030 C 
HETATM   34  C17 UNL     1      15.121  33.905  16.247  1.00  0.00     0.272 C 
ENDBRANCH  27  28
ENDBRANCH  26  27
ENDBRANCH  25  26
ENDBRANCH  23  25
ENDBRANCH  20  21
ENDBRANCH  19  20
ENDBRANCH  18  19
ENDBRANCH  17  18
ENDBRANCH  16  17
ENDBRANCH   8  16
BRANCH  10  35
HETATM   35  N5  UNL     1      22.392  28.634  11.952  1.00  0.00    -0.440 NA
BRANCH  35  36
HETATM   36  C20 UNL     1      22.954  27.685  11.186  1.00  0.00     0.173 C 
HETATM   37  C21 UNL     1      24.458  27.568  11.352  1.00  0.00     0.059 C 
HETATM   38  C22 UNL     1      24.965  26.152  11.269  1.00  0.00     0.125 C 
HETATM   39  N6  UNL     1      24.221  25.319  10.376  1.00  0.00    -0.361 N 
HETATM   40  C23 UNL     1      22.808  25.332  10.496  1.00  0.00     0.220 C 
ATOM     41  H6  UNL     1      24.688  24.738   9.680  1.00  0.00     0.162 HD
HETATM   42  O3  UNL     1      22.051  24.556   9.849  1.00  0.00    -0.274 OA
HETATM   43  C24 UNL     1      22.255  26.342  11.452  1.00  0.00     0.142 C 
ENDBRANCH  35  36
ENDBRANCH  10  35
TORSDOF 12
ENDMDL
MODEL 2
REMARK VINA RESULT: -8.846201281      2.499      9.909
REMARK  12 active torsions:
REMARK  status: ('A' for Active; 'I' for Inactive)
REMARK    1  A    between atoms: C4_8  and  O1_9 
REMARK    2  A    between atoms: O1_9  and  C5_10 
REMARK    3  A    between atoms: C5_10  and  C6_11 
REMARK    4  A    between atoms: C6_11  and  S1_12 
REMARK    5  A    between atoms: S1_12  and  C7_13 
REMARK    6  A    between atoms: C7_13  and  C8_14 
REMARK       I    between atoms: C8_14  and  N3_16 
REMARK    7  A    between atoms: N3_16  and  C9_18 
REMARK    8  A    between atoms: C9_18  and  C10_19 
REMARK    9  A    between atoms: C10_19  and  C11_20 
REMARK   10  A    between atoms: C11_20  and  N4_21 
REMARK   11  A    between atoms: C19_29  and  N5_30 
REMARK   12  A    between atoms: N5_30  and  C20_31 
ROOT
HETATM    1  C1  UNL     1      23.110  37.083  18.098  1.00  0.00     0.070 C 
HETATM    2  C2  UNL     1      22.094  36.151  17.474  1.00  0.00     0.029 A 
HETATM    3  N1  UNL     1      22.469  34.976  16.958  1.00  0.00    -0.343 N 
ATOM      4  H1  UNL     1      23.445  34.682  16.978  1.00  0.00     0.167 HD
HETATM    5  C3  UNL     1      21.508  34.179  16.403  1.00  0.00     0.138 A 
HETATM    6  N2  UNL     1      21.858  33.009  15.865  1.00  0.00    -0.320 N 
ATOM      7  H2  UNL     1      22.838  32.730  15.897  1.00  0.00     0.169 HD
HETATM    8  C4  UNL     1      20.952  32.164  15.272  1.00  0.00     0.162 A 
HETATM    9  C18 UNL     1      19.605  32.537  15.222  1.00  0.00     0.104 A 
HETATM   10  C19 UNL     1      19.177  33.754  15.772  1.00  0.00     0.135 A 
HETATM   11  C25 UNL     1      20.186  34.525  16.349  1.00  0.00     0.118 A 
HETATM   12  N7  UNL     1      19.835  35.705  16.870  1.00  0.00    -0.353 N 
ATOM     13  H7  UNL     1      18.858  35.998  16.848  1.00  0.00     0.166 HD
HETATM   14  C26 UNL     1      20.770  36.514  17.427  1.00  0.00     0.028 A 
HETATM   15  C27 UNL     1      20.339  37.821  18.003  1.00  0.00     0.070 C 
ENDROOT
BRANCH   8  16
HETATM   16  O1  UNL     1      21.393  31.044  14.772  1.00  0.00    -0.255 OA
BRANCH  16  17
HETATM   17  C5  UNL     1      21.828  29.963  14.322  1.00  0.00    -0.008 C 
BRANCH  17  18
HETATM   18  C6  UNL     1      22.318  28.722  13.809  1.00  0.00     0.186 C 
BRANCH  18  19
HETATM   19  S1  UNL     1      22.866  28.682  12.068  1.00  0.00    -0.146 SA
BRANCH  19  20
HETATM   20  C7  UNL     1      23.878  27.186  11.799  1.00  0.00     0.177 C 
BRANCH  20  21
HETATM   21  C8  UNL     1      23.007  26.041  11.425  1.00  0.00     0.226 C 
HETATM   22  O2  UNL     1      23.575  25.034  10.889  1.00  0.00    -0.273 OA
HETATM   23  N3  UNL     1      21.616  26.030  11.639  1.00  0.00    -0.360 N 
ATOM     24  H3  UNL     1      21.196  26.854  12.071  1.00  0.00     0.162 HD
BRANCH  23  25
HETATM   25  C9  UNL     1      20.753  24.952  11.299  1.00  0.00     0.124 C 
BRANCH  25  26
HETATM   26  C10 UNL     1      19.278  25.222  11.260  1.00  0.00     0.050 C 
BRANCH  26  27
HETATM   27  C11 UNL     1      18.969  26.641  10.888  1.00  0.00     0.274 C 
BRANCH  27  28
HETATM   28  N4  UNL     1      18.889  27.481  12.094  1.00  0.00     0.088 N 
HETATM   29  C12 UNL     1      17.509  27.422  12.600  1.00  0.00     0.272 C 
HETATM   30  C13 UNL     1      16.483  27.715  11.567  1.00  0.00     0.030 C 
HETATM   31  C14 UNL     1      16.407  29.195  11.233  1.00  0.00     0.002 C 
HETATM   32  C15 UNL     1      16.995  30.028  12.360  1.00  0.00     0.002 C 
HETATM   33  C16 UNL     1      18.464  29.821  12.558  1.00  0.00     0.030 C 
HETATM   34  C17 UNL     1      19.124  28.878  11.637  1.00  0.00     0.272 C 
ENDBRANCH  27  28
ENDBRANCH  26  27
ENDBRANCH  25  26
ENDBRANCH  23  25
ENDBRANCH  20  21
ENDBRANCH  19  20
ENDBRANCH  18  19
ENDBRANCH  17  18
ENDBRANCH  16  17
ENDBRANCH   8  16
BRANCH  10  35
HETATM   35  N5  UNL     1      18.009  34.061  15.711  1.00  0.00    -0.440 NA
BRANCH  35  36
HETATM   36  C20 UNL     1      16.698  34.180  15.977  1.00  0.00     0.173 C 
HETATM   37  C21 UNL     1      15.852  33.046  15.428  1.00  0.00     0.059 C 
HETATM   38  C22 UNL     1      14.707  32.657  16.329  1.00  0.00     0.125 C 
HETATM   39  N6  UNL     1      14.149  33.751  17.063  1.00  0.00    -0.361 N 
HETATM   40  C23 UNL     1      15.051  34.605  17.748  1.00  0.00     0.220 C 
ATOM     41  H6  UNL     1      13.142  33.910  17.093  1.00  0.00     0.162 HD
HETATM   42  O3  UNL     1      14.676  35.528  18.523  1.00  0.00    -0.274 OA
HETATM   43  C24 UNL     1      16.502  34.343  17.492  1.00  0.00     0.142 C 
ENDBRANCH  35  36
ENDBRANCH  10  35
TORSDOF 12
ENDMDL
MODEL 3
REMARK VINA RESULT: -8.810413907      2.960     10.865
REMARK  12 active torsions:
REMARK  status: ('A' for Active; 'I' for Inactive)
REMARK    1  A    between atoms: C4_8  and  O1_9 
REMARK    2  A    between atoms: O1_9  and  C5_10 
REMARK    3  A    between atoms: C5_10  and  C6_11 
REMARK    4  A    between atoms: C6_11  and  S1_12 
REMARK    5  A    between atoms: S1_12  and  C7_13 
REMARK    6  A    between atoms: C7_13  and  C8_14 
REMARK       I    between atoms: C8_14  and  N3_16 
REMARK    7  A    between atoms: N3_16  and  C9_18 
REMARK    8  A    between atoms: C9_18  and  C10_19 
REMARK    9  A    between atoms: C10_19  and  C11_20 
REMARK   10  A    between atoms: C11_20  and  N4_21 
REMARK   11  A    between atoms: C19_29  and  N5_30 
REMARK   12  A    between atoms: N5_30  and  C20_31 
ROOT
HETATM    1  C1  UNL     1      23.882  32.765  15.001  1.00  0.00     0.070 C 
HETATM    2  C2  UNL     1      22.418  32.526  14.702  1.00  0.00     0.029 A 
HETATM    3  N1  UNL     1      22.038  31.532  13.892  1.00  0.00    -0.343 N 
ATOM      4  H1  UNL     1      22.725  30.913  13.463  1.00  0.00     0.167 HD
HETATM    5  C3  UNL     1      20.703  31.369  13.654  1.00  0.00     0.138 A 
HETATM    6  N2  UNL     1      20.297  30.395  12.837  1.00  0.00    -0.320 N 
ATOM      7  H2  UNL     1      20.999  29.784  12.419  1.00  0.00     0.169 HD
HETATM    8  C4  UNL     1      18.975  30.182  12.534  1.00  0.00     0.162 A 
HETATM    9  C18 UNL     1      18.004  31.015  13.100  1.00  0.00     0.104 A 
HETATM   10  C19 UNL     1      18.370  32.054  13.969  1.00  0.00     0.135 A 
HETATM   11  C25 UNL     1      19.740  32.170  14.202  1.00  0.00     0.118 A 
HETATM   12  N7  UNL     1      20.143  33.158  15.007  1.00  0.00    -0.353 N 
ATOM     13  H7  UNL     1      19.454  33.777  15.434  1.00  0.00     0.166 HD
HETATM   14  C26 UNL     1      21.463  33.341  15.260  1.00  0.00     0.028 A 
HETATM   15  C27 UNL     1      21.875  34.450  16.168  1.00  0.00     0.070 C 
ENDROOT
BRANCH   8  16
HETATM   16  O1  UNL     1      18.680  29.207  11.721  1.00  0.00    -0.255 OA
BRANCH  16  17
HETATM   17  C5  UNL     1      18.422  28.281  10.923  1.00  0.00    -0.008 C 
BRANCH  17  18
HETATM   18  C6  UNL     1      18.118  27.222  10.012  1.00  0.00     0.186 C 
BRANCH  18  19
HETATM   19  S1  UNL     1      18.399  27.528   8.235  1.00  0.00    -0.146 SA
BRANCH  19  20
HETATM   20  C7  UNL     1      18.076  25.986   7.310  1.00  0.00     0.177 C 
BRANCH  20  21
HETATM   21  C8  UNL     1      19.283  25.119   7.327  1.00  0.00     0.226 C 
HETATM   22  O2  UNL     1      19.104  23.876   7.111  1.00  0.00    -0.273 OA
HETATM   23  N3  UNL     1      20.581  25.610   7.562  1.00  0.00    -0.360 N 
ATOM     24  H3  UNL     1      20.685  26.611   7.730  1.00  0.00     0.162 HD
BRANCH  23  25
HETATM   25  C9  UNL     1      21.758  24.811   7.580  1.00  0.00     0.124 C 
BRANCH  25  26
HETATM   26  C10 UNL     1      22.476  24.655   8.887  1.00  0.00     0.050 C 
BRANCH  26  27
HETATM   27  C11 UNL     1      21.685  25.197  10.040  1.00  0.00     0.274 C 
BRANCH  27  28
HETATM   28  N4  UNL     1      22.544  25.347  11.226  1.00  0.00     0.088 N 
HETATM   29  C12 UNL     1      22.192  26.612  11.887  1.00  0.00     0.272 C 
HETATM   30  C13 UNL     1      22.187  27.782  10.970  1.00  0.00     0.030 C 
HETATM   31  C14 UNL     1      23.590  28.240  10.610  1.00  0.00     0.002 C 
HETATM   32  C15 UNL     1      24.592  27.749  11.642  1.00  0.00     0.002 C 
HETATM   33  C16 UNL     1      24.742  26.260  11.677  1.00  0.00     0.030 C 
HETATM   34  C17 UNL     1      23.932  25.497  10.710  1.00  0.00     0.272 C 
ENDBRANCH  27  28
ENDBRANCH  26  27
ENDBRANCH  25  26
ENDBRANCH  23  25
ENDBRANCH  20  21
ENDBRANCH  19  20
ENDBRANCH  18  19
ENDBRANCH  17  18
ENDBRANCH  16  17
ENDBRANCH   8  16
BRANCH  10  35
HETATM   35  N5  UNL     1      17.515  32.767  14.441  1.00  0.00    -0.440 NA
BRANCH  35  36
HETATM   36  C20 UNL     1      16.707  33.404  15.306  1.00  0.00     0.173 C 
HETATM   37  C21 UNL     1      15.299  32.841  15.363  1.00  0.00     0.059 C 
HETATM   38  C22 UNL     1      14.697  32.861  16.744  1.00  0.00     0.125 C 
HETATM   39  N6  UNL     1      15.118  33.969  17.545  1.00  0.00    -0.361 N 
HETATM   40  C23 UNL     1      16.509  34.239  17.607  1.00  0.00     0.220 C 
ATOM     41  H6  UNL     1      14.444  34.543  18.051  1.00  0.00     0.162 HD
HETATM   42  O3  UNL     1      17.012  35.111  18.369  1.00  0.00    -0.274 OA
HETATM   43  C24 UNL     1      17.363  33.414  16.696  1.00  0.00     0.142 C 
ENDBRANCH  35  36
ENDBRANCH  10  35
TORSDOF 12
ENDMDL
MODEL 4
REMARK VINA RESULT: -8.756003757      2.481      9.469
REMARK  12 active torsions:
REMARK  status: ('A' for Active; 'I' for Inactive)
REMARK    1  A    between atoms: C4_8  and  O1_9 
REMARK    2  A    between atoms: O1_9  and  C5_10 
REMARK    3  A    between atoms: C5_10  and  C6_11 
REMARK    4  A    between atoms: C6_11  and  S1_12 
REMARK    5  A    between atoms: S1_12  and  C7_13 
REMARK    6  A    between atoms: C7_13  and  C8_14 
REMARK       I    between atoms: C8_14  and  N3_16 
REMARK    7  A    between atoms: N3_16  and  C9_18 
REMARK    8  A    between atoms: C9_18  and  C10_19 
REMARK    9  A    between atoms: C10_19  and  C11_20 
REMARK   10  A    between atoms: C11_20  and  N4_21 
REMARK   11  A    between atoms: C19_29  and  N5_30 
REMARK   12  A    between atoms: N5_30  and  C20_31 
ROOT
HETATM    1  C1  UNL     1      15.055  32.733  16.163  1.00  0.00     0.070 C 
HETATM    2  C2  UNL     1      16.567  32.686  16.169  1.00  0.00     0.029 A 
HETATM    3  N1  UNL     1      17.226  31.737  15.494  1.00  0.00    -0.343 N 
ATOM      4  H1  UNL     1      16.723  31.030  14.959  1.00  0.00     0.167 HD
HETATM    5  C3  UNL     1      18.591  31.742  15.541  1.00  0.00     0.138 A 
HETATM    6  N2  UNL     1      19.272  30.796  14.891  1.00  0.00    -0.320 N 
ATOM      7  H2  UNL     1      18.752  30.098  14.359  1.00  0.00     0.169 HD
HETATM    8  C4  UNL     1      20.643  30.724  14.908  1.00  0.00     0.162 A 
HETATM    9  C18 UNL     1      21.366  31.675  15.635  1.00  0.00     0.104 A 
HETATM   10  C19 UNL     1      20.705  32.694  16.338  1.00  0.00     0.135 A 
HETATM   11  C25 UNL     1      19.314  32.665  16.243  1.00  0.00     0.118 A 
HETATM   12  N7  UNL     1      18.635  33.603  16.911  1.00  0.00    -0.353 N 
ATOM     13  H7  UNL     1      19.140  34.310  17.447  1.00  0.00     0.166 HD
HETATM   14  C26 UNL     1      17.279  33.621  16.880  1.00  0.00     0.028 A 
HETATM   15  C27 UNL     1      16.556  34.687  17.633  1.00  0.00     0.070 C 
ENDROOT
BRANCH   8  16
HETATM   16  O1  UNL     1      21.215  29.760  14.244  1.00  0.00    -0.255 OA
BRANCH  16  17
HETATM   17  C5  UNL     1      21.735  28.825  13.597  1.00  0.00    -0.008 C 
BRANCH  17  18
HETATM   18  C6  UNL     1      22.334  27.762  12.854  1.00  0.00     0.186 C 
BRANCH  18  19
HETATM   19  S1  UNL     1      23.794  28.158  11.833  1.00  0.00    -0.146 SA
BRANCH  19  20
HETATM   20  C7  UNL     1      24.134  26.756  10.714  1.00  0.00     0.177 C 
BRANCH  20  21
HETATM   21  C8  UNL     1      22.904  25.941  10.529  1.00  0.00     0.226 C 
HETATM   22  O2  UNL     1      22.763  24.928  11.288  1.00  0.00    -0.273 OA
HETATM   23  N3  UNL     1      21.917  26.245   9.573  1.00  0.00    -0.360 N 
ATOM     24  H3  UNL     1      22.065  27.064   8.983  1.00  0.00     0.162 HD
BRANCH  23  25
HETATM   25  C9  UNL     1      20.727  25.492   9.371  1.00  0.00     0.124 C 
BRANCH  25  26
HETATM   26  C10 UNL     1      19.416  26.180   9.606  1.00  0.00     0.050 C 
BRANCH  26  27
HETATM   27  C11 UNL     1      18.865  25.901  10.972  1.00  0.00     0.274 C 
BRANCH  27  28
HETATM   28  N4  UNL     1      19.052  27.069  11.849  1.00  0.00     0.088 N 
HETATM   29  C12 UNL     1      17.882  27.165  12.736  1.00  0.00     0.272 C 
HETATM   30  C13 UNL     1      16.583  27.129  12.015  1.00  0.00     0.030 C 
HETATM   31  C14 UNL     1      16.282  28.437  11.303  1.00  0.00     0.002 C 
HETATM   32  C15 UNL     1      17.086  29.573  11.912  1.00  0.00     0.002 C 
HETATM   33  C16 UNL     1      18.564  29.438  11.717  1.00  0.00     0.030 C 
HETATM   34  C17 UNL     1      19.020  28.260  10.958  1.00  0.00     0.272 C 
ENDBRANCH  27  28
ENDBRANCH  26  27
ENDBRANCH  25  26
ENDBRANCH  23  25
ENDBRANCH  20  21
ENDBRANCH  19  20
ENDBRANCH  18  19
ENDBRANCH  17  18
ENDBRANCH  16  17
ENDBRANCH   8  16
BRANCH  10  35
HETATM   35  N5  UNL     1      21.349  33.501  16.967  1.00  0.00    -0.440 NA
BRANCH  35  36
HETATM   36  C20 UNL     1      21.945  34.636  17.367  1.00  0.00     0.173 C 
HETATM   37  C21 UNL     1      21.600  35.847  16.519  1.00  0.00     0.059 C 
HETATM   38  C22 UNL     1      21.478  37.123  17.310  1.00  0.00     0.125 C 
HETATM   39  N6  UNL     1      22.359  37.195  18.435  1.00  0.00    -0.361 N 
HETATM   40  C23 UNL     1      22.400  36.076  19.305  1.00  0.00     0.220 C 
ATOM     41  H6  UNL     1      22.934  38.020  18.606  1.00  0.00     0.162 HD
HETATM   42  O3  UNL     1      23.045  36.066  20.390  1.00  0.00    -0.274 OA
HETATM   43  C24 UNL     1      21.622  34.881  18.850  1.00  0.00     0.142 C 
ENDBRANCH  35  36
ENDBRANCH  10  35
TORSDOF 12
ENDMDL
MODEL 5
REMARK VINA RESULT: -8.577521836      1.217      2.510
REMARK  12 active torsions:
REMARK  status: ('A' for Active; 'I' for Inactive)
REMARK    1  A    between atoms: C4_8  and  O1_9 
REMARK    2  A    between atoms: O1_9  and  C5_10 
REMARK    3  A    between atoms: C5_10  and  C6_11 
REMARK    4  A    between atoms: C6_11  and  S1_12 
REMARK    5  A    between atoms: S1_12  and  C7_13 
REMARK    6  A    between atoms: C7_13  and  C8_14 
REMARK       I    between atoms: C8_14  and  N3_16 
REMARK    7  A    between atoms: N3_16  and  C9_18 
REMARK    8  A    between atoms: C9_18  and  C10_19 
REMARK    9  A    between atoms: C10_19  and  C11_20 
REMARK   10  A    between atoms: C11_20  and  N4_21 
REMARK   11  A    between atoms: C19_29  and  N5_30 
REMARK   12  A    between atoms: N5_30  and  C20_31 
ROOT
HETATM    1  C1  UNL     1      16.045  29.441  11.640  1.00  0.00     0.070 C 
HETATM    2  C2  UNL     1      17.536  29.413  11.897  1.00  0.00     0.029 A 
HETATM    3  N1  UNL     1      18.069  30.103  12.911  1.00  0.00    -0.343 N 
ATOM      4  H1  UNL     1      17.482  30.658  13.533  1.00  0.00     0.167 HD
HETATM    5  C3  UNL     1      19.422  30.044  13.090  1.00  0.00     0.138 A 
HETATM    6  N2  UNL     1      19.982  30.737  14.084  1.00  0.00    -0.320 N 
ATOM      7  H2  UNL     1      19.380  31.285  14.697  1.00  0.00     0.169 HD
HETATM    8  C4  UNL     1      21.336  30.743  14.313  1.00  0.00     0.162 A 
HETATM    9  C18 UNL     1      22.172  29.997  13.477  1.00  0.00     0.104 A 
HETATM   10  C19 UNL     1      21.641  29.247  12.417  1.00  0.00     0.135 A 
HETATM   11  C25 UNL     1      20.254  29.317  12.285  1.00  0.00     0.118 A 
HETATM   12  N7  UNL     1      19.699  28.636  11.277  1.00  0.00    -0.353 N 
ATOM     13  H7  UNL     1      20.288  28.082  10.655  1.00  0.00     0.166 HD
HETATM   14  C26 UNL     1      18.358  28.677  11.078  1.00  0.00     0.028 A 
HETATM   15  C27 UNL     1      17.774  27.900   9.947  1.00  0.00     0.070 C 
ENDROOT
BRANCH   8  16
HETATM   16  O1  UNL     1      21.786  31.455  15.308  1.00  0.00    -0.255 OA
BRANCH  16  17
HETATM   17  C5  UNL     1      22.220  32.111  16.279  1.00  0.00    -0.008 C 
BRANCH  17  18
HETATM   18  C6  UNL     1      22.710  32.865  17.390  1.00  0.00     0.186 C 
BRANCH  18  19
HETATM   19  S1  UNL     1      22.075  34.562  17.607  1.00  0.00    -0.146 SA
BRANCH  19  20
HETATM   20  C7  UNL     1      21.201  35.068  16.086  1.00  0.00     0.177 C 
BRANCH  20  21
HETATM   21  C8  UNL     1      19.836  34.480  16.062  1.00  0.00     0.226 C 
HETATM   22  O2  UNL     1      19.329  34.151  17.184  1.00  0.00    -0.273 OA
HETATM   23  N3  UNL     1      19.103  34.283  14.877  1.00  0.00    -0.360 N 
ATOM     24  H3  UNL     1      19.542  34.559  13.997  1.00  0.00     0.162 HD
BRANCH  23  25
HETATM   25  C9  UNL     1      17.794  33.729  14.816  1.00  0.00     0.124 C 
BRANCH  25  26
HETATM   26  C10 UNL     1      16.639  34.675  14.684  1.00  0.00     0.050 C 
BRANCH  26  27
HETATM   27  C11 UNL     1      15.707  34.602  15.857  1.00  0.00     0.274 C 
BRANCH  27  28
HETATM   28  N4  UNL     1      16.390  35.047  17.083  1.00  0.00     0.088 N 
HETATM   29  C12 UNL     1      15.468  34.856  18.213  1.00  0.00     0.272 C 
HETATM   30  C13 UNL     1      14.125  35.455  17.994  1.00  0.00     0.030 C 
HETATM   31  C14 UNL     1      14.140  36.969  18.127  1.00  0.00     0.002 C 
HETATM   32  C15 UNL     1      15.347  37.422  18.931  1.00  0.00     0.002 C 
HETATM   33  C16 UNL     1      16.656  37.149  18.259  1.00  0.00     0.030 C 
HETATM   34  C17 UNL     1      16.591  36.514  16.930  1.00  0.00     0.272 C 
ENDBRANCH  27  28
ENDBRANCH  26  27
ENDBRANCH  25  26
ENDBRANCH  23  25
ENDBRANCH  20  21
ENDBRANCH  19  20
ENDBRANCH  18  19
ENDBRANCH  17  18
ENDBRANCH  16  17
ENDBRANCH   8  16
BRANCH  10  35
HETATM   35  N5  UNL     1      22.383  28.615  11.701  1.00  0.00    -0.440 NA
BRANCH  35  36
HETATM   36  C20 UNL     1      22.925  27.634  10.961  1.00  0.00     0.173 C 
HETATM   37  C21 UNL     1      24.433  27.524  11.093  1.00  0.00     0.059 C 
HETATM   38  C22 UNL     1      24.939  26.105  11.057  1.00  0.00     0.125 C 
HETATM   39  N6  UNL     1      24.173  25.236  10.218  1.00  0.00    -0.361 N 
HETATM   40  C23 UNL     1      22.763  25.255  10.373  1.00  0.00     0.220 C 
ATOM     41  H6  UNL     1      24.623  24.626   9.535  1.00  0.00     0.162 HD
HETATM   42  O3  UNL     1      21.991  24.453   9.779  1.00  0.00    -0.274 OA
HETATM   43  C24 UNL     1      22.234  26.304  11.300  1.00  0.00     0.142 C 
ENDBRANCH  35  36
ENDBRANCH  10  35
TORSDOF 12
ENDMDL
