MODEL 1
REMARK VINA RESULT: -6.896609176      0.000      0.000
REMARK  5 active torsions:
REMARK  status: ('A' for Active; 'I' for Inactive)
REMARK    1  A    between atoms: N2_4  and  C1_6 
REMARK    2  A    between atoms: C1_6  and  C2_7 
REMARK    3  A    between atoms: N3_8  and  C3_10 
REMARK    4  A    between atoms: C3_10  and  C4_11 
REMARK    5  A    between atoms: C4_11  and  N5_15 
ROOT
HETATM    1  C3  UNL     1     -42.646 -18.973  50.615  1.00  0.00     0.194 C 
ENDROOT
BRANCH   1   2
HETATM    2  N3  UNL     1     -42.255 -19.160  49.258  1.00  0.00    -0.394 N 
HETATM    3  C2  UNL     1     -41.666 -20.232  48.871  1.00  0.00     0.077 C 
ATOM      4  H3  UNL     1     -42.449 -18.425  48.579  1.00  0.00     0.159 HD
BRANCH   3   5
HETATM    5  C1  UNL     1     -41.261 -20.412  47.433  1.00  0.00     0.182 C 
BRANCH   5   6
HETATM    6  N2  UNL     1     -40.222 -19.515  47.055  1.00  0.00    -0.338 N 
HETATM    7  N1  UNL     1     -39.489 -19.782  46.096  1.00  0.00    -0.349 N 
ATOM      8  H12 UNL     1     -39.641 -20.651  45.584  1.00  0.00     0.176 HD
ATOM      9  H11 UNL     1     -38.745 -19.139  45.825  1.00  0.00     0.176 HD
ATOM     10  H2  UNL     1     -40.083 -18.649  47.577  1.00  0.00     0.179 HD
ENDBRANCH   5   6
ENDBRANCH   3   5
ENDBRANCH   1   2
BRANCH   1  11
HETATM   11  C4  UNL     1     -42.952 -17.572  50.946  1.00  0.00     0.094 C 
HETATM   12  N4  UNL     1     -43.066 -16.706  50.011  1.00  0.00    -0.387 N 
ATOM     13  H42 UNL     1     -42.945 -16.996  49.041  1.00  0.00     0.157 HD
ATOM     14  H41 UNL     1     -43.278 -15.735  50.239  1.00  0.00     0.157 HD
BRANCH  11  15
HETATM   15  N5  UNL     1     -43.120 -17.171  52.287  1.00  0.00    -0.322 N 
HETATM   16  C5  UNL     1     -42.250 -16.569  52.992  1.00  0.00     0.202 C 
HETATM   17  N6  UNL     1     -40.971 -16.230  52.471  1.00  0.00    -0.066 NA
HETATM   18  N7  UNL     1     -42.547 -16.222  54.330  1.00  0.00    -0.066 NA
ATOM     19  H5  UNL     1     -44.015 -17.380  52.729  1.00  0.00     0.169 HD
ENDBRANCH  11  15
ENDBRANCH   1  11
TORSDOF 5
ENDMDL
MODEL 2
REMARK VINA RESULT: -6.780388290      1.243      6.040
REMARK  5 active torsions:
REMARK  status: ('A' for Active; 'I' for Inactive)
REMARK    1  A    between atoms: N2_4  and  C1_6 
REMARK    2  A    between atoms: C1_6  and  C2_7 
REMARK    3  A    between atoms: N3_8  and  C3_10 
REMARK    4  A    between atoms: C3_10  and  C4_11 
REMARK    5  A    between atoms: C4_11  and  N5_15 
ROOT
HETATM    1  C3  UNL     1     -42.643 -18.427  48.903  1.00  0.00     0.194 C 
ENDROOT
BRANCH   1   2
HETATM    2  N3  UNL     1     -42.937 -18.231  50.283  1.00  0.00    -0.394 N 
HETATM    3  C2  UNL     1     -42.207 -17.482  51.026  1.00  0.00     0.077 C 
ATOM      4  H3  UNL     1     -43.747 -18.697  50.689  1.00  0.00     0.159 HD
BRANCH   3   5
HETATM    5  C1  UNL     1     -42.534 -17.286  52.481  1.00  0.00     0.182 C 
BRANCH   5   6
HETATM    6  N2  UNL     1     -41.917 -16.119  53.014  1.00  0.00    -0.338 N 
HETATM    7  N1  UNL     1     -41.226 -15.395  52.288  1.00  0.00    -0.349 N 
ATOM      8  H12 UNL     1     -41.107 -15.649  51.307  1.00  0.00     0.176 HD
ATOM      9  H11 UNL     1     -40.784 -14.559  52.669  1.00  0.00     0.176 HD
ATOM     10  H2  UNL     1     -42.046 -15.879  53.997  1.00  0.00     0.179 HD
ENDBRANCH   5   6
ENDBRANCH   3   5
ENDBRANCH   1   2
BRANCH   1  11
HETATM   11  C4  UNL     1     -41.718 -19.544  48.657  1.00  0.00     0.094 C 
HETATM   12  N4  UNL     1     -41.866 -20.647  49.289  1.00  0.00    -0.387 N 
ATOM     13  H42 UNL     1     -42.628 -20.741  49.960  1.00  0.00     0.157 HD
ATOM     14  H41 UNL     1     -41.226 -21.422  49.119  1.00  0.00     0.157 HD
BRANCH  11  15
HETATM   15  N5  UNL     1     -40.664 -19.414  47.730  1.00  0.00    -0.322 N 
HETATM   16  C5  UNL     1     -40.420 -20.214  46.771  1.00  0.00     0.202 C 
HETATM   17  N6  UNL     1     -41.224 -21.363  46.536  1.00  0.00    -0.066 NA
HETATM   18  N7  UNL     1     -39.327 -19.968  45.911  1.00  0.00    -0.066 NA
ATOM     19  H5  UNL     1     -40.044 -18.611  47.836  1.00  0.00     0.169 HD
ENDBRANCH  11  15
ENDBRANCH   1  11
TORSDOF 5
ENDMDL
MODEL 3
REMARK VINA RESULT: -6.472749429      0.679      1.142
REMARK  5 active torsions:
REMARK  status: ('A' for Active; 'I' for Inactive)
REMARK    1  A    between atoms: N2_4  and  C1_6 
REMARK    2  A    between atoms: C1_6  and  C2_7 
REMARK    3  A    between atoms: N3_8  and  C3_10 
REMARK    4  A    between atoms: C3_10  and  C4_11 
REMARK    5  A    between atoms: C4_11  and  N5_15 
ROOT
HETATM    1  C3  UNL     1     -42.290 -18.975  50.724  1.00  0.00     0.194 C 
ENDROOT
BRANCH   1   2
HETATM    2  N3  UNL     1     -41.918 -19.112  49.355  1.00  0.00    -0.394 N 
HETATM    3  C2  UNL     1     -41.670 -20.259  48.838  1.00  0.00     0.077 C 
ATOM      4  H3  UNL     1     -41.847 -18.277  48.774  1.00  0.00     0.159 HD
BRANCH   3   5
HETATM    5  C1  UNL     1     -41.279 -20.384  47.391  1.00  0.00     0.182 C 
BRANCH   5   6
HETATM    6  N2  UNL     1     -40.222 -19.494  47.045  1.00  0.00    -0.338 N 
HETATM    7  N1  UNL     1     -39.492 -19.742  46.078  1.00  0.00    -0.349 N 
ATOM      8  H12 UNL     1     -39.661 -20.590  45.536  1.00  0.00     0.176 HD
ATOM      9  H11 UNL     1     -38.736 -19.105  45.830  1.00  0.00     0.176 HD
ATOM     10  H2  UNL     1     -40.067 -18.650  47.596  1.00  0.00     0.179 HD
ENDBRANCH   5   6
ENDBRANCH   3   5
ENDBRANCH   1   2
BRANCH   1  11
HETATM   11  C4  UNL     1     -42.881 -17.665  51.039  1.00  0.00     0.094 C 
HETATM   12  N4  UNL     1     -43.814 -17.191  50.301  1.00  0.00    -0.387 N 
ATOM     13  H42 UNL     1     -44.140 -17.729  49.499  1.00  0.00     0.157 HD
ATOM     14  H41 UNL     1     -44.224 -16.283  50.520  1.00  0.00     0.157 HD
BRANCH  11  15
HETATM   15  N5  UNL     1     -42.430 -16.921  52.148  1.00  0.00    -0.322 N 
HETATM   16  C5  UNL     1     -42.923 -16.969  53.320  1.00  0.00     0.202 C 
HETATM   17  N6  UNL     1     -44.023 -17.815  53.632  1.00  0.00    -0.066 NA
HETATM   18  N7  UNL     1     -42.376 -16.167  54.346  1.00  0.00    -0.066 NA
ATOM     19  H5  UNL     1     -41.642 -16.291  52.000  1.00  0.00     0.169 HD
ENDBRANCH  11  15
ENDBRANCH   1  11
TORSDOF 5
ENDMDL
MODEL 4
REMARK VINA RESULT: -6.417547698      1.275      1.570
REMARK  5 active torsions:
REMARK  status: ('A' for Active; 'I' for Inactive)
REMARK    1  A    between atoms: N2_4  and  C1_6 
REMARK    2  A    between atoms: C1_6  and  C2_7 
REMARK    3  A    between atoms: N3_8  and  C3_10 
REMARK    4  A    between atoms: C3_10  and  C4_11 
REMARK    5  A    between atoms: C4_11  and  N5_15 
ROOT
HETATM    1  C3  UNL     1     -43.339 -17.582  49.302  1.00  0.00     0.194 C 
ENDROOT
BRANCH   1   2
HETATM    2  N3  UNL     1     -42.283 -18.290  48.658  1.00  0.00    -0.394 N 
HETATM    3  C2  UNL     1     -42.262 -19.572  48.617  1.00  0.00     0.077 C 
ATOM      4  H3  UNL     1     -41.528 -17.765  48.219  1.00  0.00     0.159 HD
BRANCH   3   5
HETATM    5  C1  UNL     1     -41.139 -20.303  47.931  1.00  0.00     0.182 C 
BRANCH   5   6
HETATM    6  N2  UNL     1     -40.271 -19.414  47.235  1.00  0.00    -0.338 N 
HETATM    7  N1  UNL     1     -39.676 -19.795  46.220  1.00  0.00    -0.349 N 
ATOM      8  H12 UNL     1     -39.818 -20.751  45.893  1.00  0.00     0.176 HD
ATOM      9  H11 UNL     1     -39.055 -19.158  45.721  1.00  0.00     0.176 HD
ATOM     10  H2  UNL     1     -40.140 -18.461  47.575  1.00  0.00     0.179 HD
ENDBRANCH   5   6
ENDBRANCH   3   5
ENDBRANCH   1   2
BRANCH   1  11
HETATM   11  C4  UNL     1     -43.244 -17.604  50.770  1.00  0.00     0.094 C 
HETATM   12  N4  UNL     1     -43.975 -18.409  51.446  1.00  0.00    -0.387 N 
ATOM     13  H42 UNL     1     -44.619 -19.030  50.957  1.00  0.00     0.157 HD
ATOM     14  H41 UNL     1     -43.910 -18.425  52.463  1.00  0.00     0.157 HD
BRANCH  11  15
HETATM   15  N5  UNL     1     -42.353 -16.745  51.446  1.00  0.00    -0.322 N 
HETATM   16  C5  UNL     1     -41.200 -17.067  51.875  1.00  0.00     0.202 C 
HETATM   17  N6  UNL     1     -40.679 -18.379  51.705  1.00  0.00    -0.066 NA
HETATM   18  N7  UNL     1     -40.404 -16.106  52.539  1.00  0.00    -0.066 NA
ATOM     19  H5  UNL     1     -42.659 -15.785  51.604  1.00  0.00     0.169 HD
ENDBRANCH  11  15
ENDBRANCH   1  11
TORSDOF 5
ENDMDL
MODEL 5
REMARK VINA RESULT: -6.396661096      1.635      1.925
REMARK  5 active torsions:
REMARK  status: ('A' for Active; 'I' for Inactive)
REMARK    1  A    between atoms: N2_4  and  C1_6 
REMARK    2  A    between atoms: C1_6  and  C2_7 
REMARK    3  A    between atoms: N3_8  and  C3_10 
REMARK    4  A    between atoms: C3_10  and  C4_11 
REMARK    5  A    between atoms: C4_11  and  N5_15 
ROOT
HETATM    1  C3  UNL     1     -43.101 -18.221  49.309  1.00  0.00     0.194 C 
ENDROOT
BRANCH   1   2
HETATM    2  N3  UNL     1     -42.020 -18.755  48.549  1.00  0.00    -0.394 N 
HETATM    3  C2  UNL     1     -41.978 -19.994  48.219  1.00  0.00     0.077 C 
ATOM      4  H3  UNL     1     -41.263 -18.137  48.260  1.00  0.00     0.159 HD
BRANCH   3   5
HETATM    5  C1  UNL     1     -40.829 -20.539  47.416  1.00  0.00     0.182 C 
BRANCH   5   6
HETATM    6  N2  UNL     1     -40.120 -19.511  46.733  1.00  0.00    -0.338 N 
HETATM    7  N1  UNL     1     -39.259 -19.800  45.893  1.00  0.00    -0.349 N 
ATOM      8  H12 UNL     1     -39.069 -20.784  45.701  1.00  0.00     0.176 HD
ATOM      9  H11 UNL     1     -38.751 -19.064  45.405  1.00  0.00     0.176 HD
ATOM     10  H2  UNL     1     -40.322 -18.532  46.937  1.00  0.00     0.179 HD
ENDBRANCH   5   6
ENDBRANCH   3   5
ENDBRANCH   1   2
BRANCH   1  11
HETATM   11  C4  UNL     1     -42.788 -18.069  50.738  1.00  0.00     0.094 C 
HETATM   12  N4  UNL     1     -43.178 -17.026  51.370  1.00  0.00    -0.387 N 
ATOM     13  H42 UNL     1     -43.704 -16.307  50.873  1.00  0.00     0.157 HD
ATOM     14  H41 UNL     1     -42.962 -16.920  52.361  1.00  0.00     0.157 HD
BRANCH  11  15
HETATM   15  N5  UNL     1     -42.061 -19.063  51.425  1.00  0.00    -0.322 N 
HETATM   16  C5  UNL     1     -40.943 -18.891  52.006  1.00  0.00     0.202 C 
HETATM   17  N6  UNL     1     -40.294 -17.625  52.017  1.00  0.00    -0.066 NA
HETATM   18  N7  UNL     1     -40.317 -19.976  52.660  1.00  0.00    -0.066 NA
ATOM     19  H5  UNL     1     -42.466 -19.998  51.459  1.00  0.00     0.169 HD
ENDBRANCH  11  15
ENDBRANCH   1  11
TORSDOF 5
ENDMDL
