MODEL 1
REMARK VINA RESULT: -7.121888003      0.000      0.000
REMARK  4 active torsions:
REMARK  status: ('A' for Active; 'I' for Inactive)
REMARK    1  A    between atoms: N2_4  and  N3_6 
REMARK    2  A    between atoms: N3_6  and  C1_8 
REMARK    3  A    between atoms: C1_8  and  C2_9 
REMARK       I    between atoms: C2_9  and  N4_11 
REMARK       I    between atoms: N4_11  and  C3_13 
REMARK       I    between atoms: C3_13  and  N5_14 
REMARK       I    between atoms: C3_13  and  N6_17 
REMARK    4  A    between atoms: N6_17  and  C4_18 
ROOT
HETATM    1  C2  UNL     1     -41.733 -19.282  49.285  1.00  0.00     0.244 C 
HETATM    2  O1  UNL     1     -41.094 -19.666  50.252  1.00  0.00    -0.271 OA
HETATM    3  N4  UNL     1     -42.713 -18.292  49.252  1.00  0.00    -0.286 N 
ATOM      4  H4  UNL     1     -43.103 -18.139  48.323  1.00  0.00     0.172 HD
HETATM    5  C3  UNL     1     -43.270 -17.466  50.229  1.00  0.00     0.258 C 
HETATM    6  N5  UNL     1     -44.196 -16.603  49.686  1.00  0.00    -0.359 N 
ATOM      7  H51 UNL     1     -44.604 -15.999  50.400  1.00  0.00     0.160 HD
ATOM      8  H52 UNL     1     -44.339 -16.693  48.681  1.00  0.00     0.160 HD
HETATM    9  N6  UNL     1     -43.082 -17.347  51.555  1.00  0.00    -0.344 NA
ENDROOT
BRANCH   1  10
HETATM   10  C1  UNL     1     -41.409 -19.970  47.968  1.00  0.00     0.243 C 
BRANCH  10  11
HETATM   11  N3  UNL     1     -40.322 -19.343  47.282  1.00  0.00    -0.314 N 
ATOM     12  H3  UNL     1     -39.929 -18.473  47.641  1.00  0.00     0.182 HD
BRANCH  11  13
HETATM   13  N2  UNL     1     -39.798 -19.914  46.128  1.00  0.00    -0.253 N 
HETATM   14  N1  UNL     1     -39.812 -21.156  45.911  1.00  0.00    -0.331 N 
ATOM     15  H12 UNL     1     -40.230 -21.754  46.623  1.00  0.00     0.178 HD
ATOM     16  H11 UNL     1     -39.428 -21.575  45.064  1.00  0.00     0.178 HD
ATOM     17  H2  UNL     1     -39.384 -19.301  45.426  1.00  0.00     0.207 HD
ENDBRANCH  11  13
ENDBRANCH  10  11
ENDBRANCH   1  10
BRANCH   9  18
HETATM   18  C4  UNL     1     -42.893 -17.227  52.888  1.00  0.00     0.445 C 
HETATM   19  O2  UNL     1     -42.227 -16.458  53.615  1.00  0.00    -0.268 OA
ENDBRANCH   9  18
TORSDOF 4
ENDMDL
MODEL 2
REMARK VINA RESULT: -6.926467114      1.412      1.556
REMARK  4 active torsions:
REMARK  status: ('A' for Active; 'I' for Inactive)
REMARK    1  A    between atoms: N2_4  and  N3_6 
REMARK    2  A    between atoms: N3_6  and  C1_8 
REMARK    3  A    between atoms: C1_8  and  C2_9 
REMARK       I    between atoms: C2_9  and  N4_11 
REMARK       I    between atoms: N4_11  and  C3_13 
REMARK       I    between atoms: C3_13  and  N5_14 
REMARK       I    between atoms: C3_13  and  N6_17 
REMARK    4  A    between atoms: N6_17  and  C4_18 
ROOT
HETATM    1  C2  UNL     1     -41.975 -19.445  50.084  1.00  0.00     0.244 C 
HETATM    2  O1  UNL     1     -40.945 -18.834  50.325  1.00  0.00    -0.271 OA
HETATM    3  N4  UNL     1     -43.215 -19.294  50.699  1.00  0.00    -0.286 N 
ATOM      4  H4  UNL     1     -43.932 -19.913  50.322  1.00  0.00     0.172 HD
HETATM    5  C3  UNL     1     -43.680 -18.470  51.725  1.00  0.00     0.258 C 
HETATM    6  N5  UNL     1     -45.024 -18.665  51.955  1.00  0.00    -0.359 N 
ATOM      7  H51 UNL     1     -45.363 -18.064  52.705  1.00  0.00     0.160 HD
ATOM      8  H52 UNL     1     -45.469 -19.366  51.363  1.00  0.00     0.160 HD
HETATM    9  N6  UNL     1     -43.092 -17.547  52.506  1.00  0.00    -0.344 NA
ENDROOT
BRANCH   1  10
HETATM   10  C1  UNL     1     -41.879 -20.486  48.980  1.00  0.00     0.243 C 
BRANCH  10  11
HETATM   11  N3  UNL     1     -41.639 -19.896  47.698  1.00  0.00    -0.314 N 
ATOM     12  H3  UNL     1     -42.393 -19.847  47.014  1.00  0.00     0.182 HD
BRANCH  11  13
HETATM   13  N2  UNL     1     -40.384 -19.391  47.383  1.00  0.00    -0.253 N 
HETATM   14  N1  UNL     1     -39.775 -19.684  46.318  1.00  0.00    -0.331 N 
ATOM     15  H12 UNL     1     -40.238 -20.322  45.671  1.00  0.00     0.178 HD
ATOM     16  H11 UNL     1     -38.853 -19.312  46.086  1.00  0.00     0.178 HD
ATOM     17  H2  UNL     1     -39.935 -18.754  48.041  1.00  0.00     0.207 HD
ENDBRANCH  11  13
ENDBRANCH  10  11
ENDBRANCH   1  10
BRANCH   9  18
HETATM   18  C4  UNL     1     -42.501 -16.618  53.291  1.00  0.00     0.445 C 
HETATM   19  O2  UNL     1     -42.495 -16.381  54.519  1.00  0.00    -0.268 OA
ENDBRANCH   9  18
TORSDOF 4
ENDMDL
MODEL 3
REMARK VINA RESULT: -6.878128121      1.785      2.238
REMARK  4 active torsions:
REMARK  status: ('A' for Active; 'I' for Inactive)
REMARK    1  A    between atoms: N2_4  and  N3_6 
REMARK    2  A    between atoms: N3_6  and  C1_8 
REMARK    3  A    between atoms: C1_8  and  C2_9 
REMARK       I    between atoms: C2_9  and  N4_11 
REMARK       I    between atoms: N4_11  and  C3_13 
REMARK       I    between atoms: C3_13  and  N5_14 
REMARK       I    between atoms: C3_13  and  N6_17 
REMARK    4  A    between atoms: N6_17  and  C4_18 
ROOT
HETATM    1  C2  UNL     1     -42.015 -18.909  49.645  1.00  0.00     0.244 C 
HETATM    2  O1  UNL     1     -42.610 -17.857  49.467  1.00  0.00    -0.271 OA
HETATM    3  N4  UNL     1     -41.561 -19.433  50.853  1.00  0.00    -0.286 N 
ATOM      4  H4  UNL     1     -41.097 -20.336  50.753  1.00  0.00     0.172 HD
HETATM    5  C3  UNL     1     -41.610 -18.979  52.172  1.00  0.00     0.258 C 
HETATM    6  N5  UNL     1     -41.049 -19.892  53.037  1.00  0.00    -0.359 N 
ATOM      7  H51 UNL     1     -41.084 -19.560  54.000  1.00  0.00     0.160 HD
ATOM      8  H52 UNL     1     -40.686 -20.739  52.601  1.00  0.00     0.160 HD
HETATM    9  N6  UNL     1     -42.089 -17.862  52.746  1.00  0.00    -0.344 NA
ENDROOT
BRANCH   1  10
HETATM   10  C1  UNL     1     -41.750 -19.735  48.396  1.00  0.00     0.243 C 
BRANCH  10  11
HETATM   11  N3  UNL     1     -40.615 -19.263  47.665  1.00  0.00    -0.314 N 
ATOM     12  H3  UNL     1     -40.060 -18.491  48.033  1.00  0.00     0.182 HD
BRANCH  11  13
HETATM   13  N2  UNL     1     -40.265 -19.852  46.456  1.00  0.00    -0.253 N 
HETATM   14  N1  UNL     1     -39.146 -19.670  45.903  1.00  0.00    -0.331 N 
ATOM     15  H12 UNL     1     -38.480 -19.061  46.378  1.00  0.00     0.178 HD
ATOM     16  H11 UNL     1     -38.889 -20.103  45.016  1.00  0.00     0.178 HD
ATOM     17  H2  UNL     1     -40.944 -20.458  45.995  1.00  0.00     0.207 HD
ENDBRANCH  11  13
ENDBRANCH  10  11
ENDBRANCH   1  10
BRANCH   9  18
HETATM   18  C4  UNL     1     -42.570 -16.738  53.324  1.00  0.00     0.445 C 
HETATM   19  O2  UNL     1     -42.441 -16.203  54.446  1.00  0.00    -0.268 OA
ENDBRANCH   9  18
TORSDOF 4
ENDMDL
MODEL 4
REMARK VINA RESULT: -6.777520546      2.301      5.300
REMARK  4 active torsions:
REMARK  status: ('A' for Active; 'I' for Inactive)
REMARK    1  A    between atoms: N2_4  and  N3_6 
REMARK    2  A    between atoms: N3_6  and  C1_8 
REMARK    3  A    between atoms: C1_8  and  C2_9 
REMARK       I    between atoms: C2_9  and  N4_11 
REMARK       I    between atoms: N4_11  and  C3_13 
REMARK       I    between atoms: C3_13  and  N5_14 
REMARK       I    between atoms: C3_13  and  N6_17 
REMARK    4  A    between atoms: N6_17  and  C4_18 
ROOT
HETATM    1  C2  UNL     1     -42.736 -17.745  51.992  1.00  0.00     0.244 C 
HETATM    2  O1  UNL     1     -41.953 -18.670  52.148  1.00  0.00    -0.271 OA
HETATM    3  N4  UNL     1     -43.332 -17.329  50.804  1.00  0.00    -0.286 N 
ATOM      4  H4  UNL     1     -43.960 -16.534  50.923  1.00  0.00     0.172 HD
HETATM    5  C3  UNL     1     -43.248 -17.774  49.484  1.00  0.00     0.258 C 
HETATM    6  N5  UNL     1     -44.077 -17.049  48.657  1.00  0.00    -0.359 N 
ATOM      7  H51 UNL     1     -44.015 -17.375  47.692  1.00  0.00     0.160 HD
ATOM      8  H52 UNL     1     -44.612 -16.312  49.114  1.00  0.00     0.160 HD
HETATM    9  N6  UNL     1     -42.542 -18.746  48.881  1.00  0.00    -0.344 NA
ENDROOT
BRANCH   1  10
HETATM   10  C1  UNL     1     -43.096 -16.969  53.249  1.00  0.00     0.243 C 
BRANCH  10  11
HETATM   11  N3  UNL     1     -42.170 -15.911  53.517  1.00  0.00    -0.314 N 
ATOM     12  H3  UNL     1     -42.240 -15.385  54.388  1.00  0.00     0.182 HD
BRANCH  11  13
HETATM   13  N2  UNL     1     -41.176 -15.600  52.598  1.00  0.00    -0.253 N 
HETATM   14  N1  UNL     1     -40.002 -16.053  52.678  1.00  0.00    -0.331 N 
ATOM     15  H12 UNL     1     -39.789 -16.674  53.458  1.00  0.00     0.178 HD
ATOM     16  H11 UNL     1     -39.272 -15.824  52.003  1.00  0.00     0.178 HD
ATOM     17  H2  UNL     1     -41.406 -14.977  51.824  1.00  0.00     0.207 HD
ENDBRANCH  11  13
ENDBRANCH  10  11
ENDBRANCH   1  10
BRANCH   9  18
HETATM   18  C4  UNL     1     -41.832 -19.724  48.275  1.00  0.00     0.445 C 
HETATM   19  O2  UNL     1     -41.907 -20.972  48.240  1.00  0.00    -0.268 OA
ENDBRANCH   9  18
TORSDOF 4
ENDMDL
MODEL 5
REMARK VINA RESULT: -6.638154410      2.385      2.438
REMARK  4 active torsions:
REMARK  status: ('A' for Active; 'I' for Inactive)
REMARK    1  A    between atoms: N2_4  and  N3_6 
REMARK    2  A    between atoms: N3_6  and  C1_8 
REMARK    3  A    between atoms: C1_8  and  C2_9 
REMARK       I    between atoms: C2_9  and  N4_11 
REMARK       I    between atoms: N4_11  and  C3_13 
REMARK       I    between atoms: C3_13  and  N5_14 
REMARK       I    between atoms: C3_13  and  N6_17 
REMARK    4  A    between atoms: N6_17  and  C4_18 
ROOT
HETATM    1  C2  UNL     1     -41.886 -19.476  48.485  1.00  0.00     0.244 C 
HETATM    2  O1  UNL     1     -42.164 -20.533  49.029  1.00  0.00    -0.271 OA
HETATM    3  N4  UNL     1     -42.551 -18.258  48.602  1.00  0.00    -0.286 N 
ATOM      4  H4  UNL     1     -42.126 -17.510  48.055  1.00  0.00     0.172 HD
HETATM    5  C3  UNL     1     -43.680 -17.850  49.314  1.00  0.00     0.258 C 
HETATM    6  N5  UNL     1     -43.926 -16.507  49.136  1.00  0.00    -0.359 N 
ATOM      7  H51 UNL     1     -44.751 -16.209  49.656  1.00  0.00     0.160 HD
ATOM      8  H52 UNL     1     -43.270 -16.022  48.525  1.00  0.00     0.160 HD
HETATM    9  N6  UNL     1     -44.545 -18.491  50.119  1.00  0.00    -0.344 NA
ENDROOT
BRANCH   1  10
HETATM   10  C1  UNL     1     -40.665 -19.506  47.578  1.00  0.00     0.243 C 
BRANCH  10  11
HETATM   11  N3  UNL     1     -40.895 -20.259  46.383  1.00  0.00    -0.314 N 
ATOM     12  H3  UNL     1     -41.077 -19.773  45.505  1.00  0.00     0.182 HD
BRANCH  11  13
HETATM   13  N2  UNL     1     -40.870 -21.647  46.413  1.00  0.00    -0.253 N 
HETATM   14  N1  UNL     1     -39.852 -22.322  46.100  1.00  0.00    -0.331 N 
ATOM     15  H12 UNL     1     -39.017 -21.810  45.815  1.00  0.00     0.178 HD
ATOM     16  H11 UNL     1     -39.834 -23.342  46.123  1.00  0.00     0.178 HD
ATOM     17  H2  UNL     1     -41.713 -22.143  46.702  1.00  0.00     0.207 HD
ENDBRANCH  11  13
ENDBRANCH  10  11
ENDBRANCH   1  10
BRANCH   9  18
HETATM   18  C4  UNL     1     -45.415 -19.135  50.929  1.00  0.00     0.445 C 
HETATM   19  O2  UNL     1     -46.406 -19.875  50.743  1.00  0.00    -0.268 OA
ENDBRANCH   9  18
TORSDOF 4
ENDMDL
