MODEL 1
REMARK VINA RESULT: -5.670923534      0.000      0.000
REMARK  7 active torsions:
REMARK  status: ('A' for Active; 'I' for Inactive)
REMARK    1  A    between atoms: O1_2  and  C2_3 
REMARK    2  A    between atoms: C2_3  and  C3_4 
REMARK    3  A    between atoms: C3_4  and  N1_5 
REMARK    4  A    between atoms: N1_5  and  N2_6 
REMARK    5  A    between atoms: N1_5  and  N4_12 
REMARK    6  A    between atoms: N2_6  and  C4_8 
REMARK    7  A    between atoms: C4_8  and  N3_9 
ROOT
HETATM    1  N1  UNL     1     -42.626 -19.202  49.904  1.00  0.00    -0.114 NA
ENDROOT
BRANCH   1   2
HETATM    2  C3  UNL     1     -42.419 -19.376  51.339  1.00  0.00     0.167 C 
BRANCH   2   3
HETATM    3  C2  UNL     1     -41.093 -18.732  51.743  1.00  0.00     0.185 C 
BRANCH   3   4
HETATM    4  O1  UNL     1     -40.279 -19.610  52.438  1.00  0.00    -0.395 OA
HETATM    5  C1  UNL     1     -40.896 -20.803  52.758  1.00  0.00     0.201 C 
ENDBRANCH   3   4
ENDBRANCH   2   3
ENDBRANCH   1   2
BRANCH   1   6
HETATM    6  N2  UNL     1     -41.363 -19.126  49.337  1.00  0.00    -0.296 N 
ATOM      7  H2  UNL     1     -40.599 -18.612  49.776  1.00  0.00     0.183 HD
BRANCH   6   8
HETATM    8  C4  UNL     1     -41.209 -19.796  48.129  1.00  0.00     0.187 C 
BRANCH   8   9
HETATM    9  N3  UNL     1     -40.366 -19.479  47.210  1.00  0.00    -0.395 N 
ATOM     10  H32 UNL     1     -39.792 -18.654  47.386  1.00  0.00     0.156 HD
ATOM     11  H31 UNL     1     -40.235 -19.985  46.335  1.00  0.00     0.156 HD
ENDBRANCH   8   9
ENDBRANCH   6   8
ENDBRANCH   1   6
BRANCH   1  12
HETATM   12  N4  UNL     1     -43.345 -18.001  49.754  1.00  0.00    -0.178 N 
HETATM   13  C5  UNL     1     -43.488 -17.099  48.740  1.00  0.00     0.242 A 
HETATM   14  N5  UNL     1     -44.310 -16.350  49.495  1.00  0.00    -0.277 N 
HETATM   15  N6  UNL     1     -44.156 -17.238  50.462  1.00  0.00    -0.222 N 
ATOM     16  H5  UNL     1     -44.827 -15.478  49.375  1.00  0.00     0.189 HD
ATOM     17  H6  UNL     1     -44.528 -17.308  51.410  1.00  0.00     0.210 HD
ENDBRANCH   1  12
TORSDOF 7
ENDMDL
MODEL 2
REMARK VINA RESULT: -5.661972803      0.825      3.247
REMARK  7 active torsions:
REMARK  status: ('A' for Active; 'I' for Inactive)
REMARK    1  A    between atoms: O1_2  and  C2_3 
REMARK    2  A    between atoms: C2_3  and  C3_4 
REMARK    3  A    between atoms: C3_4  and  N1_5 
REMARK    4  A    between atoms: N1_5  and  N2_6 
REMARK    5  A    between atoms: N1_5  and  N4_12 
REMARK    6  A    between atoms: N2_6  and  C4_8 
REMARK    7  A    between atoms: C4_8  and  N3_9 
ROOT
HETATM    1  N1  UNL     1     -42.093 -18.463  49.557  1.00  0.00    -0.114 NA
ENDROOT
BRANCH   1   2
HETATM    2  C3  UNL     1     -41.981 -19.196  50.815  1.00  0.00     0.167 C 
BRANCH   2   3
HETATM    3  C2  UNL     1     -40.892 -18.559  51.678  1.00  0.00     0.185 C 
BRANCH   3   4
HETATM    4  O1  UNL     1     -40.252 -19.491  52.478  1.00  0.00    -0.395 OA
HETATM    5  C1  UNL     1     -41.037 -20.581  52.796  1.00  0.00     0.201 C 
ENDBRANCH   3   4
ENDBRANCH   2   3
ENDBRANCH   1   2
BRANCH   1   6
HETATM    6  N2  UNL     1     -43.449 -18.274  49.337  1.00  0.00    -0.296 N 
ATOM      7  H2  UNL     1     -44.145 -18.971  49.601  1.00  0.00     0.183 HD
BRANCH   6   8
HETATM    8  C4  UNL     1     -43.796 -17.071  48.733  1.00  0.00     0.187 C 
BRANCH   8   9
HETATM    9  N3  UNL     1     -43.242 -15.936  48.976  1.00  0.00    -0.395 N 
ATOM     10  H32 UNL     1     -42.827 -15.822  49.900  1.00  0.00     0.156 HD
ATOM     11  H31 UNL     1     -43.192 -15.156  48.320  1.00  0.00     0.156 HD
ENDBRANCH   8   9
ENDBRANCH   6   8
ENDBRANCH   1   6
BRANCH   1  12
HETATM   12  N4  UNL     1     -41.508 -19.283  48.572  1.00  0.00    -0.178 N 
HETATM   13  C5  UNL     1     -41.632 -20.599  48.236  1.00  0.00     0.242 A 
HETATM   14  N5  UNL     1     -40.738 -20.450  47.242  1.00  0.00    -0.277 N 
HETATM   15  N6  UNL     1     -40.637 -19.178  47.587  1.00  0.00    -0.222 N 
ATOM     16  H5  UNL     1     -40.322 -21.053  46.533  1.00  0.00     0.189 HD
ATOM     17  H6  UNL     1     -40.086 -18.400  47.224  1.00  0.00     0.210 HD
ENDBRANCH   1  12
TORSDOF 7
ENDMDL
MODEL 3
REMARK VINA RESULT: -5.656022828      1.991      3.356
REMARK  7 active torsions:
REMARK  status: ('A' for Active; 'I' for Inactive)
REMARK    1  A    between atoms: O1_2  and  C2_3 
REMARK    2  A    between atoms: C2_3  and  C3_4 
REMARK    3  A    between atoms: C3_4  and  N1_5 
REMARK    4  A    between atoms: N1_5  and  N2_6 
REMARK    5  A    between atoms: N1_5  and  N4_12 
REMARK    6  A    between atoms: N2_6  and  C4_8 
REMARK    7  A    between atoms: C4_8  and  N3_9 
ROOT
HETATM    1  N1  UNL     1     -41.759 -18.592  49.926  1.00  0.00    -0.114 NA
ENDROOT
BRANCH   1   2
HETATM    2  C3  UNL     1     -41.539 -19.177  48.607  1.00  0.00     0.167 C 
BRANCH   2   3
HETATM    3  C2  UNL     1     -41.824 -20.677  48.662  1.00  0.00     0.185 C 
BRANCH   3   4
HETATM    4  O1  UNL     1     -41.468 -21.318  47.487  1.00  0.00    -0.395 OA
HETATM    5  C1  UNL     1     -40.672 -20.553  46.658  1.00  0.00     0.201 C 
ENDBRANCH   3   4
ENDBRANCH   2   3
ENDBRANCH   1   2
BRANCH   1   6
HETATM    6  N2  UNL     1     -42.029 -19.651  50.780  1.00  0.00    -0.296 N 
ATOM      7  H2  UNL     1     -42.628 -20.430  50.507  1.00  0.00     0.183 HD
BRANCH   6   8
HETATM    8  C4  UNL     1     -41.428 -19.579  52.031  1.00  0.00     0.187 C 
BRANCH   8   9
HETATM    9  N3  UNL     1     -40.525 -18.729  52.370  1.00  0.00    -0.395 N 
ATOM     10  H32 UNL     1     -39.558 -19.051  52.322  1.00  0.00     0.156 HD
ATOM     11  H31 UNL     1     -40.705 -17.773  52.677  1.00  0.00     0.156 HD
ENDBRANCH   8   9
ENDBRANCH   6   8
ENDBRANCH   1   6
BRANCH   1  12
HETATM   12  N4  UNL     1     -42.863 -17.728  49.794  1.00  0.00    -0.178 N 
HETATM   13  C5  UNL     1     -43.386 -17.005  48.760  1.00  0.00     0.242 A 
HETATM   14  N5  UNL     1     -44.362 -16.536  49.556  1.00  0.00    -0.277 N 
HETATM   15  N6  UNL     1     -43.837 -17.245  50.540  1.00  0.00    -0.222 N 
ATOM     16  H5  UNL     1     -45.159 -15.908  49.448  1.00  0.00     0.189 HD
ATOM     17  H6  UNL     1     -44.093 -17.373  51.520  1.00  0.00     0.210 HD
ENDBRANCH   1  12
TORSDOF 7
ENDMDL
MODEL 4
REMARK VINA RESULT: -5.609317528      1.479      3.619
REMARK  7 active torsions:
REMARK  status: ('A' for Active; 'I' for Inactive)
REMARK    1  A    between atoms: O1_2  and  C2_3 
REMARK    2  A    between atoms: C2_3  and  C3_4 
REMARK    3  A    between atoms: C3_4  and  N1_5 
REMARK    4  A    between atoms: N1_5  and  N2_6 
REMARK    5  A    between atoms: N1_5  and  N4_12 
REMARK    6  A    between atoms: N2_6  and  C4_8 
REMARK    7  A    between atoms: C4_8  and  N3_9 
ROOT
HETATM    1  N1  UNL     1     -41.970 -18.512  49.471  1.00  0.00    -0.114 NA
ENDROOT
BRANCH   1   2
HETATM    2  C3  UNL     1     -41.679 -19.173  50.741  1.00  0.00     0.167 C 
BRANCH   2   3
HETATM    3  C2  UNL     1     -41.085 -18.158  51.717  1.00  0.00     0.185 C 
BRANCH   3   4
HETATM    4  O1  UNL     1     -41.874 -17.027  51.835  1.00  0.00    -0.395 OA
HETATM    5  C1  UNL     1     -42.741 -17.065  52.908  1.00  0.00     0.201 C 
ENDBRANCH   3   4
ENDBRANCH   2   3
ENDBRANCH   1   2
BRANCH   1   6
HETATM    6  N2  UNL     1     -43.351 -18.442  49.378  1.00  0.00    -0.296 N 
ATOM      7  H2  UNL     1     -43.952 -19.241  49.580  1.00  0.00     0.183 HD
BRANCH   6   8
HETATM    8  C4  UNL     1     -43.863 -17.208  48.991  1.00  0.00     0.187 C 
BRANCH   8   9
HETATM    9  N3  UNL     1     -43.244 -16.086  49.093  1.00  0.00    -0.395 N 
ATOM     10  H32 UNL     1     -43.060 -15.754  50.040  1.00  0.00     0.156 HD
ATOM     11  H31 UNL     1     -42.930 -15.517  48.307  1.00  0.00     0.156 HD
ENDBRANCH   8   9
ENDBRANCH   6   8
ENDBRANCH   1   6
BRANCH   1  12
HETATM   12  N4  UNL     1     -41.415 -19.329  48.468  1.00  0.00    -0.178 N 
HETATM   13  C5  UNL     1     -41.585 -20.633  48.101  1.00  0.00     0.242 A 
HETATM   14  N5  UNL     1     -40.686 -20.493  47.111  1.00  0.00    -0.277 N 
HETATM   15  N6  UNL     1     -40.540 -19.233  47.485  1.00  0.00    -0.222 N 
ATOM     16  H5  UNL     1     -40.291 -21.094  46.387  1.00  0.00     0.189 HD
ATOM     17  H6  UNL     1     -39.961 -18.467  47.140  1.00  0.00     0.210 HD
ENDBRANCH   1  12
TORSDOF 7
ENDMDL
MODEL 5
REMARK VINA RESULT: -5.558205376      1.122      1.455
REMARK  7 active torsions:
REMARK  status: ('A' for Active; 'I' for Inactive)
REMARK    1  A    between atoms: O1_2  and  C2_3 
REMARK    2  A    between atoms: C2_3  and  C3_4 
REMARK    3  A    between atoms: C3_4  and  N1_5 
REMARK    4  A    between atoms: N1_5  and  N2_6 
REMARK    5  A    between atoms: N1_5  and  N4_12 
REMARK    6  A    between atoms: N2_6  and  C4_8 
REMARK    7  A    between atoms: C4_8  and  N3_9 
ROOT
HETATM    1  N1  UNL     1     -42.551 -19.279  49.201  1.00  0.00    -0.114 NA
ENDROOT
BRANCH   1   2
HETATM    2  C3  UNL     1     -42.177 -19.667  50.559  1.00  0.00     0.167 C 
BRANCH   2   3
HETATM    3  C2  UNL     1     -41.115 -18.703  51.087  1.00  0.00     0.185 C 
BRANCH   3   4
HETATM    4  O1  UNL     1     -41.507 -18.092  52.265  1.00  0.00    -0.395 OA
HETATM    5  C1  UNL     1     -41.626 -16.720  52.166  1.00  0.00     0.201 C 
ENDBRANCH   3   4
ENDBRANCH   2   3
ENDBRANCH   1   2
BRANCH   1   6
HETATM    6  N2  UNL     1     -41.368 -18.986  48.541  1.00  0.00    -0.296 N 
ATOM      7  H2  UNL     1     -40.819 -18.152  48.752  1.00  0.00     0.183 HD
BRANCH   6   8
HETATM    8  C4  UNL     1     -40.978 -19.906  47.574  1.00  0.00     0.187 C 
BRANCH   8   9
HETATM    9  N3  UNL     1     -40.120 -19.680  46.643  1.00  0.00    -0.395 N 
ATOM     10  H32 UNL     1     -40.492 -19.351  45.753  1.00  0.00     0.156 HD
ATOM     11  H31 UNL     1     -39.112 -19.807  46.733  1.00  0.00     0.156 HD
ENDBRANCH   8   9
ENDBRANCH   6   8
ENDBRANCH   1   6
BRANCH   1  12
HETATM   12  N4  UNL     1     -43.377 -18.146  49.331  1.00  0.00    -0.178 N 
HETATM   13  C5  UNL     1     -43.394 -16.911  48.750  1.00  0.00     0.242 A 
HETATM   14  N5  UNL     1     -44.478 -16.566  49.468  1.00  0.00    -0.277 N 
HETATM   15  N6  UNL     1     -44.440 -17.769  50.015  1.00  0.00    -0.222 N 
ATOM     16  H5  UNL     1     -45.069 -15.740  49.553  1.00  0.00     0.189 HD
ATOM     17  H6  UNL     1     -45.022 -18.236  50.712  1.00  0.00     0.210 HD
ENDBRANCH   1  12
TORSDOF 7
ENDMDL
