MODEL 1
REMARK VINA RESULT: -5.840291116      0.000      0.000
REMARK  4 active torsions:
REMARK  status: ('A' for Active; 'I' for Inactive)
REMARK    1  A    between atoms: N1_2  and  C2_3 
REMARK    2  A    between atoms: C2_3  and  C3_4 
REMARK    3  A    between atoms: N2_5  and  C4_7 
REMARK    4  A    between atoms: C4_7  and  N3_8 
REMARK       I    between atoms: N3_8  and  C5_10 
ROOT
HETATM    1  C3  UNL     1     -42.628 -18.700  49.983  1.00  0.00     0.086 C 
HETATM    2  N2  UNL     1     -41.723 -18.958  49.127  1.00  0.00    -0.385 N 
ATOM      3  H2  UNL     1     -41.066 -18.225  48.862  1.00  0.00     0.160 HD
ENDROOT
BRANCH   2   4
HETATM    4  C4  UNL     1     -41.603 -20.259  48.524  1.00  0.00     0.245 C 
BRANCH   4   5
HETATM    5  N3  UNL     1     -41.458 -20.166  47.094  1.00  0.00    -0.349 N 
HETATM    6  C5  UNL     1     -40.254 -20.585  46.485  1.00  0.00     0.183 C 
HETATM    7  N4  UNL     1     -39.454 -19.653  46.080  1.00  0.00    -0.374 N 
HETATM    8  N5  UNL     1     -39.937 -21.957  46.326  1.00  0.00    -0.064 NA
ATOM      9  H42 UNL     1     -39.682 -18.666  46.195  1.00  0.00     0.158 HD
ATOM     10  H41 UNL     1     -38.585 -19.956  45.640  1.00  0.00     0.158 HD
ATOM     11  H3  UNL     1     -42.221 -19.799  46.524  1.00  0.00     0.163 HD
ENDBRANCH   4   5
ENDBRANCH   2   4
BRANCH   1  12
HETATM   12  C2  UNL     1     -42.749 -17.359  50.603  1.00  0.00     0.305 C 
BRANCH  12  13
HETATM   13  N1  UNL     1     -42.138 -17.351  51.940  1.00  0.00     0.027 N 
HETATM   14  C1  UNL     1     -41.287 -16.206  52.213  1.00  0.00     0.299 C 
HETATM   15  C6  UNL     1     -42.680 -18.033  53.006  1.00  0.00     0.402 A 
HETATM   16  N6  UNL     1     -41.551 -18.576  52.293  1.00  0.00    -0.016 NA
ENDBRANCH  12  13
ENDBRANCH   1  12
TORSDOF 4
ENDMDL
MODEL 2
REMARK VINA RESULT: -5.631913745      1.808      2.088
REMARK  4 active torsions:
REMARK  status: ('A' for Active; 'I' for Inactive)
REMARK    1  A    between atoms: N1_2  and  C2_3 
REMARK    2  A    between atoms: C2_3  and  C3_4 
REMARK    3  A    between atoms: N2_5  and  C4_7 
REMARK    4  A    between atoms: C4_7  and  N3_8 
REMARK       I    between atoms: N3_8  and  C5_10 
ROOT
HETATM    1  C3  UNL     1     -42.864 -18.275  49.271  1.00  0.00     0.086 C 
HETATM    2  N2  UNL     1     -42.499 -19.392  48.783  1.00  0.00    -0.385 N 
ATOM      3  H2  UNL     1     -43.171 -20.158  48.737  1.00  0.00     0.160 HD
ENDROOT
BRANCH   2   4
HETATM    4  C4  UNL     1     -41.163 -19.603  48.294  1.00  0.00     0.245 C 
BRANCH   4   5
HETATM    5  N3  UNL     1     -41.156 -19.892  46.883  1.00  0.00    -0.349 N 
HETATM    6  C5  UNL     1     -40.095 -20.642  46.328  1.00  0.00     0.183 C 
HETATM    7  N4  UNL     1     -39.216 -19.985  45.644  1.00  0.00    -0.374 N 
HETATM    8  N5  UNL     1     -39.997 -22.044  46.512  1.00  0.00    -0.064 NA
ATOM      9  H42 UNL     1     -39.286 -18.976  45.513  1.00  0.00     0.158 HD
ATOM     10  H41 UNL     1     -38.450 -20.526  45.244  1.00  0.00     0.158 HD
ATOM     11  H3  UNL     1     -41.914 -19.556  46.288  1.00  0.00     0.163 HD
ENDBRANCH   4   5
ENDBRANCH   2   4
BRANCH   1  12
HETATM   12  C2  UNL     1     -44.242 -18.061  49.773  1.00  0.00     0.305 C 
BRANCH  12  13
HETATM   13  N1  UNL     1     -44.465 -18.823  51.010  1.00  0.00     0.027 N 
HETATM   14  C1  UNL     1     -43.703 -18.360  52.157  1.00  0.00     0.299 C 
HETATM   15  C6  UNL     1     -45.614 -19.546  51.237  1.00  0.00     0.402 A 
HETATM   16  N6  UNL     1     -44.404 -20.214  50.828  1.00  0.00    -0.016 NA
ENDBRANCH  12  13
ENDBRANCH   1  12
TORSDOF 4
ENDMDL
MODEL 3
REMARK VINA RESULT: -5.611481612      2.504      6.096
REMARK  4 active torsions:
REMARK  status: ('A' for Active; 'I' for Inactive)
REMARK    1  A    between atoms: N1_2  and  C2_3 
REMARK    2  A    between atoms: C2_3  and  C3_4 
REMARK    3  A    between atoms: N2_5  and  C4_7 
REMARK    4  A    between atoms: C4_7  and  N3_8 
REMARK       I    between atoms: N3_8  and  C5_10 
ROOT
HETATM    1  C3  UNL     1     -42.598 -17.942  50.398  1.00  0.00     0.086 C 
HETATM    2  N2  UNL     1     -42.412 -17.589  51.607  1.00  0.00    -0.385 N 
ATOM      3  H2  UNL     1     -42.942 -18.049  52.346  1.00  0.00     0.160 HD
ENDROOT
BRANCH   2   4
HETATM    4  C4  UNL     1     -41.473 -16.557  51.956  1.00  0.00     0.245 C 
BRANCH   4   5
HETATM    5  N3  UNL     1     -41.786 -15.968  53.232  1.00  0.00    -0.349 N 
HETATM    6  C5  UNL     1     -42.925 -16.408  53.944  1.00  0.00     0.183 C 
HETATM    7  N4  UNL     1     -43.950 -15.621  53.941  1.00  0.00    -0.374 N 
HETATM    8  N5  UNL     1     -42.944 -17.650  54.627  1.00  0.00    -0.064 NA
ATOM      9  H42 UNL     1     -43.937 -14.728  53.449  1.00  0.00     0.158 HD
ATOM     10  H41 UNL     1     -44.773 -15.938  54.455  1.00  0.00     0.158 HD
ATOM     11  H3  UNL     1     -41.189 -15.237  53.620  1.00  0.00     0.163 HD
ENDBRANCH   4   5
ENDBRANCH   2   4
BRANCH   1  12
HETATM   12  C2  UNL     1     -43.567 -19.005  50.041  1.00  0.00     0.305 C 
BRANCH  12  13
HETATM   13  N1  UNL     1     -42.910 -20.319  50.027  1.00  0.00     0.027 N 
HETATM   14  C1  UNL     1     -43.607 -21.357  50.767  1.00  0.00     0.299 C 
HETATM   15  C6  UNL     1     -42.034 -20.699  49.035  1.00  0.00     0.402 A 
HETATM   16  N6  UNL     1     -41.537 -20.260  50.316  1.00  0.00    -0.016 NA
ENDBRANCH  12  13
ENDBRANCH   1  12
TORSDOF 4
ENDMDL
MODEL 4
REMARK VINA RESULT: -5.598492433      1.005      1.031
REMARK  4 active torsions:
REMARK  status: ('A' for Active; 'I' for Inactive)
REMARK    1  A    between atoms: N1_2  and  C2_3 
REMARK    2  A    between atoms: C2_3  and  C3_4 
REMARK    3  A    between atoms: N2_5  and  C4_7 
REMARK    4  A    between atoms: C4_7  and  N3_8 
REMARK       I    between atoms: N3_8  and  C5_10 
ROOT
HETATM    1  C3  UNL     1     -42.757 -18.531  50.473  1.00  0.00     0.086 C 
HETATM    2  N2  UNL     1     -41.671 -18.952  49.961  1.00  0.00    -0.385 N 
ATOM      3  H2  UNL     1     -40.803 -18.452  50.155  1.00  0.00     0.160 HD
ENDROOT
BRANCH   2   4
HETATM    4  C4  UNL     1     -41.635 -20.115  49.115  1.00  0.00     0.245 C 
BRANCH   4   5
HETATM    5  N3  UNL     1     -41.668 -19.754  47.721  1.00  0.00    -0.349 N 
HETATM    6  C5  UNL     1     -40.746 -20.340  46.826  1.00  0.00     0.183 C 
HETATM    7  N4  UNL     1     -39.764 -19.595  46.435  1.00  0.00    -0.374 N 
HETATM    8  N5  UNL     1     -40.887 -21.677  46.378  1.00  0.00    -0.064 NA
ATOM      9  H42 UNL     1     -39.661 -18.633  46.757  1.00  0.00     0.158 HD
ATOM     10  H41 UNL     1     -39.097 -20.018  45.789  1.00  0.00     0.158 HD
ATOM     11  H3  UNL     1     -42.354 -19.079  47.382  1.00  0.00     0.163 HD
ENDBRANCH   4   5
ENDBRANCH   2   4
BRANCH   1  12
HETATM   12  C2  UNL     1     -42.790 -17.333  51.345  1.00  0.00     0.305 C 
BRANCH  12  13
HETATM   13  N1  UNL     1     -42.890 -17.724  52.758  1.00  0.00     0.027 N 
HETATM   14  C1  UNL     1     -42.884 -16.617  53.699  1.00  0.00     0.299 C 
HETATM   15  C6  UNL     1     -43.444 -18.919  53.158  1.00  0.00     0.402 A 
HETATM   16  N6  UNL     1     -42.011 -18.760  53.114  1.00  0.00    -0.016 NA
ENDBRANCH  12  13
ENDBRANCH   1  12
TORSDOF 4
ENDMDL
MODEL 5
REMARK VINA RESULT: -5.520437038      1.962      2.563
REMARK  4 active torsions:
REMARK  status: ('A' for Active; 'I' for Inactive)
REMARK    1  A    between atoms: N1_2  and  C2_3 
REMARK    2  A    between atoms: C2_3  and  C3_4 
REMARK    3  A    between atoms: N2_5  and  C4_7 
REMARK    4  A    between atoms: C4_7  and  N3_8 
REMARK       I    between atoms: N3_8  and  C5_10 
ROOT
HETATM    1  C3  UNL     1     -42.397 -20.323  50.194  1.00  0.00     0.086 C 
HETATM    2  N2  UNL     1     -42.359 -20.085  48.944  1.00  0.00    -0.385 N 
ATOM      3  H2  UNL     1     -43.193 -20.249  48.381  1.00  0.00     0.160 HD
ENDROOT
BRANCH   2   4
HETATM    4  C4  UNL     1     -41.168 -19.590  48.305  1.00  0.00     0.245 C 
BRANCH   4   5
HETATM    5  N3  UNL     1     -41.165 -19.884  46.896  1.00  0.00    -0.349 N 
HETATM    6  C5  UNL     1     -40.109 -20.641  46.342  1.00  0.00     0.183 C 
HETATM    7  N4  UNL     1     -39.227 -19.991  45.655  1.00  0.00    -0.374 N 
HETATM    8  N5  UNL     1     -40.018 -22.043  46.530  1.00  0.00    -0.064 NA
ATOM      9  H42 UNL     1     -39.292 -18.983  45.520  1.00  0.00     0.158 HD
ATOM     10  H41 UNL     1     -38.464 -20.538  45.255  1.00  0.00     0.158 HD
ATOM     11  H3  UNL     1     -41.922 -19.546  46.300  1.00  0.00     0.163 HD
ENDBRANCH   4   5
ENDBRANCH   2   4
BRANCH   1  12
HETATM   12  C2  UNL     1     -43.625 -20.832  50.849  1.00  0.00     0.305 C 
BRANCH  12  13
HETATM   13  N1  UNL     1     -44.489 -19.718  51.265  1.00  0.00     0.027 N 
HETATM   14  C1  UNL     1     -45.912 -19.953  51.090  1.00  0.00     0.299 C 
HETATM   15  C6  UNL     1     -44.089 -18.774  52.184  1.00  0.00     0.402 A 
HETATM   16  N6  UNL     1     -44.068 -18.472  50.774  1.00  0.00    -0.016 NA
ENDBRANCH  12  13
ENDBRANCH   1  12
TORSDOF 4
ENDMDL
