MODEL 1
REMARK VINA RESULT: -5.883342515      0.000      0.000
REMARK  6 active torsions:
REMARK  status: ('A' for Active; 'I' for Inactive)
REMARK    1  A    between atoms: N2_4  and  C1_6 
REMARK    2  A    between atoms: C1_6  and  C2_7 
REMARK    3  A    between atoms: N4_9  and  N5_10 
REMARK    4  A    between atoms: N5_10  and  C3_11 
REMARK    5  A    between atoms: C3_11  and  C4_12 
REMARK    6  A    between atoms: C4_12  and  C5_13 
ROOT
HETATM    1  C2  UNL     1     -41.434 -19.912  47.712  1.00  0.00     0.223 A 
HETATM    2  N3  UNL     1     -41.536 -20.910  48.790  1.00  0.00    -0.122 NA
HETATM    3  N4  UNL     1     -41.082 -19.547  48.996  1.00  0.00    -0.124 NA
ENDROOT
BRANCH   3   4
HETATM    4  N5  UNL     1     -41.873 -18.824  49.863  1.00  0.00    -0.146 NA
BRANCH   4   5
HETATM    5  C3  UNL     1     -43.250 -19.239  49.754  1.00  0.00     0.135 C 
BRANCH   5   6
HETATM    6  C4  UNL     1     -44.206 -18.071  49.738  1.00  0.00     0.061 C 
BRANCH   6   7
HETATM    7  C5  UNL     1     -43.749 -17.116  48.693  1.00  0.00     0.054 C 
HETATM    8  N6  UNL     1     -43.251 -16.005  49.071  1.00  0.00    -0.411 N 
ATOM      9  H62 UNL     1     -43.174 -15.793  50.065  1.00  0.00     0.155 HD
ATOM     10  H61 UNL     1     -42.938 -15.351  48.355  1.00  0.00     0.155 HD
ENDBRANCH   6   7
ENDBRANCH   5   6
ENDBRANCH   4   5
ENDBRANCH   3   4
BRANCH   1  11
HETATM   11  C1  UNL     1     -40.339 -20.250  46.725  1.00  0.00     0.179 C 
BRANCH  11  12
HETATM   12  N2  UNL     1     -40.622 -21.460  46.007  1.00  0.00    -0.340 N 
HETATM   13  N1  UNL     1     -39.988 -22.493  46.295  1.00  0.00    -0.349 N 
ATOM     14  H12 UNL     1     -39.283 -22.463  47.032  1.00  0.00     0.176 HD
ATOM     15  H11 UNL     1     -40.189 -23.354  45.785  1.00  0.00     0.176 HD
ATOM     16  H2  UNL     1     -41.330 -21.474  45.273  1.00  0.00     0.179 HD
ENDBRANCH  11  12
ENDBRANCH   1  11
TORSDOF 6
ENDMDL
MODEL 2
REMARK VINA RESULT: -5.850757949      1.084      1.084
REMARK  6 active torsions:
REMARK  status: ('A' for Active; 'I' for Inactive)
REMARK    1  A    between atoms: N2_4  and  C1_6 
REMARK    2  A    between atoms: C1_6  and  C2_7 
REMARK    3  A    between atoms: N4_9  and  N5_10 
REMARK    4  A    between atoms: N5_10  and  C3_11 
REMARK    5  A    between atoms: C3_11  and  C4_12 
REMARK    6  A    between atoms: C4_12  and  C5_13 
ROOT
HETATM    1  C2  UNL     1     -41.781 -20.213  48.062  1.00  0.00     0.223 A 
HETATM    2  N3  UNL     1     -41.432 -20.825  49.356  1.00  0.00    -0.122 NA
HETATM    3  N4  UNL     1     -41.236 -19.419  49.052  1.00  0.00    -0.124 NA
ENDROOT
BRANCH   3   4
HETATM    4  N5  UNL     1     -41.946 -18.570  49.873  1.00  0.00    -0.146 NA
BRANCH   4   5
HETATM    5  C3  UNL     1     -43.315 -19.010  49.989  1.00  0.00     0.135 C 
BRANCH   5   6
HETATM    6  C4  UNL     1     -44.302 -17.893  49.752  1.00  0.00     0.061 C 
BRANCH   6   7
HETATM    7  C5  UNL     1     -43.767 -17.026  48.668  1.00  0.00     0.054 C 
HETATM    8  N6  UNL     1     -43.243 -15.911  48.993  1.00  0.00    -0.411 N 
ATOM      9  H62 UNL     1     -43.200 -15.635  49.974  1.00  0.00     0.155 HD
ATOM     10  H61 UNL     1     -42.877 -15.317  48.250  1.00  0.00     0.155 HD
ENDBRANCH   6   7
ENDBRANCH   5   6
ENDBRANCH   4   5
ENDBRANCH   3   4
BRANCH   1  11
HETATM   11  C1  UNL     1     -40.887 -20.698  46.943  1.00  0.00     0.179 C 
BRANCH  11  12
HETATM   12  N2  UNL     1     -39.953 -19.689  46.530  1.00  0.00    -0.340 N 
HETATM   13  N1  UNL     1     -39.118 -19.967  45.648  1.00  0.00    -0.349 N 
ATOM     14  H12 UNL     1     -39.112 -20.900  45.235  1.00  0.00     0.176 HD
ATOM     15  H11 UNL     1     -38.454 -19.250  45.355  1.00  0.00     0.176 HD
ATOM     16  H2  UNL     1     -39.972 -18.761  46.952  1.00  0.00     0.179 HD
ENDBRANCH  11  12
ENDBRANCH   1  11
TORSDOF 6
ENDMDL
MODEL 3
REMARK VINA RESULT: -5.655470662      0.845      5.031
REMARK  6 active torsions:
REMARK  status: ('A' for Active; 'I' for Inactive)
REMARK    1  A    between atoms: N2_4  and  C1_6 
REMARK    2  A    between atoms: C1_6  and  C2_7 
REMARK    3  A    between atoms: N4_9  and  N5_10 
REMARK    4  A    between atoms: N5_10  and  C3_11 
REMARK    5  A    between atoms: C3_11  and  C4_12 
REMARK    6  A    between atoms: C4_12  and  C5_13 
ROOT
HETATM    1  C2  UNL     1     -42.917 -18.472  49.386  1.00  0.00     0.223 A 
HETATM    2  N3  UNL     1     -42.036 -18.381  50.563  1.00  0.00    -0.122 NA
HETATM    3  N4  UNL     1     -42.527 -19.635  50.021  1.00  0.00    -0.124 NA
ENDROOT
BRANCH   3   4
HETATM    4  N5  UNL     1     -41.528 -20.482  49.590  1.00  0.00    -0.146 NA
BRANCH   4   5
HETATM    5  C3  UNL     1     -41.618 -20.680  48.164  1.00  0.00     0.135 C 
BRANCH   5   6
HETATM    6  C4  UNL     1     -40.562 -19.913  47.407  1.00  0.00     0.061 C 
BRANCH   6   7
HETATM    7  C5  UNL     1     -40.235 -20.673  46.171  1.00  0.00     0.054 C 
HETATM    8  N6  UNL     1     -40.239 -21.946  46.230  1.00  0.00    -0.411 N 
ATOM      9  H62 UNL     1     -40.463 -22.415  47.108  1.00  0.00     0.155 HD
ATOM     10  H61 UNL     1     -40.015 -22.468  45.383  1.00  0.00     0.155 HD
ENDBRANCH   6   7
ENDBRANCH   5   6
ENDBRANCH   4   5
ENDBRANCH   3   4
BRANCH   1  11
HETATM   11  C1  UNL     1     -44.297 -17.919  49.663  1.00  0.00     0.179 C 
BRANCH  11  12
HETATM   12  N2  UNL     1     -44.355 -16.500  49.456  1.00  0.00    -0.340 N 
HETATM   13  N1  UNL     1     -43.335 -15.909  49.053  1.00  0.00    -0.349 N 
ATOM     14  H12 UNL     1     -42.481 -16.439  48.876  1.00  0.00     0.176 HD
ATOM     15  H11 UNL     1     -43.375 -14.900  48.906  1.00  0.00     0.176 HD
ATOM     16  H2  UNL     1     -45.215 -15.984  49.637  1.00  0.00     0.179 HD
ENDBRANCH  11  12
ENDBRANCH   1  11
TORSDOF 6
ENDMDL
MODEL 4
REMARK VINA RESULT: -5.560091431      1.176      1.389
REMARK  6 active torsions:
REMARK  status: ('A' for Active; 'I' for Inactive)
REMARK    1  A    between atoms: N2_4  and  C1_6 
REMARK    2  A    between atoms: C1_6  and  C2_7 
REMARK    3  A    between atoms: N4_9  and  N5_10 
REMARK    4  A    between atoms: N5_10  and  C3_11 
REMARK    5  A    between atoms: C3_11  and  C4_12 
REMARK    6  A    between atoms: C4_12  and  C5_13 
ROOT
HETATM    1  C2  UNL     1     -41.121 -20.640  47.881  1.00  0.00     0.223 A 
HETATM    2  N3  UNL     1     -40.838 -19.288  48.392  1.00  0.00    -0.122 NA
HETATM    3  N4  UNL     1     -42.147 -19.912  48.449  1.00  0.00    -0.124 NA
ENDROOT
BRANCH   3   4
HETATM    4  N5  UNL     1     -42.628 -20.078  49.730  1.00  0.00    -0.146 NA
BRANCH   4   5
HETATM    5  C3  UNL     1     -42.924 -18.797  50.326  1.00  0.00     0.135 C 
BRANCH   5   6
HETATM    6  C4  UNL     1     -44.315 -18.314  49.995  1.00  0.00     0.061 C 
BRANCH   6   7
HETATM    7  C5  UNL     1     -44.193 -17.158  49.068  1.00  0.00     0.054 C 
HETATM    8  N6  UNL     1     -43.114 -17.033  48.401  1.00  0.00    -0.411 N 
ATOM      9  H62 UNL     1     -42.365 -17.716  48.513  1.00  0.00     0.155 HD
ATOM     10  H61 UNL     1     -43.031 -16.240  47.766  1.00  0.00     0.155 HD
ENDBRANCH   6   7
ENDBRANCH   5   6
ENDBRANCH   4   5
ENDBRANCH   3   4
BRANCH   1  11
HETATM   11  C1  UNL     1     -41.025 -20.711  46.373  1.00  0.00     0.179 C 
BRANCH  11  12
HETATM   12  N2  UNL     1     -39.663 -20.795  45.928  1.00  0.00    -0.340 N 
HETATM   13  N1  UNL     1     -38.999 -19.746  45.823  1.00  0.00    -0.349 N 
ATOM     14  H12 UNL     1     -39.430 -18.850  46.054  1.00  0.00     0.176 HD
ATOM     15  H11 UNL     1     -38.031 -19.805  45.506  1.00  0.00     0.176 HD
ATOM     16  H2  UNL     1     -39.246 -21.697  45.702  1.00  0.00     0.179 HD
ENDBRANCH  11  12
ENDBRANCH   1  11
TORSDOF 6
ENDMDL
MODEL 5
REMARK VINA RESULT: -5.536706493      2.585      5.374
REMARK  6 active torsions:
REMARK  status: ('A' for Active; 'I' for Inactive)
REMARK    1  A    between atoms: N2_4  and  C1_6 
REMARK    2  A    between atoms: C1_6  and  C2_7 
REMARK    3  A    between atoms: N4_9  and  N5_10 
REMARK    4  A    between atoms: N5_10  and  C3_11 
REMARK    5  A    between atoms: C3_11  and  C4_12 
REMARK    6  A    between atoms: C4_12  and  C5_13 
ROOT
HETATM    1  C2  UNL     1     -41.317 -18.200  51.555  1.00  0.00     0.223 A 
HETATM    2  N3  UNL     1     -40.482 -19.129  52.336  1.00  0.00    -0.122 NA
HETATM    3  N4  UNL     1     -41.603 -19.551  51.516  1.00  0.00    -0.124 NA
ENDROOT
BRANCH   3   4
HETATM    4  N5  UNL     1     -41.253 -20.410  50.497  1.00  0.00    -0.146 NA
BRANCH   4   5
HETATM    5  C3  UNL     1     -42.035 -20.137  49.316  1.00  0.00     0.135 C 
BRANCH   5   6
HETATM    6  C4  UNL     1     -41.204 -19.567  48.193  1.00  0.00     0.061 C 
BRANCH   6   7
HETATM    7  C5  UNL     1     -41.057 -20.617  47.149  1.00  0.00     0.054 C 
HETATM    8  N6  UNL     1     -40.649 -20.263  45.995  1.00  0.00    -0.411 N 
ATOM      9  H62 UNL     1     -40.433 -19.284  45.808  1.00  0.00     0.155 HD
ATOM     10  H61 UNL     1     -40.548 -20.983  45.279  1.00  0.00     0.155 HD
ENDBRANCH   6   7
ENDBRANCH   5   6
ENDBRANCH   4   5
ENDBRANCH   3   4
BRANCH   1  11
HETATM   11  C1  UNL     1     -42.154 -17.304  52.440  1.00  0.00     0.179 C 
BRANCH  11  12
HETATM   12  N2  UNL     1     -41.475 -16.079  52.753  1.00  0.00    -0.340 N 
HETATM   13  N1  UNL     1     -40.256 -15.988  52.513  1.00  0.00    -0.349 N 
ATOM     14  H12 UNL     1     -39.763 -16.780  52.100  1.00  0.00     0.176 HD
ATOM     15  H11 UNL     1     -39.773 -15.117  52.735  1.00  0.00     0.176 HD
ATOM     16  H2  UNL     1     -41.982 -15.296  53.164  1.00  0.00     0.179 HD
ENDBRANCH  11  12
ENDBRANCH   1  11
TORSDOF 6
ENDMDL
