MODEL 1
REMARK VINA RESULT: -5.737286269      0.000      0.000
REMARK  5 active torsions:
REMARK  status: ('A' for Active; 'I' for Inactive)
REMARK    1  A    between atoms: C2_2  and  C3_3 
REMARK    2  A    between atoms: C3_3  and  O1_4 
REMARK    3  A    between atoms: C6_10  and  O4_11 
REMARK    4  A    between atoms: C6_10  and  C7_13 
REMARK    5  A    between atoms: C7_13  and  O5_14 
ROOT
HETATM    1  C1  UNL     1     -44.715  18.581  38.377  1.00  0.00     0.052 C 
HETATM    2  C2  UNL     1     -43.503  18.003  39.041  1.00  0.00     0.116 C 
HETATM    3  O2  UNL     1     -43.089  16.905  38.284  1.00  0.00    -0.351 OA
HETATM    4  C4  UNL     1     -42.823  17.270  36.968  1.00  0.00     0.339 C 
HETATM    5  O3  UNL     1     -42.151  18.480  36.868  1.00  0.00    -0.364 OA
HETATM    6  C5  UNL     1     -41.437  18.796  38.022  1.00  0.00     0.213 C 
HETATM    7  C6  UNL     1     -42.376  18.971  39.195  1.00  0.00     0.133 C 
ENDROOT
BRANCH   7   8
HETATM    8  O4  UNL     1     -41.643  18.673  40.346  1.00  0.00    -0.382 OA
ATOM      9  H4  UNL     1     -40.908  18.112  40.128  1.00  0.00     0.210 HD
ENDBRANCH   7   8
BRANCH   7  10
HETATM   10  C7  UNL     1     -42.875  20.400  39.295  1.00  0.00     0.207 C 
BRANCH  10  11
HETATM   11  O5  UNL     1     -42.210  21.073  40.307  1.00  0.00    -0.398 OA
ATOM     12  H5  UNL     1     -42.830  21.532  40.862  1.00  0.00     0.209 HD
ENDBRANCH  10  11
ENDBRANCH   7  10
BRANCH   2  13
HETATM   13  C3  UNL     1     -43.914  17.486  40.403  1.00  0.00     0.205 C 
BRANCH  13  14
HETATM   14  O1  UNL     1     -43.365  16.233  40.664  1.00  0.00    -0.398 OA
ATOM     15  H1  UNL     1     -43.903  15.733  41.266  1.00  0.00     0.209 HD
ENDBRANCH  13  14
ENDBRANCH   2  13
TORSDOF 5
ENDMDL
MODEL 2
REMARK VINA RESULT: -5.672176772      1.770      2.686
REMARK  5 active torsions:
REMARK  status: ('A' for Active; 'I' for Inactive)
REMARK    1  A    between atoms: C2_2  and  C3_3 
REMARK    2  A    between atoms: C3_3  and  O1_4 
REMARK    3  A    between atoms: C6_10  and  O4_11 
REMARK    4  A    between atoms: C6_10  and  C7_13 
REMARK    5  A    between atoms: C7_13  and  O5_14 
ROOT
HETATM    1  C1  UNL     1     -42.680  19.235  39.870  1.00  0.00     0.052 C 
HETATM    2  C2  UNL     1     -43.420  18.254  39.013  1.00  0.00     0.116 C 
HETATM    3  O2  UNL     1     -44.715  18.743  38.830  1.00  0.00    -0.351 OA
HETATM    4  C4  UNL     1     -44.699  20.010  38.256  1.00  0.00     0.339 C 
HETATM    5  O3  UNL     1     -43.758  20.134  37.245  1.00  0.00    -0.364 OA
HETATM    6  C5  UNL     1     -43.425  18.912  36.667  1.00  0.00     0.213 C 
HETATM    7  C6  UNL     1     -42.778  18.002  37.688  1.00  0.00     0.133 C 
ENDROOT
BRANCH   7   8
HETATM    8  O4  UNL     1     -43.030  16.691  37.276  1.00  0.00    -0.382 OA
ATOM      9  H4  UNL     1     -42.808  16.589  36.358  1.00  0.00     0.210 HD
ENDBRANCH   7   8
BRANCH   7  10
HETATM   10  C7  UNL     1     -41.277  18.212  37.743  1.00  0.00     0.207 C 
BRANCH  10  11
HETATM   11  O5  UNL     1     -40.898  19.214  36.864  1.00  0.00    -0.398 OA
ATOM     12  H5  UNL     1     -39.976  19.135  36.650  1.00  0.00     0.209 HD
ENDBRANCH  10  11
ENDBRANCH   7  10
BRANCH   2  13
HETATM   13  C3  UNL     1     -43.530  16.951  39.776  1.00  0.00     0.205 C 
BRANCH  13  14
HETATM   14  O1  UNL     1     -44.725  16.292  39.497  1.00  0.00    -0.398 OA
ATOM     15  H1  UNL     1     -44.572  15.414  39.167  1.00  0.00     0.209 HD
ENDBRANCH  13  14
ENDBRANCH   2  13
TORSDOF 5
ENDMDL
MODEL 3
REMARK VINA RESULT: -5.493108006      1.681      4.015
REMARK  5 active torsions:
REMARK  status: ('A' for Active; 'I' for Inactive)
REMARK    1  A    between atoms: C2_2  and  C3_3 
REMARK    2  A    between atoms: C3_3  and  O1_4 
REMARK    3  A    between atoms: C6_10  and  O4_11 
REMARK    4  A    between atoms: C6_10  and  C7_13 
REMARK    5  A    between atoms: C7_13  and  O5_14 
ROOT
HETATM    1  C1  UNL     1     -43.682  20.386  37.245  1.00  0.00     0.052 C 
HETATM    2  C2  UNL     1     -42.228  20.109  37.475  1.00  0.00     0.116 C 
HETATM    3  O2  UNL     1     -41.780  20.989  38.462  1.00  0.00    -0.351 OA
HETATM    4  C4  UNL     1     -42.516  20.849  39.635  1.00  0.00     0.339 C 
HETATM    5  O3  UNL     1     -42.785  19.525  39.950  1.00  0.00    -0.364 OA
HETATM    6  C5  UNL     1     -41.867  18.641  39.386  1.00  0.00     0.213 C 
HETATM    7  C6  UNL     1     -41.935  18.701  37.876  1.00  0.00     0.133 C 
ENDROOT
BRANCH   7   8
HETATM    8  O4  UNL     1     -40.677  18.320  37.401  1.00  0.00    -0.382 OA
ATOM      9  H4  UNL     1     -40.624  18.468  36.464  1.00  0.00     0.210 HD
ENDBRANCH   7   8
BRANCH   7  10
HETATM   10  C7  UNL     1     -42.970  17.736  37.331  1.00  0.00     0.207 C 
BRANCH  10  11
HETATM   11  O5  UNL     1     -43.518  16.985  38.358  1.00  0.00    -0.398 OA
ATOM     12  H5  UNL     1     -43.014  16.191  38.493  1.00  0.00     0.209 HD
ENDBRANCH  10  11
ENDBRANCH   7  10
BRANCH   2  13
HETATM   13  C3  UNL     1     -41.479  20.437  36.201  1.00  0.00     0.205 C 
BRANCH  13  14
HETATM   14  O1  UNL     1     -40.267  21.071  36.466  1.00  0.00    -0.398 OA
ATOM     15  H1  UNL     1     -39.549  20.452  36.504  1.00  0.00     0.209 HD
ENDBRANCH  13  14
ENDBRANCH   2  13
TORSDOF 5
ENDMDL
MODEL 4
REMARK VINA RESULT: -5.432558418      1.645      3.744
REMARK  5 active torsions:
REMARK  status: ('A' for Active; 'I' for Inactive)
REMARK    1  A    between atoms: C2_2  and  C3_3 
REMARK    2  A    between atoms: C3_3  and  O1_4 
REMARK    3  A    between atoms: C6_10  and  O4_11 
REMARK    4  A    between atoms: C6_10  and  C7_13 
REMARK    5  A    between atoms: C7_13  and  O5_14 
ROOT
HETATM    1  C1  UNL     1     -43.100  20.987  38.468  1.00  0.00     0.052 C 
HETATM    2  C2  UNL     1     -42.374  19.804  37.906  1.00  0.00     0.116 C 
HETATM    3  O2  UNL     1     -41.432  19.396  38.853  1.00  0.00    -0.351 OA
HETATM    4  C4  UNL     1     -42.037  19.091  40.068  1.00  0.00     0.339 C 
HETATM    5  O3  UNL     1     -43.226  18.391  39.920  1.00  0.00    -0.364 OA
HETATM    6  C5  UNL     1     -43.295  17.698  38.714  1.00  0.00     0.213 C 
HETATM    7  C6  UNL     1     -43.265  18.660  37.547  1.00  0.00     0.133 C 
ENDROOT
BRANCH   7   8
HETATM    8  O4  UNL     1     -42.731  17.961  36.461  1.00  0.00    -0.382 OA
ATOM      9  H4  UNL     1     -43.054  17.067  36.460  1.00  0.00     0.210 HD
ENDBRANCH   7   8
BRANCH   7  10
HETATM   10  C7  UNL     1     -44.660  19.130  37.182  1.00  0.00     0.207 C 
BRANCH  10  11
HETATM   11  O5  UNL     1     -45.582  18.664  38.106  1.00  0.00    -0.398 OA
ATOM     12  H5  UNL     1     -46.199  19.351  38.332  1.00  0.00     0.209 HD
ENDBRANCH  10  11
ENDBRANCH   7  10
BRANCH   2  13
HETATM   13  C3  UNL     1     -41.615  20.257  36.677  1.00  0.00     0.205 C 
BRANCH  13  14
HETATM   14  O1  UNL     1     -40.385  19.614  36.567  1.00  0.00    -0.398 OA
ATOM     15  H1  UNL     1     -40.370  19.009  35.835  1.00  0.00     0.209 HD
ENDBRANCH  13  14
ENDBRANCH   2  13
TORSDOF 5
ENDMDL
MODEL 5
REMARK VINA RESULT: -5.186244320      1.346      3.289
REMARK  5 active torsions:
REMARK  status: ('A' for Active; 'I' for Inactive)
REMARK    1  A    between atoms: C2_2  and  C3_3 
REMARK    2  A    between atoms: C3_3  and  O1_4 
REMARK    3  A    between atoms: C6_10  and  O4_11 
REMARK    4  A    between atoms: C6_10  and  C7_13 
REMARK    5  A    between atoms: C7_13  and  O5_14 
ROOT
HETATM    1  C1  UNL     1     -41.928  18.928  40.106  1.00  0.00     0.052 C 
HETATM    2  C2  UNL     1     -42.593  19.514  38.899  1.00  0.00     0.116 C 
HETATM    3  O2  UNL     1     -41.648  19.552  37.872  1.00  0.00    -0.351 OA
HETATM    4  C4  UNL     1     -41.138  18.285  37.608  1.00  0.00     0.339 C 
HETATM    5  O3  UNL     1     -42.112  17.296  37.624  1.00  0.00    -0.364 OA
HETATM    6  C5  UNL     1     -43.387  17.794  37.368  1.00  0.00     0.213 C 
HETATM    7  C6  UNL     1     -43.804  18.765  38.450  1.00  0.00     0.133 C 
ENDROOT
BRANCH   7   8
HETATM    8  O4  UNL     1     -44.723  19.644  37.872  1.00  0.00    -0.382 OA
ATOM      9  H4  UNL     1     -44.559  19.719  36.939  1.00  0.00     0.210 HD
ENDBRANCH   7   8
BRANCH   7  10
HETATM   10  C7  UNL     1     -44.480  18.048  39.604  1.00  0.00     0.207 C 
BRANCH  10  11
HETATM   11  O5  UNL     1     -44.631  16.702  39.314  1.00  0.00    -0.398 OA
ATOM     12  H5  UNL     1     -45.545  16.501  39.147  1.00  0.00     0.209 HD
ENDBRANCH  10  11
ENDBRANCH   7  10
BRANCH   2  13
HETATM   13  C3  UNL     1     -42.974  20.944  39.219  1.00  0.00     0.205 C 
BRANCH  13  14
HETATM   14  O1  UNL     1     -42.388  21.379  40.405  1.00  0.00    -0.398 OA
ATOM     15  H1  UNL     1     -41.546  21.789  40.250  1.00  0.00     0.209 HD
ENDBRANCH  13  14
ENDBRANCH   2  13
TORSDOF 5
ENDMDL
