MODEL 1
REMARK VINA RESULT: -5.117309291      0.000      0.000
REMARK  4 active torsions:
REMARK  status: ('A' for Active; 'I' for Inactive)
REMARK    1  A    between atoms: O1_2  and  C2_3 
REMARK    2  A    between atoms: C6_8  and  O3_9 
REMARK    3  A    between atoms: C7_11  and  O4_12 
REMARK    4  A    between atoms: C7_11  and  O5_14 
ROOT
HETATM    1  C2  UNL     1     -42.945  18.219  38.169  1.00  0.00     0.136 C 
HETATM    2  C3  UNL     1     -43.745  19.245  38.985  1.00  0.00     0.054 C 
HETATM    3  C4  UNL     1     -41.516  18.572  38.281  1.00  0.00     0.211 C 
HETATM    4  O2  UNL     1     -40.932  18.913  37.041  1.00  0.00    -0.385 OA
HETATM    5  C5  UNL     1     -41.550  20.083  36.544  1.00  0.00     0.205 C 
HETATM    6  C6  UNL     1     -42.931  19.676  36.119  1.00  0.00     0.207 C 
HETATM    7  C7  UNL     1     -43.393  18.410  36.731  1.00  0.00     0.222 C 
ENDROOT
BRANCH   7   8
HETATM    8  O4  UNL     1     -42.888  17.320  36.003  1.00  0.00    -0.361 OA
ATOM      9  H4  UNL     1     -42.892  17.577  35.089  1.00  0.00     0.213 HD
ENDBRANCH   7   8
BRANCH   7  10
HETATM   10  O5  UNL     1     -44.785  18.296  36.691  1.00  0.00    -0.361 OA
ATOM     11  H5  UNL     1     -45.093  18.728  35.904  1.00  0.00     0.213 HD
ENDBRANCH   7  10
BRANCH   1  12
HETATM   12  O1  UNL     1     -43.368  17.011  38.553  1.00  0.00    -0.378 OA
HETATM   13  C1  UNL     1     -43.648  16.693  39.813  1.00  0.00     0.202 C 
ENDBRANCH   1  12
BRANCH   6  14
HETATM   14  O3  UNL     1     -43.804  20.748  36.284  1.00  0.00    -0.388 OA
ATOM     15  H3  UNL     1     -44.586  20.454  36.737  1.00  0.00     0.210 HD
ENDBRANCH   6  14
TORSDOF 4
ENDMDL
MODEL 2
REMARK VINA RESULT: -5.106566541      1.433      3.394
REMARK  4 active torsions:
REMARK  status: ('A' for Active; 'I' for Inactive)
REMARK    1  A    between atoms: O1_2  and  C2_3 
REMARK    2  A    between atoms: C6_8  and  O3_9 
REMARK    3  A    between atoms: C7_11  and  O4_12 
REMARK    4  A    between atoms: C7_11  and  O5_14 
ROOT
HETATM    1  C2  UNL     1     -43.178  18.574  36.556  1.00  0.00     0.136 C 
HETATM    2  C3  UNL     1     -42.315  19.819  36.302  1.00  0.00     0.054 C 
HETATM    3  C4  UNL     1     -44.492  19.032  37.047  1.00  0.00     0.211 C 
HETATM    4  O2  UNL     1     -44.777  18.590  38.358  1.00  0.00    -0.385 OA
HETATM    5  C5  UNL     1     -43.843  19.161  39.252  1.00  0.00     0.205 C 
HETATM    6  C6  UNL     1     -42.536  18.473  38.985  1.00  0.00     0.207 C 
HETATM    7  C7  UNL     1     -42.471  17.813  37.662  1.00  0.00     0.222 C 
ENDROOT
BRANCH   7   8
HETATM    8  O4  UNL     1     -43.079  16.548  37.734  1.00  0.00    -0.361 OA
ATOM      9  H4  UNL     1     -43.078  16.194  36.853  1.00  0.00     0.213 HD
ENDBRANCH   7   8
BRANCH   7  10
HETATM   10  O5  UNL     1     -41.151  17.590  37.262  1.00  0.00    -0.361 OA
ATOM     11  H5  UNL     1     -40.808  16.863  37.768  1.00  0.00     0.213 HD
ENDBRANCH   7  10
BRANCH   1  12
HETATM   12  O1  UNL     1     -43.101  17.823  35.453  1.00  0.00    -0.378 OA
HETATM   13  C1  UNL     1     -44.055  17.769  34.529  1.00  0.00     0.202 C 
ENDBRANCH   1  12
BRANCH   6  14
HETATM   14  O3  UNL     1     -41.487  19.351  39.243  1.00  0.00    -0.388 OA
ATOM     15  H3  UNL     1     -40.660  18.889  39.172  1.00  0.00     0.210 HD
ENDBRANCH   6  14
TORSDOF 4
ENDMDL
MODEL 3
REMARK VINA RESULT: -5.073074632      1.384      2.013
REMARK  4 active torsions:
REMARK  status: ('A' for Active; 'I' for Inactive)
REMARK    1  A    between atoms: O1_2  and  C2_3 
REMARK    2  A    between atoms: C6_8  and  O3_9 
REMARK    3  A    between atoms: C7_11  and  O4_12 
REMARK    4  A    between atoms: C7_11  and  O5_14 
ROOT
HETATM    1  C2  UNL     1     -42.417  19.252  38.207  1.00  0.00     0.136 C 
HETATM    2  C3  UNL     1     -43.737  19.774  38.793  1.00  0.00     0.054 C 
HETATM    3  C4  UNL     1     -41.888  20.287  37.298  1.00  0.00     0.211 C 
HETATM    4  O2  UNL     1     -41.799  19.853  35.957  1.00  0.00    -0.385 OA
HETATM    5  C5  UNL     1     -43.099  19.581  35.471  1.00  0.00     0.205 C 
HETATM    6  C6  UNL     1     -43.548  18.326  36.161  1.00  0.00     0.207 C 
HETATM    7  C7  UNL     1     -42.793  18.024  37.397  1.00  0.00     0.222 C 
ENDROOT
BRANCH   7   8
HETATM    8  O4  UNL     1     -41.593  17.372  37.072  1.00  0.00    -0.361 OA
ATOM      9  H4  UNL     1     -41.500  16.649  37.681  1.00  0.00     0.213 HD
ENDBRANCH   7   8
BRANCH   7  10
HETATM   10  O5  UNL     1     -43.499  17.153  38.231  1.00  0.00    -0.361 OA
ATOM     11  H5  UNL     1     -44.409  17.426  38.241  1.00  0.00     0.213 HD
ENDBRANCH   7  10
BRANCH   1  12
HETATM   12  O1  UNL     1     -41.681  18.829  39.239  1.00  0.00    -0.378 OA
HETATM   13  C1  UNL     1     -41.715  19.384  40.446  1.00  0.00     0.202 C 
ENDBRANCH   1  12
BRANCH   6  14
HETATM   14  O3  UNL     1     -44.931  18.352  36.321  1.00  0.00    -0.388 OA
ATOM     15  H3  UNL     1     -45.170  19.065  36.902  1.00  0.00     0.210 HD
ENDBRANCH   6  14
TORSDOF 4
ENDMDL
MODEL 4
REMARK VINA RESULT: -5.037004220      1.436      2.875
REMARK  4 active torsions:
REMARK  status: ('A' for Active; 'I' for Inactive)
REMARK    1  A    between atoms: O1_2  and  C2_3 
REMARK    2  A    between atoms: C6_8  and  O3_9 
REMARK    3  A    between atoms: C7_11  and  O4_12 
REMARK    4  A    between atoms: C7_11  and  O5_14 
ROOT
HETATM    1  C2  UNL     1     -42.590  18.790  38.845  1.00  0.00     0.136 C 
HETATM    2  C3  UNL     1     -43.052  17.409  39.332  1.00  0.00     0.054 C 
HETATM    3  C4  UNL     1     -43.779  19.663  38.777  1.00  0.00     0.211 C 
HETATM    4  O2  UNL     1     -44.060  20.113  37.468  1.00  0.00    -0.385 OA
HETATM    5  C5  UNL     1     -44.385  19.003  36.656  1.00  0.00     0.205 C 
HETATM    6  C6  UNL     1     -43.103  18.253  36.443  1.00  0.00     0.207 C 
HETATM    7  C7  UNL     1     -42.057  18.566  37.442  1.00  0.00     0.222 C 
ENDROOT
BRANCH   7   8
HETATM    8  O4  UNL     1     -41.387  19.744  37.072  1.00  0.00    -0.361 OA
ATOM      9  H4  UNL     1     -40.460  19.585  37.207  1.00  0.00     0.213 HD
ENDBRANCH   7   8
BRANCH   7  10
HETATM   10  O5  UNL     1     -41.085  17.565  37.501  1.00  0.00    -0.361 OA
ATOM     11  H5  UNL     1     -40.269  17.962  37.780  1.00  0.00     0.213 HD
ENDBRANCH   7  10
BRANCH   1  12
HETATM   12  O1  UNL     1     -41.549  19.137  39.609  1.00  0.00    -0.378 OA
HETATM   13  C1  UNL     1     -41.662  19.815  40.746  1.00  0.00     0.202 C 
ENDBRANCH   1  12
BRANCH   6  14
HETATM   14  O3  UNL     1     -43.375  16.894  36.301  1.00  0.00    -0.388 OA
ATOM     15  H3  UNL     1     -42.563  16.402  36.330  1.00  0.00     0.210 HD
ENDBRANCH   6  14
TORSDOF 4
ENDMDL
MODEL 5
REMARK VINA RESULT: -5.036451407      1.439      3.795
REMARK  4 active torsions:
REMARK  status: ('A' for Active; 'I' for Inactive)
REMARK    1  A    between atoms: O1_2  and  C2_3 
REMARK    2  A    between atoms: C6_8  and  O3_9 
REMARK    3  A    between atoms: C7_11  and  O4_12 
REMARK    4  A    between atoms: C7_11  and  O5_14 
ROOT
HETATM    1  C2  UNL     1     -42.716  18.698  38.544  1.00  0.00     0.136 C 
HETATM    2  C3  UNL     1     -41.784  18.758  39.763  1.00  0.00     0.054 C 
HETATM    3  C4  UNL     1     -43.907  19.515  38.848  1.00  0.00     0.211 C 
HETATM    4  O2  UNL     1     -45.102  18.763  38.872  1.00  0.00    -0.385 OA
HETATM    5  C5  UNL     1     -45.036  17.822  39.925  1.00  0.00     0.205 C 
HETATM    6  C6  UNL     1     -44.041  16.784  39.495  1.00  0.00     0.207 C 
HETATM    7  C7  UNL     1     -43.129  17.243  38.423  1.00  0.00     0.222 C 
ENDROOT
BRANCH   7   8
HETATM    8  O4  UNL     1     -43.759  17.104  37.175  1.00  0.00    -0.361 OA
ATOM      9  H4  UNL     1     -44.397  16.406  37.267  1.00  0.00     0.213 HD
ENDBRANCH   7   8
BRANCH   7  10
HETATM   10  O5  UNL     1     -41.970  16.465  38.366  1.00  0.00    -0.361 OA
ATOM     11  H5  UNL     1     -41.444  16.773  37.637  1.00  0.00     0.213 HD
ENDBRANCH   7  10
BRANCH   1  12
HETATM   12  O1  UNL     1     -41.966  18.982  37.474  1.00  0.00    -0.378 OA
HETATM   13  C1  UNL     1     -41.810  20.209  36.987  1.00  0.00     0.202 C 
ENDBRANCH   1  12
BRANCH   6  14
HETATM   14  O3  UNL     1     -43.398  16.263  40.615  1.00  0.00    -0.388 OA
ATOM     15  H3  UNL     1     -43.834  15.464  40.888  1.00  0.00     0.210 HD
ENDBRANCH   6  14
TORSDOF 4
ENDMDL
