MODEL 1
REMARK VINA RESULT: -5.784569095      0.000      0.000
REMARK  6 active torsions:
REMARK  status: ('A' for Active; 'I' for Inactive)
REMARK    1  A    between atoms: C2_2  and  O1_3 
REMARK    2  A    between atoms: C2_2  and  C3_5 
REMARK    3  A    between atoms: C3_5  and  C4_6 
REMARK    4  A    between atoms: C4_6  and  O2_7 
REMARK    5  A    between atoms: C6_11  and  C7_12 
REMARK    6  A    between atoms: C7_12  and  O4_13 
ROOT
HETATM    1  C3  UNL     1     -43.359  18.227  39.332  1.00  0.00     0.132 C 
HETATM    2  C5  UNL     1     -42.161  18.526  38.453  1.00  0.00     0.214 C 
HETATM    3  O3  UNL     1     -41.605  19.627  39.132  1.00  0.00    -0.356 OA
HETATM    4  C6  UNL     1     -41.681  19.144  40.457  1.00  0.00     0.284 C 
HETATM    5  O5  UNL     1     -43.004  18.792  40.556  1.00  0.00    -0.341 OA
ENDROOT
BRANCH   1   6
HETATM    6  C2  UNL     1     -44.547  18.889  38.714  1.00  0.00     0.153 C 
HETATM    7  C1  UNL     1     -44.481  19.048  37.240  1.00  0.00     0.042 C 
BRANCH   6   8
HETATM    8  O1  UNL     1     -45.672  18.108  39.054  1.00  0.00    -0.393 OA
ATOM      9  H1  UNL     1     -46.459  18.524  38.721  1.00  0.00     0.210 HD
ENDBRANCH   6   8
ENDBRANCH   1   6
BRANCH   1  10
HETATM   10  C4  UNL     1     -43.508  16.725  39.438  1.00  0.00     0.207 C 
BRANCH  10  11
HETATM   11  O2  UNL     1     -43.734  16.352  40.767  1.00  0.00    -0.398 OA
ATOM     12  H2  UNL     1     -44.043  15.455  40.809  1.00  0.00     0.209 HD
ENDBRANCH  10  11
ENDBRANCH   1  10
BRANCH   4  13
HETATM   13  C7  UNL     1     -41.263  20.245  41.386  1.00  0.00     0.224 C 
BRANCH  13  14
HETATM   14  O4  UNL     1     -40.275  19.846  42.263  1.00  0.00    -0.396 OA
ATOM     15  H4  UNL     1     -39.636  20.530  42.424  1.00  0.00     0.209 HD
ENDBRANCH  13  14
ENDBRANCH   4  13
TORSDOF 6
ENDMDL
MODEL 2
REMARK VINA RESULT: -5.746048878      1.499      2.508
REMARK  6 active torsions:
REMARK  status: ('A' for Active; 'I' for Inactive)
REMARK    1  A    between atoms: C2_2  and  O1_3 
REMARK    2  A    between atoms: C2_2  and  C3_5 
REMARK    3  A    between atoms: C3_5  and  C4_6 
REMARK    4  A    between atoms: C4_6  and  O2_7 
REMARK    5  A    between atoms: C6_11  and  C7_12 
REMARK    6  A    between atoms: C7_12  and  O4_13 
ROOT
HETATM    1  C3  UNL     1     -42.271  19.223  39.799  1.00  0.00     0.132 C 
HETATM    2  C5  UNL     1     -42.596  20.683  39.554  1.00  0.00     0.214 C 
HETATM    3  O3  UNL     1     -42.366  21.223  40.833  1.00  0.00    -0.356 OA
HETATM    4  C6  UNL     1     -41.141  20.587  41.135  1.00  0.00     0.284 C 
HETATM    5  O5  UNL     1     -41.447  19.266  40.923  1.00  0.00    -0.341 OA
ENDROOT
BRANCH   1   6
HETATM    6  C2  UNL     1     -43.559  18.513  40.055  1.00  0.00     0.153 C 
HETATM    7  C1  UNL     1     -44.436  18.356  38.869  1.00  0.00     0.042 C 
BRANCH   6   8
HETATM    8  O1  UNL     1     -43.230  17.241  40.570  1.00  0.00    -0.393 OA
ATOM      9  H1  UNL     1     -43.959  16.905  41.078  1.00  0.00     0.210 HD
ENDBRANCH   6   8
ENDBRANCH   1   6
BRANCH   1  10
HETATM   10  C4  UNL     1     -41.533  18.691  38.590  1.00  0.00     0.207 C 
BRANCH  10  11
HETATM   11  O2  UNL     1     -41.330  19.713  37.657  1.00  0.00    -0.398 OA
ATOM     12  H2  UNL     1     -42.074  19.776  37.070  1.00  0.00     0.209 HD
ENDBRANCH  10  11
ENDBRANCH   1  10
BRANCH   4  13
HETATM   13  C7  UNL     1     -40.775  20.917  42.553  1.00  0.00     0.224 C 
BRANCH  13  14
HETATM   14  O4  UNL     1     -41.498  20.176  43.466  1.00  0.00    -0.396 OA
ATOM     15  H4  UNL     1     -41.995  19.479  43.054  1.00  0.00     0.209 HD
ENDBRANCH  13  14
ENDBRANCH   4  13
TORSDOF 6
ENDMDL
MODEL 3
REMARK VINA RESULT: -5.691723543      1.411      1.779
REMARK  6 active torsions:
REMARK  status: ('A' for Active; 'I' for Inactive)
REMARK    1  A    between atoms: C2_2  and  O1_3 
REMARK    2  A    between atoms: C2_2  and  C3_5 
REMARK    3  A    between atoms: C3_5  and  C4_6 
REMARK    4  A    between atoms: C4_6  and  O2_7 
REMARK    5  A    between atoms: C6_11  and  C7_12 
REMARK    6  A    between atoms: C7_12  and  O4_13 
ROOT
HETATM    1  C3  UNL     1     -43.215  18.058  39.302  1.00  0.00     0.132 C 
HETATM    2  C5  UNL     1     -43.472  19.421  38.691  1.00  0.00     0.214 C 
HETATM    3  O3  UNL     1     -43.090  20.262  39.752  1.00  0.00    -0.356 OA
HETATM    4  C6  UNL     1     -41.883  19.629  40.126  1.00  0.00     0.284 C 
HETATM    5  O5  UNL     1     -42.287  18.330  40.306  1.00  0.00    -0.341 OA
ENDROOT
BRANCH   1   6
HETATM    6  C2  UNL     1     -44.514  17.552  39.837  1.00  0.00     0.153 C 
HETATM    7  C1  UNL     1     -45.715  18.286  39.368  1.00  0.00     0.042 C 
BRANCH   6   8
HETATM    8  O1  UNL     1     -44.612  16.196  39.460  1.00  0.00    -0.393 OA
ATOM      9  H1  UNL     1     -45.220  15.749  40.038  1.00  0.00     0.210 HD
ENDBRANCH   6   8
ENDBRANCH   1   6
BRANCH   1  10
HETATM   10  C4  UNL     1     -42.628  17.161  38.234  1.00  0.00     0.207 C 
BRANCH  10  11
HETATM   11  O2  UNL     1     -43.471  17.120  37.118  1.00  0.00    -0.398 OA
ATOM     12  H2  UNL     1     -42.970  17.250  36.322  1.00  0.00     0.209 HD
ENDBRANCH  10  11
ENDBRANCH   1  10
BRANCH   4  13
HETATM   13  C7  UNL     1     -41.366  20.294  41.368  1.00  0.00     0.224 C 
BRANCH  13  14
HETATM   14  O4  UNL     1     -40.358  19.569  41.969  1.00  0.00    -0.396 OA
ATOM     15  H4  UNL     1     -40.008  20.006  42.737  1.00  0.00     0.209 HD
ENDBRANCH  13  14
ENDBRANCH   4  13
TORSDOF 6
ENDMDL
MODEL 4
REMARK VINA RESULT: -5.579937153      0.870      1.040
REMARK  6 active torsions:
REMARK  status: ('A' for Active; 'I' for Inactive)
REMARK    1  A    between atoms: C2_2  and  O1_3 
REMARK    2  A    between atoms: C2_2  and  C3_5 
REMARK    3  A    between atoms: C3_5  and  C4_6 
REMARK    4  A    between atoms: C4_6  and  O2_7 
REMARK    5  A    between atoms: C6_11  and  C7_12 
REMARK    6  A    between atoms: C7_12  and  O4_13 
ROOT
HETATM    1  C3  UNL     1     -43.233  18.174  39.205  1.00  0.00     0.132 C 
HETATM    2  C5  UNL     1     -42.012  18.537  38.383  1.00  0.00     0.214 C 
HETATM    3  O3  UNL     1     -41.517  19.632  39.115  1.00  0.00    -0.356 OA
HETATM    4  C6  UNL     1     -41.629  19.106  40.422  1.00  0.00     0.284 C 
HETATM    5  O5  UNL     1     -42.943  18.712  40.458  1.00  0.00    -0.341 OA
ENDROOT
BRANCH   1   6
HETATM    6  C2  UNL     1     -44.416  18.818  38.561  1.00  0.00     0.153 C 
HETATM    7  C1  UNL     1     -45.717  18.543  39.218  1.00  0.00     0.042 C 
BRANCH   6   8
HETATM    8  O1  UNL     1     -44.174  20.209  38.558  1.00  0.00    -0.393 OA
ATOM      9  H1  UNL     1     -43.242  20.368  38.465  1.00  0.00     0.210 HD
ENDBRANCH   6   8
ENDBRANCH   1   6
BRANCH   1  10
HETATM   10  C4  UNL     1     -43.338  16.666  39.260  1.00  0.00     0.207 C 
BRANCH  10  11
HETATM   11  O2  UNL     1     -43.390  16.231  40.589  1.00  0.00    -0.398 OA
ATOM     12  H2  UNL     1     -43.347  16.972  41.180  1.00  0.00     0.209 HD
ENDBRANCH  10  11
ENDBRANCH   1  10
BRANCH   4  13
HETATM   13  C7  UNL     1     -41.281  20.190  41.399  1.00  0.00     0.224 C 
BRANCH  13  14
HETATM   14  O4  UNL     1     -40.281  19.810  42.270  1.00  0.00    -0.396 OA
ATOM     15  H4  UNL     1     -39.434  20.165  42.025  1.00  0.00     0.209 HD
ENDBRANCH  13  14
ENDBRANCH   4  13
TORSDOF 6
ENDMDL
MODEL 5
REMARK VINA RESULT: -5.516474190      1.802      3.566
REMARK  6 active torsions:
REMARK  status: ('A' for Active; 'I' for Inactive)
REMARK    1  A    between atoms: C2_2  and  O1_3 
REMARK    2  A    between atoms: C2_2  and  C3_5 
REMARK    3  A    between atoms: C3_5  and  C4_6 
REMARK    4  A    between atoms: C4_6  and  O2_7 
REMARK    5  A    between atoms: C6_11  and  C7_12 
REMARK    6  A    between atoms: C7_12  and  O4_13 
ROOT
HETATM    1  C3  UNL     1     -42.693  19.656  38.355  1.00  0.00     0.132 C 
HETATM    2  C5  UNL     1     -41.873  19.069  39.487  1.00  0.00     0.214 C 
HETATM    3  O3  UNL     1     -42.893  18.583  40.326  1.00  0.00    -0.356 OA
HETATM    4  C6  UNL     1     -43.711  17.960  39.358  1.00  0.00     0.284 C 
HETATM    5  O5  UNL     1     -43.904  18.974  38.453  1.00  0.00    -0.341 OA
ENDROOT
BRANCH   1   6
HETATM    6  C2  UNL     1     -42.832  21.121  38.613  1.00  0.00     0.153 C 
HETATM    7  C1  UNL     1     -44.144  21.703  38.239  1.00  0.00     0.042 C 
BRANCH   6   8
HETATM    8  O1  UNL     1     -42.606  21.316  39.993  1.00  0.00    -0.393 OA
ATOM      9  H1  UNL     1     -41.702  21.104  40.199  1.00  0.00     0.210 HD
ENDBRANCH   6   8
ENDBRANCH   1   6
BRANCH   1  10
HETATM   10  C4  UNL     1     -41.989  19.351  37.051  1.00  0.00     0.207 C 
BRANCH  10  11
HETATM   11  O2  UNL     1     -40.802  18.650  37.292  1.00  0.00    -0.398 OA
ATOM     12  H2  UNL     1     -40.236  18.689  36.531  1.00  0.00     0.209 HD
ENDBRANCH  10  11
ENDBRANCH   1  10
BRANCH   4  13
HETATM   13  C7  UNL     1     -44.965  17.488  40.033  1.00  0.00     0.224 C 
BRANCH  13  14
HETATM   14  O4  UNL     1     -44.702  16.688  41.128  1.00  0.00    -0.396 OA
ATOM     15  H4  UNL     1     -43.889  16.206  41.035  1.00  0.00     0.209 HD
ENDBRANCH  13  14
ENDBRANCH   4  13
TORSDOF 6
ENDMDL
