MODEL 1
REMARK VINA RESULT: -6.753875059      0.000      0.000
REMARK  9 active torsions:
REMARK  status: ('A' for Active; 'I' for Inactive)
REMARK    1  A    between atoms: C2_2  and  C3_3 
REMARK    2  A    between atoms: C2_2  and  N10_41 
REMARK    3  A    between atoms: N1_4  and  C4_6 
REMARK    4  A    between atoms: C7_11  and  O1_12 
REMARK    5  A    between atoms: C12_28  and  C13_29 
REMARK    6  A    between atoms: N8_32  and  C14_33 
REMARK    7  A    between atoms: C14_33  and  O4_34 
REMARK    8  A    between atoms: C14_33  and  C15_36 
REMARK    9  A    between atoms: C15_36  and  N9_37 
REMARK       I    between atoms: N10_41  and  C16_44 
REMARK       I    between atoms: C16_44  and  N11_45 
REMARK       I    between atoms: C16_44  and  N12_49 
ROOT
HETATM    1  C4  UNL     1      22.431  -0.509   3.705  1.00  0.00     0.123 C 
HETATM    2  N2  UNL     1      23.345   0.395   4.096  1.00  0.00    -0.327 N 
ATOM      3  H2  UNL     1      23.760   0.214   5.009  1.00  0.00     0.169 HD
HETATM    4  C5  UNL     1      23.803   1.500   3.477  1.00  0.00     0.131 A 
HETATM    5  C6  UNL     1      23.531   1.914   2.187  1.00  0.00     0.112 A 
HETATM    6  C7  UNL     1      22.779   1.320   1.193  1.00  0.00     0.114 C 
HETATM    7  C8  UNL     1      22.289   0.034   1.214  1.00  0.00     0.100 A 
HETATM    8  N3  UNL     1      21.868  -0.694   0.191  1.00  0.00    -0.295 N 
ATOM      9  H3  UNL     1      21.856  -0.366  -0.775  1.00  0.00     0.187 HD
HETATM   10  N4  UNL     1      21.470  -1.886   0.562  1.00  0.00    -0.284 N 
ATOM     11  H4  UNL     1      21.108  -2.605  -0.065  1.00  0.00     0.188 HD
HETATM   12  C9  UNL     1      21.613  -2.023   1.925  1.00  0.00     0.130 A 
HETATM   13  N5  UNL     1      21.332  -3.039   2.609  1.00  0.00    -0.384 N 
ATOM     14  H51 UNL     1      21.438  -3.140   3.618  1.00  0.00     0.157 HD
ATOM     15  H52 UNL     1      20.950  -3.917   2.258  1.00  0.00     0.157 HD
HETATM   16  C10 UNL     1      22.128  -0.838   2.397  1.00  0.00     0.084 A 
HETATM   17  C11 UNL     1      24.067   3.100   1.759  1.00  0.00     0.264 A 
HETATM   18  O2  UNL     1      23.832   3.493   0.590  1.00  0.00    -0.267 OA
HETATM   19  N6  UNL     1      24.819   3.785   2.617  1.00  0.00    -0.304 N 
ATOM     20  H6  UNL     1      25.223   4.670   2.310  1.00  0.00     0.171 HD
HETATM   21  C12 UNL     1      25.080   3.353   3.906  1.00  0.00     0.180 A 
HETATM   22  N8  UNL     1      24.576   2.200   4.358  1.00  0.00    -0.285 N 
ENDROOT
BRANCH   1  23
HETATM   23  N1  UNL     1      21.684  -1.213   4.657  1.00  0.00    -0.353 N 
HETATM   24  C3  UNL     1      22.153  -1.906   5.635  1.00  0.00     0.095 C 
ATOM     25  H1  UNL     1      20.669  -1.173   4.566  1.00  0.00     0.166 HD
BRANCH  24  26
HETATM   26  C2  UNL     1      21.312  -2.626   6.606  1.00  0.00     0.224 C 
HETATM   27  C1  UNL     1      22.084  -3.815   7.139  1.00  0.00     0.046 C 
BRANCH  26  28
HETATM   28  N10 UNL     1      20.931  -1.758   7.673  1.00  0.00    -0.013 N 
HETATM   29  C16 UNL     1      19.652  -2.096   8.266  1.00  0.00     0.576 C 
HETATM   30  N11 UNL     1      19.309  -1.174   9.338  1.00  0.00    -0.026 N 
HETATM   31  N12 UNL     1      18.587  -2.124   7.314  1.00  0.00    -0.026 N 
ATOM     32 3H11 UNL     1      20.047  -1.124  10.040  1.00  0.00     0.278 HD
ATOM     33 2H11 UNL     1      19.331  -0.205   9.020  1.00  0.00     0.278 HD
ATOM     34 1H11 UNL     1      18.409  -1.411   9.755  1.00  0.00     0.278 HD
ATOM     35 3H12 UNL     1      18.531  -1.243   6.804  1.00  0.00     0.278 HD
ATOM     36 2H12 UNL     1      18.807  -2.751   6.541  1.00  0.00     0.278 HD
ATOM     37 1H12 UNL     1      17.687  -2.361   7.732  1.00  0.00     0.278 HD
ATOM     38 2H10 UNL     1      21.660  -1.721   8.386  1.00  0.00     0.282 HD
ATOM     39 1H10 UNL     1      20.943  -0.785   7.368  1.00  0.00     0.282 HD
ENDBRANCH  26  28
ENDBRANCH  24  26
ENDBRANCH   1  23
BRANCH  22  40
HETATM   40  C14 UNL     1      24.791   1.698   5.693  1.00  0.00     0.253 C 
BRANCH  40  41
HETATM   41  O4  UNL     1      24.709   2.688   6.638  1.00  0.00    -0.374 OA
ATOM     42  H4  UNL     1      23.913   2.626   7.154  1.00  0.00     0.212 HD
ENDBRANCH  40  41
BRANCH  40  43
HETATM   43  C15 UNL     1      26.074   0.948   5.908  1.00  0.00     0.283 C 
BRANCH  43  44
HETATM   44  N9  UNL     1      26.965   1.544   6.847  1.00  0.00    -0.075 N 
ATOM     45  H93 UNL     1      27.886   1.672   6.428  1.00  0.00     0.274 HD
ATOM     46  H92 UNL     1      26.708   2.519   7.008  1.00  0.00     0.274 HD
ATOM     47  H91 UNL     1      27.046   1.049   7.735  1.00  0.00     0.274 HD
ENDBRANCH  43  44
ENDBRANCH  40  43
ENDBRANCH  22  40
BRANCH   6  48
HETATM   48  O1  UNL     1      22.473   2.044   0.067  1.00  0.00    -0.357 OA
ATOM     49  H1  UNL     1      22.698   1.688  -0.786  1.00  0.00     0.217 HD
ENDBRANCH   6  48
BRANCH  21  50
HETATM   50  C13 UNL     1      25.866   4.253   4.726  1.00  0.00     0.299 C 
HETATM   51  N7  UNL     1      25.275   5.441   5.205  1.00  0.00    -0.054 NA
HETATM   52  O3  UNL     1      27.046   3.996   5.012  1.00  0.00    -0.268 OA
ENDBRANCH  21  50
TORSDOF 9
ENDMDL
MODEL 2
REMARK VINA RESULT: -6.713557798      2.114      5.972
REMARK  9 active torsions:
REMARK  status: ('A' for Active; 'I' for Inactive)
REMARK    1  A    between atoms: C2_2  and  C3_3 
REMARK    2  A    between atoms: C2_2  and  N10_41 
REMARK    3  A    between atoms: N1_4  and  C4_6 
REMARK    4  A    between atoms: C7_11  and  O1_12 
REMARK    5  A    between atoms: C12_28  and  C13_29 
REMARK    6  A    between atoms: N8_32  and  C14_33 
REMARK    7  A    between atoms: C14_33  and  O4_34 
REMARK    8  A    between atoms: C14_33  and  C15_36 
REMARK    9  A    between atoms: C15_36  and  N9_37 
REMARK       I    between atoms: N10_41  and  C16_44 
REMARK       I    between atoms: C16_44  and  N11_45 
REMARK       I    between atoms: C16_44  and  N12_49 
ROOT
HETATM    1  C4  UNL     1      22.703  -0.136   2.912  1.00  0.00     0.123 C 
HETATM    2  N2  UNL     1      23.433   0.991   2.898  1.00  0.00    -0.327 N 
ATOM      3  H2  UNL     1      23.393   1.514   2.024  1.00  0.00     0.169 HD
HETATM    4  C5  UNL     1      24.210   1.542   3.850  1.00  0.00     0.131 A 
HETATM    5  C6  UNL     1      24.343   1.137   5.164  1.00  0.00     0.112 A 
HETATM    6  C7  UNL     1      23.716   0.122   5.859  1.00  0.00     0.114 C 
HETATM    7  C8  UNL     1      22.628  -0.600   5.422  1.00  0.00     0.100 A 
HETATM    8  N3  UNL     1      21.789  -1.326   6.145  1.00  0.00    -0.295 N 
ATOM      9  H3  UNL     1      21.861  -1.442   7.156  1.00  0.00     0.187 HD
HETATM   10  N4  UNL     1      20.856  -1.880   5.411  1.00  0.00    -0.284 N 
ATOM     11  H4  UNL     1      20.110  -2.479   5.766  1.00  0.00     0.188 HD
HETATM   12  C9  UNL     1      21.031  -1.532   4.090  1.00  0.00     0.130 A 
HETATM   13  N5  UNL     1      20.312  -1.884   3.122  1.00  0.00    -0.384 N 
ATOM     14  H51 UNL     1      20.443  -1.627   2.143  1.00  0.00     0.157 HD
ATOM     15  H52 UNL     1      19.490  -2.486   3.165  1.00  0.00     0.157 HD
HETATM   16  C10 UNL     1      22.140  -0.721   4.031  1.00  0.00     0.084 A 
HETATM   17  C11 UNL     1      25.225   1.812   5.966  1.00  0.00     0.264 A 
HETATM   18  O2  UNL     1      25.359   1.459   7.163  1.00  0.00    -0.267 OA
HETATM   19  N6  UNL     1      25.904   2.822   5.426  1.00  0.00    -0.304 N 
ATOM     20  H6  UNL     1      26.565   3.331   6.013  1.00  0.00     0.171 HD
HETATM   21  C12 UNL     1      25.757   3.213   4.107  1.00  0.00     0.180 A 
HETATM   22  N8  UNL     1      24.905   2.579   3.295  1.00  0.00    -0.285 N 
ENDROOT
BRANCH   1  23
HETATM   23  N1  UNL     1      22.453  -0.830   1.722  1.00  0.00    -0.353 N 
HETATM   24  C3  UNL     1      22.865  -0.504   0.547  1.00  0.00     0.095 C 
ATOM     25  H1  UNL     1      21.890  -1.677   1.793  1.00  0.00     0.166 HD
BRANCH  24  26
HETATM   26  C2  UNL     1      22.568  -1.278  -0.670  1.00  0.00     0.224 C 
HETATM   27  C1  UNL     1      21.239  -1.982  -0.493  1.00  0.00     0.046 C 
BRANCH  26  28
HETATM   28  N10 UNL     1      22.530  -0.418  -1.809  1.00  0.00    -0.013 N 
HETATM   29  C16 UNL     1      22.389  -1.127  -3.065  1.00  0.00     0.576 C 
HETATM   30  N11 UNL     1      22.368  -0.205  -4.191  1.00  0.00    -0.026 N 
HETATM   31  N12 UNL     1      23.415  -2.099  -3.276  1.00  0.00    -0.026 N 
ATOM     32 3H11 UNL     1      21.646   0.507  -4.078  1.00  0.00     0.278 HD
ATOM     33 2H11 UNL     1      23.187   0.402  -4.192  1.00  0.00     0.278 HD
ATOM     34 1H11 UNL     1      22.269  -0.704  -5.075  1.00  0.00     0.278 HD
ATOM     35 3H12 UNL     1      24.339  -1.675  -3.199  1.00  0.00     0.278 HD
ATOM     36 2H12 UNL     1      23.464  -2.751  -2.493  1.00  0.00     0.278 HD
ATOM     37 1H12 UNL     1      23.315  -2.597  -4.160  1.00  0.00     0.278 HD
ATOM     38 2H10 UNL     1      21.797   0.284  -1.707  1.00  0.00     0.282 HD
ATOM     39 1H10 UNL     1      23.347   0.191  -1.828  1.00  0.00     0.282 HD
ENDBRANCH  26  28
ENDBRANCH  24  26
ENDBRANCH   1  23
BRANCH  22  40
HETATM   40  C14 UNL     1      24.713   2.919   1.906  1.00  0.00     0.253 C 
BRANCH  40  41
HETATM   41  O4  UNL     1      25.821   3.518   1.363  1.00  0.00    -0.374 OA
ATOM     42  H4  UNL     1      26.107   4.268   1.870  1.00  0.00     0.212 HD
ENDBRANCH  40  41
BRANCH  40  43
HETATM   43  C15 UNL     1      23.519   3.777   1.605  1.00  0.00     0.283 C 
BRANCH  43  44
HETATM   44  N9  UNL     1      22.758   3.365   0.473  1.00  0.00    -0.075 N 
ATOM     45  H93 UNL     1      23.023   2.421   0.193  1.00  0.00     0.274 HD
ATOM     46  H92 UNL     1      21.786   3.204   0.740  1.00  0.00     0.274 HD
ATOM     47  H91 UNL     1      22.803   3.997  -0.327  1.00  0.00     0.274 HD
ENDBRANCH  43  44
ENDBRANCH  40  43
ENDBRANCH  22  40
BRANCH   6  48
HETATM   48  O1  UNL     1      24.189  -0.227   7.100  1.00  0.00    -0.357 OA
ATOM     49  H1  UNL     1      24.432  -1.131   7.264  1.00  0.00     0.217 HD
ENDBRANCH   6  48
BRANCH  21  50
HETATM   50  C13 UNL     1      26.620   4.290   3.668  1.00  0.00     0.299 C 
HETATM   51  N7  UNL     1      27.933   3.991   3.244  1.00  0.00    -0.054 NA
HETATM   52  O3  UNL     1      26.226   5.466   3.658  1.00  0.00    -0.268 OA
ENDBRANCH  21  50
TORSDOF 9
ENDMDL
MODEL 3
REMARK VINA RESULT: -6.658104224      3.784      7.301
REMARK  9 active torsions:
REMARK  status: ('A' for Active; 'I' for Inactive)
REMARK    1  A    between atoms: C2_2  and  C3_3 
REMARK    2  A    between atoms: C2_2  and  N10_41 
REMARK    3  A    between atoms: N1_4  and  C4_6 
REMARK    4  A    between atoms: C7_11  and  O1_12 
REMARK    5  A    between atoms: C12_28  and  C13_29 
REMARK    6  A    between atoms: N8_32  and  C14_33 
REMARK    7  A    between atoms: C14_33  and  O4_34 
REMARK    8  A    between atoms: C14_33  and  C15_36 
REMARK    9  A    between atoms: C15_36  and  N9_37 
REMARK       I    between atoms: N10_41  and  C16_44 
REMARK       I    between atoms: C16_44  and  N11_45 
REMARK       I    between atoms: C16_44  and  N12_49 
ROOT
HETATM    1  C4  UNL     1      22.657  -0.667  -0.197  1.00  0.00     0.123 C 
HETATM    2  N2  UNL     1      22.469  -1.663   0.684  1.00  0.00    -0.327 N 
ATOM      3  H2  UNL     1      21.995  -1.388   1.544  1.00  0.00     0.169 HD
HETATM    4  C5  UNL     1      22.805  -2.965   0.617  1.00  0.00     0.131 A 
HETATM    5  C6  UNL     1      23.323  -3.644  -0.469  1.00  0.00     0.112 A 
HETATM    6  C7  UNL     1      23.594  -3.213  -1.752  1.00  0.00     0.114 C 
HETATM    7  C8  UNL     1      23.198  -2.013  -2.299  1.00  0.00     0.100 A 
HETATM    8  N3  UNL     1      23.127  -1.686  -3.580  1.00  0.00    -0.295 N 
ATOM      9  H3  UNL     1      23.375  -2.316  -4.343  1.00  0.00     0.187 HD
HETATM   10  N4  UNL     1      22.701  -0.460  -3.755  1.00  0.00    -0.284 N 
ATOM     11  H4  UNL     1      22.574  -0.007  -4.660  1.00  0.00     0.188 HD
HETATM   12  C9  UNL     1      22.451   0.126  -2.533  1.00  0.00     0.130 A 
HETATM   13  N5  UNL     1      22.027   1.293  -2.336  1.00  0.00    -0.384 N 
ATOM     14  H51 UNL     1      21.842   1.727  -1.432  1.00  0.00     0.157 HD
ATOM     15  H52 UNL     1      21.808   1.986  -3.051  1.00  0.00     0.157 HD
HETATM   16  C10 UNL     1      22.747  -0.808  -1.569  1.00  0.00     0.084 A 
HETATM   17  C11 UNL     1      23.639  -4.969  -0.316  1.00  0.00     0.264 A 
HETATM   18  O2  UNL     1      24.109  -5.603  -1.292  1.00  0.00    -0.267 OA
HETATM   19  N6  UNL     1      23.427  -5.523   0.876  1.00  0.00    -0.304 N 
ATOM     20  H6  UNL     1      23.659  -6.508   1.001  1.00  0.00     0.171 HD
HETATM   21  C12 UNL     1      22.907  -4.825   1.952  1.00  0.00     0.180 A 
HETATM   22  N8  UNL     1      22.585  -3.532   1.840  1.00  0.00    -0.285 N 
ENDROOT
BRANCH   1  23
HETATM   23  N1  UNL     1      22.781   0.655   0.248  1.00  0.00    -0.353 N 
HETATM   24  C3  UNL     1      22.325   1.135   1.351  1.00  0.00     0.095 C 
ATOM     25  H1  UNL     1      23.283   1.300  -0.363  1.00  0.00     0.166 HD
BRANCH  24  26
HETATM   26  C2  UNL     1      22.490   2.539   1.764  1.00  0.00     0.224 C 
HETATM   27  C1  UNL     1      21.276   3.328   1.321  1.00  0.00     0.046 C 
BRANCH  26  28
HETATM   28  N10 UNL     1      22.653   2.625   3.179  1.00  0.00    -0.013 N 
HETATM   29  C16 UNL     1      23.954   3.120   3.584  1.00  0.00     0.576 C 
HETATM   30  N11 UNL     1      24.069   3.176   5.033  1.00  0.00    -0.026 N 
HETATM   31  N12 UNL     1      25.033   2.346   3.058  1.00  0.00    -0.026 N 
ATOM     32 3H11 UNL     1      23.313   3.722   5.448  1.00  0.00     0.278 HD
ATOM     33 2H11 UNL     1      23.862   2.273   5.460  1.00  0.00     0.278 HD
ATOM     34 1H11 UNL     1      24.984   3.525   5.318  1.00  0.00     0.278 HD
ATOM     35 3H12 UNL     1      24.927   1.361   3.301  1.00  0.00     0.278 HD
ATOM     36 2H12 UNL     1      24.970   2.275   2.043  1.00  0.00     0.278 HD
ATOM     37 1H12 UNL     1      25.948   2.695   3.343  1.00  0.00     0.278 HD
ATOM     38 2H10 UNL     1      21.908   3.185   3.595  1.00  0.00     0.282 HD
ATOM     39 1H10 UNL     1      22.455   1.727   3.620  1.00  0.00     0.282 HD
ENDBRANCH  26  28
ENDBRANCH  24  26
ENDBRANCH   1  23
BRANCH  22  40
HETATM   40  C14 UNL     1      22.056  -2.739   2.923  1.00  0.00     0.253 C 
BRANCH  40  41
HETATM   41  O4  UNL     1      22.860  -2.778   4.034  1.00  0.00    -0.374 OA
ATOM     42  H4  UNL     1      22.724  -2.029   4.601  1.00  0.00     0.212 HD
ENDBRANCH  40  41
BRANCH  40  43
HETATM   43  C15 UNL     1      20.654  -3.066   3.345  1.00  0.00     0.283 C 
BRANCH  43  44
HETATM   44  N9  UNL     1      19.638  -2.585   2.470  1.00  0.00    -0.075 N 
ATOM     45  H93 UNL     1      20.006  -2.483   1.524  1.00  0.00     0.274 HD
ATOM     46  H92 UNL     1      18.936  -3.308   2.310  1.00  0.00     0.274 HD
ATOM     47  H91 UNL     1      19.190  -1.718   2.769  1.00  0.00     0.274 HD
ENDBRANCH  43  44
ENDBRANCH  40  43
ENDBRANCH  22  40
BRANCH   6  48
HETATM   48  O1  UNL     1      24.322  -4.024  -2.587  1.00  0.00    -0.357 OA
ATOM     49  H1  UNL     1      25.198  -3.757  -2.842  1.00  0.00     0.217 HD
ENDBRANCH   6  48
BRANCH  21  50
HETATM   50  C13 UNL     1      22.801  -5.566   3.192  1.00  0.00     0.299 C 
HETATM   51  N7  UNL     1      21.676  -6.390   3.409  1.00  0.00    -0.054 NA
HETATM   52  O3  UNL     1      23.680  -5.487   4.065  1.00  0.00    -0.268 OA
ENDBRANCH  21  50
TORSDOF 9
ENDMDL
MODEL 4
REMARK VINA RESULT: -6.567117967      0.886      1.103
REMARK  9 active torsions:
REMARK  status: ('A' for Active; 'I' for Inactive)
REMARK    1  A    between atoms: C2_2  and  C3_3 
REMARK    2  A    between atoms: C2_2  and  N10_41 
REMARK    3  A    between atoms: N1_4  and  C4_6 
REMARK    4  A    between atoms: C7_11  and  O1_12 
REMARK    5  A    between atoms: C12_28  and  C13_29 
REMARK    6  A    between atoms: N8_32  and  C14_33 
REMARK    7  A    between atoms: C14_33  and  O4_34 
REMARK    8  A    between atoms: C14_33  and  C15_36 
REMARK    9  A    between atoms: C15_36  and  N9_37 
REMARK       I    between atoms: N10_41  and  C16_44 
REMARK       I    between atoms: C16_44  and  N11_45 
REMARK       I    between atoms: C16_44  and  N12_49 
ROOT
HETATM    1  C4  UNL     1      22.599  -0.506   3.976  1.00  0.00     0.123 C 
HETATM    2  N2  UNL     1      23.503   0.436   4.290  1.00  0.00    -0.327 N 
ATOM      3  H2  UNL     1      23.958   0.306   5.193  1.00  0.00     0.169 HD
HETATM    4  C5  UNL     1      23.907   1.524   3.606  1.00  0.00     0.131 A 
HETATM    5  C6  UNL     1      23.574   1.874   2.312  1.00  0.00     0.112 A 
HETATM    6  C7  UNL     1      22.800   1.219   1.375  1.00  0.00     0.114 C 
HETATM    7  C8  UNL     1      22.345  -0.077   1.471  1.00  0.00     0.100 A 
HETATM    8  N3  UNL     1      21.904  -0.859   0.498  1.00  0.00    -0.295 N 
ATOM      9  H3  UNL     1      21.845  -0.574  -0.480  1.00  0.00     0.187 HD
HETATM   10  N4  UNL     1      21.552  -2.043   0.935  1.00  0.00    -0.284 N 
ATOM     11  H4  UNL     1      21.185  -2.797   0.355  1.00  0.00     0.188 HD
HETATM   12  C9  UNL     1      21.752  -2.116   2.296  1.00  0.00     0.130 A 
HETATM   13  N5  UNL     1      21.524  -3.108   3.033  1.00  0.00    -0.384 N 
ATOM     14  H51 UNL     1      21.672  -3.162   4.041  1.00  0.00     0.157 HD
ATOM     15  H52 UNL     1      21.152  -4.010   2.737  1.00  0.00     0.157 HD
HETATM   16  C10 UNL     1      22.253  -0.900   2.696  1.00  0.00     0.084 A 
HETATM   17  C11 UNL     1      24.062   3.053   1.812  1.00  0.00     0.264 A 
HETATM   18  O2  UNL     1      23.771   3.388   0.638  1.00  0.00    -0.267 OA
HETATM   19  N6  UNL     1      24.829   3.793   2.609  1.00  0.00    -0.304 N 
ATOM     20  H6  UNL     1      25.197   4.673   2.249  1.00  0.00     0.171 HD
HETATM   21  C12 UNL     1      25.152   3.425   3.904  1.00  0.00     0.180 A 
HETATM   22  N8  UNL     1      24.696   2.281   4.425  1.00  0.00    -0.285 N 
ENDROOT
BRANCH   1  23
HETATM   23  N1  UNL     1      21.908  -1.186   4.986  1.00  0.00    -0.353 N 
HETATM   24  C3  UNL     1      22.407  -1.629   6.087  1.00  0.00     0.095 C 
ATOM     25  H1  UNL     1      20.912  -1.346   4.835  1.00  0.00     0.166 HD
BRANCH  24  26
HETATM   26  C2  UNL     1      21.626  -2.339   7.113  1.00  0.00     0.224 C 
HETATM   27  C1  UNL     1      21.631  -1.522   8.388  1.00  0.00     0.046 C 
BRANCH  26  28
HETATM   28  N10 UNL     1      20.288  -2.550   6.661  1.00  0.00    -0.013 N 
HETATM   29  C16 UNL     1      19.588  -3.590   7.390  1.00  0.00     0.576 C 
HETATM   30  N11 UNL     1      18.237  -3.771   6.881  1.00  0.00    -0.026 N 
HETATM   31  N12 UNL     1      20.270  -4.845   7.364  1.00  0.00    -0.026 N 
ATOM     32 3H11 UNL     1      17.715  -2.894   6.883  1.00  0.00     0.278 HD
ATOM     33 2H11 UNL     1      18.237  -3.951   5.877  1.00  0.00     0.278 HD
ATOM     34 1H11 UNL     1      17.745  -4.502   7.393  1.00  0.00     0.278 HD
ATOM     35 3H12 UNL     1      20.459  -5.137   6.405  1.00  0.00     0.278 HD
ATOM     36 2H12 UNL     1      21.228  -4.746   7.701  1.00  0.00     0.278 HD
ATOM     37 1H12 UNL     1      19.777  -5.576   7.876  1.00  0.00     0.278 HD
ATOM     38 2H10 UNL     1      19.759  -1.679   6.679  1.00  0.00     0.282 HD
ATOM     39 1H10 UNL     1      20.272  -2.738   5.659  1.00  0.00     0.282 HD
ENDBRANCH  26  28
ENDBRANCH  24  26
ENDBRANCH   1  23
BRANCH  22  40
HETATM   40  C14 UNL     1      24.976   1.843   5.771  1.00  0.00     0.253 C 
BRANCH  40  41
HETATM   41  O4  UNL     1      24.875   2.865   6.680  1.00  0.00    -0.374 OA
ATOM     42  H4  UNL     1      24.189   2.710   7.318  1.00  0.00     0.212 HD
ENDBRANCH  40  41
BRANCH  40  43
HETATM   43  C15 UNL     1      26.299   1.164   5.972  1.00  0.00     0.283 C 
BRANCH  43  44
HETATM   44  N9  UNL     1      27.206   1.862   6.821  1.00  0.00    -0.075 N 
ATOM     45  H93 UNL     1      27.421   2.779   6.431  1.00  0.00     0.274 HD
ATOM     46  H92 UNL     1      26.739   2.142   7.683  1.00  0.00     0.274 HD
ATOM     47  H91 UNL     1      28.068   1.358   7.034  1.00  0.00     0.274 HD
ENDBRANCH  43  44
ENDBRANCH  40  43
ENDBRANCH  22  40
BRANCH   6  48
HETATM   48  O1  UNL     1      22.432   1.885   0.232  1.00  0.00    -0.357 OA
ATOM     49  H1  UNL     1      21.934   2.691   0.308  1.00  0.00     0.217 HD
ENDBRANCH   6  48
BRANCH  21  50
HETATM   50  C13 UNL     1      25.945   4.378   4.652  1.00  0.00     0.299 C 
HETATM   51  N7  UNL     1      25.313   5.507   5.217  1.00  0.00    -0.054 NA
HETATM   52  O3  UNL     1      27.166   4.220   4.804  1.00  0.00    -0.268 OA
ENDBRANCH  21  50
TORSDOF 9
ENDMDL
MODEL 5
REMARK VINA RESULT: -6.454554434      2.789      4.473
REMARK  9 active torsions:
REMARK  status: ('A' for Active; 'I' for Inactive)
REMARK    1  A    between atoms: C2_2  and  C3_3 
REMARK    2  A    between atoms: C2_2  and  N10_41 
REMARK    3  A    between atoms: N1_4  and  C4_6 
REMARK    4  A    between atoms: C7_11  and  O1_12 
REMARK    5  A    between atoms: C12_28  and  C13_29 
REMARK    6  A    between atoms: N8_32  and  C14_33 
REMARK    7  A    between atoms: C14_33  and  O4_34 
REMARK    8  A    between atoms: C14_33  and  C15_36 
REMARK    9  A    between atoms: C15_36  and  N9_37 
REMARK       I    between atoms: N10_41  and  C16_44 
REMARK       I    between atoms: C16_44  and  N11_45 
REMARK       I    between atoms: C16_44  and  N12_49 
ROOT
HETATM    1  C4  UNL     1      22.704  -2.656   1.211  1.00  0.00     0.123 C 
HETATM    2  N2  UNL     1      22.696  -1.318   1.105  1.00  0.00    -0.327 N 
ATOM      3  H2  UNL     1      22.767  -0.819   1.992  1.00  0.00     0.169 HD
HETATM    4  C5  UNL     1      22.609  -0.526   0.019  1.00  0.00     0.131 A 
HETATM    5  C6  UNL     1      22.642  -0.913  -1.307  1.00  0.00     0.112 A 
HETATM    6  C7  UNL     1      22.808  -2.160  -1.875  1.00  0.00     0.114 C 
HETATM    7  C8  UNL     1      23.196  -3.302  -1.211  1.00  0.00     0.100 A 
HETATM    8  N3  UNL     1      23.691  -4.416  -1.727  1.00  0.00    -0.295 N 
ATOM      9  H3  UNL     1      23.844  -4.562  -2.725  1.00  0.00     0.187 HD
HETATM   10  N4  UNL     1      23.962  -5.310  -0.808  1.00  0.00    -0.284 N 
ATOM     11  H4  UNL     1      24.349  -6.237  -0.988  1.00  0.00     0.188 HD
HETATM   12  C9  UNL     1      23.647  -4.811   0.436  1.00  0.00     0.130 A 
HETATM   13  N5  UNL     1      23.786  -5.402   1.536  1.00  0.00    -0.384 N 
ATOM     14  H51 UNL     1      23.552  -5.032   2.458  1.00  0.00     0.157 HD
ATOM     15  H52 UNL     1      24.150  -6.344   1.676  1.00  0.00     0.157 HD
HETATM   16  C10 UNL     1      23.155  -3.540   0.248  1.00  0.00     0.084 A 
HETATM   17  C11 UNL     1      22.495   0.052  -2.269  1.00  0.00     0.264 A 
HETATM   18  O2  UNL     1      22.524  -0.280  -3.479  1.00  0.00    -0.267 OA
HETATM   19  N6  UNL     1      22.326   1.309  -1.864  1.00  0.00    -0.304 N 
ATOM     20  H6  UNL     1      22.214   2.035  -2.571  1.00  0.00     0.171 HD
HETATM   21  C12 UNL     1      22.295   1.677  -0.531  1.00  0.00     0.180 A 
HETATM   22  N8  UNL     1      22.438   0.764   0.436  1.00  0.00    -0.285 N 
ENDROOT
BRANCH   1  23
HETATM   23  N1  UNL     1      22.225  -3.275   2.372  1.00  0.00    -0.353 N 
HETATM   24  C3  UNL     1      21.764  -2.684   3.418  1.00  0.00     0.095 C 
ATOM     25  H1  UNL     1      22.243  -4.295   2.390  1.00  0.00     0.166 HD
BRANCH  24  26
HETATM   26  C2  UNL     1      21.274  -3.394   4.611  1.00  0.00     0.224 C 
HETATM   27  C1  UNL     1      22.457  -3.961   5.368  1.00  0.00     0.046 C 
BRANCH  26  28
HETATM   28  N10 UNL     1      20.527  -2.508   5.444  1.00  0.00    -0.013 N 
HETATM   29  C16 UNL     1      19.874  -3.170   6.556  1.00  0.00     0.576 C 
HETATM   30  N11 UNL     1      19.119  -2.224   7.363  1.00  0.00    -0.026 N 
HETATM   31  N12 UNL     1      19.009  -4.229   6.144  1.00  0.00    -0.026 N 
ATOM     32 3H11 UNL     1      19.704  -1.450   7.678  1.00  0.00     0.278 HD
ATOM     33 2H11 UNL     1      18.454  -1.698   6.797  1.00  0.00     0.278 HD
ATOM     34 1H11 UNL     1      18.660  -2.690   8.145  1.00  0.00     0.278 HD
ATOM     35 3H12 UNL     1      18.323  -3.897   5.465  1.00  0.00     0.278 HD
ATOM     36 2H12 UNL     1      19.508  -4.902   5.562  1.00  0.00     0.278 HD
ATOM     37 1H12 UNL     1      18.550  -4.695   6.926  1.00  0.00     0.278 HD
ATOM     38 2H10 UNL     1      21.114  -1.742   5.775  1.00  0.00     0.282 HD
ATOM     39 1H10 UNL     1      19.852  -1.978   4.893  1.00  0.00     0.282 HD
ENDBRANCH  26  28
ENDBRANCH  24  26
ENDBRANCH   1  23
BRANCH  22  40
HETATM   40  C14 UNL     1      22.398   1.071   1.845  1.00  0.00     0.253 C 
BRANCH  40  41
HETATM   41  O4  UNL     1      21.406   1.967   2.151  1.00  0.00    -0.374 OA
ATOM     42  H4  UNL     1      21.010   2.343   1.374  1.00  0.00     0.212 HD
ENDBRANCH  40  41
BRANCH  40  43
HETATM   43  C15 UNL     1      23.683   1.570   2.438  1.00  0.00     0.283 C 
BRANCH  43  44
HETATM   44  N9  UNL     1      23.621   2.888   2.976  1.00  0.00    -0.075 N 
ATOM     45  H93 UNL     1      23.346   2.857   3.958  1.00  0.00     0.274 HD
ATOM     46  H92 UNL     1      24.559   3.277   3.067  1.00  0.00     0.274 HD
ATOM     47  H91 UNL     1      23.020   3.533   2.462  1.00  0.00     0.274 HD
ENDBRANCH  43  44
ENDBRANCH  40  43
ENDBRANCH  22  40
BRANCH   6  48
HETATM   48  O1  UNL     1      22.576  -2.316  -3.219  1.00  0.00    -0.357 OA
ATOM     49  H1  UNL     1      21.710  -2.577  -3.511  1.00  0.00     0.217 HD
ENDBRANCH   6  48
BRANCH  21  50
HETATM   50  C13 UNL     1      22.040   3.078  -0.268  1.00  0.00     0.299 C 
HETATM   51  N7  UNL     1      23.125   3.937   0.004  1.00  0.00    -0.054 NA
HETATM   52  O3  UNL     1      20.885   3.533  -0.277  1.00  0.00    -0.268 OA
ENDBRANCH  21  50
TORSDOF 9
ENDMDL
