MODEL 1
REMARK VINA RESULT: -7.040677855      0.000      0.000
REMARK  11 active torsions:
REMARK  status: ('A' for Active; 'I' for Inactive)
REMARK    1  A    between atoms: N1_1  and  C1_5 
REMARK    2  A    between atoms: C1_5  and  C2_6 
REMARK    3  A    between atoms: C2_6  and  N2_7 
REMARK    4  A    between atoms: N2_7  and  C3_9 
REMARK    5  A    between atoms: C4_12  and  N4_13 
REMARK    6  A    between atoms: N4_13  and  N5_15 
REMARK       I    between atoms: N5_15  and  C5_17 
REMARK    7  A    between atoms: C8_22  and  O1_23 
REMARK    8  A    between atoms: C9_25  and  C10_26 
REMARK    9  A    between atoms: C10_26  and  N8_27 
REMARK   10  A    between atoms: N8_27  and  O2_29 
REMARK   11  A    between atoms: C11_31  and  C12_32 
REMARK       I    between atoms: N11_39  and  C14_41 
REMARK       I    between atoms: C14_41  and  N12_42 
REMARK       I    between atoms: C14_41  and  N13_46 
ROOT
HETATM    1  C3  UNL     1      23.069   0.170   5.638  1.00  0.00     0.226 A 
HETATM    2  N3  UNL     1      23.897   1.125   6.006  1.00  0.00    -0.306 N 
ATOM      3  H3  UNL     1      24.243   1.102   6.966  1.00  0.00     0.171 HD
HETATM    4  C4  UNL     1      24.335   2.157   5.198  1.00  0.00     0.136 A 
HETATM    5  C6  UNL     1      23.823   2.121   3.910  1.00  0.00     0.047 A 
HETATM    6  C7  UNL     1      24.174   3.087   2.994  1.00  0.00     0.055 A 
HETATM    7  C8  UNL     1      23.637   3.006   1.729  1.00  0.00     0.079 A 
HETATM    8  C9  UNL     1      22.763   1.977   1.384  1.00  0.00     0.030 A 
HETATM    9  C11 UNL     1      22.407   1.008   2.291  1.00  0.00     0.046 A 
HETATM   10  C15 UNL     1      22.952   1.092   3.573  1.00  0.00     0.107 A 
HETATM   11  O4  UNL     1      22.594   0.152   4.422  1.00  0.00    -0.278 OA
ENDROOT
BRANCH   9  12
HETATM   12  C12 UNL     1      21.493  -0.063   1.918  1.00  0.00     0.116 A 
HETATM   13  N9  UNL     1      20.174  -0.015   2.145  1.00  0.00    -0.237 N 
HETATM   14  O3  UNL     1      19.648  -1.123   1.695  1.00  0.00    -0.155 OA
ATOM     15  H9  UNL     1      19.669   0.751   2.591  1.00  0.00     0.197 HD
HETATM   16  N10 UNL     1      20.574  -1.880   1.189  1.00  0.00    -0.223 N 
HETATM   17  C13 UNL     1      21.763  -1.268   1.298  1.00  0.00     0.156 A 
ATOM     18  H10 UNL     1      20.420  -2.798   0.772  1.00  0.00     0.198 HD
HETATM   19  N11 UNL     1      22.946  -1.617   0.948  1.00  0.00    -0.324 N 
HETATM   20  C14 UNL     1      23.149  -2.889   0.306  1.00  0.00     0.481 C 
ATOM     21  H11 UNL     1      23.738  -0.997   1.124  1.00  0.00     0.165 HD
HETATM   22  N12 UNL     1      22.406  -3.019  -0.914  1.00  0.00    -0.033 N 
HETATM   23  N13 UNL     1      22.719  -3.964   1.203  1.00  0.00    -0.033 N 
ATOM     24 3H12 UNL     1      21.414  -2.842  -0.759  1.00  0.00     0.278 HD
ATOM     25 2H12 UNL     1      22.613  -2.250  -1.552  1.00  0.00     0.278 HD
ATOM     26 1H12 UNL     1      22.550  -3.920  -1.369  1.00  0.00     0.278 HD
ATOM     27 3H13 UNL     1      23.179  -3.913   2.113  1.00  0.00     0.278 HD
ATOM     28 2H13 UNL     1      21.757  -3.840   1.519  1.00  0.00     0.278 HD
ATOM     29 1H13 UNL     1      22.863  -4.865   0.748  1.00  0.00     0.278 HD
ENDBRANCH   9  12
BRANCH   8  30
HETATM   30  C10 UNL     1      22.229   1.934   0.053  1.00  0.00     0.129 C 
BRANCH  30  31
HETATM   31  N8  UNL     1      21.647   2.955  -0.465  1.00  0.00    -0.280 N 
ATOM     32  H8  UNL     1      20.831   3.345   0.005  1.00  0.00     0.193 HD
BRANCH  31  33
HETATM   33  O2  UNL     1      22.078   3.534  -1.615  1.00  0.00    -0.290 OA
ATOM     34  H2  UNL     1      22.138   4.477  -1.720  1.00  0.00     0.244 HD
ENDBRANCH  31  33
ENDBRANCH  30  31
ENDBRANCH   8  30
BRANCH   7  35
HETATM   35  O1  UNL     1      23.978   3.966   0.800  1.00  0.00    -0.360 OA
ATOM     36  H1  UNL     1      23.772   3.812  -0.115  1.00  0.00     0.217 HD
ENDBRANCH   7  35
BRANCH   4  37
HETATM   37  N4  UNL     1      25.121   2.999   5.668  1.00  0.00    -0.283 N 
ATOM     38  H4  UNL     1      24.663   3.450   6.459  1.00  0.00     0.188 HD
BRANCH  37  39
HETATM   39  N5  UNL     1      26.318   3.530   5.534  1.00  0.00    -0.274 N 
HETATM   40  C5  UNL     1      26.505   4.804   5.312  1.00  0.00     0.215 C 
HETATM   41  N6  UNL     1      27.840   5.249   5.187  1.00  0.00    -0.065 NA
HETATM   42  N7  UNL     1      25.426   5.697   5.201  1.00  0.00    -0.065 NA
ATOM     43  H5  UNL     1      27.133   2.922   5.606  1.00  0.00     0.189 HD
ENDBRANCH  37  39
ENDBRANCH   4  37
BRANCH   1  44
HETATM   44  N2  UNL     1      22.750  -0.730   6.512  1.00  0.00    -0.354 N 
ATOM     45  H2  UNL     1      22.622  -0.421   7.476  1.00  0.00     0.163 HD
BRANCH  44  46
HETATM   46  C2  UNL     1      22.562  -2.119   6.240  1.00  0.00     0.150 C 
BRANCH  46  47
HETATM   47  C1  UNL     1      21.105  -2.530   6.260  1.00  0.00     0.249 C 
BRANCH  47  48
HETATM   48  N1  UNL     1      20.494  -2.087   5.021  1.00  0.00    -0.078 N 
ATOM     49  H13 UNL     1      21.058  -2.314   4.201  1.00  0.00     0.274 HD
ATOM     50  H12 UNL     1      19.667  -2.630   4.774  1.00  0.00     0.274 HD
ATOM     51  H11 UNL     1      20.301  -1.089   5.102  1.00  0.00     0.274 HD
ENDBRANCH  47  48
ENDBRANCH  46  47
ENDBRANCH  44  46
ENDBRANCH   1  44
TORSDOF 11
ENDMDL
MODEL 2
REMARK VINA RESULT: -6.877775588      1.299      1.522
REMARK  11 active torsions:
REMARK  status: ('A' for Active; 'I' for Inactive)
REMARK    1  A    between atoms: N1_1  and  C1_5 
REMARK    2  A    between atoms: C1_5  and  C2_6 
REMARK    3  A    between atoms: C2_6  and  N2_7 
REMARK    4  A    between atoms: N2_7  and  C3_9 
REMARK    5  A    between atoms: C4_12  and  N4_13 
REMARK    6  A    between atoms: N4_13  and  N5_15 
REMARK       I    between atoms: N5_15  and  C5_17 
REMARK    7  A    between atoms: C8_22  and  O1_23 
REMARK    8  A    between atoms: C9_25  and  C10_26 
REMARK    9  A    between atoms: C10_26  and  N8_27 
REMARK   10  A    between atoms: N8_27  and  O2_29 
REMARK   11  A    between atoms: C11_31  and  C12_32 
REMARK       I    between atoms: N11_39  and  C14_41 
REMARK       I    between atoms: C14_41  and  N12_42 
REMARK       I    between atoms: C14_41  and  N13_46 
ROOT
HETATM    1  C3  UNL     1      24.416   1.048   6.003  1.00  0.00     0.226 A 
HETATM    2  N3  UNL     1      25.417   1.901   5.998  1.00  0.00    -0.306 N 
ATOM      3  H3  UNL     1      26.010   1.934   6.827  1.00  0.00     0.171 HD
HETATM    4  C4  UNL     1      25.731   2.758   4.959  1.00  0.00     0.136 A 
HETATM    5  C6  UNL     1      24.883   2.656   3.868  1.00  0.00     0.047 A 
HETATM    6  C7  UNL     1      25.075   3.448   2.759  1.00  0.00     0.055 A 
HETATM    7  C8  UNL     1      24.203   3.307   1.702  1.00  0.00     0.079 A 
HETATM    8  C9  UNL     1      23.156   2.390   1.753  1.00  0.00     0.030 A 
HETATM    9  C11 UNL     1      22.955   1.594   2.855  1.00  0.00     0.046 A 
HETATM   10  C15 UNL     1      23.839   1.738   3.925  1.00  0.00     0.107 A 
HETATM   11  O4  UNL     1      23.625   0.964   4.968  1.00  0.00    -0.278 OA
ENDROOT
BRANCH   9  12
HETATM   12  C12 UNL     1      21.857   0.639   2.895  1.00  0.00     0.116 A 
HETATM   13  N9  UNL     1      20.761   0.810   3.646  1.00  0.00    -0.237 N 
HETATM   14  O3  UNL     1      19.979  -0.218   3.456  1.00  0.00    -0.155 OA
ATOM     15  H9  UNL     1      20.572   1.602   4.259  1.00  0.00     0.197 HD
HETATM   16  N10 UNL     1      20.525  -1.042   2.614  1.00  0.00    -0.223 N 
HETATM   17  C13 UNL     1      21.713  -0.560   2.221  1.00  0.00     0.156 A 
ATOM     18  H10 UNL     1      20.114  -1.921   2.300  1.00  0.00     0.198 HD
HETATM   19  N11 UNL     1      22.602  -1.011   1.414  1.00  0.00    -0.324 N 
HETATM   20  C14 UNL     1      22.382  -2.268   0.749  1.00  0.00     0.481 C 
ATOM     21  H11 UNL     1      23.459  -0.483   1.246  1.00  0.00     0.165 HD
HETATM   22  N12 UNL     1      21.194  -2.268  -0.056  1.00  0.00    -0.033 N 
HETATM   23  N13 UNL     1      22.243  -3.331   1.745  1.00  0.00    -0.033 N 
ATOM     24 3H12 UNL     1      20.379  -1.998   0.495  1.00  0.00     0.278 HD
ATOM     25 2H12 UNL     1      21.204  -1.497  -0.724  1.00  0.00     0.278 HD
ATOM     26 1H12 UNL     1      21.037  -3.159  -0.527  1.00  0.00     0.278 HD
ATOM     27 3H13 UNL     1      23.038  -3.368   2.383  1.00  0.00     0.278 HD
ATOM     28 2H13 UNL     1      21.516  -3.125   2.430  1.00  0.00     0.278 HD
ATOM     29 1H13 UNL     1      22.087  -4.222   1.273  1.00  0.00     0.278 HD
ENDBRANCH   9  12
BRANCH   8  30
HETATM   30  C10 UNL     1      22.274   2.279   0.627  1.00  0.00     0.129 C 
BRANCH  30  31
HETATM   31  N8  UNL     1      21.700   3.312   0.124  1.00  0.00    -0.280 N 
ATOM     32  H8  UNL     1      21.023   3.821   0.692  1.00  0.00     0.193 HD
BRANCH  31  33
HETATM   33  O2  UNL     1      21.960   3.751  -1.133  1.00  0.00    -0.290 OA
ATOM     34  H2  UNL     1      22.841   3.933  -1.439  1.00  0.00     0.244 HD
ENDBRANCH  31  33
ENDBRANCH  30  31
ENDBRANCH   8  30
BRANCH   7  35
HETATM   35  O1  UNL     1      24.383   4.094   0.584  1.00  0.00    -0.360 OA
ATOM     36  H1  UNL     1      23.620   4.474   0.165  1.00  0.00     0.217 HD
ENDBRANCH   7  35
BRANCH   4  37
HETATM   37  N4  UNL     1      26.708   3.519   5.079  1.00  0.00    -0.283 N 
ATOM     38  H4  UNL     1      26.399   4.350   5.583  1.00  0.00     0.188 HD
BRANCH  37  39
HETATM   39  N5  UNL     1      27.987   3.662   4.803  1.00  0.00    -0.274 N 
HETATM   40  C5  UNL     1      28.475   4.741   4.251  1.00  0.00     0.215 C 
HETATM   41  N6  UNL     1      29.866   4.769   4.005  1.00  0.00    -0.065 NA
HETATM   42  N7  UNL     1      27.654   5.829   3.914  1.00  0.00    -0.065 NA
ATOM     43  H5  UNL     1      28.624   2.898   5.029  1.00  0.00     0.189 HD
ENDBRANCH  37  39
ENDBRANCH   4  37
BRANCH   1  44
HETATM   44  N2  UNL     1      24.250   0.310   7.054  1.00  0.00    -0.354 N 
ATOM     45  H2  UNL     1      24.333   0.767   7.963  1.00  0.00     0.163 HD
BRANCH  44  46
HETATM   46  C2  UNL     1      23.960  -1.087   7.047  1.00  0.00     0.150 C 
BRANCH  46  47
HETATM   47  C1  UNL     1      22.491  -1.384   7.265  1.00  0.00     0.249 C 
BRANCH  47  48
HETATM   48  N1  UNL     1      21.842  -1.426   5.968  1.00  0.00    -0.078 N 
ATOM     49  H13 UNL     1      22.450  -1.108   5.213  1.00  0.00     0.274 HD
ATOM     50  H12 UNL     1      21.693  -2.378   5.633  1.00  0.00     0.274 HD
ATOM     51  H11 UNL     1      20.977  -0.890   6.029  1.00  0.00     0.274 HD
ENDBRANCH  47  48
ENDBRANCH  46  47
ENDBRANCH  44  46
ENDBRANCH   1  44
TORSDOF 11
ENDMDL
MODEL 3
REMARK VINA RESULT: -6.692824088      1.574      2.059
REMARK  11 active torsions:
REMARK  status: ('A' for Active; 'I' for Inactive)
REMARK    1  A    between atoms: N1_1  and  C1_5 
REMARK    2  A    between atoms: C1_5  and  C2_6 
REMARK    3  A    between atoms: C2_6  and  N2_7 
REMARK    4  A    between atoms: N2_7  and  C3_9 
REMARK    5  A    between atoms: C4_12  and  N4_13 
REMARK    6  A    between atoms: N4_13  and  N5_15 
REMARK       I    between atoms: N5_15  and  C5_17 
REMARK    7  A    between atoms: C8_22  and  O1_23 
REMARK    8  A    between atoms: C9_25  and  C10_26 
REMARK    9  A    between atoms: C10_26  and  N8_27 
REMARK   10  A    between atoms: N8_27  and  O2_29 
REMARK   11  A    between atoms: C11_31  and  C12_32 
REMARK       I    between atoms: N11_39  and  C14_41 
REMARK       I    between atoms: C14_41  and  N12_42 
REMARK       I    between atoms: C14_41  and  N13_46 
ROOT
HETATM    1  C3  UNL     1      24.676   1.482   6.593  1.00  0.00     0.226 A 
HETATM    2  N3  UNL     1      25.676   2.337   6.576  1.00  0.00    -0.306 N 
ATOM      3  H3  UNL     1      26.205   2.457   7.440  1.00  0.00     0.171 HD
HETATM    4  C4  UNL     1      26.069   3.085   5.481  1.00  0.00     0.136 A 
HETATM    5  C6  UNL     1      25.304   2.868   4.346  1.00  0.00     0.047 A 
HETATM    6  C7  UNL     1      25.580   3.544   3.180  1.00  0.00     0.055 A 
HETATM    7  C8  UNL     1      24.790   3.292   2.081  1.00  0.00     0.079 A 
HETATM    8  C9  UNL     1      23.740   2.378   2.146  1.00  0.00     0.030 A 
HETATM    9  C11 UNL     1      23.455   1.698   3.306  1.00  0.00     0.046 A 
HETATM   10  C15 UNL     1      24.258   1.955   4.418  1.00  0.00     0.107 A 
HETATM   11  O4  UNL     1      23.964   1.290   5.515  1.00  0.00    -0.278 OA
ENDROOT
BRANCH   9  12
HETATM   12  C12 UNL     1      22.355   0.745   3.361  1.00  0.00     0.116 A 
HETATM   13  N9  UNL     1      21.146   1.047   3.851  1.00  0.00    -0.237 N 
HETATM   14  O3  UNL     1      20.396  -0.018   3.756  1.00  0.00    -0.155 OA
ATOM     15  H9  UNL     1      20.861   1.949   4.232  1.00  0.00     0.197 HD
HETATM   16  N10 UNL     1      21.073  -0.991   3.226  1.00  0.00    -0.223 N 
HETATM   17  C13 UNL     1      22.318  -0.574   2.952  1.00  0.00     0.156 A 
ATOM     18  H10 UNL     1      20.713  -1.928   3.045  1.00  0.00     0.198 HD
HETATM   19  N11 UNL     1      23.331  -1.167   2.433  1.00  0.00    -0.324 N 
HETATM   20  C14 UNL     1      23.216  -2.545   2.032  1.00  0.00     0.481 C 
ATOM     21  H11 UNL     1      24.210  -0.666   2.307  1.00  0.00     0.165 HD
HETATM   22  N12 UNL     1      22.189  -2.753   1.051  1.00  0.00    -0.033 N 
HETATM   23  N13 UNL     1      22.889  -3.368   3.197  1.00  0.00    -0.033 N 
ATOM     24 3H12 UNL     1      21.293  -2.391   1.377  1.00  0.00     0.278 HD
ATOM     25 2H12 UNL     1      22.328  -2.146   0.242  1.00  0.00     0.278 HD
ATOM     26 1H12 UNL     1      22.108  -3.728   0.766  1.00  0.00     0.278 HD
ATOM     27 3H13 UNL     1      23.557  -3.243   3.958  1.00  0.00     0.278 HD
ATOM     28 2H13 UNL     1      22.054  -3.037   3.681  1.00  0.00     0.278 HD
ATOM     29 1H13 UNL     1      22.807  -4.344   2.913  1.00  0.00     0.278 HD
ENDBRANCH   9  12
BRANCH   8  30
HETATM   30  C10 UNL     1      22.944   2.149   0.975  1.00  0.00     0.129 C 
BRANCH  30  31
HETATM   31  N8  UNL     1      22.234   3.085   0.456  1.00  0.00    -0.280 N 
ATOM     32  H8  UNL     1      21.328   3.302   0.872  1.00  0.00     0.193 HD
BRANCH  31  33
HETATM   33  O2  UNL     1      22.644   3.798  -0.624  1.00  0.00    -0.290 OA
ATOM     34  H2  UNL     1      22.036   4.156  -1.261  1.00  0.00     0.244 HD
ENDBRANCH  31  33
ENDBRANCH  30  31
ENDBRANCH   8  30
BRANCH   7  35
HETATM   35  O1  UNL     1      25.053   3.962   0.905  1.00  0.00    -0.360 OA
ATOM     36  H1  UNL     1      24.950   4.906   0.883  1.00  0.00     0.217 HD
ENDBRANCH   7  35
BRANCH   4  37
HETATM   37  N4  UNL     1      27.035   3.860   5.596  1.00  0.00    -0.283 N 
ATOM     38  H4  UNL     1      27.850   3.310   5.867  1.00  0.00     0.188 HD
BRANCH  37  39
HETATM   39  N5  UNL     1      27.407   5.119   5.500  1.00  0.00    -0.274 N 
HETATM   40  C5  UNL     1      28.367   5.514   4.706  1.00  0.00     0.215 C 
HETATM   41  N6  UNL     1      28.671   6.894   4.697  1.00  0.00    -0.065 NA
HETATM   42  N7  UNL     1      29.070   4.607   3.896  1.00  0.00    -0.065 NA
ATOM     43  H5  UNL     1      26.927   5.815   6.069  1.00  0.00     0.189 HD
ENDBRANCH  37  39
ENDBRANCH   4  37
BRANCH   1  44
HETATM   44  N2  UNL     1      24.430   0.855   7.698  1.00  0.00    -0.354 N 
ATOM     45  H2  UNL     1      24.453   1.400   8.560  1.00  0.00     0.163 HD
BRANCH  44  46
HETATM   46  C2  UNL     1      24.130  -0.536   7.811  1.00  0.00     0.150 C 
BRANCH  46  47
HETATM   47  C1  UNL     1      22.644  -0.812   7.905  1.00  0.00     0.249 C 
BRANCH  47  48
HETATM   48  N1  UNL     1      22.137  -1.017   6.562  1.00  0.00    -0.078 N 
ATOM     49  H13 UNL     1      22.146  -1.998   6.282  1.00  0.00     0.274 HD
ATOM     50  H12 UNL     1      21.131  -0.864   6.493  1.00  0.00     0.274 HD
ATOM     51  H11 UNL     1      22.670  -0.422   5.928  1.00  0.00     0.274 HD
ENDBRANCH  47  48
ENDBRANCH  46  47
ENDBRANCH  44  46
ENDBRANCH   1  44
TORSDOF 11
ENDMDL
MODEL 4
REMARK VINA RESULT: -6.681944604      1.673      2.110
REMARK  11 active torsions:
REMARK  status: ('A' for Active; 'I' for Inactive)
REMARK    1  A    between atoms: N1_1  and  C1_5 
REMARK    2  A    between atoms: C1_5  and  C2_6 
REMARK    3  A    between atoms: C2_6  and  N2_7 
REMARK    4  A    between atoms: N2_7  and  C3_9 
REMARK    5  A    between atoms: C4_12  and  N4_13 
REMARK    6  A    between atoms: N4_13  and  N5_15 
REMARK       I    between atoms: N5_15  and  C5_17 
REMARK    7  A    between atoms: C8_22  and  O1_23 
REMARK    8  A    between atoms: C9_25  and  C10_26 
REMARK    9  A    between atoms: C10_26  and  N8_27 
REMARK   10  A    between atoms: N8_27  and  O2_29 
REMARK   11  A    between atoms: C11_31  and  C12_32 
REMARK       I    between atoms: N11_39  and  C14_41 
REMARK       I    between atoms: C14_41  and  N12_42 
REMARK       I    between atoms: C14_41  and  N13_46 
ROOT
HETATM    1  C3  UNL     1      25.207   0.555   5.498  1.00  0.00     0.226 A 
HETATM    2  N3  UNL     1      26.270   1.316   5.355  1.00  0.00    -0.306 N 
ATOM      3  H3  UNL     1      27.024   1.201   6.033  1.00  0.00     0.171 HD
HETATM    4  C4  UNL     1      26.450   2.259   4.361  1.00  0.00     0.136 A 
HETATM    5  C6  UNL     1      25.385   2.359   3.479  1.00  0.00     0.047 A 
HETATM    6  C7  UNL     1      25.424   3.258   2.437  1.00  0.00     0.055 A 
HETATM    7  C8  UNL     1      24.341   3.316   1.590  1.00  0.00     0.079 A 
HETATM    8  C9  UNL     1      23.235   2.490   1.780  1.00  0.00     0.030 A 
HETATM    9  C11 UNL     1      23.186   1.590   2.817  1.00  0.00     0.046 A 
HETATM   10  C15 UNL     1      24.285   1.532   3.675  1.00  0.00     0.107 A 
HETATM   11  O4  UNL     1      24.212   0.661   4.659  1.00  0.00    -0.278 OA
ENDROOT
BRANCH   9  12
HETATM   12  C12 UNL     1      22.024   0.732   3.005  1.00  0.00     0.116 A 
HETATM   13  N9  UNL     1      21.041   1.005   3.873  1.00  0.00    -0.237 N 
HETATM   14  O3  UNL     1      20.159   0.045   3.798  1.00  0.00    -0.155 OA
ATOM     15  H9  UNL     1      20.992   1.819   4.486  1.00  0.00     0.197 HD
HETATM   16  N10 UNL     1      20.533  -0.833   2.917  1.00  0.00    -0.223 N 
HETATM   17  C13 UNL     1      21.703  -0.458   2.379  1.00  0.00     0.156 A 
ATOM     18  H10 UNL     1      20.016  -1.677   2.672  1.00  0.00     0.198 HD
HETATM   19  N11 UNL     1      22.452  -0.994   1.486  1.00  0.00    -0.324 N 
HETATM   20  C14 UNL     1      22.052  -2.236   0.878  1.00  0.00     0.481 C 
ATOM     21  H11 UNL     1      23.324  -0.543   1.208  1.00  0.00     0.165 HD
HETATM   22  N12 UNL     1      20.782  -2.145   0.216  1.00  0.00    -0.033 N 
HETATM   23  N13 UNL     1      21.942  -3.271   1.908  1.00  0.00    -0.033 N 
ATOM     24 3H12 UNL     1      20.062  -1.800   0.851  1.00  0.00     0.278 HD
ATOM     25 2H12 UNL     1      20.778  -1.387  -0.466  1.00  0.00     0.278 HD
ATOM     26 1H12 UNL     1      20.498  -3.025  -0.214  1.00  0.00     0.278 HD
ATOM     27 3H13 UNL     1      22.800  -3.367   2.451  1.00  0.00     0.278 HD
ATOM     28 2H13 UNL     1      21.319  -2.994   2.667  1.00  0.00     0.278 HD
ATOM     29 1H13 UNL     1      21.658  -4.151   1.477  1.00  0.00     0.278 HD
ENDBRANCH   9  12
BRANCH   8  30
HETATM   30  C10 UNL     1      22.129   2.587   0.871  1.00  0.00     0.129 C 
BRANCH  30  31
HETATM   31  N8  UNL     1      22.234   2.204  -0.350  1.00  0.00    -0.280 N 
ATOM     32  H8  UNL     1      22.074   2.884  -1.093  1.00  0.00     0.193 HD
BRANCH  31  33
HETATM   33  O2  UNL     1      22.549   0.928  -0.689  1.00  0.00    -0.290 OA
ATOM     34  H2  UNL     1      22.392   0.577  -1.558  1.00  0.00     0.244 HD
ENDBRANCH  31  33
ENDBRANCH  30  31
ENDBRANCH   8  30
BRANCH   7  35
HETATM   35  O1  UNL     1      24.365   4.211   0.542  1.00  0.00    -0.360 OA
ATOM     36  H1  UNL     1      23.693   4.152  -0.127  1.00  0.00     0.217 HD
ENDBRANCH   7  35
BRANCH   4  37
HETATM   37  N4  UNL     1      27.505   2.917   4.336  1.00  0.00    -0.283 N 
ATOM     38  H4  UNL     1      28.263   2.286   4.077  1.00  0.00     0.188 HD
BRANCH  37  39
HETATM   39  N5  UNL     1      28.018   4.116   4.517  1.00  0.00    -0.274 N 
HETATM   40  C5  UNL     1      29.247   4.417   4.189  1.00  0.00     0.215 C 
HETATM   41  N6  UNL     1      29.676   5.740   4.436  1.00  0.00    -0.065 NA
HETATM   42  N7  UNL     1      30.107   3.466   3.615  1.00  0.00    -0.065 NA
ATOM     43  H5  UNL     1      27.432   4.840   4.931  1.00  0.00     0.189 HD
ENDBRANCH  37  39
ENDBRANCH   4  37
BRANCH   1  44
HETATM   44  N2  UNL     1      25.186  -0.285   6.483  1.00  0.00    -0.354 N 
ATOM     45  H2  UNL     1      26.046  -0.799   6.677  1.00  0.00     0.163 HD
BRANCH  44  46
HETATM   46  C2  UNL     1      24.061  -0.552   7.320  1.00  0.00     0.150 C 
BRANCH  46  47
HETATM   47  C1  UNL     1      23.251  -1.744   6.855  1.00  0.00     0.249 C 
BRANCH  47  48
HETATM   48  N1  UNL     1      22.102  -1.250   6.122  1.00  0.00    -0.078 N 
ATOM     49  H13 UNL     1      22.272  -1.185   5.118  1.00  0.00     0.274 HD
ATOM     50  H12 UNL     1      21.337  -1.924   6.089  1.00  0.00     0.274 HD
ATOM     51  H11 UNL     1      21.823  -0.359   6.533  1.00  0.00     0.274 HD
ENDBRANCH  47  48
ENDBRANCH  46  47
ENDBRANCH  44  46
ENDBRANCH   1  44
TORSDOF 11
ENDMDL
MODEL 5
REMARK VINA RESULT: -6.619050769      1.616      4.640
REMARK  11 active torsions:
REMARK  status: ('A' for Active; 'I' for Inactive)
REMARK    1  A    between atoms: N1_1  and  C1_5 
REMARK    2  A    between atoms: C1_5  and  C2_6 
REMARK    3  A    between atoms: C2_6  and  N2_7 
REMARK    4  A    between atoms: N2_7  and  C3_9 
REMARK    5  A    between atoms: C4_12  and  N4_13 
REMARK    6  A    between atoms: N4_13  and  N5_15 
REMARK       I    between atoms: N5_15  and  C5_17 
REMARK    7  A    between atoms: C8_22  and  O1_23 
REMARK    8  A    between atoms: C9_25  and  C10_26 
REMARK    9  A    between atoms: C10_26  and  N8_27 
REMARK   10  A    between atoms: N8_27  and  O2_29 
REMARK   11  A    between atoms: C11_31  and  C12_32 
REMARK       I    between atoms: N11_39  and  C14_41 
REMARK       I    between atoms: C14_41  and  N12_42 
REMARK       I    between atoms: C14_41  and  N13_46 
ROOT
HETATM    1  C3  UNL     1      22.878   2.506   2.565  1.00  0.00     0.226 A 
HETATM    2  N3  UNL     1      23.655   3.049   3.477  1.00  0.00    -0.306 N 
ATOM      3  H3  UNL     1      24.013   3.986   3.290  1.00  0.00     0.171 HD
HETATM    4  C4  UNL     1      24.027   2.453   4.667  1.00  0.00     0.136 A 
HETATM    5  C6  UNL     1      23.503   1.183   4.850  1.00  0.00     0.047 A 
HETATM    6  C7  UNL     1      23.788   0.469   5.992  1.00  0.00     0.055 A 
HETATM    7  C8  UNL     1      23.243  -0.789   6.123  1.00  0.00     0.079 A 
HETATM    8  C9  UNL     1      22.425  -1.324   5.130  1.00  0.00     0.030 A 
HETATM    9  C11 UNL     1      22.134  -0.619   3.987  1.00  0.00     0.046 A 
HETATM   10  C15 UNL     1      22.688   0.655   3.855  1.00  0.00     0.107 A 
HETATM   11  O4  UNL     1      22.393   1.308   2.751  1.00  0.00    -0.278 OA
ENDROOT
BRANCH   9  12
HETATM   12  C12 UNL     1      21.278  -1.190   2.957  1.00  0.00     0.116 A 
HETATM   13  N9  UNL     1      19.952  -1.322   3.094  1.00  0.00    -0.237 N 
HETATM   14  O3  UNL     1      19.486  -1.864   2.001  1.00  0.00    -0.155 OA
ATOM     15  H9  UNL     1      19.403  -1.047   3.909  1.00  0.00     0.197 HD
HETATM   16  N10 UNL     1      20.456  -2.086   1.168  1.00  0.00    -0.223 N 
HETATM   17  C13 UNL     1      21.615  -1.683   1.711  1.00  0.00     0.156 A 
ATOM     18  H10 UNL     1      20.353  -2.503   0.243  1.00  0.00     0.198 HD
HETATM   19  N11 UNL     1      22.821  -1.698   1.276  1.00  0.00    -0.324 N 
HETATM   20  C14 UNL     1      23.095  -2.228  -0.034  1.00  0.00     0.481 C 
ATOM     21  H11 UNL     1      23.581  -1.338   1.854  1.00  0.00     0.165 HD
HETATM   22  N12 UNL     1      22.393  -1.530  -1.073  1.00  0.00    -0.033 N 
HETATM   23  N13 UNL     1      22.687  -3.633  -0.089  1.00  0.00    -0.033 N 
ATOM     24 3H12 UNL     1      21.390  -1.513  -0.888  1.00  0.00     0.278 HD
ATOM     25 2H12 UNL     1      22.585  -0.529  -1.035  1.00  0.00     0.278 HD
ATOM     26 1H12 UNL     1      22.587  -1.905  -2.001  1.00  0.00     0.278 HD
ATOM     27 3H13 UNL     1      23.118  -4.189   0.649  1.00  0.00     0.278 HD
ATOM     28 2H13 UNL     1      21.712  -3.761   0.182  1.00  0.00     0.278 HD
ATOM     29 1H13 UNL     1      22.881  -4.008  -1.017  1.00  0.00     0.278 HD
ENDBRANCH   9  12
BRANCH   8  30
HETATM   30  C10 UNL     1      21.879  -2.638   5.313  1.00  0.00     0.129 C 
BRANCH  30  31
HETATM   31  N8  UNL     1      20.963  -2.865   6.183  1.00  0.00    -0.280 N 
ATOM     32  H8  UNL     1      21.138  -3.559   6.910  1.00  0.00     0.193 HD
BRANCH  31  33
HETATM   33  O2  UNL     1      19.770  -2.217   6.172  1.00  0.00    -0.290 OA
ATOM     34  H2  UNL     1      18.981  -2.605   5.811  1.00  0.00     0.244 HD
ENDBRANCH  31  33
ENDBRANCH  30  31
ENDBRANCH   8  30
BRANCH   7  35
HETATM   35  O1  UNL     1      23.520  -1.517   7.261  1.00  0.00    -0.360 OA
ATOM     36  H1  UNL     1      24.170  -1.186   7.869  1.00  0.00     0.217 HD
ENDBRANCH   7  35
BRANCH   4  37
HETATM   37  N4  UNL     1      24.769   3.076   5.448  1.00  0.00    -0.283 N 
ATOM     38  H4  UNL     1      24.208   3.376   6.244  1.00  0.00     0.188 HD
BRANCH  37  39
HETATM   39  N5  UNL     1      26.003   3.494   5.638  1.00  0.00    -0.274 N 
HETATM   40  C5  UNL     1      26.351   4.748   5.514  1.00  0.00     0.215 C 
HETATM   41  N6  UNL     1      27.708   5.068   5.745  1.00  0.00    -0.065 NA
HETATM   42  N7  UNL     1      25.418   5.738   5.167  1.00  0.00    -0.065 NA
ATOM     43  H5  UNL     1      26.717   2.812   5.892  1.00  0.00     0.189 HD
ENDBRANCH  37  39
ENDBRANCH   4  37
BRANCH   1  44
HETATM   44  N2  UNL     1      22.620   3.192   1.497  1.00  0.00    -0.354 N 
ATOM     45  H2  UNL     1      22.825   4.191   1.523  1.00  0.00     0.163 HD
BRANCH  44  46
HETATM   46  C2  UNL     1      22.073   2.666   0.288  1.00  0.00     0.150 C 
BRANCH  46  47
HETATM   47  C1  UNL     1      22.022   3.689  -0.827  1.00  0.00     0.249 C 
BRANCH  47  48
HETATM   48  N1  UNL     1      21.792   2.985  -2.075  1.00  0.00    -0.078 N 
ATOM     49  H13 UNL     1      21.502   2.017  -1.934  1.00  0.00     0.274 HD
ATOM     50  H12 UNL     1      20.957   3.309  -2.562  1.00  0.00     0.274 HD
ATOM     51  H11 UNL     1      22.636   3.064  -2.643  1.00  0.00     0.274 HD
ENDBRANCH  47  48
ENDBRANCH  46  47
ENDBRANCH  44  46
ENDBRANCH   1  44
TORSDOF 11
ENDMDL
