MODEL 1
REMARK VINA RESULT: -6.467274535      0.000      0.000
REMARK  8 active torsions:
REMARK  status: ('A' for Active; 'I' for Inactive)
REMARK    1  A    between atoms: N1_2  and  C2_4 
REMARK    2  A    between atoms: C2_4  and  C8_13 
REMARK       I    between atoms: N2_5  and  C3_7 
REMARK    3  A    between atoms: C3_7  and  C4_9 
REMARK    4  A    between atoms: C8_13  and  N3_15 
REMARK       I    between atoms: N3_15  and  C10_17 
REMARK    5  A    between atoms: C10_17  and  C11_19 
REMARK    6  A    between atoms: C13_21  and  O3_22 
REMARK    7  A    between atoms: C14_24  and  O4_25 
REMARK    8  A    between atoms: C15_27  and  O5_28 
ROOT
HETATM    1  N3  UNL     1     105.994  18.142  15.583  1.00  0.00    -0.350 N 
ATOM      2  H3  UNL     1     106.808  17.625  15.916  1.00  0.00     0.163 HD
HETATM    3  C10 UNL     1     104.941  18.449  16.467  1.00  0.00     0.225 C 
HETATM    4  O2  UNL     1     103.949  19.081  16.047  1.00  0.00    -0.273 OA
ENDROOT
BRANCH   1   5
HETATM    5  C8  UNL     1     105.915  18.563  14.191  1.00  0.00     0.148 C 
HETATM    6  C9  UNL     1     105.592  17.313  13.384  1.00  0.00     0.040 C 
BRANCH   5   7
HETATM    7  C2  UNL     1     107.238  19.058  13.745  1.00  0.00     0.102 C 
HETATM    8  N2  UNL     1     107.777  18.572  12.677  1.00  0.00    -0.312 N 
HETATM    9  C3  UNL     1     109.043  19.026  12.222  1.00  0.00     0.246 C 
ATOM     10  H2  UNL     1     107.284  17.850  12.150  1.00  0.00     0.170 HD
HETATM   11  O1  UNL     1     109.040  19.970  11.395  1.00  0.00    -0.268 OA
BRANCH   7  12
HETATM   12  N1  UNL     1     107.925  20.058  14.471  1.00  0.00    -0.382 N 
HETATM   13  C1  UNL     1     107.547  21.458  14.449  1.00  0.00     0.147 C 
ATOM     14  H1  UNL     1     108.725  19.781  15.039  1.00  0.00     0.160 HD
ENDBRANCH   7  12
BRANCH   9  15
HETATM   15  C4  UNL     1     110.290  18.437  12.680  1.00  0.00     0.076 C 
HETATM   16  C5  UNL     1     111.034  17.622  11.990  1.00  0.00    -0.082 C 
HETATM   17  C6  UNL     1     110.691  17.184  10.623  1.00  0.00     0.043 C 
HETATM   18  C7  UNL     1     112.302  17.082  12.575  1.00  0.00     0.043 C 
ENDBRANCH   9  15
ENDBRANCH   5   7
ENDBRANCH   1   5
BRANCH   3  19
HETATM   19  C11 UNL     1     105.004  18.035  17.863  1.00  0.00     0.111 C 
HETATM   20  C12 UNL     1     103.985  16.989  18.234  1.00  0.00     0.051 C 
HETATM   21  C13 UNL     1     104.645  16.065  19.235  1.00  0.00     0.150 C 
HETATM   22  C14 UNL     1     105.941  16.791  19.615  1.00  0.00     0.176 C 
HETATM   23  C15 UNL     1     106.305  17.396  18.253  1.00  0.00     0.162 C 
BRANCH  21  24
HETATM   24  O3  UNL     1     105.032  14.922  18.530  1.00  0.00    -0.393 OA
ATOM     25  H3  UNL     1     104.289  14.330  18.544  1.00  0.00     0.210 HD
ENDBRANCH  21  24
BRANCH  22  26
HETATM   26  O4  UNL     1     105.644  17.849  20.453  1.00  0.00    -0.390 OA
ATOM     27  H4  UNL     1     105.114  17.538  21.177  1.00  0.00     0.210 HD
ENDBRANCH  22  26
BRANCH  23  28
HETATM   28  O5  UNL     1     107.343  18.297  18.359  1.00  0.00    -0.392 OA
ATOM     29  H5  UNL     1     107.653  18.408  19.249  1.00  0.00     0.210 HD
ENDBRANCH  23  28
ENDBRANCH   3  19
TORSDOF 8
ENDMDL
MODEL 2
REMARK VINA RESULT: -6.429682177      4.110      7.347
REMARK  8 active torsions:
REMARK  status: ('A' for Active; 'I' for Inactive)
REMARK    1  A    between atoms: N1_2  and  C2_4 
REMARK    2  A    between atoms: C2_4  and  C8_13 
REMARK       I    between atoms: N2_5  and  C3_7 
REMARK    3  A    between atoms: C3_7  and  C4_9 
REMARK    4  A    between atoms: C8_13  and  N3_15 
REMARK       I    between atoms: N3_15  and  C10_17 
REMARK    5  A    between atoms: C10_17  and  C11_19 
REMARK    6  A    between atoms: C13_21  and  O3_22 
REMARK    7  A    between atoms: C14_24  and  O4_25 
REMARK    8  A    between atoms: C15_27  and  O5_28 
ROOT
HETATM    1  N3  UNL     1     102.079  18.585  15.380  1.00  0.00    -0.350 N 
ATOM      2  H3  UNL     1     101.607  18.905  16.226  1.00  0.00     0.163 HD
HETATM    3  C10 UNL     1     102.555  19.521  14.441  1.00  0.00     0.225 C 
HETATM    4  O2  UNL     1     103.130  19.117  13.408  1.00  0.00    -0.273 OA
ENDROOT
BRANCH   1   5
HETATM    5  C8  UNL     1     102.262  17.161  15.139  1.00  0.00     0.148 C 
HETATM    6  C9  UNL     1     101.004  16.476  15.658  1.00  0.00     0.040 C 
BRANCH   5   7
HETATM    7  C2  UNL     1     103.407  16.663  15.935  1.00  0.00     0.102 C 
HETATM    8  N2  UNL     1     103.458  16.902  17.202  1.00  0.00    -0.312 N 
HETATM    9  C3  UNL     1     104.543  16.438  17.993  1.00  0.00     0.246 C 
ATOM     10  H2  UNL     1     102.707  17.432  17.644  1.00  0.00     0.170 HD
HETATM   11  O1  UNL     1     104.402  15.319  18.543  1.00  0.00    -0.268 OA
BRANCH   7  12
HETATM   12  N1  UNL     1     104.451  15.928  15.327  1.00  0.00    -0.382 N 
HETATM   13  C1  UNL     1     105.084  16.326  14.084  1.00  0.00     0.147 C 
ATOM     14  H1  UNL     1     104.776  15.077  15.785  1.00  0.00     0.160 HD
ENDBRANCH   7  12
BRANCH   9  15
HETATM   15  C4  UNL     1     105.762  17.208  18.169  1.00  0.00     0.076 C 
HETATM   16  C5  UNL     1     106.259  17.578  19.313  1.00  0.00    -0.082 C 
HETATM   17  C6  UNL     1     105.625  17.255  20.606  1.00  0.00     0.043 C 
HETATM   18  C7  UNL     1     107.527  18.372  19.362  1.00  0.00     0.043 C 
ENDBRANCH   9  15
ENDBRANCH   5   7
ENDBRANCH   1   5
BRANCH   3  19
HETATM   19  C11 UNL     1     102.381  20.950  14.667  1.00  0.00     0.111 C 
HETATM   20  C12 UNL     1     103.252  21.814  13.793  1.00  0.00     0.051 C 
HETATM   21  C13 UNL     1     102.443  23.046  13.443  1.00  0.00     0.150 C 
HETATM   22  C14 UNL     1     101.226  22.968  14.371  1.00  0.00     0.176 C 
HETATM   23  C15 UNL     1     100.997  21.451  14.370  1.00  0.00     0.162 C 
BRANCH  21  24
HETATM   24  O3  UNL     1     101.957  22.850  12.147  1.00  0.00    -0.393 OA
ATOM     25  H3  UNL     1     101.878  23.712  11.754  1.00  0.00     0.210 HD
ENDBRANCH  21  24
BRANCH  22  26
HETATM   26  O4  UNL     1     101.606  23.311  15.656  1.00  0.00    -0.390 OA
ATOM     27  H4  UNL     1     102.107  24.118  15.630  1.00  0.00     0.210 HD
ENDBRANCH  22  26
BRANCH  23  28
HETATM   28  O5  UNL     1     100.069  21.076  15.317  1.00  0.00    -0.392 OA
ATOM     29  H5  UNL     1      99.980  21.705  16.023  1.00  0.00     0.210 HD
ENDBRANCH  23  28
ENDBRANCH   3  19
TORSDOF 8
ENDMDL
MODEL 3
REMARK VINA RESULT: -6.399947502      2.983      8.030
REMARK  8 active torsions:
REMARK  status: ('A' for Active; 'I' for Inactive)
REMARK    1  A    between atoms: N1_2  and  C2_4 
REMARK    2  A    between atoms: C2_4  and  C8_13 
REMARK       I    between atoms: N2_5  and  C3_7 
REMARK    3  A    between atoms: C3_7  and  C4_9 
REMARK    4  A    between atoms: C8_13  and  N3_15 
REMARK       I    between atoms: N3_15  and  C10_17 
REMARK    5  A    between atoms: C10_17  and  C11_19 
REMARK    6  A    between atoms: C13_21  and  O3_22 
REMARK    7  A    between atoms: C14_24  and  O4_25 
REMARK    8  A    between atoms: C15_27  and  O5_28 
ROOT
HETATM    1  N3  UNL     1     110.475  18.993  12.610  1.00  0.00    -0.350 N 
ATOM      2  H3  UNL     1     110.529  19.925  13.021  1.00  0.00     0.163 HD
HETATM    3  C10 UNL     1     111.645  18.226  12.441  1.00  0.00     0.225 C 
HETATM    4  O2  UNL     1     111.566  17.086  11.936  1.00  0.00    -0.273 OA
ENDROOT
BRANCH   1   5
HETATM    5  C8  UNL     1     109.189  18.450  12.196  1.00  0.00     0.148 C 
HETATM    6  C9  UNL     1     108.950  18.954  10.778  1.00  0.00     0.040 C 
BRANCH   5   7
HETATM    7  C2  UNL     1     108.115  18.999  13.056  1.00  0.00     0.102 C 
HETATM    8  N2  UNL     1     108.380  19.333  14.275  1.00  0.00    -0.312 N 
HETATM    9  C3  UNL     1     107.374  19.862  15.126  1.00  0.00     0.246 C 
ATOM     10  H2  UNL     1     109.328  19.215  14.633  1.00  0.00     0.170 HD
HETATM   11  O1  UNL     1     107.259  21.111  15.155  1.00  0.00    -0.268 OA
BRANCH   7  12
HETATM   12  N1  UNL     1     106.800  19.162  12.565  1.00  0.00    -0.382 N 
HETATM   13  C1  UNL     1     105.889  18.055  12.347  1.00  0.00     0.147 C 
ATOM     14  H1  UNL     1     106.475  20.106  12.353  1.00  0.00     0.160 HD
ENDBRANCH   7  12
BRANCH   9  15
HETATM   15  C4  UNL     1     106.511  19.014  15.930  1.00  0.00     0.076 C 
HETATM   16  C5  UNL     1     106.768  18.614  17.141  1.00  0.00    -0.082 C 
HETATM   17  C6  UNL     1     108.002  18.980  17.863  1.00  0.00     0.043 C 
HETATM   18  C7  UNL     1     105.795  17.738  17.868  1.00  0.00     0.043 C 
ENDBRANCH   9  15
ENDBRANCH   5   7
ENDBRANCH   1   5
BRANCH   3  19
HETATM   19  C11 UNL     1     112.940  18.754  12.851  1.00  0.00     0.111 C 
HETATM   20  C12 UNL     1     114.023  17.709  12.932  1.00  0.00     0.051 C 
HETATM   21  C13 UNL     1     115.307  18.368  12.472  1.00  0.00     0.150 C 
HETATM   22  C14 UNL     1     114.959  19.860  12.410  1.00  0.00     0.176 C 
HETATM   23  C15 UNL     1     113.515  19.766  11.902  1.00  0.00     0.162 C 
BRANCH  21  24
HETATM   24  O3  UNL     1     115.514  17.961  11.151  1.00  0.00    -0.393 OA
ATOM     25  H3  UNL     1     116.175  17.279  11.177  1.00  0.00     0.210 HD
ENDBRANCH  21  24
BRANCH  22  26
HETATM   26  O4  UNL     1     114.898  20.370  13.693  1.00  0.00    -0.390 OA
ATOM     27  H4  UNL     1     115.662  20.087  14.181  1.00  0.00     0.210 HD
ENDBRANCH  22  26
BRANCH  23  28
HETATM   28  O5  UNL     1     112.876  20.987  11.959  1.00  0.00    -0.392 OA
ATOM     29  H5  UNL     1     112.434  21.139  12.785  1.00  0.00     0.210 HD
ENDBRANCH  23  28
ENDBRANCH   3  19
TORSDOF 8
ENDMDL
MODEL 4
REMARK VINA RESULT: -6.324340520      1.404      1.626
REMARK  8 active torsions:
REMARK  status: ('A' for Active; 'I' for Inactive)
REMARK    1  A    between atoms: N1_2  and  C2_4 
REMARK    2  A    between atoms: C2_4  and  C8_13 
REMARK       I    between atoms: N2_5  and  C3_7 
REMARK    3  A    between atoms: C3_7  and  C4_9 
REMARK    4  A    between atoms: C8_13  and  N3_15 
REMARK       I    between atoms: N3_15  and  C10_17 
REMARK    5  A    between atoms: C10_17  and  C11_19 
REMARK    6  A    between atoms: C13_21  and  O3_22 
REMARK    7  A    between atoms: C14_24  and  O4_25 
REMARK    8  A    between atoms: C15_27  and  O5_28 
ROOT
HETATM    1  N3  UNL     1     105.132  17.658  15.703  1.00  0.00    -0.350 N 
ATOM      2  H3  UNL     1     105.977  17.177  16.012  1.00  0.00     0.163 HD
HETATM    3  C10 UNL     1     104.104  17.942  16.623  1.00  0.00     0.225 C 
HETATM    4  O2  UNL     1     103.074  18.531  16.231  1.00  0.00    -0.273 OA
ENDROOT
BRANCH   1   5
HETATM    5  C8  UNL     1     104.986  18.054  14.309  1.00  0.00     0.148 C 
HETATM    6  C9  UNL     1     104.653  16.783  13.538  1.00  0.00     0.040 C 
BRANCH   5   7
HETATM    7  C2  UNL     1     106.278  18.566  13.797  1.00  0.00     0.102 C 
HETATM    8  N2  UNL     1     106.392  18.885  12.551  1.00  0.00    -0.312 N 
HETATM    9  C3  UNL     1     107.617  19.379  12.030  1.00  0.00     0.246 C 
ATOM     10  H2  UNL     1     105.590  18.780  11.931  1.00  0.00     0.170 HD
HETATM   11  O1  UNL     1     107.765  20.625  12.022  1.00  0.00    -0.268 OA
BRANCH   7  12
HETATM   12  N1  UNL     1     107.394  18.713  14.653  1.00  0.00    -0.382 N 
HETATM   13  C1  UNL     1     107.560  19.833  15.559  1.00  0.00     0.147 C 
ATOM     14  H1  UNL     1     108.118  17.994  14.633  1.00  0.00     0.160 HD
ENDBRANCH   7  12
BRANCH   9  15
HETATM   15  C4  UNL     1     108.658  18.501  11.524  1.00  0.00     0.076 C 
HETATM   16  C5  UNL     1     108.802  18.144  10.281  1.00  0.00    -0.082 C 
HETATM   17  C6  UNL     1     107.900  18.599   9.205  1.00  0.00     0.043 C 
HETATM   18  C7  UNL     1     109.920  17.230   9.885  1.00  0.00     0.043 C 
ENDBRANCH   9  15
ENDBRANCH   5   7
ENDBRANCH   1   5
BRANCH   3  19
HETATM   19  C11 UNL     1     104.235  17.554  18.021  1.00  0.00     0.111 C 
HETATM   20  C12 UNL     1     103.499  16.287  18.372  1.00  0.00     0.051 C 
HETATM   21  C13 UNL     1     104.345  15.553  19.392  1.00  0.00     0.150 C 
HETATM   22  C14 UNL     1     105.411  16.577  19.798  1.00  0.00     0.176 C 
HETATM   23  C15 UNL     1     105.645  17.257  18.443  1.00  0.00     0.162 C 
BRANCH  21  24
HETATM   24  O3  UNL     1     105.019  14.543  18.700  1.00  0.00    -0.393 OA
ATOM     25  H3  UNL     1     105.722  14.966  18.221  1.00  0.00     0.210 HD
ENDBRANCH  21  24
BRANCH  22  26
HETATM   26  O4  UNL     1     104.841  17.527  20.626  1.00  0.00    -0.390 OA
ATOM     27  H4  UNL     1     105.038  17.315  21.530  1.00  0.00     0.210 HD
ENDBRANCH  22  26
BRANCH  23  28
HETATM   28  O5  UNL     1     106.424  18.387  18.569  1.00  0.00    -0.392 OA
ATOM     29  H5  UNL     1     107.293  18.285  18.201  1.00  0.00     0.210 HD
ENDBRANCH  23  28
ENDBRANCH   3  19
TORSDOF 8
ENDMDL
MODEL 5
REMARK VINA RESULT: -6.289814347      2.012      2.976
REMARK  8 active torsions:
REMARK  status: ('A' for Active; 'I' for Inactive)
REMARK    1  A    between atoms: N1_2  and  C2_4 
REMARK    2  A    between atoms: C2_4  and  C8_13 
REMARK       I    between atoms: N2_5  and  C3_7 
REMARK    3  A    between atoms: C3_7  and  C4_9 
REMARK    4  A    between atoms: C8_13  and  N3_15 
REMARK       I    between atoms: N3_15  and  C10_17 
REMARK    5  A    between atoms: C10_17  and  C11_19 
REMARK    6  A    between atoms: C13_21  and  O3_22 
REMARK    7  A    between atoms: C14_24  and  O4_25 
REMARK    8  A    between atoms: C15_27  and  O5_28 
ROOT
HETATM    1  N3  UNL     1     106.117  19.281  16.049  1.00  0.00    -0.350 N 
ATOM      2  H3  UNL     1     105.112  19.278  15.875  1.00  0.00     0.163 HD
HETATM    3  C10 UNL     1     106.629  18.732  17.241  1.00  0.00     0.225 C 
HETATM    4  O2  UNL     1     107.862  18.742  17.443  1.00  0.00    -0.273 OA
ENDROOT
BRANCH   1   5
HETATM    5  C8  UNL     1     107.027  19.852  15.067  1.00  0.00     0.148 C 
HETATM    6  C9  UNL     1     106.395  21.161  14.610  1.00  0.00     0.040 C 
BRANCH   5   7
HETATM    7  C2  UNL     1     107.115  18.959  13.888  1.00  0.00     0.102 C 
HETATM    8  N2  UNL     1     107.777  19.337  12.846  1.00  0.00    -0.312 N 
HETATM    9  C3  UNL     1     107.881  18.504  11.701  1.00  0.00     0.246 C 
ATOM     10  H2  UNL     1     108.233  20.249  12.845  1.00  0.00     0.170 HD
HETATM   11  O1  UNL     1     108.873  17.738  11.649  1.00  0.00    -0.268 OA
BRANCH   7  12
HETATM   12  N1  UNL     1     106.483  17.694  13.885  1.00  0.00    -0.382 N 
HETATM   13  C1  UNL     1     105.069  17.513  13.615  1.00  0.00     0.147 C 
ATOM     14  H1  UNL     1     107.049  16.869  14.081  1.00  0.00     0.160 HD
ENDBRANCH   7  12
BRANCH   9  15
HETATM   15  C4  UNL     1     106.896  18.524  10.633  1.00  0.00     0.076 C 
HETATM   16  C5  UNL     1     107.091  19.005   9.440  1.00  0.00    -0.082 C 
HETATM   17  C6  UNL     1     108.371  19.606   9.016  1.00  0.00     0.043 C 
HETATM   18  C7  UNL     1     105.992  18.967   8.424  1.00  0.00     0.043 C 
ENDBRANCH   9  15
ENDBRANCH   5   7
ENDBRANCH   1   5
BRANCH   3  19
HETATM   19  C11 UNL     1     105.732  18.155  18.235  1.00  0.00     0.111 C 
HETATM   20  C12 UNL     1     104.626  17.321  17.644  1.00  0.00     0.051 C 
HETATM   21  C13 UNL     1     104.390  16.164  18.593  1.00  0.00     0.150 C 
HETATM   22  C14 UNL     1     105.190  16.540  19.845  1.00  0.00     0.176 C 
HETATM   23  C15 UNL     1     106.404  17.206  19.185  1.00  0.00     0.162 C 
BRANCH  21  24
HETATM   24  O3  UNL     1     105.034  15.054  18.038  1.00  0.00    -0.393 OA
ATOM     25  H3  UNL     1     105.946  15.112  18.300  1.00  0.00     0.210 HD
ENDBRANCH  21  24
BRANCH  22  26
HETATM   26  O4  UNL     1     104.519  17.533  20.536  1.00  0.00    -0.390 OA
ATOM     27  H4  UNL     1     103.586  17.359  20.510  1.00  0.00     0.210 HD
ENDBRANCH  22  26
BRANCH  23  28
HETATM   28  O5  UNL     1     107.202  17.840  20.112  1.00  0.00    -0.392 OA
ATOM     29  H5  UNL     1     107.738  17.241  20.617  1.00  0.00     0.210 HD
ENDBRANCH  23  28
ENDBRANCH   3  19
TORSDOF 8
ENDMDL
