MODEL 1
REMARK VINA RESULT: -8.005042741      0.000      0.000
REMARK  7 active torsions:
REMARK  status: ('A' for Active; 'I' for Inactive)
REMARK    1  A    between atoms: C2_2  and  N7_27 
REMARK    2  A    between atoms: N1_3  and  N2_5 
REMARK       I    between atoms: N2_5  and  C3_6 
REMARK       I    between atoms: C3_6  and  N3_8 
REMARK       I    between atoms: N4_10  and  C4_12 
REMARK    3  A    between atoms: C4_12  and  C5_14 
REMARK    4  A    between atoms: C5_14  and  N5_15 
REMARK    5  A    between atoms: C5_14  and  C7_21 
REMARK    6  A    between atoms: N5_15  and  C6_17 
REMARK    7  A    between atoms: C6_17  and  O3_19 
ROOT
HETATM    1  N2  UNL     1     106.141  17.818  12.418  1.00  0.00    -0.262 NA
HETATM    2  C3  UNL     1     105.200  17.136  13.143  1.00  0.00     0.431 C 
HETATM    3  O1  UNL     1     104.376  16.534  13.662  1.00  0.00    -0.227 OA
HETATM    4  N3  UNL     1     105.846  17.819  14.596  1.00  0.00    -0.235 N 
ATOM      5  H3  UNL     1     106.639  18.459  14.554  1.00  0.00     0.193 HD
HETATM    6  N4  UNL     1     105.331  17.519  15.706  1.00  0.00    -0.263 N 
ATOM      7  H4  UNL     1     105.580  16.602  16.076  1.00  0.00     0.190 HD
HETATM    8  C4  UNL     1     104.442  18.296  16.517  1.00  0.00     0.263 C 
HETATM    9  O2  UNL     1     104.023  19.439  16.235  1.00  0.00    -0.269 OA
ENDROOT
BRANCH   8  10
HETATM   10  C5  UNL     1     104.052  17.564  17.782  1.00  0.00     0.212 C 
BRANCH  10  11
HETATM   11  N5  UNL     1     103.526  16.331  17.410  1.00  0.00    -0.342 N 
ATOM     12  H5  UNL     1     104.095  15.537  17.704  1.00  0.00     0.163 HD
BRANCH  11  13
HETATM   13  C6  UNL     1     102.350  15.959  16.699  1.00  0.00     0.226 C 
HETATM   14  N6  UNL     1     101.039  16.306  17.110  1.00  0.00    -0.057 NA
BRANCH  13  15
HETATM   15  O3  UNL     1     102.430  15.259  15.601  1.00  0.00    -0.335 OA
ATOM     16  H3  UNL     1     102.362  15.680  14.753  1.00  0.00     0.220 HD
ENDBRANCH  13  15
ENDBRANCH  11  13
ENDBRANCH  10  11
BRANCH  10  17
HETATM   17  C7  UNL     1     105.154  17.610  18.765  1.00  0.00    -0.026 A 
HETATM   18  C8  UNL     1     106.419  18.060  18.432  1.00  0.00     0.010 A 
HETATM   19  C9  UNL     1     107.418  18.159  19.355  1.00  0.00     0.001 A 
HETATM   20  C10 UNL     1     107.217  17.813  20.680  1.00  0.00     0.000 A 
HETATM   21  C11 UNL     1     105.955  17.333  21.065  1.00  0.00     0.001 A 
HETATM   22  C12 UNL     1     104.976  17.256  20.098  1.00  0.00     0.010 A 
ENDBRANCH  10  17
ENDBRANCH   8  10
BRANCH   1  23
HETATM   23  N1  UNL     1     106.974  18.419  11.723  1.00  0.00    -0.219 N 
HETATM   24  C2  UNL     1     107.369  18.682  10.625  1.00  0.00     0.101 C 
HETATM   25  C1  UNL     1     106.886  18.281   9.330  1.00  0.00     0.091 C 
ATOM     26  H1  UNL     1     107.595  18.903  12.373  1.00  0.00     0.203 HD
BRANCH  24  27
HETATM   27  N7  UNL     1     108.824  19.172  10.785  1.00  0.00    -0.378 N 
HETATM   28  C13 UNL     1     109.090  20.550  10.604  1.00  0.00     0.150 C 
HETATM   29  C14 UNL     1     109.710  18.141  11.250  1.00  0.00     0.150 C 
ENDBRANCH  24  27
ENDBRANCH   1  23
TORSDOF 7
ENDMDL
MODEL 2
REMARK VINA RESULT: -7.979630728      0.819      1.297
REMARK  7 active torsions:
REMARK  status: ('A' for Active; 'I' for Inactive)
REMARK    1  A    between atoms: C2_2  and  N7_27 
REMARK    2  A    between atoms: N1_3  and  N2_5 
REMARK       I    between atoms: N2_5  and  C3_6 
REMARK       I    between atoms: C3_6  and  N3_8 
REMARK       I    between atoms: N4_10  and  C4_12 
REMARK    3  A    between atoms: C4_12  and  C5_14 
REMARK    4  A    between atoms: C5_14  and  N5_15 
REMARK    5  A    between atoms: C5_14  and  C7_21 
REMARK    6  A    between atoms: N5_15  and  C6_17 
REMARK    7  A    between atoms: C6_17  and  O3_19 
ROOT
HETATM    1  N2  UNL     1     106.835  17.944  12.161  1.00  0.00    -0.262 NA
HETATM    2  C3  UNL     1     105.744  17.374  12.762  1.00  0.00     0.431 C 
HETATM    3  O1  UNL     1     104.799  16.875  13.172  1.00  0.00    -0.227 OA
HETATM    4  N3  UNL     1     106.338  17.895  14.301  1.00  0.00    -0.235 N 
ATOM      5  H3  UNL     1     107.212  18.417  14.365  1.00  0.00     0.193 HD
HETATM    6  N4  UNL     1     105.683  17.626  15.343  1.00  0.00    -0.263 N 
ATOM      7  H4  UNL     1     105.765  16.668  15.683  1.00  0.00     0.190 HD
HETATM    8  C4  UNL     1     104.837  18.487  16.114  1.00  0.00     0.263 C 
HETATM    9  O2  UNL     1     104.609  19.689  15.860  1.00  0.00    -0.269 OA
ENDROOT
BRANCH   8  10
HETATM   10  C5  UNL     1     104.230  17.766  17.297  1.00  0.00     0.212 C 
BRANCH  10  11
HETATM   11  N5  UNL     1     103.728  16.553  16.839  1.00  0.00    -0.342 N 
ATOM     12  H5  UNL     1     104.421  15.976  16.363  1.00  0.00     0.163 HD
BRANCH  11  13
HETATM   13  C6  UNL     1     102.436  15.959  16.904  1.00  0.00     0.226 C 
HETATM   14  N6  UNL     1     101.543  16.131  17.990  1.00  0.00    -0.057 NA
BRANCH  13  15
HETATM   15  O3  UNL     1     102.002  15.203  15.931  1.00  0.00    -0.335 OA
ATOM     16  H3  UNL     1     102.081  15.485  15.028  1.00  0.00     0.220 HD
ENDBRANCH  13  15
ENDBRANCH  11  13
ENDBRANCH  10  11
BRANCH  10  17
HETATM   17  C7  UNL     1     105.167  17.772  18.441  1.00  0.00    -0.026 A 
HETATM   18  C8  UNL     1     104.798  17.325  19.696  1.00  0.00     0.010 A 
HETATM   19  C9  UNL     1     105.680  17.274  20.734  1.00  0.00     0.001 A 
HETATM   20  C10 UNL     1     106.999  17.667  20.584  1.00  0.00     0.000 A 
HETATM   21  C11 UNL     1     107.418  18.146  19.334  1.00  0.00     0.001 A 
HETATM   22  C12 UNL     1     106.492  18.174  18.314  1.00  0.00     0.010 A 
ENDBRANCH  10  17
ENDBRANCH   8  10
BRANCH   1  23
HETATM   23  N1  UNL     1     107.806  18.448  11.577  1.00  0.00    -0.219 N 
HETATM   24  C2  UNL     1     108.346  18.680  10.535  1.00  0.00     0.101 C 
HETATM   25  C1  UNL     1     107.958  18.370   9.185  1.00  0.00     0.091 C 
ATOM     26  H1  UNL     1     108.409  18.836  12.304  1.00  0.00     0.203 HD
BRANCH  24  27
HETATM   27  N7  UNL     1     109.825  18.979  10.861  1.00  0.00    -0.378 N 
HETATM   28  C13 UNL     1     110.155  19.371  12.179  1.00  0.00     0.150 C 
HETATM   29  C14 UNL     1     110.708  18.669   9.770  1.00  0.00     0.150 C 
ENDBRANCH  24  27
ENDBRANCH   1  23
TORSDOF 7
ENDMDL
MODEL 3
REMARK VINA RESULT: -7.915446113      3.135      4.333
REMARK  7 active torsions:
REMARK  status: ('A' for Active; 'I' for Inactive)
REMARK    1  A    between atoms: C2_2  and  N7_27 
REMARK    2  A    between atoms: N1_3  and  N2_5 
REMARK       I    between atoms: N2_5  and  C3_6 
REMARK       I    between atoms: C3_6  and  N3_8 
REMARK       I    between atoms: N4_10  and  C4_12 
REMARK    3  A    between atoms: C4_12  and  C5_14 
REMARK    4  A    between atoms: C5_14  and  N5_15 
REMARK    5  A    between atoms: C5_14  and  C7_21 
REMARK    6  A    between atoms: N5_15  and  C6_17 
REMARK    7  A    between atoms: C6_17  and  O3_19 
ROOT
HETATM    1  N2  UNL     1     110.685  19.123  12.473  1.00  0.00    -0.262 NA
HETATM    2  C3  UNL     1     109.344  18.943  12.257  1.00  0.00     0.431 C 
HETATM    3  O1  UNL     1     108.245  18.793  11.979  1.00  0.00    -0.227 OA
HETATM    4  N3  UNL     1     109.072  19.034  13.964  1.00  0.00    -0.235 N 
ATOM      5  H3  UNL     1     109.854  19.180  14.601  1.00  0.00     0.193 HD
HETATM    6  N4  UNL     1     107.901  18.919  14.413  1.00  0.00    -0.263 N 
ATOM      7  H4  UNL     1     107.531  17.970  14.448  1.00  0.00     0.190 HD
HETATM    8  C4  UNL     1     107.019  19.946  14.881  1.00  0.00     0.263 C 
HETATM    9  O2  UNL     1     107.289  21.166  14.917  1.00  0.00    -0.269 OA
ENDROOT
BRANCH   8  10
HETATM   10  C5  UNL     1     105.691  19.382  15.336  1.00  0.00     0.212 C 
BRANCH  10  11
HETATM   11  N5  UNL     1     105.148  18.674  14.270  1.00  0.00    -0.342 N 
ATOM     12  H5  UNL     1     104.575  19.244  13.647  1.00  0.00     0.163 HD
BRANCH  11  13
HETATM   13  C6  UNL     1     105.235  17.308  13.876  1.00  0.00     0.226 C 
HETATM   14  N6  UNL     1     104.178  16.377  14.025  1.00  0.00    -0.057 NA
BRANCH  13  15
HETATM   15  O3  UNL     1     106.330  16.839  13.342  1.00  0.00    -0.335 OA
ATOM     16  H3  UNL     1     106.347  15.969  12.961  1.00  0.00     0.220 HD
ENDBRANCH  13  15
ENDBRANCH  11  13
ENDBRANCH  10  11
BRANCH  10  17
HETATM   17  C7  UNL     1     105.836  18.713  16.646  1.00  0.00    -0.026 A 
HETATM   18  C8  UNL     1     107.038  18.688  17.330  1.00  0.00     0.010 A 
HETATM   19  C9  UNL     1     107.156  18.124  18.565  1.00  0.00     0.001 A 
HETATM   20  C10 UNL     1     106.072  17.545  19.203  1.00  0.00     0.000 A 
HETATM   21  C11 UNL     1     104.834  17.529  18.543  1.00  0.00     0.001 A 
HETATM   22  C12 UNL     1     104.764  18.117  17.298  1.00  0.00     0.010 A 
ENDBRANCH  10  17
ENDBRANCH   8  10
BRANCH   1  23
HETATM   23  N1  UNL     1     111.905  19.287  12.624  1.00  0.00    -0.219 N 
HETATM   24  C2  UNL     1     112.974  18.784  12.812  1.00  0.00     0.101 C 
HETATM   25  C1  UNL     1     113.349  17.405  12.982  1.00  0.00     0.091 C 
ATOM     26  H1  UNL     1     112.070  20.292  12.560  1.00  0.00     0.203 HD
BRANCH  24  27
HETATM   27  N7  UNL     1     113.904  19.902  13.329  1.00  0.00    -0.378 N 
HETATM   28  C13 UNL     1     113.437  21.237  13.285  1.00  0.00     0.150 C 
HETATM   29  C14 UNL     1     115.104  19.391  13.934  1.00  0.00     0.150 C 
ENDBRANCH  24  27
ENDBRANCH   1  23
TORSDOF 7
ENDMDL
MODEL 4
REMARK VINA RESULT: -7.844502003      0.820      1.655
REMARK  7 active torsions:
REMARK  status: ('A' for Active; 'I' for Inactive)
REMARK    1  A    between atoms: C2_2  and  N7_27 
REMARK    2  A    between atoms: N1_3  and  N2_5 
REMARK       I    between atoms: N2_5  and  C3_6 
REMARK       I    between atoms: C3_6  and  N3_8 
REMARK       I    between atoms: N4_10  and  C4_12 
REMARK    3  A    between atoms: C4_12  and  C5_14 
REMARK    4  A    between atoms: C5_14  and  N5_15 
REMARK    5  A    between atoms: C5_14  and  C7_21 
REMARK    6  A    between atoms: N5_15  and  C6_17 
REMARK    7  A    between atoms: C6_17  and  O3_19 
ROOT
HETATM    1  N2  UNL     1     106.827  17.952  12.174  1.00  0.00    -0.262 NA
HETATM    2  C3  UNL     1     105.746  17.367  12.778  1.00  0.00     0.431 C 
HETATM    3  O1  UNL     1     104.810  16.853  13.191  1.00  0.00    -0.227 OA
HETATM    4  N3  UNL     1     106.329  17.910  14.314  1.00  0.00    -0.235 N 
ATOM      5  H3  UNL     1     107.193  18.448  14.375  1.00  0.00     0.193 HD
HETATM    6  N4  UNL     1     105.678  17.635  15.358  1.00  0.00    -0.263 N 
ATOM      7  H4  UNL     1     105.778  16.682  15.704  1.00  0.00     0.190 HD
HETATM    8  C4  UNL     1     104.816  18.487  16.122  1.00  0.00     0.263 C 
HETATM    9  O2  UNL     1     104.566  19.682  15.859  1.00  0.00    -0.269 OA
ENDROOT
BRANCH   8  10
HETATM   10  C5  UNL     1     104.221  17.763  17.309  1.00  0.00     0.212 C 
BRANCH  10  11
HETATM   11  N5  UNL     1     103.720  16.548  16.855  1.00  0.00    -0.342 N 
ATOM     12  H5  UNL     1     104.414  15.969  16.382  1.00  0.00     0.163 HD
BRANCH  11  13
HETATM   13  C6  UNL     1     102.428  15.953  16.920  1.00  0.00     0.226 C 
HETATM   14  N6  UNL     1     101.533  16.130  18.003  1.00  0.00    -0.057 NA
BRANCH  13  15
HETATM   15  O3  UNL     1     101.997  15.192  15.950  1.00  0.00    -0.335 OA
ATOM     16  H3  UNL     1     101.335  15.507  15.347  1.00  0.00     0.220 HD
ENDBRANCH  13  15
ENDBRANCH  11  13
ENDBRANCH  10  11
BRANCH  10  17
HETATM   17  C7  UNL     1     105.167  17.772  18.445  1.00  0.00    -0.026 A 
HETATM   18  C8  UNL     1     104.806  17.334  19.707  1.00  0.00     0.010 A 
HETATM   19  C9  UNL     1     105.696  17.286  20.738  1.00  0.00     0.001 A 
HETATM   20  C10 UNL     1     107.015  17.673  20.575  1.00  0.00     0.000 A 
HETATM   21  C11 UNL     1     107.427  18.142  19.318  1.00  0.00     0.001 A 
HETATM   22  C12 UNL     1     106.492  18.167  18.305  1.00  0.00     0.010 A 
ENDBRANCH  10  17
ENDBRANCH   8  10
BRANCH   1  23
HETATM   23  N1  UNL     1     107.789  18.471  11.587  1.00  0.00    -0.219 N 
HETATM   24  C2  UNL     1     108.891  18.930  11.669  1.00  0.00     0.101 C 
HETATM   25  C1  UNL     1     109.758  19.101  12.804  1.00  0.00     0.091 C 
ATOM     26  H1  UNL     1     107.525  18.533  10.604  1.00  0.00     0.203 HD
BRANCH  24  27
HETATM   27  N7  UNL     1     109.109  19.781  10.400  1.00  0.00    -0.378 N 
HETATM   28  C13 UNL     1     108.461  19.385   9.207  1.00  0.00     0.150 C 
HETATM   29  C14 UNL     1     109.857  20.981  10.658  1.00  0.00     0.150 C 
ENDBRANCH  24  27
ENDBRANCH   1  23
TORSDOF 7
ENDMDL
MODEL 5
REMARK VINA RESULT: -7.804830500      0.930      1.304
REMARK  7 active torsions:
REMARK  status: ('A' for Active; 'I' for Inactive)
REMARK    1  A    between atoms: C2_2  and  N7_27 
REMARK    2  A    between atoms: N1_3  and  N2_5 
REMARK       I    between atoms: N2_5  and  C3_6 
REMARK       I    between atoms: C3_6  and  N3_8 
REMARK       I    between atoms: N4_10  and  C4_12 
REMARK    3  A    between atoms: C4_12  and  C5_14 
REMARK    4  A    between atoms: C5_14  and  N5_15 
REMARK    5  A    between atoms: C5_14  and  C7_21 
REMARK    6  A    between atoms: N5_15  and  C6_17 
REMARK    7  A    between atoms: C6_17  and  O3_19 
ROOT
HETATM    1  N2  UNL     1     106.149  17.685  12.455  1.00  0.00    -0.262 NA
HETATM    2  C3  UNL     1     105.185  17.055  13.196  1.00  0.00     0.431 C 
HETATM    3  O1  UNL     1     104.343  16.492  13.730  1.00  0.00    -0.227 OA
HETATM    4  N3  UNL     1     105.827  17.788  14.626  1.00  0.00    -0.235 N 
ATOM      5  H3  UNL     1     106.632  18.411  14.566  1.00  0.00     0.193 HD
HETATM    6  N4  UNL     1     105.292  17.548  15.741  1.00  0.00    -0.263 N 
ATOM      7  H4  UNL     1     105.517  16.644  16.155  1.00  0.00     0.190 HD
HETATM    8  C4  UNL     1     104.409  18.378  16.505  1.00  0.00     0.263 C 
HETATM    9  O2  UNL     1     104.016  19.515  16.167  1.00  0.00    -0.269 OA
ENDROOT
BRANCH   8  10
HETATM   10  C5  UNL     1     103.987  17.710  17.795  1.00  0.00     0.212 C 
BRANCH  10  11
HETATM   11  N5  UNL     1     103.356  16.516  17.466  1.00  0.00    -0.342 N 
ATOM     12  H5  UNL     1     103.932  15.890  16.903  1.00  0.00     0.163 HD
BRANCH  11  13
HETATM   13  C6  UNL     1     102.064  15.995  17.759  1.00  0.00     0.226 C 
HETATM   14  N6  UNL     1     100.954  16.103  16.886  1.00  0.00    -0.057 NA
BRANCH  13  15
HETATM   15  O3  UNL     1     101.838  15.375  18.886  1.00  0.00    -0.335 OA
ATOM     16  H3  UNL     1     101.009  15.479  19.337  1.00  0.00     0.220 HD
ENDBRANCH  13  15
ENDBRANCH  11  13
ENDBRANCH  10  11
BRANCH  10  17
HETATM   17  C7  UNL     1     105.111  17.690  18.756  1.00  0.00    -0.026 A 
HETATM   18  C8  UNL     1     106.376  18.137  18.418  1.00  0.00     0.010 A 
HETATM   19  C9  UNL     1     107.395  18.174  19.322  1.00  0.00     0.001 A 
HETATM   20  C10 UNL     1     107.216  17.765  20.633  1.00  0.00     0.000 A 
HETATM   21  C11 UNL     1     105.956  17.286  21.021  1.00  0.00     0.001 A 
HETATM   22  C12 UNL     1     104.955  17.272  20.072  1.00  0.00     0.010 A 
ENDBRANCH  10  17
ENDBRANCH   8  10
BRANCH   1  23
HETATM   23  N1  UNL     1     107.002  18.239  11.745  1.00  0.00    -0.219 N 
HETATM   24  C2  UNL     1     108.024  18.859  11.698  1.00  0.00     0.101 C 
HETATM   25  C1  UNL     1     108.891  19.327  12.745  1.00  0.00     0.091 C 
ATOM     26  H1  UNL     1     106.701  18.109  10.779  1.00  0.00     0.203 HD
BRANCH  24  27
HETATM   27  N7  UNL     1     108.071  19.525  10.306  1.00  0.00    -0.378 N 
HETATM   28  C13 UNL     1     108.597  20.834  10.206  1.00  0.00     0.150 C 
HETATM   29  C14 UNL     1     107.689  18.629   9.248  1.00  0.00     0.150 C 
ENDBRANCH  24  27
ENDBRANCH   1  23
TORSDOF 7
ENDMDL
