MODEL 1
REMARK VINA RESULT: -6.962628942      0.000      0.000
REMARK  6 active torsions:
REMARK  status: ('A' for Active; 'I' for Inactive)
REMARK    1  A    between atoms: C4_5  and  C5_6 
REMARK    2  A    between atoms: C5_6  and  N2_7 
REMARK       I    between atoms: N2_7  and  C6_9 
REMARK       I    between atoms: C6_9  and  N3_11 
REMARK    3  A    between atoms: N3_11  and  C7_13 
REMARK    4  A    between atoms: C8_15  and  C9_16 
REMARK    5  A    between atoms: C10_19  and  O4_20 
REMARK    6  A    between atoms: C11_22  and  O5_23 
ROOT
HETATM    1  N2  UNL     1     105.621  17.947  17.600  1.00  0.00    -0.339 N 
ATOM      2  H2  UNL     1     104.959  17.328  18.069  1.00  0.00     0.164 HD
HETATM    3  C6  UNL     1     105.202  18.697  16.468  1.00  0.00     0.317 C 
HETATM    4  O1  UNL     1     105.998  19.473  15.871  1.00  0.00    -0.247 OA
HETATM    5  N3  UNL     1     103.864  18.552  16.021  1.00  0.00    -0.327 N 
ATOM      6  H3  UNL     1     103.223  17.923  16.503  1.00  0.00     0.165 HD
ENDROOT
BRANCH   5   7
HETATM    7  C7  UNL     1     103.422  19.313  14.868  1.00  0.00     0.180 C 
HETATM    8  S1  UNL     1     102.783  20.900  15.489  1.00  0.00    -0.123 SA
HETATM    9  C8  UNL     1     101.164  20.899  14.612  1.00  0.00     0.181 C 
HETATM   10  C10 UNL     1     101.518  19.901  13.500  1.00  0.00     0.173 C 
HETATM   11  C11 UNL     1     102.132  18.727  14.277  1.00  0.00     0.181 C 
BRANCH   9  12
HETATM   12  C9  UNL     1     100.907  22.240  14.084  1.00  0.00     0.190 C 
HETATM   13  O2  UNL     1     100.318  22.402  13.000  1.00  0.00    -0.647 OA
HETATM   14  O3  UNL     1     101.341  23.328  14.833  1.00  0.00    -0.647 OA
ENDBRANCH   9  12
BRANCH  10  15
HETATM   15  O4  UNL     1     100.342  19.498  12.923  1.00  0.00    -0.391 OA
ATOM     16  H4  UNL     1     100.559  18.860  12.253  1.00  0.00     0.210 HD
ENDBRANCH  10  15
BRANCH  11  17
HETATM   17  O5  UNL     1     101.251  18.431  15.298  1.00  0.00    -0.390 OA
ATOM     18  H5  UNL     1     100.889  17.563  15.161  1.00  0.00     0.210 HD
ENDBRANCH  11  17
ENDBRANCH   5   7
BRANCH   1  19
HETATM   19  C5  UNL     1     106.963  18.051  18.092  1.00  0.00     0.163 C 
BRANCH  19  20
HETATM   20  C4  UNL     1     106.943  17.923  19.567  1.00  0.00    -0.038 A 
HETATM   21  C3  UNL     1     108.083  18.315  20.246  1.00  0.00     0.026 A 
HETATM   22  C2  UNL     1     108.083  18.199  21.617  1.00  0.00     0.090 A 
HETATM   23  N1  UNL     1     107.033  17.728  22.288  1.00  0.00    -0.371 N 
HETATM   24  C1  UNL     1     107.126  17.641  23.727  1.00  0.00     0.154 C 
HETATM   25  C13 UNL     1     105.924  17.346  21.631  1.00  0.00     0.090 A 
HETATM   26  C12 UNL     1     105.855  17.437  20.247  1.00  0.00     0.026 A 
ENDBRANCH  19  20
ENDBRANCH   1  19
TORSDOF 6
ENDMDL
MODEL 2
REMARK VINA RESULT: -6.829053745      4.224      5.634
REMARK  6 active torsions:
REMARK  status: ('A' for Active; 'I' for Inactive)
REMARK    1  A    between atoms: C4_5  and  C5_6 
REMARK    2  A    between atoms: C5_6  and  N2_7 
REMARK       I    between atoms: N2_7  and  C6_9 
REMARK       I    between atoms: C6_9  and  N3_11 
REMARK    3  A    between atoms: N3_11  and  C7_13 
REMARK    4  A    between atoms: C8_15  and  C9_16 
REMARK    5  A    between atoms: C10_19  and  O4_20 
REMARK    6  A    between atoms: C11_22  and  O5_23 
ROOT
HETATM    1  N2  UNL     1     106.773  17.991  16.805  1.00  0.00    -0.339 N 
ATOM      2  H2  UNL     1     107.574  17.385  16.981  1.00  0.00     0.164 HD
HETATM    3  C6  UNL     1     106.724  18.763  15.613  1.00  0.00     0.317 C 
HETATM    4  O1  UNL     1     105.744  19.518  15.367  1.00  0.00    -0.247 OA
HETATM    5  N3  UNL     1     107.807  18.668  14.703  1.00  0.00    -0.327 N 
ATOM      6  H3  UNL     1     108.600  18.059  14.905  1.00  0.00     0.165 HD
ENDROOT
BRANCH   5   7
HETATM    7  C7  UNL     1     107.771  19.449  13.481  1.00  0.00     0.180 C 
HETATM    8  S1  UNL     1     106.896  18.451  12.236  1.00  0.00    -0.123 SA
HETATM    9  C8  UNL     1     108.125  18.585  10.872  1.00  0.00     0.181 C 
HETATM   10  C10 UNL     1     108.853  19.847  11.357  1.00  0.00     0.173 C 
HETATM   11  C11 UNL     1     109.158  19.523  12.827  1.00  0.00     0.181 C 
BRANCH   9  12
HETATM   12  C9  UNL     1     107.416  18.812   9.611  1.00  0.00     0.190 C 
HETATM   13  O2  UNL     1     107.672  19.798   8.898  1.00  0.00    -0.647 OA
HETATM   14  O3  UNL     1     106.446  17.888   9.236  1.00  0.00    -0.647 OA
ENDBRANCH   9  12
BRANCH  10  15
HETATM   15  O4  UNL     1     110.029  19.935  10.658  1.00  0.00    -0.391 OA
ATOM     16  H4  UNL     1     110.252  20.856  10.593  1.00  0.00     0.210 HD
ENDBRANCH  10  15
BRANCH  11  17
HETATM   17  O5  UNL     1     109.739  18.270  12.838  1.00  0.00    -0.390 OA
ATOM     18  H5  UNL     1     110.505  18.272  12.276  1.00  0.00     0.210 HD
ENDBRANCH  11  17
ENDBRANCH   5   7
BRANCH   1  19
HETATM   19  C5  UNL     1     105.708  18.053  17.761  1.00  0.00     0.163 C 
BRANCH  19  20
HETATM   20  C4  UNL     1     106.280  17.935  19.122  1.00  0.00    -0.038 A 
HETATM   21  C3  UNL     1     105.440  17.466  20.117  1.00  0.00     0.026 A 
HETATM   22  C2  UNL     1     105.954  17.353  21.388  1.00  0.00     0.090 A 
HETATM   23  N1  UNL     1     107.214  17.679  21.674  1.00  0.00    -0.371 N 
HETATM   24  C1  UNL     1     107.665  17.528  23.038  1.00  0.00     0.154 C 
HETATM   25  C13 UNL     1     108.032  18.135  20.710  1.00  0.00     0.090 A 
HETATM   26  C12 UNL     1     107.579  18.273  19.404  1.00  0.00     0.026 A 
ENDBRANCH  19  20
ENDBRANCH   1  19
TORSDOF 6
ENDMDL
MODEL 3
REMARK VINA RESULT: -6.718426073      2.000      2.861
REMARK  6 active torsions:
REMARK  status: ('A' for Active; 'I' for Inactive)
REMARK    1  A    between atoms: C4_5  and  C5_6 
REMARK    2  A    between atoms: C5_6  and  N2_7 
REMARK       I    between atoms: N2_7  and  C6_9 
REMARK       I    between atoms: C6_9  and  N3_11 
REMARK    3  A    between atoms: N3_11  and  C7_13 
REMARK    4  A    between atoms: C8_15  and  C9_16 
REMARK    5  A    between atoms: C10_19  and  O4_20 
REMARK    6  A    between atoms: C11_22  and  O5_23 
ROOT
HETATM    1  N2  UNL     1     105.228  18.661  16.743  1.00  0.00    -0.339 N 
ATOM      2  H2  UNL     1     106.131  19.137  16.750  1.00  0.00     0.164 HD
HETATM    3  C6  UNL     1     104.130  19.247  16.057  1.00  0.00     0.317 C 
HETATM    4  O1  UNL     1     103.004  18.680  16.028  1.00  0.00    -0.247 OA
HETATM    5  N3  UNL     1     104.328  20.489  15.403  1.00  0.00    -0.327 N 
ATOM      6  H3  UNL     1     105.239  20.948  15.430  1.00  0.00     0.165 HD
ENDROOT
BRANCH   5   7
HETATM    7  C7  UNL     1     103.217  21.099  14.697  1.00  0.00     0.180 C 
HETATM    8  S1  UNL     1     103.859  21.689  13.100  1.00  0.00    -0.123 SA
HETATM    9  C8  UNL     1     103.206  23.408  13.167  1.00  0.00     0.181 C 
HETATM   10  C10 UNL     1     102.093  23.180  14.200  1.00  0.00     0.173 C 
HETATM   11  C11 UNL     1     102.823  22.440  15.331  1.00  0.00     0.181 C 
BRANCH   9  12
HETATM   12  C9  UNL     1     102.668  23.766  11.853  1.00  0.00     0.190 C 
HETATM   13  O2  UNL     1     101.461  23.620  11.591  1.00  0.00    -0.647 OA
HETATM   14  O3  UNL     1     103.550  24.276  10.906  1.00  0.00    -0.647 OA
ENDBRANCH   9  12
BRANCH  10  15
HETATM   15  O4  UNL     1     101.691  24.411  14.649  1.00  0.00    -0.391 OA
ATOM     16  H4  UNL     1     101.812  24.423  15.591  1.00  0.00     0.210 HD
ENDBRANCH  10  15
BRANCH  11  17
HETATM   17  O5  UNL     1     103.962  23.172  15.604  1.00  0.00    -0.390 OA
ATOM     18  H5  UNL     1     104.492  23.238  14.819  1.00  0.00     0.210 HD
ENDBRANCH  11  17
ENDBRANCH   5   7
BRANCH   1  19
HETATM   19  C5  UNL     1     105.082  17.409  17.424  1.00  0.00     0.163 C 
BRANCH  19  20
HETATM   20  C4  UNL     1     105.735  17.508  18.750  1.00  0.00    -0.038 A 
HETATM   21  C3  UNL     1     107.045  17.952  18.772  1.00  0.00     0.026 A 
HETATM   22  C2  UNL     1     107.669  18.046  19.995  1.00  0.00     0.090 A 
HETATM   23  N1  UNL     1     107.051  17.725  21.130  1.00  0.00    -0.371 N 
HETATM   24  C1  UNL     1     107.787  17.855  22.367  1.00  0.00     0.154 C 
HETATM   25  C13 UNL     1     105.778  17.293  21.113  1.00  0.00     0.090 A 
HETATM   26  C12 UNL     1     105.089  17.175  19.913  1.00  0.00     0.026 A 
ENDBRANCH  19  20
ENDBRANCH   1  19
TORSDOF 6
ENDMDL
MODEL 4
REMARK VINA RESULT: -6.709379198      1.661      2.053
REMARK  6 active torsions:
REMARK  status: ('A' for Active; 'I' for Inactive)
REMARK    1  A    between atoms: C4_5  and  C5_6 
REMARK    2  A    between atoms: C5_6  and  N2_7 
REMARK       I    between atoms: N2_7  and  C6_9 
REMARK       I    between atoms: C6_9  and  N3_11 
REMARK    3  A    between atoms: N3_11  and  C7_13 
REMARK    4  A    between atoms: C8_15  and  C9_16 
REMARK    5  A    between atoms: C10_19  and  O4_20 
REMARK    6  A    between atoms: C11_22  and  O5_23 
ROOT
HETATM    1  N2  UNL     1     104.321  18.013  16.855  1.00  0.00    -0.339 N 
ATOM      2  H2  UNL     1     103.794  17.671  17.658  1.00  0.00     0.164 HD
HETATM    3  C6  UNL     1     103.632  18.394  15.672  1.00  0.00     0.317 C 
HETATM    4  O1  UNL     1     104.257  18.825  14.664  1.00  0.00    -0.247 OA
HETATM    5  N3  UNL     1     102.219  18.278  15.647  1.00  0.00    -0.327 N 
ATOM      6  H3  UNL     1     101.715  17.927  16.461  1.00  0.00     0.165 HD
ENDROOT
BRANCH   5   7
HETATM    7  C7  UNL     1     101.501  18.666  14.448  1.00  0.00     0.180 C 
HETATM    8  S1  UNL     1     101.014  20.406  14.656  1.00  0.00    -0.123 SA
HETATM    9  C8  UNL     1      99.231  20.239  14.229  1.00  0.00     0.181 C 
HETATM   10  C10 UNL     1      99.316  18.920  13.447  1.00  0.00     0.173 C 
HETATM   11  C11 UNL     1     100.113  18.012  14.394  1.00  0.00     0.181 C 
BRANCH   9  12
HETATM   12  C9  UNL     1      98.838  21.360  13.373  1.00  0.00     0.190 C 
HETATM   13  O2  UNL     1      98.875  22.531  13.789  1.00  0.00    -0.647 OA
HETATM   14  O3  UNL     1      98.422  21.072  12.077  1.00  0.00    -0.647 OA
ENDBRANCH   9  12
BRANCH  10  15
HETATM   15  O4  UNL     1      98.040  18.436  13.321  1.00  0.00    -0.391 OA
ATOM     16  H4  UNL     1      97.451  19.094  13.670  1.00  0.00     0.210 HD
ENDBRANCH  10  15
BRANCH  11  17
HETATM   17  O5  UNL     1      99.509  18.111  15.632  1.00  0.00    -0.390 OA
ATOM     18  H5  UNL     1     100.146  17.920  16.311  1.00  0.00     0.210 HD
ENDBRANCH  11  17
ENDBRANCH   5   7
BRANCH   1  19
HETATM   19  C5  UNL     1     105.749  18.106  16.932  1.00  0.00     0.163 C 
BRANCH  19  20
HETATM   20  C4  UNL     1     106.161  17.958  18.346  1.00  0.00    -0.038 A 
HETATM   21  C3  UNL     1     107.462  18.309  18.660  1.00  0.00     0.026 A 
HETATM   22  C2  UNL     1     107.864  18.175  19.969  1.00  0.00     0.090 A 
HETATM   23  N1  UNL     1     107.045  17.723  20.917  1.00  0.00    -0.371 N 
HETATM   24  C1  UNL     1     107.556  17.613  22.265  1.00  0.00     0.154 C 
HETATM   25  C13 UNL     1     105.781  17.380  20.616  1.00  0.00     0.090 A 
HETATM   26  C12 UNL     1     105.309  17.491  19.315  1.00  0.00     0.026 A 
ENDBRANCH  19  20
ENDBRANCH   1  19
TORSDOF 6
ENDMDL
MODEL 5
REMARK VINA RESULT: -6.686454288      2.315      3.407
REMARK  6 active torsions:
REMARK  status: ('A' for Active; 'I' for Inactive)
REMARK    1  A    between atoms: C4_5  and  C5_6 
REMARK    2  A    between atoms: C5_6  and  N2_7 
REMARK       I    between atoms: N2_7  and  C6_9 
REMARK       I    between atoms: C6_9  and  N3_11 
REMARK    3  A    between atoms: N3_11  and  C7_13 
REMARK    4  A    between atoms: C8_15  and  C9_16 
REMARK    5  A    between atoms: C10_19  and  O4_20 
REMARK    6  A    between atoms: C11_22  and  O5_23 
ROOT
HETATM    1  N2  UNL     1     107.443  17.823  18.563  1.00  0.00    -0.339 N 
ATOM      2  H2  UNL     1     106.934  16.941  18.493  1.00  0.00     0.164 HD
HETATM    3  C6  UNL     1     107.355  18.770  17.507  1.00  0.00     0.317 C 
HETATM    4  O1  UNL     1     107.970  19.870  17.567  1.00  0.00    -0.247 OA
HETATM    5  N3  UNL     1     106.558  18.451  16.379  1.00  0.00    -0.327 N 
ATOM      6  H3  UNL     1     106.063  17.560  16.330  1.00  0.00     0.165 HD
ENDROOT
BRANCH   5   7
HETATM    7  C7  UNL     1     106.456  19.409  15.295  1.00  0.00     0.180 C 
HETATM    8  S1  UNL     1     104.684  19.678  14.984  1.00  0.00    -0.123 SA
HETATM    9  C8  UNL     1     104.688  19.418  13.161  1.00  0.00     0.181 C 
HETATM   10  C10 UNL     1     106.182  19.672  12.908  1.00  0.00     0.173 C 
HETATM   11  C11 UNL     1     106.863  18.779  13.955  1.00  0.00     0.181 C 
BRANCH   9  12
HETATM   12  C9  UNL     1     103.845  20.436  12.532  1.00  0.00     0.190 C 
HETATM   13  O2  UNL     1     104.335  21.315  11.801  1.00  0.00    -0.647 OA
HETATM   14  O3  UNL     1     102.477  20.388  12.777  1.00  0.00    -0.647 OA
ENDBRANCH   9  12
BRANCH  10  15
HETATM   15  O4  UNL     1     106.470  19.201  11.653  1.00  0.00    -0.391 OA
ATOM     16  H4  UNL     1     107.320  19.546  11.409  1.00  0.00     0.210 HD
ENDBRANCH  10  15
BRANCH  11  17
HETATM   17  O5  UNL     1     106.285  17.530  13.840  1.00  0.00    -0.390 OA
ATOM     18  H5  UNL     1     106.931  16.911  13.521  1.00  0.00     0.210 HD
ENDBRANCH  11  17
ENDBRANCH   5   7
BRANCH   1  19
HETATM   19  C5  UNL     1     108.238  18.092  19.724  1.00  0.00     0.163 C 
BRANCH  19  20
HETATM   20  C4  UNL     1     107.406  17.884  20.931  1.00  0.00    -0.038 A 
HETATM   21  C3  UNL     1     106.109  17.446  20.731  1.00  0.00     0.026 A 
HETATM   22  C2  UNL     1     105.320  17.250  21.841  1.00  0.00     0.090 A 
HETATM   23  N1  UNL     1     105.770  17.469  23.075  1.00  0.00    -0.371 N 
HETATM   24  C1  UNL     1     104.869  17.237  24.181  1.00  0.00     0.154 C 
HETATM   25  C13 UNL     1     107.030  17.894  23.274  1.00  0.00     0.090 A 
HETATM   26  C12 UNL     1     107.880  18.112  22.198  1.00  0.00     0.026 A 
ENDBRANCH  19  20
ENDBRANCH   1  19
TORSDOF 6
ENDMDL
