MODEL 1
REMARK VINA RESULT: -7.379443416      0.000      0.000
REMARK  6 active torsions:
REMARK  status: ('A' for Active; 'I' for Inactive)
REMARK    1  A    between atoms: C2_2  and  C4_4 
REMARK       I    between atoms: C4_4  and  N1_6 
REMARK    2  A    between atoms: N1_6  and  C5_8 
REMARK    3  A    between atoms: C5_8  and  C6_9 
REMARK    4  A    between atoms: C5_8  and  C7_16 
REMARK       I    between atoms: C6_9  and  N2_11 
REMARK    5  A    between atoms: N2_11  and  N3_13 
REMARK    6  A    between atoms: C16_25  and  O3_26 
ROOT
HETATM    1  C5  UNL     1     105.850  17.667  16.786  1.00  0.00     0.183 C 
ENDROOT
BRANCH   1   2
HETATM    2  N1  UNL     1     105.795  18.030  18.236  1.00  0.00    -0.344 N 
HETATM    3  C4  UNL     1     105.771  17.022  19.231  1.00  0.00     0.247 C 
HETATM    4  O1  UNL     1     105.796  15.827  18.827  1.00  0.00    -0.268 OA
ATOM      5  H1  UNL     1     105.774  19.012  18.511  1.00  0.00     0.163 HD
BRANCH   3   6
HETATM    6  C2  UNL     1     105.723  17.228  20.648  1.00  0.00    -0.004 C 
HETATM    7  C1  UNL     1     104.606  17.037  21.307  1.00  0.00     0.024 C 
HETATM    8  C3  UNL     1     106.932  17.662  21.371  1.00  0.00     0.053 C 
ENDBRANCH   3   6
ENDBRANCH   1   2
BRANCH   1   9
HETATM    9  C6  UNL     1     106.537  18.728  16.061  1.00  0.00     0.258 C 
HETATM   10  O2  UNL     1     106.020  19.911  16.025  1.00  0.00    -0.269 OA
HETATM   11  N2  UNL     1     107.745  18.590  15.385  1.00  0.00    -0.275 N 
ATOM     12  H2  UNL     1     108.213  17.683  15.374  1.00  0.00     0.189 HD
BRANCH  11  13
HETATM   13  N3  UNL     1     108.324  19.666  14.725  1.00  0.00    -0.343 N 
ATOM     14  H32 UNL     1     108.207  20.599  15.121  1.00  0.00     0.176 HD
ATOM     15  H31 UNL     1     108.854  19.531  13.865  1.00  0.00     0.176 HD
ENDBRANCH  11  13
ENDBRANCH   1   9
BRANCH   1  16
HETATM   16  C7  UNL     1     104.512  17.211  16.350  1.00  0.00     0.026 C 
HETATM   17  C8  UNL     1     104.209  17.148  14.895  1.00  0.00    -0.007 C 
HETATM   18  C9  UNL     1     103.491  18.300  14.290  1.00  0.00     0.012 C 
HETATM   19  C15 UNL     1     103.186  15.971  14.765  1.00  0.00     0.012 C 
HETATM   20  C10 UNL     1     102.303  18.723  15.125  1.00  0.00     0.015 C 
HETATM   21  C11 UNL     1     102.633  18.905  16.567  1.00  0.00     0.012 C 
HETATM   22  C16 UNL     1     101.303  17.570  15.028  1.00  0.00     0.126 C 
HETATM   23  C12 UNL     1     103.327  17.704  17.134  1.00  0.00    -0.007 C 
HETATM   24  C13 UNL     1     102.278  16.574  17.019  1.00  0.00     0.012 C 
HETATM   25  C14 UNL     1     101.973  16.336  15.559  1.00  0.00     0.015 C 
BRANCH  22  26
HETATM   26  O3  UNL     1     100.196  17.829  15.836  1.00  0.00    -0.395 OA
ATOM     27  H3  UNL     1      99.406  17.852  15.308  1.00  0.00     0.210 HD
ENDBRANCH  22  26
ENDBRANCH   1  16
TORSDOF 6
ENDMDL
MODEL 2
REMARK VINA RESULT: -7.000254149      0.874      1.990
REMARK  6 active torsions:
REMARK  status: ('A' for Active; 'I' for Inactive)
REMARK    1  A    between atoms: C2_2  and  C4_4 
REMARK       I    between atoms: C4_4  and  N1_6 
REMARK    2  A    between atoms: N1_6  and  C5_8 
REMARK    3  A    between atoms: C5_8  and  C6_9 
REMARK    4  A    between atoms: C5_8  and  C7_16 
REMARK       I    between atoms: C6_9  and  N2_11 
REMARK    5  A    between atoms: N2_11  and  N3_13 
REMARK    6  A    between atoms: C16_25  and  O3_26 
ROOT
HETATM    1  C5  UNL     1     105.616  17.987  16.391  1.00  0.00     0.183 C 
ENDROOT
BRANCH   1   2
HETATM    2  N1  UNL     1     105.870  18.289  17.834  1.00  0.00    -0.344 N 
HETATM    3  C4  UNL     1     105.910  17.247  18.792  1.00  0.00     0.247 C 
HETATM    4  O1  UNL     1     105.719  16.076  18.364  1.00  0.00    -0.268 OA
ATOM      5  H1  UNL     1     106.014  19.254  18.130  1.00  0.00     0.163 HD
BRANCH   3   6
HETATM    6  C2  UNL     1     106.145  17.394  20.198  1.00  0.00    -0.004 C 
HETATM    7  C1  UNL     1     105.188  17.147  21.059  1.00  0.00     0.024 C 
HETATM    8  C3  UNL     1     107.467  17.831  20.682  1.00  0.00     0.053 C 
ENDBRANCH   3   6
ENDBRANCH   1   2
BRANCH   1   9
HETATM    9  C6  UNL     1     106.675  18.591  15.591  1.00  0.00     0.258 C 
HETATM   10  O2  UNL     1     107.299  19.628  16.041  1.00  0.00    -0.269 OA
HETATM   11  N2  UNL     1     107.100  18.139  14.346  1.00  0.00    -0.275 N 
ATOM     12  H2  UNL     1     106.653  17.322  13.929  1.00  0.00     0.189 HD
BRANCH  11  13
HETATM   13  N3  UNL     1     108.123  18.783  13.662  1.00  0.00    -0.343 N 
ATOM     14  H32 UNL     1     108.859  18.216  13.242  1.00  0.00     0.176 HD
ATOM     15  H31 UNL     1     108.141  19.799  13.578  1.00  0.00     0.176 HD
ENDBRANCH  11  13
ENDBRANCH   1   9
BRANCH   1  16
HETATM   16  C7  UNL     1     104.197  18.263  16.081  1.00  0.00     0.026 C 
HETATM   17  C8  UNL     1     103.208  18.301  17.192  1.00  0.00    -0.007 C 
HETATM   18  C9  UNL     1     102.418  17.069  17.453  1.00  0.00     0.012 C 
HETATM   19  C15 UNL     1     102.131  19.331  16.714  1.00  0.00     0.012 C 
HETATM   20  C10 UNL     1     101.855  16.481  16.178  1.00  0.00     0.015 C 
HETATM   21  C11 UNL     1     102.874  16.330  15.101  1.00  0.00     0.012 C 
HETATM   22  C16 UNL     1     100.817  17.490  15.685  1.00  0.00     0.126 C 
HETATM   23  C12 UNL     1     103.619  17.607  14.857  1.00  0.00    -0.007 C 
HETATM   24  C13 UNL     1     102.532  18.587  14.357  1.00  0.00     0.012 C 
HETATM   25  C14 UNL     1     101.520  18.797  15.459  1.00  0.00     0.015 C 
BRANCH  22  26
HETATM   26  O3  UNL     1     100.292  17.076  14.462  1.00  0.00    -0.395 OA
ATOM     27  H3  UNL     1      99.377  16.841  14.563  1.00  0.00     0.210 HD
ENDBRANCH  22  26
ENDBRANCH   1  16
TORSDOF 6
ENDMDL
MODEL 3
REMARK VINA RESULT: -6.983269078      2.175      4.397
REMARK  6 active torsions:
REMARK  status: ('A' for Active; 'I' for Inactive)
REMARK    1  A    between atoms: C2_2  and  C4_4 
REMARK       I    between atoms: C4_4  and  N1_6 
REMARK    2  A    between atoms: N1_6  and  C5_8 
REMARK    3  A    between atoms: C5_8  and  C6_9 
REMARK    4  A    between atoms: C5_8  and  C7_16 
REMARK       I    between atoms: C6_9  and  N2_11 
REMARK    5  A    between atoms: N2_11  and  N3_13 
REMARK    6  A    between atoms: C16_25  and  O3_26 
ROOT
HETATM    1  C5  UNL     1     106.234  18.657  15.769  1.00  0.00     0.183 C 
ENDROOT
BRANCH   1   2
HETATM    2  N1  UNL     1     107.048  18.246  14.583  1.00  0.00    -0.344 N 
HETATM    3  C4  UNL     1     107.367  19.181  13.569  1.00  0.00     0.247 C 
HETATM    4  O1  UNL     1     106.930  20.355  13.723  1.00  0.00    -0.268 OA
ATOM      5  H1  UNL     1     107.375  17.283  14.503  1.00  0.00     0.163 HD
BRANCH   3   6
HETATM    6  C2  UNL     1     108.138  18.925  12.388  1.00  0.00    -0.004 C 
HETATM    7  C1  UNL     1     109.446  18.995  12.423  1.00  0.00     0.024 C 
HETATM    8  C3  UNL     1     107.458  18.586  11.124  1.00  0.00     0.053 C 
ENDBRANCH   3   6
ENDBRANCH   1   2
BRANCH   1   9
HETATM    9  C6  UNL     1     107.086  18.642  16.952  1.00  0.00     0.258 C 
HETATM   10  O2  UNL     1     106.810  17.840  17.924  1.00  0.00    -0.269 OA
HETATM   11  N2  UNL     1     108.216  19.432  17.139  1.00  0.00    -0.275 N 
ATOM     12  H2  UNL     1     108.497  20.088  16.410  1.00  0.00     0.189 HD
BRANCH  11  13
HETATM   13  N3  UNL     1     108.967  19.342  18.304  1.00  0.00    -0.343 N 
ATOM     14  H32 UNL     1     108.998  18.448  18.795  1.00  0.00     0.176 HD
ATOM     15  H31 UNL     1     109.478  20.148  18.663  1.00  0.00     0.176 HD
ENDBRANCH  11  13
ENDBRANCH   1   9
BRANCH   1  16
HETATM   16  C7  UNL     1     104.957  17.912  15.761  1.00  0.00     0.026 C 
HETATM   17  C8  UNL     1     104.321  17.580  14.458  1.00  0.00    -0.007 C 
HETATM   18  C9  UNL     1     103.249  18.483  13.964  1.00  0.00     0.012 C 
HETATM   19  C15 UNL     1     103.569  16.234  14.727  1.00  0.00     0.012 C 
HETATM   20  C10 UNL     1     102.245  18.808  15.047  1.00  0.00     0.015 C 
HETATM   21  C11 UNL     1     102.878  19.259  16.319  1.00  0.00     0.012 C 
HETATM   22  C16 UNL     1     101.518  17.495  15.339  1.00  0.00     0.126 C 
HETATM   23  C12 UNL     1     103.928  18.298  16.788  1.00  0.00    -0.007 C 
HETATM   24  C13 UNL     1     103.145  16.995  17.075  1.00  0.00     0.012 C 
HETATM   25  C14 UNL     1     102.544  16.493  15.783  1.00  0.00     0.015 C 
BRANCH  22  26
HETATM   26  O3  UNL     1     100.618  17.671  16.390  1.00  0.00    -0.395 OA
ATOM     27  H3  UNL     1     101.090  17.781  17.207  1.00  0.00     0.210 HD
ENDBRANCH  22  26
ENDBRANCH   1  16
TORSDOF 6
ENDMDL
MODEL 4
REMARK VINA RESULT: -6.976684480      0.863      1.515
REMARK  6 active torsions:
REMARK  status: ('A' for Active; 'I' for Inactive)
REMARK    1  A    between atoms: C2_2  and  C4_4 
REMARK       I    between atoms: C4_4  and  N1_6 
REMARK    2  A    between atoms: N1_6  and  C5_8 
REMARK    3  A    between atoms: C5_8  and  C6_9 
REMARK    4  A    between atoms: C5_8  and  C7_16 
REMARK       I    between atoms: C6_9  and  N2_11 
REMARK    5  A    between atoms: N2_11  and  N3_13 
REMARK    6  A    between atoms: C16_25  and  O3_26 
ROOT
HETATM    1  C5  UNL     1     105.826  17.671  16.755  1.00  0.00     0.183 C 
ENDROOT
BRANCH   1   2
HETATM    2  N1  UNL     1     105.532  17.975  18.189  1.00  0.00    -0.344 N 
HETATM    3  C4  UNL     1     105.502  16.939  19.154  1.00  0.00     0.247 C 
HETATM    4  O1  UNL     1     105.730  15.770  18.738  1.00  0.00    -0.268 OA
ATOM      5  H1  UNL     1     105.351  18.937  18.476  1.00  0.00     0.163 HD
BRANCH   3   6
HETATM    6  C2  UNL     1     105.239  17.089  20.555  1.00  0.00    -0.004 C 
HETATM    7  C1  UNL     1     106.208  17.402  21.380  1.00  0.00     0.024 C 
HETATM    8  C3  UNL     1     103.874  16.885  21.075  1.00  0.00     0.053 C 
ENDBRANCH   3   6
ENDBRANCH   1   2
BRANCH   1   9
HETATM    9  C6  UNL     1     106.996  18.435  16.342  1.00  0.00     0.258 C 
HETATM   10  O2  UNL     1     107.608  19.176  17.205  1.00  0.00    -0.269 OA
HETATM   11  N2  UNL     1     107.544  18.440  15.064  1.00  0.00    -0.275 N 
ATOM     12  H2  UNL     1     107.115  17.875  14.331  1.00  0.00     0.189 HD
BRANCH  11  13
HETATM   13  N3  UNL     1     108.668  19.201  14.769  1.00  0.00    -0.343 N 
ATOM     14  H32 UNL     1     109.369  18.810  14.139  1.00  0.00     0.176 HD
ATOM     15  H31 UNL     1     108.793  20.130  15.171  1.00  0.00     0.176 HD
ENDBRANCH  11  13
ENDBRANCH   1   9
BRANCH   1  16
HETATM   16  C7  UNL     1     104.571  17.750  15.976  1.00  0.00     0.026 C 
HETATM   17  C8  UNL     1     104.148  19.063  15.420  1.00  0.00    -0.007 C 
HETATM   18  C9  UNL     1     103.157  19.854  16.197  1.00  0.00     0.012 C 
HETATM   19  C15 UNL     1     103.374  18.695  14.110  1.00  0.00     0.012 C 
HETATM   20  C10 UNL     1     101.995  19.003  16.657  1.00  0.00     0.015 C 
HETATM   21  C11 UNL     1     102.420  17.740  17.325  1.00  0.00     0.012 C 
HETATM   22  C16 UNL     1     101.243  18.614  15.384  1.00  0.00     0.126 C 
HETATM   23  C12 UNL     1     103.393  16.968  16.486  1.00  0.00    -0.007 C 
HETATM   24  C13 UNL     1     102.585  16.595  15.221  1.00  0.00     0.012 C 
HETATM   25  C14 UNL     1     102.195  17.863  14.499  1.00  0.00     0.015 C 
BRANCH  22  26
HETATM   26  O3  UNL     1     100.189  17.755  15.695  1.00  0.00    -0.395 OA
ATOM     27  H3  UNL     1      99.821  17.390  14.899  1.00  0.00     0.210 HD
ENDBRANCH  22  26
ENDBRANCH   1  16
TORSDOF 6
ENDMDL
MODEL 5
REMARK VINA RESULT: -6.911579835      1.012      1.671
REMARK  6 active torsions:
REMARK  status: ('A' for Active; 'I' for Inactive)
REMARK    1  A    between atoms: C2_2  and  C4_4 
REMARK       I    between atoms: C4_4  and  N1_6 
REMARK    2  A    between atoms: N1_6  and  C5_8 
REMARK    3  A    between atoms: C5_8  and  C6_9 
REMARK    4  A    between atoms: C5_8  and  C7_16 
REMARK       I    between atoms: C6_9  and  N2_11 
REMARK    5  A    between atoms: N2_11  and  N3_13 
REMARK    6  A    between atoms: C16_25  and  O3_26 
ROOT
HETATM    1  C5  UNL     1     105.720  17.863  16.723  1.00  0.00     0.183 C 
ENDROOT
BRANCH   1   2
HETATM    2  N1  UNL     1     106.257  18.292  18.052  1.00  0.00    -0.344 N 
HETATM    3  C4  UNL     1     106.352  17.370  19.122  1.00  0.00     0.247 C 
HETATM    4  O1  UNL     1     105.962  16.192  18.892  1.00  0.00    -0.268 OA
ATOM      5  H1  UNL     1     106.556  19.257  18.188  1.00  0.00     0.163 HD
BRANCH   3   6
HETATM    6  C2  UNL     1     106.849  17.644  20.439  1.00  0.00    -0.004 C 
HETATM    7  C1  UNL     1     106.105  17.399  21.490  1.00  0.00     0.024 C 
HETATM    8  C3  UNL     1     108.199  18.208  20.614  1.00  0.00     0.053 C 
ENDBRANCH   3   6
ENDBRANCH   1   2
BRANCH   1   9
HETATM    9  C6  UNL     1     106.486  18.520  15.672  1.00  0.00     0.258 C 
HETATM   10  O2  UNL     1     106.961  19.703  15.876  1.00  0.00    -0.269 OA
HETATM   11  N2  UNL     1     106.774  17.975  14.425  1.00  0.00    -0.275 N 
ATOM     12  H2  UNL     1     106.433  17.042  14.194  1.00  0.00     0.189 HD
BRANCH  11  13
HETATM   13  N3  UNL     1     107.518  18.681  13.489  1.00  0.00    -0.343 N 
ATOM     14  H32 UNL     1     107.164  19.582  13.165  1.00  0.00     0.176 HD
ATOM     15  H31 UNL     1     108.398  18.312  13.131  1.00  0.00     0.176 HD
ENDBRANCH  11  13
ENDBRANCH   1   9
BRANCH   1  16
HETATM   16  C7  UNL     1     104.245  17.961  16.743  1.00  0.00     0.026 C 
HETATM   17  C8  UNL     1     103.438  16.712  16.778  1.00  0.00    -0.007 C 
HETATM   18  C9  UNL     1     102.911  16.195  15.488  1.00  0.00     0.012 C 
HETATM   19  C15 UNL     1     102.145  17.110  17.566  1.00  0.00     0.012 C 
HETATM   20  C10 UNL     1     102.273  17.290  14.662  1.00  0.00     0.015 C 
HETATM   21  C11 UNL     1     103.134  18.499  14.524  1.00  0.00     0.012 C 
HETATM   22  C16 UNL     1     101.020  17.707  15.433  1.00  0.00     0.126 C 
HETATM   23  C12 UNL     1     103.611  18.996  15.855  1.00  0.00    -0.007 C 
HETATM   24  C13 UNL     1     102.314  19.409  16.590  1.00  0.00     0.012 C 
HETATM   25  C14 UNL     1     101.454  18.183  16.789  1.00  0.00     0.015 C 
BRANCH  22  26
HETATM   26  O3  UNL     1     100.398  18.777  14.790  1.00  0.00    -0.395 OA
ATOM     27  H3  UNL     1      99.468  18.778  14.986  1.00  0.00     0.210 HD
ENDBRANCH  22  26
ENDBRANCH   1  16
TORSDOF 6
ENDMDL
