MODEL 1
REMARK VINA RESULT: -6.929955298      0.000      0.000
REMARK  7 active torsions:
REMARK  status: ('A' for Active; 'I' for Inactive)
REMARK    1  A    between atoms: C2_2  and  C4_4 
REMARK    2  A    between atoms: C4_4  and  C5_6 
REMARK       I    between atoms: C5_6  and  N1_8 
REMARK    3  A    between atoms: N1_8  and  N2_10 
REMARK    4  A    between atoms: N2_10  and  C6_12 
REMARK    5  A    between atoms: C6_12  and  N3_14 
REMARK    6  A    between atoms: N3_14  and  N4_16 
REMARK       I    between atoms: N4_16  and  C7_18 
REMARK    7  A    between atoms: C7_18  and  C8_20 
ROOT
HETATM    1  C6  UNL     1     106.565  19.007  15.814  1.00  0.00     0.205 C 
HETATM    2  S1  UNL     1     106.808  20.459  15.062  1.00  0.00    -0.038 SA
ENDROOT
BRANCH   1   3
HETATM    3  N2  UNL     1     105.370  18.281  15.636  1.00  0.00    -0.272 N 
ATOM      4  H2  UNL     1     105.182  17.829  14.741  1.00  0.00     0.189 HD
BRANCH   3   5
HETATM    5  N1  UNL     1     104.450  18.175  16.665  1.00  0.00    -0.261 N 
HETATM    6  C5  UNL     1     103.376  17.213  16.578  1.00  0.00     0.306 C 
HETATM    7  O2  UNL     1     103.302  16.478  15.547  1.00  0.00    -0.263 OA
ATOM      8  H1  UNL     1     104.531  18.776  17.485  1.00  0.00     0.190 HD
BRANCH   6   9
HETATM    9  C4  UNL     1     102.410  17.088  17.640  1.00  0.00     0.221 C 
HETATM   10  O1  UNL     1     101.205  17.324  17.466  1.00  0.00    -0.287 OA
BRANCH   9  11
HETATM   11  C2  UNL     1     102.856  16.661  18.999  1.00  0.00     0.057 C 
HETATM   12  C1  UNL     1     102.080  17.370  20.088  1.00  0.00     0.018 C 
HETATM   13  C3  UNL     1     102.786  15.148  19.131  1.00  0.00     0.018 C 
ENDBRANCH   9  11
ENDBRANCH   6   9
ENDBRANCH   3   5
ENDBRANCH   1   3
BRANCH   1  14
HETATM   14  N3  UNL     1     107.623  18.533  16.640  1.00  0.00    -0.272 N 
ATOM     15  H3  UNL     1     108.424  18.093  16.186  1.00  0.00     0.189 HD
BRANCH  14  16
HETATM   16  N4  UNL     1     107.635  18.629  18.030  1.00  0.00    -0.264 N 
HETATM   17  C7  UNL     1     106.959  17.701  18.844  1.00  0.00     0.270 C 
HETATM   18  O3  UNL     1     106.304  16.726  18.342  1.00  0.00    -0.266 OA
ATOM     19  H4  UNL     1     108.146  19.394  18.470  1.00  0.00     0.190 HD
BRANCH  17  20
HETATM   20  C8  UNL     1     106.950  17.769  20.302  1.00  0.00     0.033 A 
HETATM   21  C9  UNL     1     108.053  18.184  21.023  1.00  0.00     0.017 A 
HETATM   22  C10 UNL     1     108.042  18.266  22.411  1.00  0.00     0.001 A 
HETATM   23  C11 UNL     1     106.874  17.913  23.049  1.00  0.00     0.000 A 
HETATM   24  C12 UNL     1     105.745  17.491  22.373  1.00  0.00     0.001 A 
HETATM   25  C13 UNL     1     105.811  17.429  20.993  1.00  0.00     0.017 A 
ENDBRANCH  17  20
ENDBRANCH  14  16
ENDBRANCH   1  14
TORSDOF 7
ENDMDL
MODEL 2
REMARK VINA RESULT: -6.919329138      1.071      1.510
REMARK  7 active torsions:
REMARK  status: ('A' for Active; 'I' for Inactive)
REMARK    1  A    between atoms: C2_2  and  C4_4 
REMARK    2  A    between atoms: C4_4  and  C5_6 
REMARK       I    between atoms: C5_6  and  N1_8 
REMARK    3  A    between atoms: N1_8  and  N2_10 
REMARK    4  A    between atoms: N2_10  and  C6_12 
REMARK    5  A    between atoms: C6_12  and  N3_14 
REMARK    6  A    between atoms: N3_14  and  N4_16 
REMARK       I    between atoms: N4_16  and  C7_18 
REMARK    7  A    between atoms: C7_18  and  C8_20 
ROOT
HETATM    1  C6  UNL     1     105.568  19.182  15.461  1.00  0.00     0.205 C 
HETATM    2  S1  UNL     1     105.685  20.789  15.093  1.00  0.00    -0.038 SA
ENDROOT
BRANCH   1   3
HETATM    3  N2  UNL     1     104.387  18.455  15.206  1.00  0.00    -0.272 N 
ATOM      4  H2  UNL     1     103.977  18.469  14.271  1.00  0.00     0.189 HD
BRANCH   3   5
HETATM    5  N1  UNL     1     103.778  17.723  16.211  1.00  0.00    -0.261 N 
HETATM    6  C5  UNL     1     102.631  18.262  16.903  1.00  0.00     0.306 C 
HETATM    7  O2  UNL     1     102.202  19.407  16.566  1.00  0.00    -0.263 OA
ATOM      8  H1  UNL     1     104.141  16.804  16.464  1.00  0.00     0.190 HD
BRANCH   6   9
HETATM    9  C4  UNL     1     101.983  17.515  17.952  1.00  0.00     0.221 C 
HETATM   10  O1  UNL     1     100.753  17.520  18.102  1.00  0.00    -0.287 OA
BRANCH   9  11
HETATM   11  C2  UNL     1     102.806  16.702  18.896  1.00  0.00     0.057 C 
HETATM   12  C1  UNL     1     102.540  17.084  20.336  1.00  0.00     0.018 C 
HETATM   13  C3  UNL     1     102.597  15.219  18.643  1.00  0.00     0.018 C 
ENDBRANCH   9  11
ENDBRANCH   6   9
ENDBRANCH   3   5
ENDBRANCH   1   3
BRANCH   1  14
HETATM   14  N3  UNL     1     106.719  18.576  16.042  1.00  0.00    -0.272 N 
ATOM     15  H3  UNL     1     107.322  18.020  15.436  1.00  0.00     0.189 HD
BRANCH  14  16
HETATM   16  N4  UNL     1     107.072  18.693  17.384  1.00  0.00    -0.264 N 
HETATM   17  C7  UNL     1     106.673  17.743  18.342  1.00  0.00     0.270 C 
HETATM   18  O3  UNL     1     105.966  16.728  18.021  1.00  0.00    -0.266 OA
ATOM     19  H4  UNL     1     107.636  19.490  17.681  1.00  0.00     0.190 HD
BRANCH  17  20
HETATM   20  C8  UNL     1     107.025  17.831  19.756  1.00  0.00     0.033 A 
HETATM   21  C9  UNL     1     106.128  17.510  20.756  1.00  0.00     0.017 A 
HETATM   22  C10 UNL     1     106.465  17.577  22.103  1.00  0.00     0.001 A 
HETATM   23  C11 UNL     1     107.746  17.982  22.408  1.00  0.00     0.000 A 
HETATM   24  C12 UNL     1     108.680  18.313  21.444  1.00  0.00     0.001 A 
HETATM   25  C13 UNL     1     108.290  18.228  20.120  1.00  0.00     0.017 A 
ENDBRANCH  17  20
ENDBRANCH  14  16
ENDBRANCH   1  14
TORSDOF 7
ENDMDL
MODEL 3
REMARK VINA RESULT: -6.901420632      0.085      1.049
REMARK  7 active torsions:
REMARK  status: ('A' for Active; 'I' for Inactive)
REMARK    1  A    between atoms: C2_2  and  C4_4 
REMARK    2  A    between atoms: C4_4  and  C5_6 
REMARK       I    between atoms: C5_6  and  N1_8 
REMARK    3  A    between atoms: N1_8  and  N2_10 
REMARK    4  A    between atoms: N2_10  and  C6_12 
REMARK    5  A    between atoms: C6_12  and  N3_14 
REMARK    6  A    between atoms: N3_14  and  N4_16 
REMARK       I    between atoms: N4_16  and  C7_18 
REMARK    7  A    between atoms: C7_18  and  C8_20 
ROOT
HETATM    1  C6  UNL     1     106.553  19.000  15.820  1.00  0.00     0.205 C 
HETATM    2  S1  UNL     1     106.837  20.441  15.061  1.00  0.00    -0.038 SA
ENDROOT
BRANCH   1   3
HETATM    3  N2  UNL     1     105.348  18.294  15.627  1.00  0.00    -0.272 N 
ATOM      4  H2  UNL     1     105.155  17.861  14.724  1.00  0.00     0.189 HD
BRANCH   3   5
HETATM    5  N1  UNL     1     104.425  18.184  16.653  1.00  0.00    -0.261 N 
HETATM    6  C5  UNL     1     103.312  17.272  16.527  1.00  0.00     0.306 C 
HETATM    7  O2  UNL     1     103.208  16.584  15.467  1.00  0.00    -0.263 OA
ATOM      8  H1  UNL     1     104.530  18.747  17.497  1.00  0.00     0.190 HD
BRANCH   6   9
HETATM    9  C4  UNL     1     102.341  17.143  17.585  1.00  0.00     0.221 C 
HETATM   10  O1  UNL     1     101.138  17.382  17.407  1.00  0.00    -0.287 OA
BRANCH   9  11
HETATM   11  C2  UNL     1     102.781  16.708  18.943  1.00  0.00     0.057 C 
HETATM   12  C1  UNL     1     102.009  17.419  20.033  1.00  0.00     0.018 C 
HETATM   13  C3  UNL     1     102.700  15.196  19.070  1.00  0.00     0.018 C 
ENDBRANCH   9  11
ENDBRANCH   6   9
ENDBRANCH   3   5
ENDBRANCH   1   3
BRANCH   1  14
HETATM   14  N3  UNL     1     107.589  18.512  16.668  1.00  0.00    -0.272 N 
ATOM     15  H3  UNL     1     108.391  18.058  16.230  1.00  0.00     0.189 HD
BRANCH  14  16
HETATM   16  N4  UNL     1     107.576  18.614  18.057  1.00  0.00    -0.264 N 
HETATM   17  C7  UNL     1     106.889  17.687  18.863  1.00  0.00     0.270 C 
HETATM   18  O3  UNL     1     106.245  16.708  18.353  1.00  0.00    -0.266 OA
ATOM     19  H4  UNL     1     108.078  19.382  18.503  1.00  0.00     0.190 HD
BRANCH  17  20
HETATM   20  C8  UNL     1     106.855  17.760  20.320  1.00  0.00     0.033 A 
HETATM   21  C9  UNL     1     105.726  17.427  21.044  1.00  0.00     0.017 A 
HETATM   22  C10 UNL     1     105.695  17.480  22.433  1.00  0.00     0.001 A 
HETATM   23  C11 UNL     1     106.848  17.883  23.069  1.00  0.00     0.000 A 
HETATM   24  C12 UNL     1     108.002  18.227  22.391  1.00  0.00     0.001 A 
HETATM   25  C13 UNL     1     107.977  18.156  21.009  1.00  0.00     0.017 A 
ENDBRANCH  17  20
ENDBRANCH  14  16
ENDBRANCH   1  14
TORSDOF 7
ENDMDL
MODEL 4
REMARK VINA RESULT: -6.890403434      1.826      2.088
REMARK  7 active torsions:
REMARK  status: ('A' for Active; 'I' for Inactive)
REMARK    1  A    between atoms: C2_2  and  C4_4 
REMARK    2  A    between atoms: C4_4  and  C5_6 
REMARK       I    between atoms: C5_6  and  N1_8 
REMARK    3  A    between atoms: N1_8  and  N2_10 
REMARK    4  A    between atoms: N2_10  and  C6_12 
REMARK    5  A    between atoms: C6_12  and  N3_14 
REMARK    6  A    between atoms: N3_14  and  N4_16 
REMARK       I    between atoms: N4_16  and  C7_18 
REMARK    7  A    between atoms: C7_18  and  C8_20 
ROOT
HETATM    1  C6  UNL     1     105.184  17.534  15.434  1.00  0.00     0.205 C 
HETATM    2  S1  UNL     1     104.842  18.127  13.930  1.00  0.00    -0.038 SA
ENDROOT
BRANCH   1   3
HETATM    3  N2  UNL     1     104.648  16.308  15.879  1.00  0.00    -0.272 N 
ATOM      4  H2  UNL     1     104.939  15.438  15.432  1.00  0.00     0.189 HD
BRANCH   3   5
HETATM    5  N1  UNL     1     103.731  16.275  16.915  1.00  0.00    -0.261 N 
HETATM    6  C5  UNL     1     104.132  15.800  18.219  1.00  0.00     0.306 C 
HETATM    7  O2  UNL     1     105.331  15.422  18.385  1.00  0.00    -0.263 OA
ATOM      8  H1  UNL     1     102.772  16.586  16.758  1.00  0.00     0.190 HD
BRANCH   6   9
HETATM    9  C4  UNL     1     103.192  15.760  19.310  1.00  0.00     0.221 C 
HETATM   10  O1  UNL     1     102.561  14.732  19.599  1.00  0.00    -0.287 OA
BRANCH   9  11
HETATM   11  C2  UNL     1     102.958  16.985  20.131  1.00  0.00     0.057 C 
HETATM   12  C1  UNL     1     101.688  17.697  19.719  1.00  0.00     0.018 C 
HETATM   13  C3  UNL     1     102.976  16.644  21.612  1.00  0.00     0.018 C 
ENDBRANCH   9  11
ENDBRANCH   6   9
ENDBRANCH   3   5
ENDBRANCH   1   3
BRANCH   1  14
HETATM   14  N3  UNL     1     106.049  18.322  16.247  1.00  0.00    -0.272 N 
ATOM     15  H3  UNL     1     106.607  19.043  15.792  1.00  0.00     0.189 HD
BRANCH  14  16
HETATM   16  N4  UNL     1     106.180  18.169  17.626  1.00  0.00    -0.264 N 
HETATM   17  C7  UNL     1     107.436  18.206  18.260  1.00  0.00     0.270 C 
HETATM   18  O3  UNL     1     108.514  18.381  17.596  1.00  0.00    -0.266 OA
ATOM     19  H4  UNL     1     105.343  18.026  18.191  1.00  0.00     0.190 HD
BRANCH  17  20
HETATM   20  C8  UNL     1     107.613  18.052  19.700  1.00  0.00     0.033 A 
HETATM   21  C9  UNL     1     108.837  18.240  20.313  1.00  0.00     0.017 A 
HETATM   22  C10 UNL     1     109.005  18.110  21.687  1.00  0.00     0.001 A 
HETATM   23  C11 UNL     1     107.890  17.782  22.425  1.00  0.00     0.000 A 
HETATM   24  C12 UNL     1     106.645  17.584  21.860  1.00  0.00     0.001 A 
HETATM   25  C13 UNL     1     106.534  17.726  20.489  1.00  0.00     0.017 A 
ENDBRANCH  17  20
ENDBRANCH  14  16
ENDBRANCH   1  14
TORSDOF 7
ENDMDL
MODEL 5
REMARK VINA RESULT: -6.802843166      1.285      1.581
REMARK  7 active torsions:
REMARK  status: ('A' for Active; 'I' for Inactive)
REMARK    1  A    between atoms: C2_2  and  C4_4 
REMARK    2  A    between atoms: C4_4  and  C5_6 
REMARK       I    between atoms: C5_6  and  N1_8 
REMARK    3  A    between atoms: N1_8  and  N2_10 
REMARK    4  A    between atoms: N2_10  and  C6_12 
REMARK    5  A    between atoms: C6_12  and  N3_14 
REMARK    6  A    between atoms: N3_14  and  N4_16 
REMARK       I    between atoms: N4_16  and  C7_18 
REMARK    7  A    between atoms: C7_18  and  C8_20 
ROOT
HETATM    1  C6  UNL     1     106.094  19.626  15.442  1.00  0.00     0.205 C 
HETATM    2  S1  UNL     1     106.913  20.746  14.544  1.00  0.00    -0.038 SA
ENDROOT
BRANCH   1   3
HETATM    3  N2  UNL     1     104.689  19.664  15.558  1.00  0.00    -0.272 N 
ATOM      4  H2  UNL     1     104.184  20.513  15.306  1.00  0.00     0.189 HD
BRANCH   3   5
HETATM    5  N1  UNL     1     103.990  18.557  16.010  1.00  0.00    -0.261 N 
HETATM    6  C5  UNL     1     102.667  18.717  16.565  1.00  0.00     0.306 C 
HETATM    7  O2  UNL     1     102.170  19.883  16.624  1.00  0.00    -0.263 OA
ATOM      8  H1  UNL     1     104.410  17.629  15.950  1.00  0.00     0.190 HD
BRANCH   6   9
HETATM    9  C4  UNL     1     101.923  17.578  17.040  1.00  0.00     0.221 C 
HETATM   10  O1  UNL     1     100.803  17.691  17.559  1.00  0.00    -0.287 OA
BRANCH   9  11
HETATM   11  C2  UNL     1     102.505  16.209  16.910  1.00  0.00     0.057 C 
HETATM   12  C1  UNL     1     102.348  15.414  18.188  1.00  0.00     0.018 C 
HETATM   13  C3  UNL     1     101.916  15.492  15.707  1.00  0.00     0.018 C 
ENDBRANCH   9  11
ENDBRANCH   6   9
ENDBRANCH   3   5
ENDBRANCH   1   3
BRANCH   1  14
HETATM   14  N3  UNL     1     106.880  18.625  16.083  1.00  0.00    -0.272 N 
ATOM     15  H3  UNL     1     107.198  17.836  15.521  1.00  0.00     0.189 HD
BRANCH  14  16
HETATM   16  N4  UNL     1     107.241  18.656  17.428  1.00  0.00    -0.264 N 
HETATM   17  C7  UNL     1     106.615  17.834  18.383  1.00  0.00     0.270 C 
HETATM   18  O3  UNL     1     105.685  17.021  18.057  1.00  0.00    -0.266 OA
ATOM     19  H4  UNL     1     107.979  19.293  17.729  1.00  0.00     0.190 HD
BRANCH  17  20
HETATM   20  C8  UNL     1     106.967  17.837  19.799  1.00  0.00     0.033 A 
HETATM   21  C9  UNL     1     108.226  18.199  20.241  1.00  0.00     0.017 A 
HETATM   22  C10 UNL     1     108.560  18.219  21.590  1.00  0.00     0.001 A 
HETATM   23  C11 UNL     1     107.575  17.860  22.484  1.00  0.00     0.000 A 
HETATM   24  C12 UNL     1     106.302  17.491  22.093  1.00  0.00     0.001 A 
HETATM   25  C13 UNL     1     106.024  17.489  20.738  1.00  0.00     0.017 A 
ENDBRANCH  17  20
ENDBRANCH  14  16
ENDBRANCH   1  14
TORSDOF 7
ENDMDL
