MODEL 1
REMARK VINA RESULT: -6.914123165      0.000      0.000
REMARK  6 active torsions:
REMARK  status: ('A' for Active; 'I' for Inactive)
REMARK    1  A    between atoms: C2_2  and  N1_3 
REMARK    2  A    between atoms: C3_4  and  O1_5 
REMARK    3  A    between atoms: C6_9  and  O2_10 
REMARK    4  A    between atoms: C7_12  and  O3_13 
REMARK    5  A    between atoms: C12_20  and  C13_21 
REMARK    6  A    between atoms: C13_21  and  C14_22 
ROOT
HETATM    1  N1  UNL     1     -15.300  18.004 -15.522  1.00  0.00    -0.308 N 
HETATM    2  C3  UNL     1     -16.332  18.271 -16.359  1.00  0.00     0.153 A 
HETATM    3  C4  UNL     1     -16.243  17.435 -17.451  1.00  0.00     0.042 A 
HETATM    4  C5  UNL     1     -15.115  16.662 -17.224  1.00  0.00     0.071 A 
HETATM    5  C6  UNL     1     -14.532  17.020 -16.022  1.00  0.00     0.156 A 
HETATM    6  C7  UNL     1     -15.006  15.747 -18.403  1.00  0.00     0.292 C 
HETATM    7  C8  UNL     1     -13.623  15.355 -18.717  1.00  0.00     0.077 C 
HETATM    8  C9  UNL     1     -12.890  16.180 -19.703  1.00  0.00     0.007 C 
HETATM    9  C10 UNL     1     -13.779  16.783 -20.757  1.00  0.00     0.030 C 
HETATM   10  C11 UNL     1     -14.861  17.529 -19.999  1.00  0.00     0.278 C 
HETATM   11  N2  UNL     1     -15.693  16.500 -19.426  1.00  0.00     0.137 N 
HETATM   12  C12 UNL     1     -16.865  17.032 -18.763  1.00  0.00     0.265 C 
ENDROOT
BRANCH  12  13
HETATM   13  C13 UNL     1     -17.532  18.165 -19.450  1.00  0.00     0.045 C 
BRANCH  13  14
HETATM   14  C14 UNL     1     -18.377  17.750 -20.620  1.00  0.00    -0.020 C 
HETATM   15  C15 UNL     1     -17.850  18.267 -21.930  1.00  0.00     0.009 C 
HETATM   16  C16 UNL     1     -19.795  18.330 -20.500  1.00  0.00     0.009 C 
ENDBRANCH  13  14
ENDBRANCH  12  13
BRANCH   2  17
HETATM   17  O1  UNL     1     -17.326  19.211 -16.191  1.00  0.00    -0.345 OA
ATOM     18  H1  UNL     1     -18.230  19.058 -15.942  1.00  0.00     0.219 HD
ENDBRANCH   2  17
BRANCH   6  19
HETATM   19  O3  UNL     1     -15.769  14.611 -18.145  1.00  0.00    -0.359 OA
ATOM     20  H3  UNL     1     -15.528  13.942 -18.774  1.00  0.00     0.213 HD
ENDBRANCH   6  19
BRANCH   1  21
HETATM   21  C2  UNL     1     -15.051  18.671 -14.272  1.00  0.00     0.129 C 
HETATM   22  C1  UNL     1     -15.600  17.903 -13.092  1.00  0.00     0.027 C 
ENDBRANCH   1  21
BRANCH   5  23
HETATM   23  O2  UNL     1     -13.381  16.465 -15.454  1.00  0.00    -0.345 OA
ATOM     24  H2  UNL     1     -12.477  16.703 -15.627  1.00  0.00     0.219 HD
ENDBRANCH   5  23
TORSDOF 6
ENDMDL
MODEL 2
REMARK VINA RESULT: -6.716205402      2.162      4.544
REMARK  6 active torsions:
REMARK  status: ('A' for Active; 'I' for Inactive)
REMARK    1  A    between atoms: C2_2  and  N1_3 
REMARK    2  A    between atoms: C3_4  and  O1_5 
REMARK    3  A    between atoms: C6_9  and  O2_10 
REMARK    4  A    between atoms: C7_12  and  O3_13 
REMARK    5  A    between atoms: C12_20  and  C13_21 
REMARK    6  A    between atoms: C13_21  and  C14_22 
ROOT
HETATM    1  N1  UNL     1     -17.381  17.919 -19.922  1.00  0.00    -0.308 N 
HETATM    2  C3  UNL     1     -16.492  17.658 -20.912  1.00  0.00     0.153 A 
HETATM    3  C4  UNL     1     -15.434  16.951 -20.382  1.00  0.00     0.042 A 
HETATM    4  C5  UNL     1     -15.735  16.805 -19.036  1.00  0.00     0.071 A 
HETATM    5  C6  UNL     1     -16.948  17.409 -18.755  1.00  0.00     0.156 A 
HETATM    6  C7  UNL     1     -14.595  16.037 -18.447  1.00  0.00     0.292 C 
HETATM    7  C8  UNL     1     -14.352  16.341 -17.027  1.00  0.00     0.077 C 
HETATM    8  C9  UNL     1     -13.369  17.403 -16.719  1.00  0.00     0.007 C 
HETATM    9  C10 UNL     1     -12.259  17.504 -17.729  1.00  0.00     0.030 C 
HETATM   10  C11 UNL     1     -12.945  17.659 -19.073  1.00  0.00     0.278 C 
HETATM   11  N2  UNL     1     -13.518  16.365 -19.353  1.00  0.00     0.137 N 
HETATM   12  C12 UNL     1     -14.113  16.287 -20.670  1.00  0.00     0.265 C 
ENDROOT
BRANCH  12  13
HETATM   13  C13 UNL     1     -13.360  16.964 -21.754  1.00  0.00     0.045 C 
BRANCH  13  14
HETATM   14  C14 UNL     1     -13.934  16.733 -23.123  1.00  0.00    -0.020 C 
HETATM   15  C15 UNL     1     -13.288  15.578 -23.837  1.00  0.00     0.009 C 
HETATM   16  C16 UNL     1     -13.689  17.952 -24.028  1.00  0.00     0.009 C 
ENDBRANCH  13  14
ENDBRANCH  12  13
BRANCH   2  17
HETATM   17  O1  UNL     1     -16.586  18.019 -22.240  1.00  0.00    -0.345 OA
ATOM     18  H1  UNL     1     -16.331  17.506 -22.997  1.00  0.00     0.219 HD
ENDBRANCH   2  17
BRANCH   6  19
HETATM   19  O3  UNL     1     -14.860  14.678 -18.597  1.00  0.00    -0.359 OA
ATOM     20  H3  UNL     1     -15.691  14.586 -19.047  1.00  0.00     0.213 HD
ENDBRANCH   6  19
BRANCH   1  21
HETATM   21  C2  UNL     1     -18.616  18.639 -20.083  1.00  0.00     0.129 C 
HETATM   22  C1  UNL     1     -19.755  17.736 -20.498  1.00  0.00     0.027 C 
ENDBRANCH   1  21
BRANCH   5  23
HETATM   23  O2  UNL     1     -17.582  17.470 -17.511  1.00  0.00    -0.345 OA
ATOM     24  H2  UNL     1     -17.233  17.201 -16.669  1.00  0.00     0.219 HD
ENDBRANCH   5  23
TORSDOF 6
ENDMDL
MODEL 3
REMARK VINA RESULT: -6.291574757      1.845      4.714
REMARK  6 active torsions:
REMARK  status: ('A' for Active; 'I' for Inactive)
REMARK    1  A    between atoms: C2_2  and  N1_3 
REMARK    2  A    between atoms: C3_4  and  O1_5 
REMARK    3  A    between atoms: C6_9  and  O2_10 
REMARK    4  A    between atoms: C7_12  and  O3_13 
REMARK    5  A    between atoms: C12_20  and  C13_21 
REMARK    6  A    between atoms: C13_21  and  C14_22 
ROOT
HETATM    1  N1  UNL     1     -17.400  18.334 -16.886  1.00  0.00    -0.308 N 
HETATM    2  C3  UNL     1     -16.412  17.899 -17.705  1.00  0.00     0.153 A 
HETATM    3  C4  UNL     1     -15.359  17.458 -16.932  1.00  0.00     0.042 A 
HETATM    4  C5  UNL     1     -15.766  17.650 -15.622  1.00  0.00     0.071 A 
HETATM    5  C6  UNL     1     -17.038  18.195 -15.598  1.00  0.00     0.156 A 
HETATM    6  C7  UNL     1     -14.632  17.175 -14.770  1.00  0.00     0.292 C 
HETATM    7  C8  UNL     1     -14.538  17.868 -13.475  1.00  0.00     0.077 C 
HETATM    8  C9  UNL     1     -13.662  19.059 -13.405  1.00  0.00     0.007 C 
HETATM    9  C10 UNL     1     -12.477  18.986 -14.328  1.00  0.00     0.030 C 
HETATM   10  C11 UNL     1     -13.049  18.712 -15.705  1.00  0.00     0.278 C 
HETATM   11  N2  UNL     1     -13.505  17.345 -15.657  1.00  0.00     0.137 N 
HETATM   12  C12 UNL     1     -13.974  16.864 -16.939  1.00  0.00     0.265 C 
ENDROOT
BRANCH  12  13
HETATM   13  C13 UNL     1     -13.176  17.291 -18.115  1.00  0.00     0.045 C 
BRANCH  13  14
HETATM   14  C14 UNL     1     -13.025  16.225 -19.162  1.00  0.00    -0.020 C 
HETATM   15  C15 UNL     1     -13.566  16.645 -20.502  1.00  0.00     0.009 C 
HETATM   16  C16 UNL     1     -13.826  14.971 -18.781  1.00  0.00     0.009 C 
ENDBRANCH  13  14
ENDBRANCH  12  13
BRANCH   2  17
HETATM   17  O1  UNL     1     -16.412  17.882 -19.084  1.00  0.00    -0.345 OA
ATOM     18  H1  UNL     1     -17.096  17.556 -19.657  1.00  0.00     0.219 HD
ENDBRANCH   2  17
BRANCH   6  19
HETATM   19  O3  UNL     1     -14.789  15.807 -14.560  1.00  0.00    -0.359 OA
ATOM     20  H3  UNL     1     -13.982  15.469 -14.189  1.00  0.00     0.213 HD
ENDBRANCH   6  19
BRANCH   1  21
HETATM   21  C2  UNL     1     -18.663  18.869 -17.320  1.00  0.00     0.129 C 
HETATM   22  C1  UNL     1     -19.001  18.463 -18.736  1.00  0.00     0.027 C 
ENDBRANCH   1  21
BRANCH   5  23
HETATM   23  O2  UNL     1     -17.783  18.529 -14.463  1.00  0.00    -0.345 OA
ATOM     24  H2  UNL     1     -17.456  18.834 -13.624  1.00  0.00     0.219 HD
ENDBRANCH   5  23
TORSDOF 6
ENDMDL
MODEL 4
REMARK VINA RESULT: -6.094598265      2.652      3.820
REMARK  6 active torsions:
REMARK  status: ('A' for Active; 'I' for Inactive)
REMARK    1  A    between atoms: C2_2  and  N1_3 
REMARK    2  A    between atoms: C3_4  and  O1_5 
REMARK    3  A    between atoms: C6_9  and  O2_10 
REMARK    4  A    between atoms: C7_12  and  O3_13 
REMARK    5  A    between atoms: C12_20  and  C13_21 
REMARK    6  A    between atoms: C13_21  and  C14_22 
ROOT
HETATM    1  N1  UNL     1     -12.869  19.982 -14.342  1.00  0.00    -0.308 N 
HETATM    2  C3  UNL     1     -14.164  19.963 -14.739  1.00  0.00     0.153 A 
HETATM    3  C4  UNL     1     -14.508  18.669 -15.067  1.00  0.00     0.042 A 
HETATM    4  C5  UNL     1     -13.361  17.923 -14.845  1.00  0.00     0.071 A 
HETATM    5  C6  UNL     1     -12.344  18.745 -14.394  1.00  0.00     0.156 A 
HETATM    6  C7  UNL     1     -13.720  16.514 -15.196  1.00  0.00     0.292 C 
HETATM    7  C8  UNL     1     -12.579  15.721 -15.682  1.00  0.00     0.077 C 
HETATM    8  C9  UNL     1     -12.354  15.681 -17.144  1.00  0.00     0.007 C 
HETATM    9  C10 UNL     1     -13.622  15.783 -17.949  1.00  0.00     0.030 C 
HETATM   10  C11 UNL     1     -14.316  17.038 -17.457  1.00  0.00     0.278 C 
HETATM   11  N2  UNL     1     -14.797  16.709 -16.138  1.00  0.00     0.137 N 
HETATM   12  C12 UNL     1     -15.605  17.759 -15.557  1.00  0.00     0.265 C 
ENDROOT
BRANCH  12  13
HETATM   13  C13 UNL     1     -16.538  18.441 -16.488  1.00  0.00     0.045 C 
BRANCH  13  14
HETATM   14  C14 UNL     1     -17.962  18.457 -16.012  1.00  0.00    -0.020 C 
HETATM   15  C15 UNL     1     -18.938  18.785 -17.109  1.00  0.00     0.009 C 
HETATM   16  C16 UNL     1     -18.170  19.548 -14.950  1.00  0.00     0.009 C 
ENDBRANCH  13  14
ENDBRANCH  12  13
BRANCH   2  17
HETATM   17  O1  UNL     1     -15.032  21.032 -14.821  1.00  0.00    -0.345 OA
ATOM     18  H1  UNL     1     -15.266  21.640 -14.129  1.00  0.00     0.219 HD
ENDBRANCH   2  17
BRANCH   6  19
HETATM   19  O3  UNL     1     -14.265  15.909 -14.066  1.00  0.00    -0.359 OA
ATOM     20  H3  UNL     1     -15.118  16.293 -13.906  1.00  0.00     0.213 HD
ENDBRANCH   6  19
BRANCH   1  21
HETATM   21  C2  UNL     1     -12.146  21.152 -13.920  1.00  0.00     0.129 C 
HETATM   22  C1  UNL     1     -11.718  22.012 -15.087  1.00  0.00     0.027 C 
ENDBRANCH   1  21
BRANCH   5  23
HETATM   23  O2  UNL     1     -11.041  18.357 -14.063  1.00  0.00    -0.345 OA
ATOM     24  H2  UNL     1     -10.296  18.273 -14.647  1.00  0.00     0.219 HD
ENDBRANCH   5  23
TORSDOF 6
ENDMDL
MODEL 5
REMARK VINA RESULT: -5.993438398      2.163      6.196
REMARK  6 active torsions:
REMARK  status: ('A' for Active; 'I' for Inactive)
REMARK    1  A    between atoms: C2_2  and  N1_3 
REMARK    2  A    between atoms: C3_4  and  O1_5 
REMARK    3  A    between atoms: C6_9  and  O2_10 
REMARK    4  A    between atoms: C7_12  and  O3_13 
REMARK    5  A    between atoms: C12_20  and  C13_21 
REMARK    6  A    between atoms: C13_21  and  C14_22 
ROOT
HETATM    1  N1  UNL     1     -17.431  18.051 -18.009  1.00  0.00    -0.308 N 
HETATM    2  C3  UNL     1     -16.242  17.647 -17.501  1.00  0.00     0.153 A 
HETATM    3  C4  UNL     1     -16.159  18.056 -16.187  1.00  0.00     0.042 A 
HETATM    4  C5  UNL     1     -17.351  18.719 -15.940  1.00  0.00     0.071 A 
HETATM    5  C6  UNL     1     -18.139  18.713 -17.077  1.00  0.00     0.156 A 
HETATM    6  C7  UNL     1     -17.277  19.170 -14.516  1.00  0.00     0.292 C 
HETATM    7  C8  UNL     1     -18.040  20.399 -14.247  1.00  0.00     0.077 C 
HETATM    8  C9  UNL     1     -17.315  21.685 -14.349  1.00  0.00     0.007 C 
HETATM    9  C10 UNL     1     -15.861  21.584 -13.977  1.00  0.00     0.030 C 
HETATM   10  C11 UNL     1     -15.294  20.477 -14.844  1.00  0.00     0.278 C 
HETATM   11  N2  UNL     1     -15.850  19.259 -14.308  1.00  0.00     0.137 N 
HETATM   12  C12 UNL     1     -15.315  18.072 -14.940  1.00  0.00     0.265 C 
ENDROOT
BRANCH  12  13
HETATM   13  C13 UNL     1     -13.861  18.103 -15.236  1.00  0.00     0.045 C 
BRANCH  13  14
HETATM   14  C14 UNL     1     -13.127  16.870 -14.791  1.00  0.00    -0.020 C 
HETATM   15  C15 UNL     1     -12.623  16.046 -15.944  1.00  0.00     0.009 C 
HETATM   16  C16 UNL     1     -14.061  15.934 -14.007  1.00  0.00     0.009 C 
ENDBRANCH  13  14
ENDBRANCH  12  13
BRANCH   2  17
HETATM   17  O1  UNL     1     -15.248  16.943 -18.150  1.00  0.00    -0.345 OA
ATOM     18  H1  UNL     1     -14.309  17.056 -18.063  1.00  0.00     0.219 HD
ENDBRANCH   2  17
BRANCH   6  19
HETATM   19  O3  UNL     1     -17.748  18.138 -13.707  1.00  0.00    -0.359 OA
ATOM     20  H3  UNL     1     -18.591  18.397 -13.357  1.00  0.00     0.213 HD
ENDBRANCH   6  19
BRANCH   1  21
HETATM   21  C2  UNL     1     -17.884  17.811 -19.354  1.00  0.00     0.129 C 
HETATM   22  C1  UNL     1     -16.744  17.772 -20.344  1.00  0.00     0.027 C 
ENDBRANCH   1  21
BRANCH   5  23
HETATM   23  O2  UNL     1     -19.409  19.282 -17.217  1.00  0.00    -0.345 OA
ATOM     24  H2  UNL     1     -20.243  18.831 -17.277  1.00  0.00     0.219 HD
ENDBRANCH   5  23
TORSDOF 6
ENDMDL
