MODEL 1
REMARK VINA RESULT: -7.289389663      0.000      0.000
REMARK  5 active torsions:
REMARK  status: ('A' for Active; 'I' for Inactive)
REMARK    1  A    between atoms: C5_8  and  N2_9 
REMARK       I    between atoms: N2_9  and  C6_11 
REMARK       I    between atoms: C6_11  and  N3_13 
REMARK    2  A    between atoms: N3_13  and  N4_15 
REMARK       I    between atoms: N4_15  and  C7_17 
REMARK    3  A    between atoms: C7_17  and  O4_19 
REMARK    4  A    between atoms: O4_19  and  C8_20 
REMARK    5  A    between atoms: C8_20  and  C9_21 
ROOT
HETATM    1  N2  UNL     1     -16.546  17.925 -20.549  1.00  0.00    -0.303 N 
ATOM      2  H2  UNL     1     -16.035  18.550 -21.172  1.00  0.00     0.171 HD
HETATM    3  C6  UNL     1     -15.809  17.047 -19.727  1.00  0.00     0.339 C 
HETATM    4  O2  UNL     1     -16.419  16.273 -18.958  1.00  0.00    -0.245 OA
HETATM    5  N3  UNL     1     -14.397  17.016 -19.751  1.00  0.00    -0.247 N 
ATOM      6  H3  UNL     1     -13.899  17.647 -20.380  1.00  0.00     0.192 HD
ENDROOT
BRANCH   5   7
HETATM    7  N4  UNL     1     -13.660  16.148 -18.939  1.00  0.00    -0.241 N 
HETATM    8  C7  UNL     1     -12.722  16.645 -17.996  1.00  0.00     0.379 C 
HETATM    9  O3  UNL     1     -12.584  17.890 -17.925  1.00  0.00    -0.237 OA
ATOM     10  H4  UNL     1     -13.799  15.141 -19.025  1.00  0.00     0.192 HD
BRANCH   8  11
HETATM   11  O4  UNL     1     -11.963  15.869 -17.168  1.00  0.00    -0.302 OA
BRANCH  11  12
HETATM   12  C8  UNL     1     -12.392  15.128 -16.077  1.00  0.00     0.185 C 
BRANCH  12  13
HETATM   13  C9  UNL     1     -12.423  15.888 -14.781  1.00  0.00     0.010 C 
HETATM   14  C10 UNL     1     -13.803  16.394 -14.540  1.00  0.00     0.007 C 
HETATM   15  C11 UNL     1     -13.690  17.900 -14.623  1.00  0.00     0.000 C 
HETATM   16  C12 UNL     1     -12.234  18.206 -14.291  1.00  0.00     0.000 C 
HETATM   17  C13 UNL     1     -11.489  17.050 -14.879  1.00  0.00     0.007 C 
ENDBRANCH  12  13
ENDBRANCH  11  12
ENDBRANCH   8  11
ENDBRANCH   5   7
BRANCH   1  18
HETATM   18  C5  UNL     1     -17.965  17.984 -20.552  1.00  0.00     0.092 A 
HETATM   19  C2  UNL     1     -18.732  18.204 -19.426  1.00  0.00     0.058 A 
HETATM   20  C1  UNL     1     -18.250  18.413 -18.037  1.00  0.00     0.072 C 
HETATM   21  N1  UNL     1     -20.014  18.184 -19.871  1.00  0.00    -0.263 N 
HETATM   22  O1  UNL     1     -20.020  17.971 -21.162  1.00  0.00    -0.240 OA
ATOM     23  H1  UNL     1     -20.842  18.316 -19.290  1.00  0.00     0.194 HD
HETATM   24  C3  UNL     1     -18.809  17.844 -21.613  1.00  0.00     0.101 A 
HETATM   25  C4  UNL     1     -18.390  17.589 -23.038  1.00  0.00     0.081 C 
ENDBRANCH   1  18
TORSDOF 5
ENDMDL
MODEL 2
REMARK VINA RESULT: -7.196408421      2.055      7.632
REMARK  5 active torsions:
REMARK  status: ('A' for Active; 'I' for Inactive)
REMARK    1  A    between atoms: C5_8  and  N2_9 
REMARK       I    between atoms: N2_9  and  C6_11 
REMARK       I    between atoms: C6_11  and  N3_13 
REMARK    2  A    between atoms: N3_13  and  N4_15 
REMARK       I    between atoms: N4_15  and  C7_17 
REMARK    3  A    between atoms: C7_17  and  O4_19 
REMARK    4  A    between atoms: O4_19  and  C8_20 
REMARK    5  A    between atoms: C8_20  and  C9_21 
ROOT
HETATM    1  N2  UNL     1     -14.804  17.787 -16.177  1.00  0.00    -0.303 N 
ATOM      2  H2  UNL     1     -15.059  18.634 -15.669  1.00  0.00     0.171 HD
HETATM    3  C6  UNL     1     -15.672  17.326 -17.188  1.00  0.00     0.339 C 
HETATM    4  O2  UNL     1     -15.377  16.290 -17.822  1.00  0.00    -0.245 OA
HETATM    5  N3  UNL     1     -16.870  18.004 -17.505  1.00  0.00    -0.247 N 
ATOM      6  H3  UNL     1     -17.112  18.849 -16.987  1.00  0.00     0.192 HD
ENDROOT
BRANCH   5   7
HETATM    7  N4  UNL     1     -17.736  17.552 -18.507  1.00  0.00    -0.241 N 
HETATM    8  C7  UNL     1     -18.828  18.346 -18.946  1.00  0.00     0.379 C 
HETATM    9  O3  UNL     1     -18.982  19.464 -18.398  1.00  0.00    -0.237 OA
ATOM     10  H4  UNL     1     -17.579  16.637 -18.929  1.00  0.00     0.192 HD
BRANCH   8  11
HETATM   11  O4  UNL     1     -19.717  17.980 -19.914  1.00  0.00    -0.302 OA
BRANCH  11  12
HETATM   12  C8  UNL     1     -19.437  17.582 -21.213  1.00  0.00     0.185 C 
BRANCH  12  13
HETATM   13  C9  UNL     1     -18.377  18.397 -21.900  1.00  0.00     0.010 C 
HETATM   14  C10 UNL     1     -18.533  18.264 -23.375  1.00  0.00     0.007 C 
HETATM   15  C11 UNL     1     -17.293  17.531 -23.837  1.00  0.00     0.000 C 
HETATM   16  C12 UNL     1     -16.242  17.821 -22.771  1.00  0.00     0.000 C 
HETATM   17  C13 UNL     1     -17.034  17.876 -21.503  1.00  0.00     0.007 C 
ENDBRANCH  12  13
ENDBRANCH  11  12
ENDBRANCH   8  11
ENDBRANCH   5   7
BRANCH   1  18
HETATM   18  C5  UNL     1     -13.592  17.133 -15.831  1.00  0.00     0.092 A 
HETATM   19  C2  UNL     1     -13.429  16.353 -14.704  1.00  0.00     0.058 A 
HETATM   20  C1  UNL     1     -14.446  16.053 -13.665  1.00  0.00     0.072 C 
HETATM   21  N1  UNL     1     -12.142  15.928 -14.760  1.00  0.00    -0.263 N 
HETATM   22  O1  UNL     1     -11.573  16.412 -15.836  1.00  0.00    -0.240 OA
ATOM     23  H1  UNL     1     -11.688  15.326 -14.073  1.00  0.00     0.194 HD
HETATM   24  C3  UNL     1     -12.410  17.143 -16.508  1.00  0.00     0.101 A 
HETATM   25  C4  UNL     1     -12.145  17.875 -17.799  1.00  0.00     0.081 C 
ENDBRANCH   1  18
TORSDOF 5
ENDMDL
MODEL 3
REMARK VINA RESULT: -7.170276154      2.552      8.031
REMARK  5 active torsions:
REMARK  status: ('A' for Active; 'I' for Inactive)
REMARK    1  A    between atoms: C5_8  and  N2_9 
REMARK       I    between atoms: N2_9  and  C6_11 
REMARK       I    between atoms: C6_11  and  N3_13 
REMARK    2  A    between atoms: N3_13  and  N4_15 
REMARK       I    between atoms: N4_15  and  C7_17 
REMARK    3  A    between atoms: C7_17  and  O4_19 
REMARK    4  A    between atoms: O4_19  and  C8_20 
REMARK    5  A    between atoms: C8_20  and  C9_21 
ROOT
HETATM    1  N2  UNL     1     -14.377  17.826 -14.880  1.00  0.00    -0.303 N 
ATOM      2  H2  UNL     1     -14.996  17.782 -14.071  1.00  0.00     0.171 HD
HETATM    3  C6  UNL     1     -14.957  17.870 -16.165  1.00  0.00     0.339 C 
HETATM    4  O2  UNL     1     -14.214  17.923 -17.169  1.00  0.00    -0.245 OA
HETATM    5  N3  UNL     1     -16.357  17.854 -16.350  1.00  0.00    -0.247 N 
ATOM      6  H3  UNL     1     -16.964  17.810 -15.530  1.00  0.00     0.192 HD
ENDROOT
BRANCH   5   7
HETATM    7  N4  UNL     1     -16.938  17.898 -17.621  1.00  0.00    -0.241 N 
HETATM    8  C7  UNL     1     -18.307  18.237 -17.791  1.00  0.00     0.379 C 
HETATM    9  O3  UNL     1     -18.967  18.492 -16.755  1.00  0.00    -0.237 OA
ATOM     10  H4  UNL     1     -16.370  17.683 -18.440  1.00  0.00     0.192 HD
BRANCH   8  11
HETATM   11  O4  UNL     1     -18.951  18.301 -18.992  1.00  0.00    -0.302 OA
BRANCH  11  12
HETATM   12  C8  UNL     1     -18.455  18.792 -20.192  1.00  0.00     0.185 C 
BRANCH  12  13
HETATM   13  C9  UNL     1     -18.089  17.734 -21.194  1.00  0.00     0.010 C 
HETATM   14  C10 UNL     1     -16.615  17.519 -21.166  1.00  0.00     0.007 C 
HETATM   15  C11 UNL     1     -16.123  17.991 -22.517  1.00  0.00     0.000 C 
HETATM   16  C12 UNL     1     -17.329  17.866 -23.442  1.00  0.00     0.000 C 
HETATM   17  C13 UNL     1     -18.487  18.199 -22.556  1.00  0.00     0.007 C 
ENDBRANCH  12  13
ENDBRANCH  11  12
ENDBRANCH   8  11
ENDBRANCH   5   7
BRANCH   1  18
HETATM   18  C5  UNL     1     -12.975  17.839 -14.656  1.00  0.00     0.092 A 
HETATM   19  C2  UNL     1     -12.140  16.772 -14.916  1.00  0.00     0.058 A 
HETATM   20  C1  UNL     1     -12.522  15.444 -15.460  1.00  0.00     0.072 C 
HETATM   21  N1  UNL     1     -10.903  17.206 -14.566  1.00  0.00    -0.263 N 
HETATM   22  O1  UNL     1     -10.984  18.438 -14.129  1.00  0.00    -0.240 OA
ATOM     23  H1  UNL     1     -10.045  16.659 -14.632  1.00  0.00     0.194 HD
HETATM   24  C3  UNL     1     -12.213  18.857 -14.166  1.00  0.00     0.101 A 
HETATM   25  C4  UNL     1     -12.724  20.213 -13.750  1.00  0.00     0.081 C 
ENDBRANCH   1  18
TORSDOF 5
ENDMDL
MODEL 4
REMARK VINA RESULT: -7.078063259      3.703      7.252
REMARK  5 active torsions:
REMARK  status: ('A' for Active; 'I' for Inactive)
REMARK    1  A    between atoms: C5_8  and  N2_9 
REMARK       I    between atoms: N2_9  and  C6_11 
REMARK       I    between atoms: C6_11  and  N3_13 
REMARK    2  A    between atoms: N3_13  and  N4_15 
REMARK       I    between atoms: N4_15  and  C7_17 
REMARK    3  A    between atoms: C7_17  and  O4_19 
REMARK    4  A    between atoms: O4_19  and  C8_20 
REMARK    5  A    between atoms: C8_20  and  C9_21 
ROOT
HETATM    1  N2  UNL     1     -13.052  19.035 -13.381  1.00  0.00    -0.303 N 
ATOM      2  H2  UNL     1     -12.343  18.565 -12.820  1.00  0.00     0.171 HD
HETATM    3  C6  UNL     1     -13.603  18.342 -14.480  1.00  0.00     0.339 C 
HETATM    4  O2  UNL     1     -14.474  18.902 -15.181  1.00  0.00    -0.245 OA
HETATM    5  N3  UNL     1     -13.196  17.031 -14.812  1.00  0.00    -0.247 N 
ATOM      6  H3  UNL     1     -12.485  16.574 -14.240  1.00  0.00     0.192 HD
ENDROOT
BRANCH   5   7
HETATM    7  N4  UNL     1     -13.739  16.339 -15.900  1.00  0.00    -0.241 N 
HETATM    8  C7  UNL     1     -13.084  16.323 -17.160  1.00  0.00     0.379 C 
HETATM    9  O3  UNL     1     -12.004  16.956 -17.253  1.00  0.00    -0.237 OA
ATOM     10  H4  UNL     1     -14.619  15.837 -15.786  1.00  0.00     0.192 HD
BRANCH   8  11
HETATM   11  O4  UNL     1     -13.544  15.676 -18.269  1.00  0.00    -0.302 OA
BRANCH  11  12
HETATM   12  C8  UNL     1     -14.815  15.741 -18.820  1.00  0.00     0.185 C 
BRANCH  12  13
HETATM   13  C9  UNL     1     -15.294  17.134 -19.118  1.00  0.00     0.010 C 
HETATM   14  C10 UNL     1     -16.326  17.525 -18.117  1.00  0.00     0.007 C 
HETATM   15  C11 UNL     1     -17.610  17.657 -18.908  1.00  0.00     0.000 C 
HETATM   16  C12 UNL     1     -17.166  17.947 -20.337  1.00  0.00     0.000 C 
HETATM   17  C13 UNL     1     -15.906  17.154 -20.481  1.00  0.00     0.007 C 
ENDBRANCH  12  13
ENDBRANCH  11  12
ENDBRANCH   8  11
ENDBRANCH   5   7
BRANCH   1  18
HETATM   18  C5  UNL     1     -13.436  20.353 -13.018  1.00  0.00     0.092 A 
HETATM   19  C2  UNL     1     -12.720  21.485 -13.349  1.00  0.00     0.058 A 
HETATM   20  C1  UNL     1     -11.453  21.554 -14.119  1.00  0.00     0.072 C 
HETATM   21  N1  UNL     1     -13.430  22.511 -12.815  1.00  0.00    -0.263 N 
HETATM   22  O1  UNL     1     -14.490  22.036 -12.211  1.00  0.00    -0.240 OA
ATOM     23  H1  UNL     1     -13.177  23.498 -12.875  1.00  0.00     0.194 HD
HETATM   24  C3  UNL     1     -14.532  20.742 -12.308  1.00  0.00     0.101 A 
HETATM   25  C4  UNL     1     -15.586  19.821 -11.749  1.00  0.00     0.081 C 
ENDBRANCH   1  18
TORSDOF 5
ENDMDL
MODEL 5
REMARK VINA RESULT: -7.065472052      3.459      6.959
REMARK  5 active torsions:
REMARK  status: ('A' for Active; 'I' for Inactive)
REMARK    1  A    between atoms: C5_8  and  N2_9 
REMARK       I    between atoms: N2_9  and  C6_11 
REMARK       I    between atoms: C6_11  and  N3_13 
REMARK    2  A    between atoms: N3_13  and  N4_15 
REMARK       I    between atoms: N4_15  and  C7_17 
REMARK    3  A    between atoms: C7_17  and  O4_19 
REMARK    4  A    between atoms: O4_19  and  C8_20 
REMARK    5  A    between atoms: C8_20  and  C9_21 
ROOT
HETATM    1  N2  UNL     1     -14.397  17.803 -13.504  1.00  0.00    -0.303 N 
ATOM      2  H2  UNL     1     -14.229  17.027 -12.864  1.00  0.00     0.171 HD
HETATM    3  C6  UNL     1     -14.444  17.533 -14.887  1.00  0.00     0.339 C 
HETATM    4  O2  UNL     1     -14.648  18.471 -15.687  1.00  0.00    -0.245 OA
HETATM    5  N3  UNL     1     -14.266  16.227 -15.396  1.00  0.00    -0.247 N 
ATOM      6  H3  UNL     1     -14.098  15.461 -14.743  1.00  0.00     0.192 HD
ENDROOT
BRANCH   5   7
HETATM    7  N4  UNL     1     -14.311  15.952 -16.767  1.00  0.00    -0.241 N 
HETATM    8  C7  UNL     1     -13.125  15.907 -17.546  1.00  0.00     0.379 C 
HETATM    9  O3  UNL     1     -12.041  16.124 -16.953  1.00  0.00    -0.237 OA
ATOM     10  H4  UNL     1     -15.212  15.781 -17.214  1.00  0.00     0.192 HD
BRANCH   8  11
HETATM   11  O4  UNL     1     -13.082  15.647 -18.885  1.00  0.00    -0.302 OA
BRANCH  11  12
HETATM   12  C8  UNL     1     -14.137  15.669 -19.785  1.00  0.00     0.185 C 
BRANCH  12  13
HETATM   13  C9  UNL     1     -14.520  17.041 -20.263  1.00  0.00     0.010 C 
HETATM   14  C10 UNL     1     -15.834  17.420 -19.673  1.00  0.00     0.007 C 
HETATM   15  C11 UNL     1     -16.784  17.499 -20.849  1.00  0.00     0.000 C 
HETATM   16  C12 UNL     1     -15.896  17.775 -22.056  1.00  0.00     0.000 C 
HETATM   17  C13 UNL     1     -14.643  17.017 -21.752  1.00  0.00     0.007 C 
ENDBRANCH  12  13
ENDBRANCH  11  12
ENDBRANCH   8  11
ENDBRANCH   5   7
BRANCH   1  18
HETATM   18  C5  UNL     1     -14.572  19.102 -12.957  1.00  0.00     0.092 A 
HETATM   19  C2  UNL     1     -15.725  19.527 -12.328  1.00  0.00     0.058 A 
HETATM   20  C1  UNL     1     -16.967  18.745 -12.106  1.00  0.00     0.072 C 
HETATM   21  N1  UNL     1     -15.468  20.808 -11.963  1.00  0.00    -0.263 N 
HETATM   22  O1  UNL     1     -14.256  21.131 -12.340  1.00  0.00    -0.240 OA
ATOM     23  H1  UNL     1     -16.116  21.423 -11.472  1.00  0.00     0.194 HD
HETATM   24  C3  UNL     1     -13.682  20.134 -12.943  1.00  0.00     0.101 A 
HETATM   25  C4  UNL     1     -12.292  20.100 -13.525  1.00  0.00     0.081 C 
ENDBRANCH   1  18
TORSDOF 5
ENDMDL
