MODEL 1
REMARK VINA RESULT: -6.884360991      0.000      0.000
REMARK  6 active torsions:
REMARK  status: ('A' for Active; 'I' for Inactive)
REMARK    1  A    between atoms: N1_3  and  N2_5 
REMARK       I    between atoms: N2_5  and  C3_7 
REMARK    2  A    between atoms: C3_7  and  C4_9 
REMARK    3  A    between atoms: C5_10  and  C6_11 
REMARK    4  A    between atoms: C8_15  and  O4_16 
REMARK    5  A    between atoms: C9_18  and  O5_19 
REMARK       I    between atoms: N3_22  and  C11_23 
REMARK    6  A    between atoms: C11_23  and  C12_25 
ROOT
HETATM    1  C4  UNL     1     104.394  17.740  16.938  1.00  0.00     0.121 C 
HETATM    2  C5  UNL     1     104.141  16.809  15.760  1.00  0.00     0.127 C 
HETATM    3  C7  UNL     1     102.685  16.984  15.403  1.00  0.00     0.134 C 
HETATM    4  C8  UNL     1     101.875  16.174  16.375  1.00  0.00     0.172 C 
HETATM    5  C9  UNL     1     102.203  16.877  17.701  1.00  0.00     0.172 C 
HETATM    6  C10 UNL     1     102.972  18.125  17.300  1.00  0.00     0.133 C 
HETATM    7  N3  UNL     1     102.439  18.328  15.952  1.00  0.00    -0.336 N 
HETATM    8  C11 UNL     1     101.870  19.444  15.350  1.00  0.00     0.220 C 
HETATM    9  O6  UNL     1     101.748  20.510  15.993  1.00  0.00    -0.273 OA
ENDROOT
BRANCH   1  10
HETATM   10  C3  UNL     1     105.115  17.095  18.026  1.00  0.00     0.243 C 
HETATM   11  N2  UNL     1     105.637  17.862  19.090  1.00  0.00    -0.270 N 
ATOM     12  H2  UNL     1     105.509  18.874  19.096  1.00  0.00     0.190 HD
HETATM   13  O1  UNL     1     105.269  15.840  18.010  1.00  0.00    -0.271 OA
BRANCH  11  14
HETATM   14  N1  UNL     1     106.322  17.249  20.125  1.00  0.00    -0.314 N 
HETATM   15  C2  UNL     1     107.533  17.536  20.455  1.00  0.00     0.076 C 
HETATM   16  C1  UNL     1     108.344  18.558  19.771  1.00  0.00     0.056 C 
ATOM     17  H1  UNL     1     105.838  16.527  20.658  1.00  0.00     0.185 HD
ENDBRANCH  11  14
ENDBRANCH   1  10
BRANCH   2  18
HETATM   18  C6  UNL     1     105.055  17.086  14.657  1.00  0.00     0.180 C 
HETATM   19  O2  UNL     1     104.930  16.488  13.557  1.00  0.00    -0.648 OA
HETATM   20  O3  UNL     1     106.066  17.998  14.790  1.00  0.00    -0.648 OA
ENDBRANCH   2  18
BRANCH   5  21
HETATM   21  O5  UNL     1     101.034  17.225  18.380  1.00  0.00    -0.391 OA
ATOM     22  H5  UNL     1     100.797  16.555  19.010  1.00  0.00     0.210 HD
ENDBRANCH   5  21
BRANCH   4  23
HETATM   23  O4  UNL     1     102.233  14.843  16.413  1.00  0.00    -0.391 OA
ATOM     24  H4  UNL     1     101.791  14.351  17.096  1.00  0.00     0.210 HD
ENDBRANCH   4  23
BRANCH   8  25
HETATM   25  C12 UNL     1     101.407  19.374  13.949  1.00  0.00     0.098 C 
HETATM   26  C13 UNL     1     102.479  19.924  13.049  1.00  0.00     0.014 C 
ENDBRANCH   8  25
TORSDOF 6
ENDMDL
MODEL 2
REMARK VINA RESULT: -6.604498123      1.759      2.047
REMARK  6 active torsions:
REMARK  status: ('A' for Active; 'I' for Inactive)
REMARK    1  A    between atoms: N1_3  and  N2_5 
REMARK       I    between atoms: N2_5  and  C3_7 
REMARK    2  A    between atoms: C3_7  and  C4_9 
REMARK    3  A    between atoms: C5_10  and  C6_11 
REMARK    4  A    between atoms: C8_15  and  O4_16 
REMARK    5  A    between atoms: C9_18  and  O5_19 
REMARK       I    between atoms: N3_22  and  C11_23 
REMARK    6  A    between atoms: C11_23  and  C12_25 
ROOT
HETATM    1  C4  UNL     1     104.034  18.060  16.466  1.00  0.00     0.121 C 
HETATM    2  C5  UNL     1     103.701  17.240  15.227  1.00  0.00     0.127 C 
HETATM    3  C7  UNL     1     102.262  17.558  14.898  1.00  0.00     0.134 C 
HETATM    4  C8  UNL     1     101.393  16.749  15.817  1.00  0.00     0.172 C 
HETATM    5  C9  UNL     1     101.782  17.325  17.186  1.00  0.00     0.172 C 
HETATM    6  C10 UNL     1     102.648  18.532  16.868  1.00  0.00     0.133 C 
HETATM    7  N3  UNL     1     102.129  18.875  15.543  1.00  0.00    -0.336 N 
HETATM    8  C11 UNL     1     101.651  20.074  15.028  1.00  0.00     0.220 C 
HETATM    9  O6  UNL     1     101.618  21.097  15.747  1.00  0.00    -0.273 OA
ENDROOT
BRANCH   1  10
HETATM   10  C3  UNL     1     104.703  17.283  17.499  1.00  0.00     0.243 C 
HETATM   11  N2  UNL     1     104.482  15.892  17.602  1.00  0.00    -0.270 N 
ATOM     12  H2  UNL     1     103.850  15.429  16.948  1.00  0.00     0.190 HD
HETATM   13  O1  UNL     1     105.484  17.865  18.306  1.00  0.00    -0.271 OA
BRANCH  11  14
HETATM   14  N1  UNL     1     105.118  15.153  18.584  1.00  0.00    -0.314 N 
HETATM   15  C2  UNL     1     104.513  14.620  19.587  1.00  0.00     0.076 C 
HETATM   16  C1  UNL     1     103.061  14.728  19.816  1.00  0.00     0.056 C 
ATOM     17  H1  UNL     1     106.127  15.023  18.508  1.00  0.00     0.185 HD
ENDBRANCH  11  14
ENDBRANCH   1  10
BRANCH   2  18
HETATM   18  C6  UNL     1     104.631  17.521  14.138  1.00  0.00     0.180 C 
HETATM   19  O2  UNL     1     104.895  16.640  13.280  1.00  0.00    -0.648 OA
HETATM   20  O3  UNL     1     105.235  18.743  14.023  1.00  0.00    -0.648 OA
ENDBRANCH   2  18
BRANCH   5  21
HETATM   21  O5  UNL     1     100.648  17.718  17.900  1.00  0.00    -0.391 OA
ATOM     22  H5  UNL     1     100.881  17.995  18.779  1.00  0.00     0.210 HD
ENDBRANCH   5  21
BRANCH   4  23
HETATM   23  O4  UNL     1     101.642  15.394  15.757  1.00  0.00    -0.391 OA
ATOM     24  H4  UNL     1     100.886  14.860  15.975  1.00  0.00     0.210 HD
ENDBRANCH   4  23
BRANCH   8  25
HETATM   25  C12 UNL     1     101.179  20.142  13.629  1.00  0.00     0.098 C 
HETATM   26  C13 UNL     1     102.339  20.481  12.736  1.00  0.00     0.014 C 
ENDBRANCH   8  25
TORSDOF 6
ENDMDL
MODEL 3
REMARK VINA RESULT: -6.304082062      1.983      6.063
REMARK  6 active torsions:
REMARK  status: ('A' for Active; 'I' for Inactive)
REMARK    1  A    between atoms: N1_3  and  N2_5 
REMARK       I    between atoms: N2_5  and  C3_7 
REMARK    2  A    between atoms: C3_7  and  C4_9 
REMARK    3  A    between atoms: C5_10  and  C6_11 
REMARK    4  A    between atoms: C8_15  and  O4_16 
REMARK    5  A    between atoms: C9_18  and  O5_19 
REMARK       I    between atoms: N3_22  and  C11_23 
REMARK    6  A    between atoms: C11_23  and  C12_25 
ROOT
HETATM    1  C4  UNL     1     103.591  18.999  15.679  1.00  0.00     0.121 C 
HETATM    2  C5  UNL     1     102.974  17.650  16.023  1.00  0.00     0.127 C 
HETATM    3  C7  UNL     1     104.134  16.729  16.313  1.00  0.00     0.134 C 
HETATM    4  C8  UNL     1     104.696  16.273  14.997  1.00  0.00     0.172 C 
HETATM    5  C9  UNL     1     105.187  17.601  14.402  1.00  0.00     0.172 C 
HETATM    6  C10 UNL     1     105.051  18.608  15.532  1.00  0.00     0.133 C 
HETATM    7  N3  UNL     1     105.165  17.712  16.684  1.00  0.00    -0.336 N 
HETATM    8  C11 UNL     1     105.990  17.758  17.802  1.00  0.00     0.220 C 
HETATM    9  O6  UNL     1     106.813  18.690  17.937  1.00  0.00    -0.273 OA
ENDROOT
BRANCH   1  10
HETATM   10  C3  UNL     1     103.027  19.591  14.475  1.00  0.00     0.243 C 
HETATM   11  N2  UNL     1     101.749  19.201  14.019  1.00  0.00    -0.270 N 
ATOM     12  H2  UNL     1     101.218  18.500  14.536  1.00  0.00     0.190 HD
HETATM   13  O1  UNL     1     103.692  20.459  13.840  1.00  0.00    -0.271 OA
BRANCH  11  14
HETATM   14  N1  UNL     1     101.213  19.764  12.874  1.00  0.00    -0.314 N 
HETATM   15  C2  UNL     1      99.998  19.584  12.486  1.00  0.00     0.076 C 
HETATM   16  C1  UNL     1      99.023  18.755  13.216  1.00  0.00     0.056 C 
ATOM     17  H1  UNL     1     101.815  20.357  12.303  1.00  0.00     0.185 HD
ENDBRANCH  11  14
ENDBRANCH   1  10
BRANCH   2  18
HETATM   18  C6  UNL     1     102.024  17.766  17.125  1.00  0.00     0.180 C 
HETATM   19  O2  UNL     1     100.803  17.967  16.897  1.00  0.00    -0.648 OA
HETATM   20  O3  UNL     1     102.434  17.660  18.425  1.00  0.00    -0.648 OA
ENDBRANCH   2  18
BRANCH   5  21
HETATM   21  O5  UNL     1     106.520  17.503  14.000  1.00  0.00    -0.391 OA
ATOM     22  H5  UNL     1     106.647  17.904  13.148  1.00  0.00     0.210 HD
ENDBRANCH   5  21
BRANCH   4  23
HETATM   23  O4  UNL     1     103.763  15.674  14.178  1.00  0.00    -0.391 OA
ATOM     24  H4  UNL     1     104.100  15.453  13.318  1.00  0.00     0.210 HD
ENDBRANCH   4  23
BRANCH   8  25
HETATM   25  C12 UNL     1     105.896  16.705  18.834  1.00  0.00     0.098 C 
HETATM   26  C13 UNL     1     105.647  17.347  20.170  1.00  0.00     0.014 C 
ENDBRANCH   8  25
TORSDOF 6
ENDMDL
MODEL 4
REMARK VINA RESULT: -6.250118022      2.060      5.626
REMARK  6 active torsions:
REMARK  status: ('A' for Active; 'I' for Inactive)
REMARK    1  A    between atoms: N1_3  and  N2_5 
REMARK       I    between atoms: N2_5  and  C3_7 
REMARK    2  A    between atoms: C3_7  and  C4_9 
REMARK    3  A    between atoms: C5_10  and  C6_11 
REMARK    4  A    between atoms: C8_15  and  O4_16 
REMARK    5  A    between atoms: C9_18  and  O5_19 
REMARK       I    between atoms: N3_22  and  C11_23 
REMARK    6  A    between atoms: C11_23  and  C12_25 
ROOT
HETATM    1  C4  UNL     1     103.248  18.791  15.890  1.00  0.00     0.121 C 
HETATM    2  C5  UNL     1     102.901  17.394  15.393  1.00  0.00     0.127 C 
HETATM    3  C7  UNL     1     104.083  16.525  15.748  1.00  0.00     0.134 C 
HETATM    4  C8  UNL     1     105.150  16.760  14.717  1.00  0.00     0.172 C 
HETATM    5  C9  UNL     1     105.471  18.244  14.948  1.00  0.00     0.172 C 
HETATM    6  C10 UNL     1     104.720  18.612  16.216  1.00  0.00     0.133 C 
HETATM    7  N3  UNL     1     104.655  17.300  16.862  1.00  0.00    -0.336 N 
HETATM    8  C11 UNL     1     105.016  16.888  18.139  1.00  0.00     0.220 C 
HETATM    9  O6  UNL     1     105.491  17.712  18.953  1.00  0.00    -0.273 OA
ENDROOT
BRANCH   1  10
HETATM   10  C3  UNL     1     102.996  19.826  14.899  1.00  0.00     0.243 C 
HETATM   11  N2  UNL     1     103.274  21.179  15.192  1.00  0.00    -0.270 N 
ATOM     12  H2  UNL     1     103.654  21.432  16.104  1.00  0.00     0.190 HD
HETATM   13  O1  UNL     1     102.524  19.503  13.771  1.00  0.00    -0.271 OA
BRANCH  11  14
HETATM   14  N1  UNL     1     103.034  22.163  14.249  1.00  0.00    -0.314 N 
HETATM   15  C2  UNL     1     102.026  22.963  14.286  1.00  0.00     0.076 C 
HETATM   16  C1  UNL     1     100.999  22.933  15.341  1.00  0.00     0.056 C 
ATOM     17  H1  UNL     1     103.696  22.260  13.478  1.00  0.00     0.185 HD
ENDBRANCH  11  14
ENDBRANCH   1  10
BRANCH   2  18
HETATM   18  C6  UNL     1     101.637  16.928  15.955  1.00  0.00     0.180 C 
HETATM   19  O2  UNL     1     101.440  15.702  16.155  1.00  0.00    -0.648 OA
HETATM   20  O3  UNL     1     100.641  17.808  16.277  1.00  0.00    -0.648 OA
ENDBRANCH   2  18
BRANCH   5  21
HETATM   21  O5  UNL     1     106.843  18.433  15.126  1.00  0.00    -0.391 OA
ATOM     22  H5  UNL     1     107.171  19.106  14.540  1.00  0.00     0.210 HD
ENDBRANCH   5  21
BRANCH   4  23
HETATM   23  O4  UNL     1     104.724  16.537  13.425  1.00  0.00    -0.391 OA
ATOM     24  H4  UNL     1     104.527  15.625  13.243  1.00  0.00     0.210 HD
ENDBRANCH   4  23
BRANCH   8  25
HETATM   25  C12 UNL     1     104.841  15.477  18.539  1.00  0.00     0.098 C 
HETATM   26  C13 UNL     1     103.478  15.305  19.148  1.00  0.00     0.014 C 
ENDBRANCH   8  25
TORSDOF 6
ENDMDL
MODEL 5
REMARK VINA RESULT: -6.234332991      2.015      5.958
REMARK  6 active torsions:
REMARK  status: ('A' for Active; 'I' for Inactive)
REMARK    1  A    between atoms: N1_3  and  N2_5 
REMARK       I    between atoms: N2_5  and  C3_7 
REMARK    2  A    between atoms: C3_7  and  C4_9 
REMARK    3  A    between atoms: C5_10  and  C6_11 
REMARK    4  A    between atoms: C8_15  and  O4_16 
REMARK    5  A    between atoms: C9_18  and  O5_19 
REMARK       I    between atoms: N3_22  and  C11_23 
REMARK    6  A    between atoms: C11_23  and  C12_25 
ROOT
HETATM    1  C4  UNL     1     103.256  18.812  15.825  1.00  0.00     0.121 C 
HETATM    2  C5  UNL     1     102.904  17.414  15.336  1.00  0.00     0.127 C 
HETATM    3  C7  UNL     1     104.077  16.540  15.706  1.00  0.00     0.134 C 
HETATM    4  C8  UNL     1     105.153  16.760  14.683  1.00  0.00     0.172 C 
HETATM    5  C9  UNL     1     105.483  18.244  14.905  1.00  0.00     0.172 C 
HETATM    6  C10 UNL     1     104.724  18.626  16.164  1.00  0.00     0.133 C 
HETATM    7  N3  UNL     1     104.645  17.320  16.819  1.00  0.00    -0.336 N 
HETATM    8  C11 UNL     1     104.993  16.915  18.102  1.00  0.00     0.220 C 
HETATM    9  O6  UNL     1     105.467  17.741  18.914  1.00  0.00    -0.273 OA
ENDROOT
BRANCH   1  10
HETATM   10  C3  UNL     1     103.019  19.842  14.824  1.00  0.00     0.243 C 
HETATM   11  N2  UNL     1     102.528  19.495  13.546  1.00  0.00    -0.270 N 
ATOM     12  H2  UNL     1     102.338  18.518  13.324  1.00  0.00     0.190 HD
HETATM   13  O1  UNL     1     103.258  21.051  15.108  1.00  0.00    -0.271 OA
BRANCH  11  14
HETATM   14  N1  UNL     1     102.303  20.474  12.594  1.00  0.00    -0.314 N 
HETATM   15  C2  UNL     1     101.205  20.593  11.932  1.00  0.00     0.076 C 
HETATM   16  C1  UNL     1     100.046  19.701  12.107  1.00  0.00     0.056 C 
ATOM     17  H1  UNL     1     103.051  21.141  12.405  1.00  0.00     0.185 HD
ENDBRANCH  11  14
ENDBRANCH   1  10
BRANCH   2  18
HETATM   18  C6  UNL     1     101.632  16.961  15.891  1.00  0.00     0.180 C 
HETATM   19  O2  UNL     1     101.412  15.736  16.065  1.00  0.00    -0.648 OA
HETATM   20  O3  UNL     1     100.654  17.854  16.234  1.00  0.00    -0.648 OA
ENDBRANCH   2  18
BRANCH   5  21
HETATM   21  O5  UNL     1     106.855  18.425  15.092  1.00  0.00    -0.391 OA
ATOM     22  H5  UNL     1     107.248  18.836  14.332  1.00  0.00     0.210 HD
ENDBRANCH   5  21
BRANCH   4  23
HETATM   23  O4  UNL     1     104.736  16.530  13.388  1.00  0.00    -0.391 OA
ATOM     24  H4  UNL     1     104.068  15.858  13.319  1.00  0.00     0.210 HD
ENDBRANCH   4  23
BRANCH   8  25
HETATM   25  C12 UNL     1     104.805  15.508  18.511  1.00  0.00     0.098 C 
HETATM   26  C13 UNL     1     103.453  15.359  19.150  1.00  0.00     0.014 C 
ENDBRANCH   8  25
TORSDOF 6
ENDMDL
