MODEL 1
REMARK VINA RESULT: -6.794696113      0.000      0.000
REMARK  7 active torsions:
REMARK  status: ('A' for Active; 'I' for Inactive)
REMARK    1  A    between atoms: C2_2  and  C5_5 
REMARK    2  A    between atoms: C5_5  and  C6_7 
REMARK    3  A    between atoms: C6_7  and  O3_9 
REMARK    4  A    between atoms: O3_9  and  C7_10 
REMARK    5  A    between atoms: C7_10  and  C8_11 
REMARK    6  A    between atoms: C13_17  and  N2_18 
REMARK    7  A    between atoms: C15_23  and  O4_24 
ROOT
HETATM    1  C8  UNL     1     104.313  17.205  19.100  1.00  0.00     0.062 C 
HETATM    2  C9  UNL     1     103.429  16.185  18.435  1.00  0.00     0.124 C 
HETATM    3  C10 UNL     1     102.198  16.817  17.958  1.00  0.00     0.068 C 
HETATM    4  N1  UNL     1     101.227  17.306  17.568  1.00  0.00    -0.197 NA
HETATM    5  C11 UNL     1     103.042  15.049  19.279  1.00  0.00    -0.009 C 
HETATM    6  C12 UNL     1     102.861  15.224  20.577  1.00  0.00    -0.002 C 
HETATM    7  C13 UNL     1     103.044  16.549  21.196  1.00  0.00     0.136 C 
HETATM    8  C15 UNL     1     104.148  17.352  20.565  1.00  0.00     0.152 C 
ENDROOT
BRANCH   1   9
HETATM    9  C7  UNL     1     105.751  16.911  18.761  1.00  0.00     0.188 C 
BRANCH   9  10
HETATM   10  O3  UNL     1     106.115  17.128  17.437  1.00  0.00    -0.315 OA
BRANCH  10  11
HETATM   11  C6  UNL     1     105.997  18.261  16.686  1.00  0.00     0.330 C 
HETATM   12  O2  UNL     1     106.908  19.122  16.770  1.00  0.00    -0.256 OA
BRANCH  11  13
HETATM   13  C5  UNL     1     104.839  18.486  15.796  1.00  0.00     0.231 C 
HETATM   14  O1  UNL     1     103.943  19.277  16.183  1.00  0.00    -0.286 OA
BRANCH  13  15
HETATM   15  C2  UNL     1     104.722  17.819  14.504  1.00  0.00     0.020 C 
HETATM   16  C1  UNL     1     106.061  17.533  13.857  1.00  0.00     0.023 C 
HETATM   17  C3  UNL     1     104.040  16.452  14.653  1.00  0.00     0.023 C 
HETATM   18  C4  UNL     1     103.930  18.695  13.564  1.00  0.00     0.023 C 
ENDBRANCH  13  15
ENDBRANCH  11  13
ENDBRANCH  10  11
ENDBRANCH   9  10
ENDBRANCH   1   9
BRANCH   8  19
HETATM   19  O4  UNL     1     105.317  17.187  21.304  1.00  0.00    -0.393 OA
ATOM     20  H4  UNL     1     105.547  17.926  21.855  1.00  0.00     0.210 HD
ENDBRANCH   8  19
BRANCH   7  21
HETATM   21  N2  UNL     1     103.295  16.409  22.591  1.00  0.00    -0.357 N 
HETATM   22  C14 UNL     1     102.640  16.756  23.597  1.00  0.00     0.197 C 
HETATM   23  N3  UNL     1     103.223  16.439  24.883  1.00  0.00    -0.067 NA
HETATM   24  N4  UNL     1     101.392  17.422  23.667  1.00  0.00    -0.067 NA
ATOM     25  H2  UNL     1     104.173  15.938  22.810  1.00  0.00     0.162 HD
ENDBRANCH   7  21
TORSDOF 7
ENDMDL
MODEL 2
REMARK VINA RESULT: -6.438296195      2.482      3.435
REMARK  7 active torsions:
REMARK  status: ('A' for Active; 'I' for Inactive)
REMARK    1  A    between atoms: C2_2  and  C5_5 
REMARK    2  A    between atoms: C5_5  and  C6_7 
REMARK    3  A    between atoms: C6_7  and  O3_9 
REMARK    4  A    between atoms: O3_9  and  C7_10 
REMARK    5  A    between atoms: C7_10  and  C8_11 
REMARK    6  A    between atoms: C13_17  and  N2_18 
REMARK    7  A    between atoms: C15_23  and  O4_24 
ROOT
HETATM    1  C8  UNL     1     103.180  16.650  18.729  1.00  0.00     0.062 C 
HETATM    2  C9  UNL     1     104.655  16.523  18.997  1.00  0.00     0.124 C 
HETATM    3  C10 UNL     1     105.031  15.112  19.100  1.00  0.00     0.068 C 
HETATM    4  N1  UNL     1     105.342  14.002  19.173  1.00  0.00    -0.197 NA
HETATM    5  C11 UNL     1     105.129  17.194  20.213  1.00  0.00    -0.009 C 
HETATM    6  C12 UNL     1     104.344  17.265  21.275  1.00  0.00    -0.002 C 
HETATM    7  C13 UNL     1     102.992  16.679  21.258  1.00  0.00     0.136 C 
HETATM    8  C15 UNL     1     102.313  16.791  19.922  1.00  0.00     0.152 C 
ENDROOT
BRANCH   1   9
HETATM    9  C7  UNL     1     102.947  17.790  17.772  1.00  0.00     0.188 C 
BRANCH   9  10
HETATM   10  O3  UNL     1     101.695  17.824  17.168  1.00  0.00    -0.315 OA
BRANCH  10  11
HETATM   11  C6  UNL     1     101.340  17.467  15.900  1.00  0.00     0.330 C 
HETATM   12  O2  UNL     1     101.241  16.242  15.639  1.00  0.00    -0.256 OA
BRANCH  11  13
HETATM   13  C5  UNL     1     101.078  18.476  14.854  1.00  0.00     0.231 C 
HETATM   14  O1  UNL     1      99.905  18.580  14.416  1.00  0.00    -0.286 OA
BRANCH  13  15
HETATM   15  C2  UNL     1     102.136  19.333  14.330  1.00  0.00     0.020 C 
HETATM   16  C1  UNL     1     102.448  20.511  15.229  1.00  0.00     0.023 C 
HETATM   17  C3  UNL     1     103.454  18.558  14.200  1.00  0.00     0.023 C 
HETATM   18  C4  UNL     1     101.715  19.873  12.985  1.00  0.00     0.023 C 
ENDBRANCH  13  15
ENDBRANCH  11  13
ENDBRANCH  10  11
ENDBRANCH   9  10
ENDBRANCH   1   9
BRANCH   8  19
HETATM   19  O4  UNL     1     101.491  17.915  19.916  1.00  0.00    -0.393 OA
ATOM     20  H4  UNL     1     100.936  18.006  20.681  1.00  0.00     0.210 HD
ENDBRANCH   8  19
BRANCH   7  21
HETATM   21  N2  UNL     1     102.180  17.289  22.257  1.00  0.00    -0.357 N 
HETATM   22  C14 UNL     1     102.038  17.053  23.476  1.00  0.00     0.197 C 
HETATM   23  N3  UNL     1     101.103  17.899  24.187  1.00  0.00    -0.067 NA
HETATM   24  N4  UNL     1     102.664  16.069  24.278  1.00  0.00    -0.067 NA
ATOM     25  H2  UNL     1     101.609  18.061  21.914  1.00  0.00     0.162 HD
ENDBRANCH   7  21
TORSDOF 7
ENDMDL
MODEL 3
REMARK VINA RESULT: -6.390427344      4.172      7.697
REMARK  7 active torsions:
REMARK  status: ('A' for Active; 'I' for Inactive)
REMARK    1  A    between atoms: C2_2  and  C5_5 
REMARK    2  A    between atoms: C5_5  and  C6_7 
REMARK    3  A    between atoms: C6_7  and  O3_9 
REMARK    4  A    between atoms: O3_9  and  C7_10 
REMARK    5  A    between atoms: C7_10  and  C8_11 
REMARK    6  A    between atoms: C13_17  and  N2_18 
REMARK    7  A    between atoms: C15_23  and  O4_24 
ROOT
HETATM    1  C8  UNL     1     104.297  18.115  14.297  1.00  0.00     0.062 C 
HETATM    2  C9  UNL     1     104.635  18.880  15.547  1.00  0.00     0.124 C 
HETATM    3  C10 UNL     1     104.270  20.289  15.392  1.00  0.00     0.068 C 
HETATM    4  N1  UNL     1     103.978  21.402  15.286  1.00  0.00    -0.197 NA
HETATM    5  C11 UNL     1     106.045  18.832  15.948  1.00  0.00    -0.009 C 
HETATM    6  C12 UNL     1     106.990  18.772  15.024  1.00  0.00    -0.002 C 
HETATM    7  C13 UNL     1     106.649  18.751  13.592  1.00  0.00     0.136 C 
HETATM    8  C15 UNL     1     105.381  18.000  13.293  1.00  0.00     0.152 C 
ENDROOT
BRANCH   1   9
HETATM    9  C7  UNL     1     103.783  16.750  14.674  1.00  0.00     0.188 C 
BRANCH   9  10
HETATM   10  O3  UNL     1     103.606  16.528  16.035  1.00  0.00    -0.315 OA
BRANCH  10  11
HETATM   11  C6  UNL     1     102.460  16.249  16.720  1.00  0.00     0.330 C 
HETATM   12  O2  UNL     1     101.606  15.513  16.165  1.00  0.00    -0.256 OA
BRANCH  11  13
HETATM   13  C5  UNL     1     102.212  16.788  18.073  1.00  0.00     0.231 C 
HETATM   14  O1  UNL     1     101.222  17.543  18.235  1.00  0.00    -0.286 OA
BRANCH  13  15
HETATM   15  C2  UNL     1     103.081  16.465  19.200  1.00  0.00     0.020 C 
HETATM   16  C1  UNL     1     104.474  17.044  19.063  1.00  0.00     0.023 C 
HETATM   17  C3  UNL     1     102.524  17.049  20.505  1.00  0.00     0.023 C 
HETATM   18  C4  UNL     1     103.210  14.966  19.312  1.00  0.00     0.023 C 
ENDBRANCH  13  15
ENDBRANCH  11  13
ENDBRANCH  10  11
ENDBRANCH   9  10
ENDBRANCH   1   9
BRANCH   8  19
HETATM   19  O4  UNL     1     105.696  16.694  12.923  1.00  0.00    -0.393 OA
ATOM     20  H4  UNL     1     106.266  16.236  13.528  1.00  0.00     0.210 HD
ENDBRANCH   8  19
BRANCH   7  21
HETATM   21  N2  UNL     1     107.722  18.191  12.840  1.00  0.00    -0.357 N 
HETATM   22  C14 UNL     1     108.556  18.705  12.063  1.00  0.00     0.197 C 
HETATM   23  N3  UNL     1     109.519  17.803  11.468  1.00  0.00    -0.067 NA
HETATM   24  N4  UNL     1     108.701  20.059  11.674  1.00  0.00    -0.067 NA
ATOM     25  H2  UNL     1     107.829  17.184  12.956  1.00  0.00     0.162 HD
ENDBRANCH   7  21
TORSDOF 7
ENDMDL
MODEL 4
REMARK VINA RESULT: -6.371638705      4.193      6.968
REMARK  7 active torsions:
REMARK  status: ('A' for Active; 'I' for Inactive)
REMARK    1  A    between atoms: C2_2  and  C5_5 
REMARK    2  A    between atoms: C5_5  and  C6_7 
REMARK    3  A    between atoms: C6_7  and  O3_9 
REMARK    4  A    between atoms: O3_9  and  C7_10 
REMARK    5  A    between atoms: C7_10  and  C8_11 
REMARK    6  A    between atoms: C13_17  and  N2_18 
REMARK    7  A    between atoms: C15_23  and  O4_24 
ROOT
HETATM    1  C8  UNL     1     104.114  18.501  15.329  1.00  0.00     0.062 C 
HETATM    2  C9  UNL     1     105.213  18.998  14.430  1.00  0.00     0.124 C 
HETATM    3  C10 UNL     1     106.199  19.752  15.205  1.00  0.00     0.068 C 
HETATM    4  N1  UNL     1     106.990  20.340  15.808  1.00  0.00    -0.197 NA
HETATM    5  C11 UNL     1     104.776  19.855  13.323  1.00  0.00    -0.009 C 
HETATM    6  C12 UNL     1     103.741  20.663  13.485  1.00  0.00    -0.002 C 
HETATM    7  C13 UNL     1     103.014  20.716  14.765  1.00  0.00     0.136 C 
HETATM    8  C15 UNL     1     102.931  19.383  15.457  1.00  0.00     0.152 C 
ENDROOT
BRANCH   1   9
HETATM    9  C7  UNL     1     103.696  17.123  14.885  1.00  0.00     0.188 C 
BRANCH   9  10
HETATM   10  O3  UNL     1     103.491  16.199  15.904  1.00  0.00    -0.315 OA
BRANCH  10  11
HETATM   11  C6  UNL     1     102.391  16.012  16.688  1.00  0.00     0.330 C 
HETATM   12  O2  UNL     1     101.508  15.214  16.284  1.00  0.00    -0.256 OA
BRANCH  11  13
HETATM   13  C5  UNL     1     102.225  16.718  17.975  1.00  0.00     0.231 C 
HETATM   14  O1  UNL     1     101.308  17.572  18.065  1.00  0.00    -0.286 OA
BRANCH  13  15
HETATM   15  C2  UNL     1     103.091  16.447  19.118  1.00  0.00     0.020 C 
HETATM   16  C1  UNL     1     104.471  17.053  18.977  1.00  0.00     0.023 C 
HETATM   17  C3  UNL     1     102.508  17.053  20.402  1.00  0.00     0.023 C 
HETATM   18  C4  UNL     1     103.253  14.954  19.273  1.00  0.00     0.023 C 
ENDBRANCH  13  15
ENDBRANCH  11  13
ENDBRANCH  10  11
ENDBRANCH   9  10
ENDBRANCH   1   9
BRANCH   8  19
HETATM   19  O4  UNL     1     101.716  18.778  15.145  1.00  0.00    -0.393 OA
ATOM     20  H4  UNL     1     101.046  18.862  15.814  1.00  0.00     0.210 HD
ENDBRANCH   8  19
BRANCH   7  21
HETATM   21  N2  UNL     1     101.701  21.230  14.564  1.00  0.00    -0.357 N 
HETATM   22  C14 UNL     1     101.152  22.289  14.938  1.00  0.00     0.197 C 
HETATM   23  N3  UNL     1      99.774  22.474  14.535  1.00  0.00    -0.067 NA
HETATM   24  N4  UNL     1     101.685  23.351  15.708  1.00  0.00    -0.067 NA
ATOM     25  H2  UNL     1     101.097  20.621  14.013  1.00  0.00     0.162 HD
ENDBRANCH   7  21
TORSDOF 7
ENDMDL
MODEL 5
REMARK VINA RESULT: -6.284006882      4.153      6.677
REMARK  7 active torsions:
REMARK  status: ('A' for Active; 'I' for Inactive)
REMARK    1  A    between atoms: C2_2  and  C5_5 
REMARK    2  A    between atoms: C5_5  and  C6_7 
REMARK    3  A    between atoms: C6_7  and  O3_9 
REMARK    4  A    between atoms: O3_9  and  C7_10 
REMARK    5  A    between atoms: C7_10  and  C8_11 
REMARK    6  A    between atoms: C13_17  and  N2_18 
REMARK    7  A    between atoms: C15_23  and  O4_24 
ROOT
HETATM    1  C8  UNL     1     102.027  16.397  15.317  1.00  0.00     0.062 C 
HETATM    2  C9  UNL     1     101.282  17.596  15.838  1.00  0.00     0.124 C 
HETATM    3  C10 UNL     1     100.349  18.091  14.825  1.00  0.00     0.068 C 
HETATM    4  N1  UNL     1      99.601  18.485  14.038  1.00  0.00    -0.197 NA
HETATM    5  C11 UNL     1     102.123  18.724  16.250  1.00  0.00    -0.009 C 
HETATM    6  C12 UNL     1     103.255  18.970  15.611  1.00  0.00    -0.002 C 
HETATM    7  C13 UNL     1     103.688  18.124  14.485  1.00  0.00     0.136 C 
HETATM    8  C15 UNL     1     103.324  16.676  14.656  1.00  0.00     0.152 C 
ENDROOT
BRANCH   1   9
HETATM    9  C7  UNL     1     102.210  15.403  16.434  1.00  0.00     0.188 C 
BRANCH   9  10
HETATM   10  O3  UNL     1     101.874  15.855  17.705  1.00  0.00    -0.315 OA
BRANCH  10  11
HETATM   11  C6  UNL     1     102.453  15.561  18.904  1.00  0.00     0.330 C 
HETATM   12  O2  UNL     1     102.262  14.415  19.385  1.00  0.00    -0.256 OA
BRANCH  11  13
HETATM   13  C5  UNL     1     103.280  16.545  19.631  1.00  0.00     0.231 C 
HETATM   14  O1  UNL     1     102.708  17.308  20.448  1.00  0.00    -0.286 OA
BRANCH  13  15
HETATM   15  C2  UNL     1     104.720  16.645  19.418  1.00  0.00     0.020 C 
HETATM   16  C1  UNL     1     105.091  17.565  18.273  1.00  0.00     0.023 C 
HETATM   17  C3  UNL     1     105.417  17.232  20.654  1.00  0.00     0.023 C 
HETATM   18  C4  UNL     1     105.272  15.275  19.111  1.00  0.00     0.023 C 
ENDBRANCH  13  15
ENDBRANCH  11  13
ENDBRANCH  10  11
ENDBRANCH   9  10
ENDBRANCH   1   9
BRANCH   8  19
HETATM   19  O4  UNL     1     104.410  15.987  15.190  1.00  0.00    -0.393 OA
ATOM     20  H4  UNL     1     104.594  16.181  16.101  1.00  0.00     0.210 HD
ENDBRANCH   8  19
BRANCH   7  21
HETATM   21  N2  UNL     1     105.095  18.242  14.296  1.00  0.00    -0.357 N 
HETATM   22  C14 UNL     1     105.778  18.936  13.512  1.00  0.00     0.197 C 
HETATM   23  N3  UNL     1     107.214  18.787  13.609  1.00  0.00    -0.067 NA
HETATM   24  N4  UNL     1     105.349  19.861  12.529  1.00  0.00    -0.067 NA
ATOM     25  H2  UNL     1     105.648  17.649  14.915  1.00  0.00     0.162 HD
ENDBRANCH   7  21
TORSDOF 7
ENDMDL
