MODEL 1
REMARK VINA RESULT: -6.067510907      0.000      0.000
REMARK  5 active torsions:
REMARK  status: ('A' for Active; 'I' for Inactive)
REMARK    1  A    between atoms: C2_2  and  N1_3 
REMARK       I    between atoms: N1_3  and  C3_5 
REMARK    2  A    between atoms: C3_5  and  C4_7 
REMARK    3  A    between atoms: C6_11  and  N3_12 
REMARK       I    between atoms: N3_12  and  C7_14 
REMARK    4  A    between atoms: C7_14  and  C8_16 
REMARK    5  A    between atoms: C8_16  and  N4_18 
ROOT
HETATM    1  C4  UNL     1     102.993  18.134  14.596  1.00  0.00     0.198 C 
HETATM    2  N2  UNL     1     104.326  18.183  15.148  1.00  0.00    -0.319 N 
HETATM    3  C5  UNL     1     105.759  18.125  15.246  1.00  0.00     0.247 C 
HETATM    4  O2  UNL     1     106.642  18.419  14.408  1.00  0.00    -0.271 OA
HETATM    5  C6  UNL     1     105.584  17.621  16.618  1.00  0.00     0.210 C 
HETATM    6  C10 UNL     1     104.336  18.495  16.554  1.00  0.00     0.183 C 
HETATM    7  S1  UNL     1     102.837  17.656  17.127  1.00  0.00    -0.129 SA
HETATM    8  C11 UNL     1     102.109  17.355  15.465  1.00  0.00     0.032 C 
HETATM    9  C12 UNL     1     102.182  15.874  15.136  1.00  0.00     0.029 C 
HETATM   10  C13 UNL     1     100.686  17.776  15.529  1.00  0.00     0.029 C 
ENDROOT
BRANCH   5  11
HETATM   11  N3  UNL     1     106.466  18.156  17.620  1.00  0.00    -0.343 N 
HETATM   12  C7  UNL     1     106.727  17.526  18.862  1.00  0.00     0.248 C 
HETATM   13  O3  UNL     1     106.214  16.435  19.212  1.00  0.00    -0.271 OA
ATOM     14  H3  UNL     1     106.931  19.043  17.426  1.00  0.00     0.163 HD
BRANCH  12  15
HETATM   15  C8  UNL     1     107.657  18.167  19.827  1.00  0.00     0.270 C 
HETATM   16  C9  UNL     1     107.194  17.794  21.217  1.00  0.00     0.050 C 
BRANCH  15  17
HETATM   17  N4  UNL     1     109.026  17.853  19.578  1.00  0.00    -0.067 N 
ATOM     18  H43 UNL     1     109.366  17.159  20.243  1.00  0.00     0.275 HD
ATOM     19  H42 UNL     1     109.125  17.319  18.714  1.00  0.00     0.275 HD
ATOM     20  H41 UNL     1     109.629  18.675  19.568  1.00  0.00     0.275 HD
ENDBRANCH  15  17
ENDBRANCH  12  15
ENDBRANCH   5  11
BRANCH   1  21
HETATM   21  C3  UNL     1     102.581  19.503  14.259  1.00  0.00     0.242 C 
HETATM   22  N1  UNL     1     102.524  20.602  15.102  1.00  0.00    -0.360 N 
ATOM     23  H1  UNL     1     102.791  20.504  16.081  1.00  0.00     0.162 HD
HETATM   24  O1  UNL     1     102.241  19.662  13.040  1.00  0.00    -0.271 OA
BRANCH  22  25
HETATM   25  C2  UNL     1     102.090  21.886  14.601  1.00  0.00     0.118 C 
HETATM   26  C1  UNL     1     101.235  22.629  15.604  1.00  0.00     0.026 C 
ENDBRANCH  22  25
ENDBRANCH   1  21
TORSDOF 5
ENDMDL
MODEL 2
REMARK VINA RESULT: -5.796717242      2.891      5.525
REMARK  5 active torsions:
REMARK  status: ('A' for Active; 'I' for Inactive)
REMARK    1  A    between atoms: C2_2  and  N1_3 
REMARK       I    between atoms: N1_3  and  C3_5 
REMARK    2  A    between atoms: C3_5  and  C4_7 
REMARK    3  A    between atoms: C6_11  and  N3_12 
REMARK       I    between atoms: N3_12  and  C7_14 
REMARK    4  A    between atoms: C7_14  and  C8_16 
REMARK    5  A    between atoms: C8_16  and  N4_18 
ROOT
HETATM    1  C4  UNL     1     103.671  18.094  16.420  1.00  0.00     0.198 C 
HETATM    2  N2  UNL     1     104.851  18.575  15.742  1.00  0.00    -0.319 N 
HETATM    3  C5  UNL     1     105.882  19.460  15.271  1.00  0.00     0.247 C 
HETATM    4  O2  UNL     1     106.405  20.460  15.815  1.00  0.00    -0.271 OA
HETATM    5  C6  UNL     1     105.929  18.652  14.042  1.00  0.00     0.210 C 
HETATM    6  C10 UNL     1     105.534  17.541  15.009  1.00  0.00     0.183 C 
HETATM    7  S1  UNL     1     104.149  16.531  14.423  1.00  0.00    -0.129 SA
HETATM    8  C11 UNL     1     102.868  17.265  15.519  1.00  0.00     0.032 C 
HETATM    9  C12 UNL     1     101.916  18.115  14.696  1.00  0.00     0.029 C 
HETATM   10  C13 UNL     1     102.119  16.137  16.131  1.00  0.00     0.029 C 
ENDROOT
BRANCH   5  11
HETATM   11  N3  UNL     1     107.233  18.354  13.513  1.00  0.00    -0.343 N 
HETATM   12  C7  UNL     1     107.592  18.518  12.152  1.00  0.00     0.248 C 
HETATM   13  O3  UNL     1     106.805  18.941  11.270  1.00  0.00    -0.271 OA
ATOM     14  H3  UNL     1     107.943  18.004  14.156  1.00  0.00     0.163 HD
BRANCH  12  15
HETATM   15  C8  UNL     1     108.969  18.181  11.712  1.00  0.00     0.270 C 
HETATM   16  C9  UNL     1     109.191  18.845  10.371  1.00  0.00     0.050 C 
BRANCH  15  17
HETATM   17  N4  UNL     1     109.963  18.508  12.681  1.00  0.00    -0.067 N 
ATOM     18  H43 UNL     1     110.067  19.519  12.769  1.00  0.00     0.275 HD
ATOM     19  H42 UNL     1     109.635  18.293  13.623  1.00  0.00     0.275 HD
ATOM     20  H41 UNL     1     110.862  18.064  12.498  1.00  0.00     0.275 HD
ENDBRANCH  15  17
ENDBRANCH  12  15
ENDBRANCH   5  11
BRANCH   1  21
HETATM   21  C3  UNL     1     104.081  17.504  17.701  1.00  0.00     0.242 C 
HETATM   22  N1  UNL     1     105.324  16.991  18.039  1.00  0.00    -0.360 N 
ATOM     23  H1  UNL     1     106.079  17.001  17.354  1.00  0.00     0.162 HD
HETATM   24  O1  UNL     1     103.159  17.476  18.583  1.00  0.00    -0.271 OA
BRANCH  22  25
HETATM   25  C2  UNL     1     105.556  16.442  19.355  1.00  0.00     0.118 C 
HETATM   26  C1  UNL     1     106.186  17.450  20.290  1.00  0.00     0.026 C 
ENDBRANCH  22  25
ENDBRANCH   1  21
TORSDOF 5
ENDMDL
MODEL 3
REMARK VINA RESULT: -5.795965317      2.959      3.875
REMARK  5 active torsions:
REMARK  status: ('A' for Active; 'I' for Inactive)
REMARK    1  A    between atoms: C2_2  and  N1_3 
REMARK       I    between atoms: N1_3  and  C3_5 
REMARK    2  A    between atoms: C3_5  and  C4_7 
REMARK    3  A    between atoms: C6_11  and  N3_12 
REMARK       I    between atoms: N3_12  and  C7_14 
REMARK    4  A    between atoms: C7_14  and  C8_16 
REMARK    5  A    between atoms: C8_16  and  N4_18 
ROOT
HETATM    1  C4  UNL     1     106.277  19.646  14.816  1.00  0.00     0.198 C 
HETATM    2  N2  UNL     1     105.962  18.855  15.981  1.00  0.00    -0.319 N 
HETATM    3  C5  UNL     1     106.114  18.129  17.212  1.00  0.00     0.247 C 
HETATM    4  O2  UNL     1     106.885  18.325  18.180  1.00  0.00    -0.271 OA
HETATM    5  C6  UNL     1     105.055  17.224  16.739  1.00  0.00     0.210 C 
HETATM    6  C10 UNL     1     104.569  18.494  16.050  1.00  0.00     0.183 C 
HETATM    7  S1  UNL     1     104.164  18.257  14.301  1.00  0.00    -0.129 SA
HETATM    8  C11 UNL     1     105.674  19.056  13.619  1.00  0.00     0.032 C 
HETATM    9  C12 UNL     1     106.581  17.999  13.013  1.00  0.00     0.029 C 
HETATM   10  C13 UNL     1     105.229  19.994  12.556  1.00  0.00     0.029 C 
ENDROOT
BRANCH   5  11
HETATM   11  N3  UNL     1     104.068  16.822  17.706  1.00  0.00    -0.343 N 
HETATM   12  C7  UNL     1     104.287  15.836  18.700  1.00  0.00     0.248 C 
HETATM   13  O3  UNL     1     105.368  15.213  18.836  1.00  0.00    -0.271 OA
ATOM     14  H3  UNL     1     103.154  17.275  17.674  1.00  0.00     0.163 HD
BRANCH  12  15
HETATM   15  C8  UNL     1     103.197  15.499  19.650  1.00  0.00     0.270 C 
HETATM   16  C9  UNL     1     103.013  16.687  20.567  1.00  0.00     0.050 C 
BRANCH  15  17
HETATM   17  N4  UNL     1     101.996  15.088  19.000  1.00  0.00    -0.067 N 
ATOM     18  H43 UNL     1     101.871  15.585  18.118  1.00  0.00     0.275 HD
ATOM     19  H42 UNL     1     102.083  14.136  18.644  1.00  0.00     0.275 HD
ATOM     20  H41 UNL     1     101.170  15.181  19.591  1.00  0.00     0.275 HD
ENDBRANCH  15  17
ENDBRANCH  12  15
ENDBRANCH   5  11
BRANCH   1  21
HETATM   21  C3  UNL     1     105.963  21.050  15.112  1.00  0.00     0.242 C 
HETATM   22  N1  UNL     1     104.715  21.613  15.327  1.00  0.00    -0.360 N 
ATOM     23  H1  UNL     1     103.882  21.026  15.288  1.00  0.00     0.162 HD
HETATM   24  O1  UNL     1     106.985  21.813  15.168  1.00  0.00    -0.271 OA
BRANCH  22  25
HETATM   25  C2  UNL     1     104.587  23.025  15.606  1.00  0.00     0.118 C 
HETATM   26  C1  UNL     1     103.165  23.513  15.437  1.00  0.00     0.026 C 
ENDBRANCH  22  25
ENDBRANCH   1  21
TORSDOF 5
ENDMDL
MODEL 4
REMARK VINA RESULT: -5.744683842      6.815      8.391
REMARK  5 active torsions:
REMARK  status: ('A' for Active; 'I' for Inactive)
REMARK    1  A    between atoms: C2_2  and  N1_3 
REMARK       I    between atoms: N1_3  and  C3_5 
REMARK    2  A    between atoms: C3_5  and  C4_7 
REMARK    3  A    between atoms: C6_11  and  N3_12 
REMARK       I    between atoms: N3_12  and  C7_14 
REMARK    4  A    between atoms: C7_14  and  C8_16 
REMARK    5  A    between atoms: C8_16  and  N4_18 
ROOT
HETATM    1  C4  UNL     1     108.742  20.344  12.690  1.00  0.00     0.198 C 
HETATM    2  N2  UNL     1     110.163  20.540  12.850  1.00  0.00    -0.319 N 
HETATM    3  C5  UNL     1     111.436  21.190  13.009  1.00  0.00     0.247 C 
HETATM    4  O2  UNL     1     111.736  22.254  13.598  1.00  0.00    -0.271 OA
HETATM    5  C6  UNL     1     112.027  20.089  12.232  1.00  0.00     0.210 C 
HETATM    6  C10 UNL     1     110.896  19.301  12.885  1.00  0.00     0.183 C 
HETATM    7  S1  UNL     1     109.956  18.284  11.719  1.00  0.00    -0.129 SA
HETATM    8  C11 UNL     1     108.478  19.374  11.626  1.00  0.00     0.032 C 
HETATM    9  C12 UNL     1     108.427  20.051  10.267  1.00  0.00     0.029 C 
HETATM   10  C13 UNL     1     107.284  18.505  11.789  1.00  0.00     0.029 C 
ENDROOT
BRANCH   5  11
HETATM   11  N3  UNL     1     113.281  19.564  12.702  1.00  0.00    -0.343 N 
HETATM   12  C7  UNL     1     114.462  19.516  11.921  1.00  0.00     0.248 C 
HETATM   13  O3  UNL     1     114.532  19.926  10.737  1.00  0.00    -0.271 OA
ATOM     14  H3  UNL     1     113.323  19.206  13.656  1.00  0.00     0.163 HD
BRANCH  12  15
HETATM   15  C8  UNL     1     115.705  18.953  12.508  1.00  0.00     0.270 C 
HETATM   16  C9  UNL     1     115.652  19.198  13.999  1.00  0.00     0.050 C 
BRANCH  15  17
HETATM   17  N4  UNL     1     115.919  17.587  12.162  1.00  0.00    -0.067 N 
ATOM     18  H43 UNL     1     115.173  17.243  11.557  1.00  0.00     0.275 HD
ATOM     19  H42 UNL     1     116.709  17.493  11.522  1.00  0.00     0.275 HD
ATOM     20  H41 UNL     1     116.036  16.982  12.975  1.00  0.00     0.275 HD
ENDBRANCH  15  17
ENDBRANCH  12  15
ENDBRANCH   5  11
BRANCH   1  21
HETATM   21  C3  UNL     1     108.160  20.078  14.012  1.00  0.00     0.242 C 
HETATM   22  N1  UNL     1     108.468  19.043  14.880  1.00  0.00    -0.360 N 
ATOM     23  H1  UNL     1     109.177  18.357  14.620  1.00  0.00     0.162 HD
HETATM   24  O1  UNL     1     107.269  20.918  14.369  1.00  0.00    -0.271 OA
BRANCH  22  25
HETATM   25  C2  UNL     1     107.791  18.929  16.152  1.00  0.00     0.118 C 
HETATM   26  C1  UNL     1     108.734  18.531  17.266  1.00  0.00     0.026 C 
ENDBRANCH  22  25
ENDBRANCH   1  21
TORSDOF 5
ENDMDL
MODEL 5
REMARK VINA RESULT: -5.693952117      2.917      3.749
REMARK  5 active torsions:
REMARK  status: ('A' for Active; 'I' for Inactive)
REMARK    1  A    between atoms: C2_2  and  N1_3 
REMARK       I    between atoms: N1_3  and  C3_5 
REMARK    2  A    between atoms: C3_5  and  C4_7 
REMARK    3  A    between atoms: C6_11  and  N3_12 
REMARK       I    between atoms: N3_12  and  C7_14 
REMARK    4  A    between atoms: C7_14  and  C8_16 
REMARK    5  A    between atoms: C8_16  and  N4_18 
ROOT
HETATM    1  C4  UNL     1     103.084  19.617  13.313  1.00  0.00     0.198 C 
HETATM    2  N2  UNL     1     103.493  18.487  14.112  1.00  0.00    -0.319 N 
HETATM    3  C5  UNL     1     103.896  17.156  14.479  1.00  0.00     0.247 C 
HETATM    4  O2  UNL     1     104.573  16.311  13.850  1.00  0.00    -0.271 OA
HETATM    5  C6  UNL     1     103.184  17.357  15.751  1.00  0.00     0.210 C 
HETATM    6  C10 UNL     1     103.600  18.804  15.513  1.00  0.00     0.183 C 
HETATM    7  S1  UNL     1     102.247  19.989  15.726  1.00  0.00    -0.129 SA
HETATM    8  C11 UNL     1     101.950  20.300  13.937  1.00  0.00     0.032 C 
HETATM    9  C12 UNL     1     100.633  19.667  13.521  1.00  0.00     0.029 C 
HETATM   10  C13 UNL     1     101.868  21.772  13.758  1.00  0.00     0.029 C 
ENDROOT
BRANCH   5  11
HETATM   11  N3  UNL     1     103.839  16.883  16.941  1.00  0.00    -0.343 N 
HETATM   12  C7  UNL     1     103.187  16.156  17.968  1.00  0.00     0.248 C 
HETATM   13  O3  UNL     1     101.969  15.852  17.942  1.00  0.00    -0.271 OA
ATOM     14  H3  UNL     1     104.833  17.082  17.052  1.00  0.00     0.163 HD
BRANCH  12  15
HETATM   15  C8  UNL     1     103.960  15.713  19.156  1.00  0.00     0.270 C 
HETATM   16  C9  UNL     1     103.257  16.253  20.381  1.00  0.00     0.050 C 
BRANCH  15  17
HETATM   17  N4  UNL     1     104.169  14.303  19.194  1.00  0.00    -0.067 N 
ATOM     18  H43 UNL     1     103.314  13.802  18.950  1.00  0.00     0.275 HD
ATOM     19  H42 UNL     1     104.764  14.003  18.421  1.00  0.00     0.275 HD
ATOM     20  H41 UNL     1     104.540  13.977  20.086  1.00  0.00     0.275 HD
ENDBRANCH  15  17
ENDBRANCH  12  15
ENDBRANCH   5  11
BRANCH   1  21
HETATM   21  C3  UNL     1     104.274  20.420  13.005  1.00  0.00     0.242 C 
HETATM   22  N1  UNL     1     105.215  20.917  13.893  1.00  0.00    -0.360 N 
ATOM     23  H1  UNL     1     105.118  20.730  14.891  1.00  0.00     0.162 HD
HETATM   24  O1  UNL     1     104.428  20.673  11.763  1.00  0.00    -0.271 OA
BRANCH  22  25
HETATM   25  C2  UNL     1     106.333  21.698  13.415  1.00  0.00     0.118 C 
HETATM   26  C1  UNL     1     107.639  20.940  13.509  1.00  0.00     0.026 C 
ENDBRANCH  22  25
ENDBRANCH   1  21
TORSDOF 5
ENDMDL
