MODEL 1
REMARK VINA RESULT: -6.463160851      0.000      0.000
REMARK  6 active torsions:
REMARK  status: ('A' for Active; 'I' for Inactive)
REMARK    1  A    between atoms: O1_1  and  C1_3 
REMARK    2  A    between atoms: C1_3  and  C2_4 
REMARK    3  A    between atoms: C5_7  and  O2_8 
REMARK    4  A    between atoms: C6_10  and  C7_11 
REMARK    5  A    between atoms: C8_12  and  C9_13 
REMARK    6  A    between atoms: C9_13  and  O3_14 
ROOT
HETATM    1  C2  UNL     1     -16.890  18.158 -21.731  1.00  0.00     0.027 C 
HETATM    2  C3  UNL     1     -18.266  17.912 -22.331  1.00  0.00     0.010 C 
HETATM    3  C4  UNL     1     -19.130  17.866 -21.109  1.00  0.00     0.033 C 
HETATM    4  C5  UNL     1     -18.225  17.563 -19.930  1.00  0.00     0.134 C 
HETATM    5  C6  UNL     1     -16.937  17.151 -20.592  1.00  0.00     0.100 C 
ENDROOT
BRANCH   5   6
HETATM    6  C7  UNL     1     -15.841  17.293 -19.668  1.00  0.00    -0.096 C 
HETATM    7  C8  UNL     1     -14.915  17.401 -18.912  1.00  0.00    -0.068 C 
BRANCH   7   8
HETATM    8  C9  UNL     1     -13.771  17.524 -18.009  1.00  0.00     0.121 C 
HETATM    9  C10 UNL     1     -13.538  16.214 -17.241  1.00  0.00     0.051 C 
HETATM   10  C11 UNL     1     -12.451  16.720 -16.283  1.00  0.00     0.004 C 
HETATM   11  C12 UNL     1     -13.043  18.005 -15.801  1.00  0.00     0.004 C 
HETATM   12  C13 UNL     1     -14.055  18.449 -16.847  1.00  0.00     0.051 C 
BRANCH   8  13
HETATM   13  O3  UNL     1     -12.597  17.818 -18.654  1.00  0.00    -0.378 OA
ATOM     14  H3  UNL     1     -12.358  18.736 -18.600  1.00  0.00     0.211 HD
ENDBRANCH   8  13
ENDBRANCH   7   8
ENDBRANCH   5   6
BRANCH   1  15
HETATM   15  C1  UNL     1     -15.788  17.862 -22.705  1.00  0.00     0.170 C 
BRANCH  15  16
HETATM   16  O1  UNL     1     -16.010  18.650 -23.838  1.00  0.00    -0.400 OA
ATOM     17  H1  UNL     1     -15.283  19.258 -23.907  1.00  0.00     0.209 HD
ENDBRANCH  15  16
ENDBRANCH   1  15
BRANCH   4  18
HETATM   18  O2  UNL     1     -18.043  18.755 -19.193  1.00  0.00    -0.394 OA
ATOM     19  H2  UNL     1     -17.165  18.750 -18.830  1.00  0.00     0.210 HD
ENDBRANCH   4  18
TORSDOF 6
ENDMDL
MODEL 2
REMARK VINA RESULT: -6.431132813      0.967      1.240
REMARK  6 active torsions:
REMARK  status: ('A' for Active; 'I' for Inactive)
REMARK    1  A    between atoms: O1_1  and  C1_3 
REMARK    2  A    between atoms: C1_3  and  C2_4 
REMARK    3  A    between atoms: C5_7  and  O2_8 
REMARK    4  A    between atoms: C6_10  and  C7_11 
REMARK    5  A    between atoms: C8_12  and  C9_13 
REMARK    6  A    between atoms: C9_13  and  O3_14 
ROOT
HETATM    1  C2  UNL     1     -16.883  18.179 -21.762  1.00  0.00     0.027 C 
HETATM    2  C3  UNL     1     -18.202  17.945 -22.483  1.00  0.00     0.010 C 
HETATM    3  C4  UNL     1     -19.173  17.914 -21.343  1.00  0.00     0.033 C 
HETATM    4  C5  UNL     1     -18.382  17.608 -20.087  1.00  0.00     0.134 C 
HETATM    5  C6  UNL     1     -17.043  17.178 -20.629  1.00  0.00     0.100 C 
ENDROOT
BRANCH   5   6
HETATM    6  C7  UNL     1     -16.034  17.313 -19.610  1.00  0.00    -0.096 C 
HETATM    7  C8  UNL     1     -15.205  17.413 -18.747  1.00  0.00    -0.068 C 
BRANCH   7   8
HETATM    8  C9  UNL     1     -14.208  17.520 -17.682  1.00  0.00     0.121 C 
HETATM    9  C10 UNL     1     -14.621  18.583 -16.653  1.00  0.00     0.051 C 
HETATM   10  C11 UNL     1     -13.329  18.588 -15.823  1.00  0.00     0.004 C 
HETATM   11  C12 UNL     1     -12.283  18.660 -16.889  1.00  0.00     0.004 C 
HETATM   12  C13 UNL     1     -12.914  18.130 -18.168  1.00  0.00     0.051 C 
BRANCH   8  13
HETATM   13  O3  UNL     1     -14.024  16.350 -16.991  1.00  0.00    -0.378 OA
ATOM     14  H3  UNL     1     -13.226  15.894 -17.229  1.00  0.00     0.211 HD
ENDBRANCH   8  13
ENDBRANCH   7   8
ENDBRANCH   5   6
BRANCH   1  15
HETATM   15  C1  UNL     1     -15.701  17.866 -22.633  1.00  0.00     0.170 C 
BRANCH  15  16
HETATM   16  O1  UNL     1     -15.888  18.533 -23.846  1.00  0.00    -0.400 OA
ATOM     17  H1  UNL     1     -16.499  18.019 -24.361  1.00  0.00     0.209 HD
ENDBRANCH  15  16
ENDBRANCH   1  15
BRANCH   4  18
HETATM   18  O2  UNL     1     -18.253  18.801 -19.341  1.00  0.00    -0.394 OA
ATOM     19  H2  UNL     1     -19.094  18.998 -18.944  1.00  0.00     0.210 HD
ENDBRANCH   4  18
TORSDOF 6
ENDMDL
MODEL 3
REMARK VINA RESULT: -6.327263547      1.643      2.781
REMARK  6 active torsions:
REMARK  status: ('A' for Active; 'I' for Inactive)
REMARK    1  A    between atoms: O1_1  and  C1_3 
REMARK    2  A    between atoms: C1_3  and  C2_4 
REMARK    3  A    between atoms: C5_7  and  O2_8 
REMARK    4  A    between atoms: C6_10  and  C7_11 
REMARK    5  A    between atoms: C8_12  and  C9_13 
REMARK    6  A    between atoms: C9_13  and  O3_14 
ROOT
HETATM    1  C2  UNL     1     -18.180  17.376 -21.614  1.00  0.00     0.027 C 
HETATM    2  C3  UNL     1     -18.490  18.175 -22.870  1.00  0.00     0.010 C 
HETATM    3  C4  UNL     1     -17.118  18.445 -23.407  1.00  0.00     0.033 C 
HETATM    4  C5  UNL     1     -16.145  18.283 -22.256  1.00  0.00     0.134 C 
HETATM    5  C6  UNL     1     -17.052  18.227 -21.054  1.00  0.00     0.100 C 
ENDROOT
BRANCH   5   6
HETATM    6  C7  UNL     1     -16.368  17.604 -19.950  1.00  0.00    -0.096 C 
HETATM    7  C8  UNL     1     -15.803  17.101 -19.017  1.00  0.00    -0.068 C 
BRANCH   7   8
HETATM    8  C9  UNL     1     -15.125  16.507 -17.866  1.00  0.00     0.121 C 
HETATM    9  C10 UNL     1     -15.430  17.296 -16.584  1.00  0.00     0.051 C 
HETATM   10  C11 UNL     1     -14.454  16.568 -15.650  1.00  0.00     0.004 C 
HETATM   11  C12 UNL     1     -13.205  16.547 -16.471  1.00  0.00     0.004 C 
HETATM   12  C13 UNL     1     -13.626  16.694 -17.926  1.00  0.00     0.051 C 
BRANCH   8  13
HETATM   13  O3  UNL     1     -15.494  15.207 -17.629  1.00  0.00    -0.378 OA
ATOM     14  H3  UNL     1     -16.425  15.055 -17.735  1.00  0.00     0.211 HD
ENDBRANCH   8  13
ENDBRANCH   7   8
ENDBRANCH   5   6
BRANCH   1  15
HETATM   15  C1  UNL     1     -19.356  17.309 -20.683  1.00  0.00     0.170 C 
BRANCH  15  16
HETATM   16  O1  UNL     1     -19.938  18.578 -20.655  1.00  0.00    -0.400 OA
ATOM     17  H1  UNL     1     -19.754  18.956 -19.803  1.00  0.00     0.209 HD
ENDBRANCH  15  16
ENDBRANCH   1  15
BRANCH   4  18
HETATM   18  O2  UNL     1     -15.465  17.055 -22.419  1.00  0.00    -0.394 OA
ATOM     19  H2  UNL     1     -16.063  16.432 -22.817  1.00  0.00     0.210 HD
ENDBRANCH   4  18
TORSDOF 6
ENDMDL
MODEL 4
REMARK VINA RESULT: -6.308881046      0.889      1.205
REMARK  6 active torsions:
REMARK  status: ('A' for Active; 'I' for Inactive)
REMARK    1  A    between atoms: O1_1  and  C1_3 
REMARK    2  A    between atoms: C1_3  and  C2_4 
REMARK    3  A    between atoms: C5_7  and  O2_8 
REMARK    4  A    between atoms: C6_10  and  C7_11 
REMARK    5  A    between atoms: C8_12  and  C9_13 
REMARK    6  A    between atoms: C9_13  and  O3_14 
ROOT
HETATM    1  C2  UNL     1     -16.882  18.167 -21.747  1.00  0.00     0.027 C 
HETATM    2  C3  UNL     1     -18.197  17.877 -22.455  1.00  0.00     0.010 C 
HETATM    3  C4  UNL     1     -19.163  17.856 -21.311  1.00  0.00     0.033 C 
HETATM    4  C5  UNL     1     -18.359  17.607 -20.049  1.00  0.00     0.134 C 
HETATM    5  C6  UNL     1     -17.012  17.196 -20.584  1.00  0.00     0.100 C 
ENDROOT
BRANCH   5   6
HETATM    6  C7  UNL     1     -16.003  17.387 -19.574  1.00  0.00    -0.096 C 
HETATM    7  C8  UNL     1     -15.175  17.535 -18.717  1.00  0.00    -0.068 C 
BRANCH   7   8
HETATM    8  C9  UNL     1     -14.179  17.700 -17.659  1.00  0.00     0.121 C 
HETATM    9  C10 UNL     1     -12.824  18.124 -18.246  1.00  0.00     0.051 C 
HETATM   10  C11 UNL     1     -11.994  18.018 -16.959  1.00  0.00     0.004 C 
HETATM   11  C12 UNL     1     -12.418  16.686 -16.431  1.00  0.00     0.004 C 
HETATM   12  C13 UNL     1     -13.781  16.381 -17.036  1.00  0.00     0.051 C 
BRANCH   8  13
HETATM   13  O3  UNL     1     -14.523  18.649 -16.731  1.00  0.00    -0.378 OA
ATOM     14  H3  UNL     1     -13.888  18.739 -16.031  1.00  0.00     0.211 HD
ENDBRANCH   8  13
ENDBRANCH   7   8
ENDBRANCH   5   6
BRANCH   1  15
HETATM   15  C1  UNL     1     -15.695  17.859 -22.612  1.00  0.00     0.170 C 
BRANCH  15  16
HETATM   16  O1  UNL     1     -15.881  18.522 -23.827  1.00  0.00    -0.400 OA
ATOM     17  H1  UNL     1     -15.546  17.957 -24.514  1.00  0.00     0.209 HD
ENDBRANCH  15  16
ENDBRANCH   1  15
BRANCH   4  18
HETATM   18  O2  UNL     1     -18.259  18.825 -19.340  1.00  0.00    -0.394 OA
ATOM     19  H2  UNL     1     -17.742  19.432 -19.859  1.00  0.00     0.210 HD
ENDBRANCH   4  18
TORSDOF 6
ENDMDL
MODEL 5
REMARK VINA RESULT: -6.280396516      2.800      4.172
REMARK  6 active torsions:
REMARK  status: ('A' for Active; 'I' for Inactive)
REMARK    1  A    between atoms: O1_1  and  C1_3 
REMARK    2  A    between atoms: C1_3  and  C2_4 
REMARK    3  A    between atoms: C5_7  and  O2_8 
REMARK    4  A    between atoms: C6_10  and  C7_11 
REMARK    5  A    between atoms: C8_12  and  C9_13 
REMARK    6  A    between atoms: C9_13  and  O3_14 
ROOT
HETATM    1  C2  UNL     1     -16.906  18.365 -16.407  1.00  0.00     0.027 C 
HETATM    2  C3  UNL     1     -18.205  18.538 -17.180  1.00  0.00     0.010 C 
HETATM    3  C4  UNL     1     -17.942  17.721 -18.408  1.00  0.00     0.033 C 
HETATM    4  C5  UNL     1     -16.438  17.576 -18.537  1.00  0.00     0.134 C 
HETATM    5  C6  UNL     1     -15.916  18.578 -17.541  1.00  0.00     0.100 C 
ENDROOT
BRANCH   5   6
HETATM    6  C7  UNL     1     -14.561  18.251 -17.177  1.00  0.00    -0.096 C 
HETATM    7  C8  UNL     1     -13.429  17.999 -16.869  1.00  0.00    -0.068 C 
BRANCH   7   8
HETATM    8  C9  UNL     1     -12.045  17.716 -16.488  1.00  0.00     0.121 C 
HETATM    9  C10 UNL     1     -11.734  16.219 -16.631  1.00  0.00     0.051 C 
HETATM   10  C11 UNL     1     -10.339  16.230 -15.992  1.00  0.00     0.004 C 
HETATM   11  C12 UNL     1     -10.577  17.032 -14.753  1.00  0.00     0.004 C 
HETATM   12  C13 UNL     1     -11.815  17.881 -15.003  1.00  0.00     0.051 C 
BRANCH   8  13
HETATM   13  O3  UNL     1     -11.123  18.387 -17.251  1.00  0.00    -0.378 OA
ATOM     14  H3  UNL     1     -11.365  19.287 -17.430  1.00  0.00     0.211 HD
ENDBRANCH   8  13
ENDBRANCH   7   8
ENDBRANCH   5   6
BRANCH   1  15
HETATM   15  C1  UNL     1     -16.755  19.390 -15.321  1.00  0.00     0.170 C 
BRANCH  15  16
HETATM   16  O1  UNL     1     -17.866  20.234 -15.387  1.00  0.00    -0.400 OA
ATOM     17  H1  UNL     1     -17.944  20.530 -16.287  1.00  0.00     0.209 HD
ENDBRANCH  15  16
ENDBRANCH   1  15
BRANCH   4  18
HETATM   18  O2  UNL     1     -16.084  16.263 -18.149  1.00  0.00    -0.394 OA
ATOM     19  H2  UNL     1     -15.967  15.741 -18.934  1.00  0.00     0.210 HD
ENDBRANCH   4  18
TORSDOF 6
ENDMDL
