MODEL 1
REMARK VINA RESULT: -5.462849197      0.000      0.000
REMARK  6 active torsions:
REMARK  status: ('A' for Active; 'I' for Inactive)
REMARK    1  A    between atoms: C2_2  and  C5_5 
REMARK    2  A    between atoms: C5_5  and  N1_8 
REMARK    3  A    between atoms: C9_10  and  O1_11 
REMARK    4  A    between atoms: C10_13  and  O2_14 
REMARK    5  A    between atoms: C11_16  and  C12_17 
REMARK    6  A    between atoms: C12_17  and  O3_18 
ROOT
HETATM    1  N1  UNL     1     -13.828  17.674 -15.823  1.00  0.00    -0.372 N 
HETATM    2  C8  UNL     1     -12.509  17.707 -15.360  1.00  0.00     0.093 C 
HETATM    3  C9  UNL     1     -11.587  17.520 -16.561  1.00  0.00     0.187 C 
HETATM    4  C10 UNL     1     -12.481  17.416 -17.746  1.00  0.00     0.176 C 
HETATM    5  C11 UNL     1     -13.866  17.191 -17.142  1.00  0.00     0.139 C 
ENDROOT
BRANCH   1   6
HETATM    6  C5  UNL     1     -14.821  18.512 -15.323  1.00  0.00     0.031 C 
HETATM    7  C6  UNL     1     -15.945  18.756 -16.355  1.00  0.00     0.039 C 
HETATM    8  C7  UNL     1     -14.296  19.925 -15.026  1.00  0.00     0.039 C 
BRANCH   6   9
HETATM    9  C2  UNL     1     -15.544  18.007 -14.094  1.00  0.00    -0.027 C 
HETATM   10  C1  UNL     1     -17.045  18.301 -14.223  1.00  0.00     0.017 C 
HETATM   11  C3  UNL     1     -15.397  16.547 -13.827  1.00  0.00     0.017 C 
HETATM   12  C4  UNL     1     -15.094  18.721 -12.835  1.00  0.00     0.017 C 
ENDBRANCH   6   9
ENDBRANCH   1   6
BRANCH   5  13
HETATM   13  C12 UNL     1     -14.081  15.670 -17.128  1.00  0.00     0.192 C 
BRANCH  13  14
HETATM   14  O3  UNL     1     -15.385  15.335 -17.491  1.00  0.00    -0.399 OA
ATOM     15  H3  UNL     1     -15.923  15.153 -16.729  1.00  0.00     0.209 HD
ENDBRANCH  13  14
ENDBRANCH   5  13
BRANCH   3  16
HETATM   16  O1  UNL     1     -10.757  18.647 -16.747  1.00  0.00    -0.388 OA
ATOM     17  H1  UNL     1     -10.369  18.648 -17.614  1.00  0.00     0.210 HD
ENDBRANCH   3  16
BRANCH   4  18
HETATM   18  O2  UNL     1     -12.151  16.382 -18.611  1.00  0.00    -0.390 OA
ATOM     19  H2  UNL     1     -11.960  16.667 -19.496  1.00  0.00     0.210 HD
ENDBRANCH   4  18
TORSDOF 6
ENDMDL
MODEL 2
REMARK VINA RESULT: -5.369614385      1.701      3.540
REMARK  6 active torsions:
REMARK  status: ('A' for Active; 'I' for Inactive)
REMARK    1  A    between atoms: C2_2  and  C5_5 
REMARK    2  A    between atoms: C5_5  and  N1_8 
REMARK    3  A    between atoms: C9_10  and  O1_11 
REMARK    4  A    between atoms: C10_13  and  O2_14 
REMARK    5  A    between atoms: C11_16  and  C12_17 
REMARK    6  A    between atoms: C12_17  and  O3_18 
ROOT
HETATM    1  N1  UNL     1     -14.168  17.149 -17.027  1.00  0.00    -0.372 N 
HETATM    2  C8  UNL     1     -14.756  17.785 -18.125  1.00  0.00     0.093 C 
HETATM    3  C9  UNL     1     -15.541  16.735 -18.906  1.00  0.00     0.187 C 
HETATM    4  C10 UNL     1     -15.385  15.465 -18.148  1.00  0.00     0.176 C 
HETATM    5  C11 UNL     1     -14.241  15.754 -17.177  1.00  0.00     0.139 C 
ENDROOT
BRANCH   1   6
HETATM    6  C5  UNL     1     -14.082  17.745 -15.771  1.00  0.00     0.031 C 
HETATM    7  C6  UNL     1     -14.531  16.786 -14.645  1.00  0.00     0.039 C 
HETATM    8  C7  UNL     1     -15.041  18.938 -15.627  1.00  0.00     0.039 C 
BRANCH   6   9
HETATM    9  C2  UNL     1     -12.700  18.194 -15.354  1.00  0.00    -0.027 C 
HETATM   10  C1  UNL     1     -12.803  19.083 -14.107  1.00  0.00     0.017 C 
HETATM   11  C3  UNL     1     -11.744  17.093 -15.040  1.00  0.00     0.017 C 
HETATM   12  C4  UNL     1     -12.035  19.051 -16.414  1.00  0.00     0.017 C 
ENDBRANCH   6   9
ENDBRANCH   1   6
BRANCH   5  13
HETATM   13  C12 UNL     1     -12.964  15.242 -17.860  1.00  0.00     0.192 C 
BRANCH  13  14
HETATM   14  O3  UNL     1     -12.215  16.289 -18.394  1.00  0.00    -0.399 OA
ATOM     15  H3  UNL     1     -12.736  17.078 -18.487  1.00  0.00     0.209 HD
ENDBRANCH  13  14
ENDBRANCH   5  13
BRANCH   3  16
HETATM   16  O1  UNL     1     -16.917  17.049 -18.941  1.00  0.00    -0.388 OA
ATOM     17  H1  UNL     1     -17.445  16.305 -18.675  1.00  0.00     0.210 HD
ENDBRANCH   3  16
BRANCH   4  18
HETATM   18  O2  UNL     1     -15.084  14.368 -18.944  1.00  0.00    -0.390 OA
ATOM     19  H2  UNL     1     -15.740  14.179 -19.604  1.00  0.00     0.210 HD
ENDBRANCH   4  18
TORSDOF 6
ENDMDL
MODEL 3
REMARK VINA RESULT: -5.324282102      1.713      3.599
REMARK  6 active torsions:
REMARK  status: ('A' for Active; 'I' for Inactive)
REMARK    1  A    between atoms: C2_2  and  C5_5 
REMARK    2  A    between atoms: C5_5  and  N1_8 
REMARK    3  A    between atoms: C9_10  and  O1_11 
REMARK    4  A    between atoms: C10_13  and  O2_14 
REMARK    5  A    between atoms: C11_16  and  C12_17 
REMARK    6  A    between atoms: C12_17  and  O3_18 
ROOT
HETATM    1  N1  UNL     1     -14.162  17.158 -17.041  1.00  0.00    -0.372 N 
HETATM    2  C8  UNL     1     -14.748  17.789 -18.142  1.00  0.00     0.093 C 
HETATM    3  C9  UNL     1     -15.540  16.738 -18.915  1.00  0.00     0.187 C 
HETATM    4  C10 UNL     1     -15.391  15.473 -18.148  1.00  0.00     0.176 C 
HETATM    5  C11 UNL     1     -14.244  15.762 -17.181  1.00  0.00     0.139 C 
ENDROOT
BRANCH   1   6
HETATM    6  C5  UNL     1     -14.072  17.762 -15.789  1.00  0.00     0.031 C 
HETATM    7  C6  UNL     1     -14.434  16.784 -14.648  1.00  0.00     0.039 C 
HETATM    8  C7  UNL     1     -15.090  18.901 -15.618  1.00  0.00     0.039 C 
BRANCH   6   9
HETATM    9  C2  UNL     1     -12.705  18.287 -15.414  1.00  0.00    -0.027 C 
HETATM   10  C1  UNL     1     -11.794  17.116 -15.024  1.00  0.00     0.017 C 
HETATM   11  C3  UNL     1     -12.007  19.058 -16.483  1.00  0.00     0.017 C 
HETATM   12  C4  UNL     1     -12.755  19.190 -14.197  1.00  0.00     0.017 C 
ENDBRANCH   6   9
ENDBRANCH   1   6
BRANCH   5  13
HETATM   13  C12 UNL     1     -12.971  15.237 -17.861  1.00  0.00     0.192 C 
BRANCH  13  14
HETATM   14  O3  UNL     1     -12.203  16.278 -18.380  1.00  0.00    -0.399 OA
ATOM     15  H3  UNL     1     -11.926  16.095 -19.270  1.00  0.00     0.209 HD
ENDBRANCH  13  14
ENDBRANCH   5  13
BRANCH   3  16
HETATM   16  O1  UNL     1     -16.914  17.060 -18.951  1.00  0.00    -0.388 OA
ATOM     17  H1  UNL     1     -17.445  16.283 -19.086  1.00  0.00     0.210 HD
ENDBRANCH   3  16
BRANCH   4  18
HETATM   18  O2  UNL     1     -15.097  14.368 -18.937  1.00  0.00    -0.390 OA
ATOM     19  H2  UNL     1     -15.080  13.548 -18.459  1.00  0.00     0.210 HD
ENDBRANCH   4  18
TORSDOF 6
ENDMDL
MODEL 4
REMARK VINA RESULT: -5.274177559      2.399      4.322
REMARK  6 active torsions:
REMARK  status: ('A' for Active; 'I' for Inactive)
REMARK    1  A    between atoms: C2_2  and  C5_5 
REMARK    2  A    between atoms: C5_5  and  N1_8 
REMARK    3  A    between atoms: C9_10  and  O1_11 
REMARK    4  A    between atoms: C10_13  and  O2_14 
REMARK    5  A    between atoms: C11_16  and  C12_17 
REMARK    6  A    between atoms: C12_17  and  O3_18 
ROOT
HETATM    1  N1  UNL     1     -14.124  16.842 -17.033  1.00  0.00    -0.372 N 
HETATM    2  C8  UNL     1     -14.729  15.843 -17.802  1.00  0.00     0.093 C 
HETATM    3  C9  UNL     1     -15.947  16.456 -18.488  1.00  0.00     0.187 C 
HETATM    4  C10 UNL     1     -15.966  17.886 -18.080  1.00  0.00     0.176 C 
HETATM    5  C11 UNL     1     -14.983  17.948 -16.912  1.00  0.00     0.139 C 
ENDROOT
BRANCH   1   6
HETATM    6  C5  UNL     1     -12.742  16.977 -16.927  1.00  0.00     0.031 C 
HETATM    7  C6  UNL     1     -12.254  18.351 -17.440  1.00  0.00     0.039 C 
HETATM    8  C7  UNL     1     -11.991  15.976 -17.819  1.00  0.00     0.039 C 
BRANCH   6   9
HETATM    9  C2  UNL     1     -12.181  16.878 -15.526  1.00  0.00    -0.027 C 
HETATM   10  C1  UNL     1     -10.692  16.515 -15.594  1.00  0.00     0.017 C 
HETATM   11  C3  UNL     1     -12.302  18.118 -14.706  1.00  0.00     0.017 C 
HETATM   12  C4  UNL     1     -12.837  15.769 -14.727  1.00  0.00     0.017 C 
ENDBRANCH   6   9
ENDBRANCH   1   6
BRANCH   5  13
HETATM   13  C12 UNL     1     -15.829  17.806 -15.637  1.00  0.00     0.192 C 
BRANCH  13  14
HETATM   14  O3  UNL     1     -16.075  19.045 -15.047  1.00  0.00    -0.399 OA
ATOM     15  H3  UNL     1     -16.913  19.057 -14.600  1.00  0.00     0.209 HD
ENDBRANCH  13  14
ENDBRANCH   5  13
BRANCH   3  16
HETATM   16  O1  UNL     1     -15.816  16.411 -19.893  1.00  0.00    -0.388 OA
ATOM     17  H1  UNL     1     -15.391  17.194 -20.223  1.00  0.00     0.210 HD
ENDBRANCH   3  16
BRANCH   4  18
HETATM   18  O2  UNL     1     -17.217  18.343 -17.690  1.00  0.00    -0.390 OA
ATOM     19  H2  UNL     1     -17.188  19.077 -17.087  1.00  0.00     0.210 HD
ENDBRANCH   4  18
TORSDOF 6
ENDMDL
MODEL 5
REMARK VINA RESULT: -5.270780618      1.481      3.407
REMARK  6 active torsions:
REMARK  status: ('A' for Active; 'I' for Inactive)
REMARK    1  A    between atoms: C2_2  and  C5_5 
REMARK    2  A    between atoms: C5_5  and  N1_8 
REMARK    3  A    between atoms: C9_10  and  O1_11 
REMARK    4  A    between atoms: C10_13  and  O2_14 
REMARK    5  A    between atoms: C11_16  and  C12_17 
REMARK    6  A    between atoms: C12_17  and  O3_18 
ROOT
HETATM    1  N1  UNL     1     -14.498  17.827 -16.479  1.00  0.00    -0.372 N 
HETATM    2  C8  UNL     1     -15.529  18.466 -17.175  1.00  0.00     0.093 C 
HETATM    3  C9  UNL     1     -16.052  17.494 -18.229  1.00  0.00     0.187 C 
HETATM    4  C10 UNL     1     -15.266  16.244 -18.053  1.00  0.00     0.176 C 
HETATM    5  C11 UNL     1     -14.100  16.664 -17.160  1.00  0.00     0.139 C 
ENDROOT
BRANCH   1   6
HETATM    6  C5  UNL     1     -14.323  17.964 -15.104  1.00  0.00     0.031 C 
HETATM    7  C6  UNL     1     -14.257  16.594 -14.390  1.00  0.00     0.039 C 
HETATM    8  C7  UNL     1     -15.517  18.659 -14.431  1.00  0.00     0.039 C 
BRANCH   6   9
HETATM    9  C2  UNL     1     -13.058  18.672 -14.674  1.00  0.00    -0.027 C 
HETATM   10  C1  UNL     1     -13.256  19.275 -13.277  1.00  0.00     0.017 C 
HETATM   11  C3  UNL     1     -11.838  17.815 -14.620  1.00  0.00     0.017 C 
HETATM   12  C4  UNL     1     -12.722  19.840 -15.581  1.00  0.00     0.017 C 
ENDBRANCH   6   9
ENDBRANCH   1   6
BRANCH   5  13
HETATM   13  C12 UNL     1     -12.937  16.995 -18.107  1.00  0.00     0.192 C 
BRANCH  13  14
HETATM   14  O3  UNL     1     -12.107  15.891 -18.302  1.00  0.00    -0.399 OA
ATOM     15  H3  UNL     1     -11.305  16.134 -18.750  1.00  0.00     0.209 HD
ENDBRANCH  13  14
ENDBRANCH   5  13
BRANCH   3  16
HETATM   16  O1  UNL     1     -17.411  17.184 -18.006  1.00  0.00    -0.388 OA
ATOM     17  H1  UNL     1     -17.507  16.317 -17.630  1.00  0.00     0.210 HD
ENDBRANCH   3  16
BRANCH   4  18
HETATM   18  O2  UNL     1     -14.799  15.700 -19.242  1.00  0.00    -0.390 OA
ATOM     19  H2  UNL     1     -15.487  15.411 -19.830  1.00  0.00     0.210 HD
ENDBRANCH   4  18
TORSDOF 6
ENDMDL
