MODEL 1
REMARK VINA RESULT: -6.338397133      0.000      0.000
REMARK  5 active torsions:
REMARK  status: ('A' for Active; 'I' for Inactive)
REMARK    1  A    between atoms: C2_2  and  C3_3 
REMARK    2  A    between atoms: C3_3  and  O1_4 
REMARK    3  A    between atoms: C6_8  and  O2_9 
REMARK    4  A    between atoms: C9_13  and  O3_14 
REMARK    5  A    between atoms: C10_16  and  O4_17 
ROOT
HETATM    1  C3  UNL     1     -12.114  17.029 -15.989  1.00  0.00     0.064 C 
HETATM    2  C4  UNL     1     -12.779  17.457 -14.688  1.00  0.00     0.041 C 
HETATM    3  C5  UNL     1     -13.918  18.327 -15.189  1.00  0.00     0.042 C 
HETATM    4  C6  UNL     1     -14.482  17.409 -16.238  1.00  0.00     0.070 C 
HETATM    5  C7  UNL     1     -15.329  18.065 -17.260  1.00  0.00     0.048 C 
HETATM    6  C8  UNL     1     -16.652  18.516 -16.650  1.00  0.00     0.016 C 
HETATM    7  C9  UNL     1     -15.507  17.171 -18.429  1.00  0.00     0.153 C 
HETATM    8  C10 UNL     1     -14.779  15.893 -18.442  1.00  0.00     0.148 C 
HETATM    9  C11 UNL     1     -13.526  15.782 -17.666  1.00  0.00     0.045 C 
HETATM   10  C12 UNL     1     -13.189  17.058 -16.995  1.00  0.00     0.057 C 
ENDROOT
BRANCH   1  11
HETATM   11  C2  UNL     1     -11.081  18.121 -16.297  1.00  0.00     0.034 C 
HETATM   12  C1  UNL     1      -9.737  17.799 -15.716  1.00  0.00     0.008 C 
ENDBRANCH   1  11
BRANCH   1  13
HETATM   13  O1  UNL     1     -11.516  15.808 -15.793  1.00  0.00    -0.389 OA
ATOM     14  H1  UNL     1     -11.353  15.362 -16.616  1.00  0.00     0.210 HD
ENDBRANCH   1  13
BRANCH   4  15
HETATM   15  O2  UNL     1     -15.029  16.298 -15.650  1.00  0.00    -0.389 OA
ATOM     16  H2  UNL     1     -14.464  15.985 -14.952  1.00  0.00     0.210 HD
ENDBRANCH   4  15
BRANCH   8  17
HETATM   17  O4  UNL     1     -15.631  14.827 -18.063  1.00  0.00    -0.393 OA
ATOM     18  H4  UNL     1     -15.969  14.377 -18.829  1.00  0.00     0.210 HD
ENDBRANCH   8  17
BRANCH   7  19
HETATM   19  O3  UNL     1     -16.892  16.880 -18.509  1.00  0.00    -0.393 OA
ATOM     20  H3  UNL     1     -17.073  16.233 -17.837  1.00  0.00     0.210 HD
ENDBRANCH   7  19
TORSDOF 5
ENDMDL
MODEL 2
REMARK VINA RESULT: -6.234311820      2.719      4.312
REMARK  5 active torsions:
REMARK  status: ('A' for Active; 'I' for Inactive)
REMARK    1  A    between atoms: C2_2  and  C3_3 
REMARK    2  A    between atoms: C3_3  and  O1_4 
REMARK    3  A    between atoms: C6_8  and  O2_9 
REMARK    4  A    between atoms: C9_13  and  O3_14 
REMARK    5  A    between atoms: C10_16  and  O4_17 
ROOT
HETATM    1  C3  UNL     1     -12.189  19.782 -14.631  1.00  0.00     0.064 C 
HETATM    2  C4  UNL     1     -10.708  19.698 -14.289  1.00  0.00     0.041 C 
HETATM    3  C5  UNL     1     -10.431  18.214 -14.456  1.00  0.00     0.042 C 
HETATM    4  C6  UNL     1     -11.066  17.998 -15.802  1.00  0.00     0.070 C 
HETATM    5  C7  UNL     1     -11.400  16.592 -16.122  1.00  0.00     0.048 C 
HETATM    6  C8  UNL     1     -10.130  15.781 -16.363  1.00  0.00     0.016 C 
HETATM    7  C9  UNL     1     -12.345  16.536 -17.263  1.00  0.00     0.153 C 
HETATM    8  C10 UNL     1     -12.856  17.805 -17.803  1.00  0.00     0.148 C 
HETATM    9  C11 UNL     1     -12.908  18.985 -16.914  1.00  0.00     0.045 C 
HETATM   10  C12 UNL     1     -12.434  18.657 -15.550  1.00  0.00     0.057 C 
ENDROOT
BRANCH   1  11
HETATM   11  C2  UNL     1     -12.927  19.544 -13.307  1.00  0.00     0.034 C 
HETATM   12  C1  UNL     1     -14.095  18.620 -13.475  1.00  0.00     0.008 C 
ENDBRANCH   1  11
BRANCH   1  13
HETATM   13  O1  UNL     1     -12.451  21.031 -15.138  1.00  0.00    -0.389 OA
ATOM     14  H1  UNL     1     -13.315  21.336 -14.889  1.00  0.00     0.210 HD
ENDBRANCH   1  13
BRANCH   4  15
HETATM   15  O2  UNL     1     -10.364  18.669 -16.770  1.00  0.00    -0.389 OA
ATOM     16  H2  UNL     1     -10.278  19.586 -16.536  1.00  0.00     0.210 HD
ENDBRANCH   4  15
BRANCH   8  17
HETATM   17  O4  UNL     1     -12.157  18.168 -18.980  1.00  0.00    -0.393 OA
ATOM     18  H4  UNL     1     -12.612  17.851 -19.752  1.00  0.00     0.210 HD
ENDBRANCH   8  17
BRANCH   7  19
HETATM   19  O3  UNL     1     -11.674  15.860 -18.312  1.00  0.00    -0.393 OA
ATOM     20  H3  UNL     1     -11.209  15.133 -17.913  1.00  0.00     0.210 HD
ENDBRANCH   7  19
TORSDOF 5
ENDMDL
MODEL 3
REMARK VINA RESULT: -6.201681929      1.515      4.814
REMARK  5 active torsions:
REMARK  status: ('A' for Active; 'I' for Inactive)
REMARK    1  A    between atoms: C2_2  and  C3_3 
REMARK    2  A    between atoms: C3_3  and  O1_4 
REMARK    3  A    between atoms: C6_8  and  O2_9 
REMARK    4  A    between atoms: C9_13  and  O3_14 
REMARK    5  A    between atoms: C10_16  and  O4_17 
ROOT
HETATM    1  C3  UNL     1     -15.880  16.873 -18.654  1.00  0.00     0.064 C 
HETATM    2  C4  UNL     1     -15.565  15.398 -18.448  1.00  0.00     0.041 C 
HETATM    3  C5  UNL     1     -14.059  15.421 -18.261  1.00  0.00     0.042 C 
HETATM    4  C6  UNL     1     -13.957  16.522 -17.242  1.00  0.00     0.070 C 
HETATM    5  C7  UNL     1     -12.623  17.152 -17.127  1.00  0.00     0.048 C 
HETATM    6  C8  UNL     1     -11.629  16.188 -16.486  1.00  0.00     0.016 C 
HETATM    7  C9  UNL     1     -12.725  18.442 -16.403  1.00  0.00     0.153 C 
HETATM    8  C10 UNL     1     -14.063  18.920 -16.024  1.00  0.00     0.148 C 
HETATM    9  C11 UNL     1     -15.227  18.474 -16.818  1.00  0.00     0.045 C 
HETATM   10  C12 UNL     1     -14.816  17.595 -17.936  1.00  0.00     0.057 C 
ENDROOT
BRANCH   1  11
HETATM   11  C2  UNL     1     -15.745  17.110 -20.164  1.00  0.00     0.034 C 
HETATM   12  C1  UNL     1     -17.000  17.676 -20.756  1.00  0.00     0.008 C 
ENDBRANCH   1  11
BRANCH   1  13
HETATM   13  O1  UNL     1     -17.160  17.112 -18.217  1.00  0.00    -0.389 OA
ATOM     14  H1  UNL     1     -17.167  17.503 -17.352  1.00  0.00     0.210 HD
ENDBRANCH   1  13
BRANCH   4  15
HETATM   15  O2  UNL     1     -14.522  16.125 -16.058  1.00  0.00    -0.389 OA
ATOM     16  H2  UNL     1     -15.455  16.304 -16.064  1.00  0.00     0.210 HD
ENDBRANCH   4  15
BRANCH   8  17
HETATM   17  O4  UNL     1     -14.326  18.646 -14.659  1.00  0.00    -0.393 OA
ATOM     18  H4  UNL     1     -15.101  18.105 -14.568  1.00  0.00     0.210 HD
ENDBRANCH   8  17
BRANCH   7  19
HETATM   19  O3  UNL     1     -11.964  18.300 -15.215  1.00  0.00    -0.393 OA
ATOM     20  H3  UNL     1     -11.050  18.330 -15.473  1.00  0.00     0.210 HD
ENDBRANCH   7  19
TORSDOF 5
ENDMDL
MODEL 4
REMARK VINA RESULT: -6.140986312      1.666      2.640
REMARK  5 active torsions:
REMARK  status: ('A' for Active; 'I' for Inactive)
REMARK    1  A    between atoms: C2_2  and  C3_3 
REMARK    2  A    between atoms: C3_3  and  O1_4 
REMARK    3  A    between atoms: C6_8  and  O2_9 
REMARK    4  A    between atoms: C9_13  and  O3_14 
REMARK    5  A    between atoms: C10_16  and  O4_17 
ROOT
HETATM    1  C3  UNL     1     -12.196  17.100 -16.828  1.00  0.00     0.064 C 
HETATM    2  C4  UNL     1     -12.239  15.708 -16.213  1.00  0.00     0.041 C 
HETATM    3  C5  UNL     1     -12.968  15.964 -14.905  1.00  0.00     0.042 C 
HETATM    4  C6  UNL     1     -14.130  16.762 -15.427  1.00  0.00     0.070 C 
HETATM    5  C7  UNL     1     -14.837  17.580 -14.416  1.00  0.00     0.048 C 
HETATM    6  C8  UNL     1     -15.617  16.687 -13.456  1.00  0.00     0.016 C 
HETATM    7  C9  UNL     1     -15.689  18.595 -15.081  1.00  0.00     0.153 C 
HETATM    8  C10 UNL     1     -15.628  18.699 -16.547  1.00  0.00     0.148 C 
HETATM    9  C11 UNL     1     -14.396  18.263 -17.238  1.00  0.00     0.045 C 
HETATM   10  C12 UNL     1     -13.371  17.797 -16.277  1.00  0.00     0.057 C 
ENDROOT
BRANCH   1  11
HETATM   11  C2  UNL     1     -10.909  17.742 -16.292  1.00  0.00     0.034 C 
HETATM   12  C1  UNL     1     -11.165  19.092 -15.695  1.00  0.00     0.008 C 
ENDBRANCH   1  11
BRANCH   1  13
HETATM   13  O1  UNL     1     -12.167  16.973 -18.195  1.00  0.00    -0.389 OA
ATOM     14  H1  UNL     1     -12.422  16.101 -18.471  1.00  0.00     0.210 HD
ENDBRANCH   1  13
BRANCH   4  15
HETATM   15  O2  UNL     1     -14.933  15.973 -16.209  1.00  0.00    -0.389 OA
ATOM     16  H2  UNL     1     -15.073  16.384 -17.054  1.00  0.00     0.210 HD
ENDBRANCH   4  15
BRANCH   8  17
HETATM   17  O4  UNL     1     -16.728  18.036 -17.143  1.00  0.00    -0.393 OA
ATOM     18  H4  UNL     1     -16.492  17.151 -17.394  1.00  0.00     0.210 HD
ENDBRANCH   8  17
BRANCH   7  19
HETATM   19  O3  UNL     1     -17.028  18.296 -14.725  1.00  0.00    -0.393 OA
ATOM     20  H3  UNL     1     -17.383  19.080 -14.322  1.00  0.00     0.210 HD
ENDBRANCH   7  19
TORSDOF 5
ENDMDL
MODEL 5
REMARK VINA RESULT: -6.116548609      1.719      3.410
REMARK  5 active torsions:
REMARK  status: ('A' for Active; 'I' for Inactive)
REMARK    1  A    between atoms: C2_2  and  C3_3 
REMARK    2  A    between atoms: C3_3  and  O1_4 
REMARK    3  A    between atoms: C6_8  and  O2_9 
REMARK    4  A    between atoms: C9_13  and  O3_14 
REMARK    5  A    between atoms: C10_16  and  O4_17 
ROOT
HETATM    1  C3  UNL     1     -14.938  17.719 -13.774  1.00  0.00     0.064 C 
HETATM    2  C4  UNL     1     -16.209  17.902 -14.592  1.00  0.00     0.041 C 
HETATM    3  C5  UNL     1     -15.660  18.410 -15.914  1.00  0.00     0.042 C 
HETATM    4  C6  UNL     1     -14.577  17.392 -16.135  1.00  0.00     0.070 C 
HETATM    5  C7  UNL     1     -13.520  17.793 -17.091  1.00  0.00     0.048 C 
HETATM    6  C8  UNL     1     -14.068  17.821 -18.515  1.00  0.00     0.016 C 
HETATM    7  C9  UNL     1     -12.335  16.913 -16.946  1.00  0.00     0.153 C 
HETATM    8  C10 UNL     1     -12.346  15.906 -15.874  1.00  0.00     0.148 C 
HETATM    9  C11 UNL     1     -13.182  16.151 -14.679  1.00  0.00     0.045 C 
HETATM   10  C12 UNL     1     -13.880  17.454 -14.763  1.00  0.00     0.057 C 
ENDROOT
BRANCH   1  11
HETATM   11  C2  UNL     1     -14.692  19.073 -13.096  1.00  0.00     0.034 C 
HETATM   12  C1  UNL     1     -13.245  19.465 -13.139  1.00  0.00     0.008 C 
ENDBRANCH   1  11
BRANCH   1  13
HETATM   13  O1  UNL     1     -15.152  16.723 -12.852  1.00  0.00    -0.389 OA
ATOM     14  H1  UNL     1     -16.074  16.505 -12.780  1.00  0.00     0.210 HD
ENDBRANCH   1  13
BRANCH   4  15
HETATM   15  O2  UNL     1     -15.127  16.156 -16.355  1.00  0.00    -0.389 OA
ATOM     16  H2  UNL     1     -16.020  16.132 -16.032  1.00  0.00     0.210 HD
ENDBRANCH   4  15
BRANCH   8  17
HETATM   17  O4  UNL     1     -12.673  14.629 -16.389  1.00  0.00    -0.393 OA
ATOM     18  H4  UNL     1     -13.469  14.298 -15.989  1.00  0.00     0.210 HD
ENDBRANCH   8  17
BRANCH   7  19
HETATM   19  O3  UNL     1     -12.185  16.230 -18.178  1.00  0.00    -0.393 OA
ATOM     20  H3  UNL     1     -12.096  16.898 -18.849  1.00  0.00     0.210 HD
ENDBRANCH   7  19
TORSDOF 5
ENDMDL
