MODEL 1
REMARK VINA RESULT: -6.401736497      0.000      0.000
REMARK  5 active torsions:
REMARK  status: ('A' for Active; 'I' for Inactive)
REMARK    1  A    between atoms: C2_2  and  O1_3 
REMARK    2  A    between atoms: C6_8  and  O2_9 
REMARK    3  A    between atoms: C9_13  and  C11_15 
REMARK    4  A    between atoms: C11_15  and  O3_16 
REMARK    5  A    between atoms: C12_18  and  O4_19 
ROOT
HETATM    1  C1  UNL     1     -15.238  15.341 -18.759  1.00  0.00     0.049 C 
HETATM    2  C2  UNL     1     -14.660  16.606 -18.105  1.00  0.00     0.081 C 
HETATM    3  C3  UNL     1     -15.752  17.250 -17.267  1.00  0.00     0.045 C 
HETATM    4  C4  UNL     1     -15.136  18.438 -16.602  1.00  0.00    -0.004 C 
HETATM    5  C5  UNL     1     -16.048  19.131 -15.615  1.00  0.00     0.037 C 
HETATM    6  C6  UNL     1     -15.117  19.650 -14.525  1.00  0.00     0.118 C 
HETATM    7  C7  UNL     1     -13.735  19.084 -14.846  1.00  0.00     0.037 C 
HETATM    8  C8  UNL     1     -14.074  17.886 -15.649  1.00  0.00     0.005 C 
HETATM    9  C9  UNL     1     -12.966  17.191 -16.327  1.00  0.00     0.010 C 
HETATM   10  C10 UNL     1     -12.229  16.376 -15.244  1.00  0.00     0.020 C 
HETATM   11  C12 UNL     1     -13.475  16.193 -17.318  1.00  0.00     0.162 C 
ENDROOT
BRANCH   9  12
HETATM   12  C11 UNL     1     -11.895  18.091 -16.885  1.00  0.00     0.176 C 
BRANCH  12  13
HETATM   13  O3  UNL     1     -12.059  18.456 -18.182  1.00  0.00    -0.400 OA
ATOM     14  H3  UNL     1     -11.361  18.988 -18.546  1.00  0.00     0.209 HD
ENDBRANCH  12  13
ENDBRANCH   9  12
BRANCH  11  15
HETATM   15  O4  UNL     1     -12.486  15.774 -18.213  1.00  0.00    -0.392 OA
ATOM     16  H4  UNL     1     -11.907  15.179 -17.752  1.00  0.00     0.210 HD
ENDBRANCH  11  15
BRANCH   2  17
HETATM   17  O1  UNL     1     -14.379  17.476 -19.155  1.00  0.00    -0.388 OA
ATOM     18  H1  UNL     1     -13.613  17.116 -19.587  1.00  0.00     0.210 HD
ENDBRANCH   2  17
BRANCH   6  19
HETATM   19  O2  UNL     1     -15.106  21.037 -14.494  1.00  0.00    -0.396 OA
ATOM     20  H2  UNL     1     -14.590  21.392 -15.209  1.00  0.00     0.210 HD
ENDBRANCH   6  19
TORSDOF 5
ENDMDL
MODEL 2
REMARK VINA RESULT: -5.982992223      1.739      3.390
REMARK  5 active torsions:
REMARK  status: ('A' for Active; 'I' for Inactive)
REMARK    1  A    between atoms: C2_2  and  O1_3 
REMARK    2  A    between atoms: C6_8  and  O2_9 
REMARK    3  A    between atoms: C9_13  and  C11_15 
REMARK    4  A    between atoms: C11_15  and  O3_16 
REMARK    5  A    between atoms: C12_18  and  O4_19 
ROOT
HETATM    1  C1  UNL     1     -11.606  18.374 -16.869  1.00  0.00     0.049 C 
HETATM    2  C2  UNL     1     -13.037  17.898 -16.576  1.00  0.00     0.081 C 
HETATM    3  C3  UNL     1     -13.800  19.046 -15.936  1.00  0.00     0.045 C 
HETATM    4  C4  UNL     1     -15.198  18.565 -15.723  1.00  0.00    -0.004 C 
HETATM    5  C5  UNL     1     -16.143  19.630 -15.212  1.00  0.00     0.037 C 
HETATM    6  C6  UNL     1     -17.490  19.286 -15.838  1.00  0.00     0.118 C 
HETATM    7  C7  UNL     1     -17.220  18.143 -16.816  1.00  0.00     0.037 C 
HETATM    8  C8  UNL     1     -15.782  18.331 -17.117  1.00  0.00     0.005 C 
HETATM    9  C9  UNL     1     -15.106  17.264 -17.876  1.00  0.00     0.010 C 
HETATM   10  C10 UNL     1     -15.537  17.432 -19.348  1.00  0.00     0.020 C 
HETATM   11  C12 UNL     1     -13.622  17.441 -17.858  1.00  0.00     0.162 C 
ENDROOT
BRANCH   9  12
HETATM   12  C11 UNL     1     -15.544  15.864 -17.536  1.00  0.00     0.176 C 
BRANCH  12  13
HETATM   13  O3  UNL     1     -15.496  14.974 -18.561  1.00  0.00    -0.400 OA
ATOM     14  H3  UNL     1     -16.305  14.872 -19.048  1.00  0.00     0.209 HD
ENDBRANCH  12  13
ENDBRANCH   9  12
BRANCH  11  15
HETATM   15  O4  UNL     1     -12.939  16.288 -18.257  1.00  0.00    -0.392 OA
ATOM     16  H4  UNL     1     -12.013  16.425 -18.098  1.00  0.00     0.210 HD
ENDBRANCH  11  15
BRANCH   2  17
HETATM   17  O1  UNL     1     -12.910  16.900 -15.613  1.00  0.00    -0.388 OA
ATOM     18  H1  UNL     1     -13.778  16.790 -15.243  1.00  0.00     0.210 HD
ENDBRANCH   2  17
BRANCH   6  19
HETATM   19  O2  UNL     1     -18.414  18.923 -14.869  1.00  0.00    -0.396 OA
ATOM     20  H2  UNL     1     -19.266  19.305 -15.048  1.00  0.00     0.210 HD
ENDBRANCH   6  19
TORSDOF 5
ENDMDL
MODEL 3
REMARK VINA RESULT: -5.967521960      2.055      3.371
REMARK  5 active torsions:
REMARK  status: ('A' for Active; 'I' for Inactive)
REMARK    1  A    between atoms: C2_2  and  O1_3 
REMARK    2  A    between atoms: C6_8  and  O2_9 
REMARK    3  A    between atoms: C9_13  and  C11_15 
REMARK    4  A    between atoms: C11_15  and  O3_16 
REMARK    5  A    between atoms: C12_18  and  O4_19 
ROOT
HETATM    1  C1  UNL     1     -12.267  15.445 -17.921  1.00  0.00     0.049 C 
HETATM    2  C2  UNL     1     -12.774  16.148 -16.653  1.00  0.00     0.081 C 
HETATM    3  C3  UNL     1     -11.769  17.221 -16.268  1.00  0.00     0.045 C 
HETATM    4  C4  UNL     1     -12.326  17.920 -15.071  1.00  0.00    -0.004 C 
HETATM    5  C5  UNL     1     -11.514  19.116 -14.625  1.00  0.00     0.037 C 
HETATM    6  C6  UNL     1     -12.542  20.101 -14.079  1.00  0.00     0.118 C 
HETATM    7  C7  UNL     1     -13.911  19.498 -14.394  1.00  0.00     0.037 C 
HETATM    8  C8  UNL     1     -13.601  18.619 -15.545  1.00  0.00     0.005 C 
HETATM    9  C9  UNL     1     -14.657  17.695 -15.993  1.00  0.00     0.010 C 
HETATM   10  C10 UNL     1     -15.673  18.542 -16.788  1.00  0.00     0.020 C 
HETATM   11  C12 UNL     1     -14.123  16.683 -16.955  1.00  0.00     0.162 C 
ENDROOT
BRANCH   9  12
HETATM   12  C11 UNL     1     -15.485  17.090 -14.891  1.00  0.00     0.176 C 
BRANCH  12  13
HETATM   13  O3  UNL     1     -15.013  15.923 -14.381  1.00  0.00    -0.400 OA
ATOM     14  H3  UNL     1     -15.433  15.137 -14.709  1.00  0.00     0.209 HD
ENDBRANCH  12  13
ENDBRANCH   9  12
BRANCH  11  15
HETATM   15  O4  UNL     1     -14.988  15.599 -17.129  1.00  0.00    -0.392 OA
ATOM     16  H4  UNL     1     -14.640  15.055 -17.826  1.00  0.00     0.210 HD
ENDBRANCH  11  15
BRANCH   2  17
HETATM   17  O1  UNL     1     -12.750  15.181 -15.652  1.00  0.00    -0.388 OA
ATOM     18  H1  UNL     1     -12.834  14.347 -16.100  1.00  0.00     0.210 HD
ENDBRANCH   2  17
BRANCH   6  19
HETATM   19  O2  UNL     1     -12.372  20.298 -12.716  1.00  0.00    -0.396 OA
ATOM     20  H2  UNL     1     -13.209  20.396 -12.277  1.00  0.00     0.210 HD
ENDBRANCH   6  19
TORSDOF 5
ENDMDL
MODEL 4
REMARK VINA RESULT: -5.943535604      2.189      3.898
REMARK  5 active torsions:
REMARK  status: ('A' for Active; 'I' for Inactive)
REMARK    1  A    between atoms: C2_2  and  O1_3 
REMARK    2  A    between atoms: C6_8  and  O2_9 
REMARK    3  A    between atoms: C9_13  and  C11_15 
REMARK    4  A    between atoms: C11_15  and  O3_16 
REMARK    5  A    between atoms: C12_18  and  O4_19 
ROOT
HETATM    1  C1  UNL     1     -13.602  18.976 -13.707  1.00  0.00     0.049 C 
HETATM    2  C2  UNL     1     -14.553  18.209 -14.638  1.00  0.00     0.081 C 
HETATM    3  C3  UNL     1     -15.779  19.072 -14.884  1.00  0.00     0.045 C 
HETATM    4  C4  UNL     1     -16.648  18.319 -15.838  1.00  0.00    -0.004 C 
HETATM    5  C5  UNL     1     -17.862  19.091 -16.303  1.00  0.00     0.037 C 
HETATM    6  C6  UNL     1     -18.090  18.629 -17.738  1.00  0.00     0.118 C 
HETATM    7  C7  UNL     1     -16.895  17.743 -18.090  1.00  0.00     0.037 C 
HETATM    8  C8  UNL     1     -15.862  18.234 -17.148  1.00  0.00     0.005 C 
HETATM    9  C9  UNL     1     -14.616  17.455 -17.047  1.00  0.00     0.010 C 
HETATM   10  C10 UNL     1     -13.780  17.801 -18.297  1.00  0.00     0.020 C 
HETATM   11  C12 UNL     1     -13.798  17.888 -15.872  1.00  0.00     0.162 C 
ENDROOT
BRANCH   9  12
HETATM   12  C11 UNL     1     -14.787  15.962 -17.136  1.00  0.00     0.176 C 
BRANCH  12  13
HETATM   13  O3  UNL     1     -13.674  15.268 -17.487  1.00  0.00    -0.400 OA
ATOM     14  H3  UNL     1     -13.660  14.947 -18.381  1.00  0.00     0.209 HD
ENDBRANCH  12  13
ENDBRANCH   9  12
BRANCH  11  15
HETATM   15  O4  UNL     1     -12.803  16.963 -15.542  1.00  0.00    -0.392 OA
ATOM     16  H4  UNL     1     -12.066  17.105 -16.124  1.00  0.00     0.210 HD
ENDBRANCH  11  15
BRANCH   2  17
HETATM   17  O1  UNL     1     -14.970  17.096 -13.913  1.00  0.00    -0.388 OA
ATOM     18  H1  UNL     1     -14.748  17.282 -13.008  1.00  0.00     0.210 HD
ENDBRANCH   2  17
BRANCH   6  19
HETATM   19  O2  UNL     1     -19.289  17.942 -17.859  1.00  0.00    -0.396 OA
ATOM     20  H2  UNL     1     -20.024  18.488 -17.606  1.00  0.00     0.210 HD
ENDBRANCH   6  19
TORSDOF 5
ENDMDL
MODEL 5
REMARK VINA RESULT: -5.905093872      1.566      1.923
REMARK  5 active torsions:
REMARK  status: ('A' for Active; 'I' for Inactive)
REMARK    1  A    between atoms: C2_2  and  O1_3 
REMARK    2  A    between atoms: C6_8  and  O2_9 
REMARK    3  A    between atoms: C9_13  and  C11_15 
REMARK    4  A    between atoms: C11_15  and  O3_16 
REMARK    5  A    between atoms: C12_18  and  O4_19 
ROOT
HETATM    1  C1  UNL     1     -14.537  17.347 -18.773  1.00  0.00     0.049 C 
HETATM    2  C2  UNL     1     -13.544  17.871 -17.724  1.00  0.00     0.081 C 
HETATM    3  C3  UNL     1     -14.309  18.732 -16.732  1.00  0.00     0.045 C 
HETATM    4  C4  UNL     1     -13.324  19.172 -15.698  1.00  0.00    -0.004 C 
HETATM    5  C5  UNL     1     -13.941  19.935 -14.548  1.00  0.00     0.037 C 
HETATM    6  C6  UNL     1     -13.100  19.554 -13.334  1.00  0.00     0.118 C 
HETATM    7  C7  UNL     1     -12.148  18.457 -13.809  1.00  0.00     0.037 C 
HETATM    8  C8  UNL     1     -12.878  17.901 -14.972  1.00  0.00     0.005 C 
HETATM    9  C9  UNL     1     -12.155  16.946 -15.830  1.00  0.00     0.010 C 
HETATM   10  C10 UNL     1     -12.139  15.601 -15.073  1.00  0.00     0.020 C 
HETATM   11  C12 UNL     1     -12.893  16.693 -17.105  1.00  0.00     0.162 C 
ENDROOT
BRANCH   9  12
HETATM   12  C11 UNL     1     -10.695  17.254 -16.037  1.00  0.00     0.176 C 
BRANCH  12  13
HETATM   13  O3  UNL     1     -10.432  18.275 -16.893  1.00  0.00    -0.400 OA
ATOM     14  H3  UNL     1     -10.419  18.041 -17.813  1.00  0.00     0.209 HD
ENDBRANCH  12  13
ENDBRANCH   9  12
BRANCH  11  15
HETATM   15  O4  UNL     1     -12.093  16.082 -18.076  1.00  0.00    -0.392 OA
ATOM     16  H4  UNL     1     -11.312  16.611 -18.188  1.00  0.00     0.210 HD
ENDBRANCH  11  15
BRANCH   2  17
HETATM   17  O1  UNL     1     -12.676  18.711 -18.416  1.00  0.00    -0.388 OA
ATOM     18  H1  UNL     1     -12.917  19.594 -18.161  1.00  0.00     0.210 HD
ENDBRANCH   2  17
BRANCH   6  19
HETATM   19  O2  UNL     1     -12.410  20.650 -12.839  1.00  0.00    -0.396 OA
ATOM     20  H2  UNL     1     -12.827  21.464 -13.096  1.00  0.00     0.210 HD
ENDBRANCH   6  19
TORSDOF 5
ENDMDL
