MODEL 1
REMARK VINA RESULT: -6.332741844      0.000      0.000
REMARK  4 active torsions:
REMARK  status: ('A' for Active; 'I' for Inactive)
REMARK    1  A    between atoms: O1_1  and  N1_3 
REMARK    2  A    between atoms: C1_5  and  O2_6 
REMARK    3  A    between atoms: C1_5  and  C2_8 
REMARK    4  A    between atoms: C8_14  and  O3_15 
ROOT
HETATM    1  C2  UNL     1     -14.311  16.972 -16.717  1.00  0.00     0.307 C 
HETATM    2  C3  UNL     1     -14.329  18.418 -17.235  1.00  0.00     0.116 C 
HETATM    3  C4  UNL     1     -13.117  18.630 -16.377  1.00  0.00     0.264 C 
HETATM    4  C5  UNL     1     -13.219  19.709 -15.333  1.00  0.00     0.072 C 
HETATM    5  C6  UNL     1     -12.786  19.159 -14.014  1.00  0.00     0.008 C 
HETATM    6  C7  UNL     1     -11.452  18.534 -13.978  1.00  0.00     0.042 C 
HETATM    7  C8  UNL     1     -11.114  17.669 -15.160  1.00  0.00     0.106 C 
HETATM    8  C9  UNL     1     -10.814  18.442 -16.397  1.00  0.00     0.210 C 
HETATM    9  O4  UNL     1     -11.973  18.670 -17.111  1.00  0.00    -0.349 OA
HETATM   10  C10 UNL     1     -12.232  16.653 -15.413  1.00  0.00     0.317 C 
HETATM   11  N2  UNL     1     -13.393  17.379 -15.736  1.00  0.00     0.139 N 
ENDROOT
BRANCH   1  12
HETATM   12  C1  UNL     1     -13.956  15.977 -17.720  1.00  0.00     0.170 C 
HETATM   13  N1  UNL     1     -14.733  14.979 -17.943  1.00  0.00    -0.249 N 
ATOM     14  H1  UNL     1     -15.599  14.895 -17.411  1.00  0.00     0.196 HD
BRANCH  13  15
HETATM   15  O1  UNL     1     -14.428  14.016 -18.886  1.00  0.00    -0.288 OA
ATOM     16  H1  UNL     1     -13.701  13.417 -18.772  1.00  0.00     0.244 HD
ENDBRANCH  13  15
BRANCH  12  17
HETATM   17  O2  UNL     1     -12.775  16.113 -18.431  1.00  0.00    -0.346 OA
ATOM     18  H2  UNL     1     -12.557  16.943 -18.839  1.00  0.00     0.219 HD
ENDBRANCH  12  17
ENDBRANCH   1  12
BRANCH   7  19
HETATM   19  O3  UNL     1      -9.983  16.921 -14.818  1.00  0.00    -0.386 OA
ATOM     20  H3  UNL     1     -10.285  16.069 -14.524  1.00  0.00     0.210 HD
ENDBRANCH   7  19
TORSDOF 4
ENDMDL
MODEL 2
REMARK VINA RESULT: -6.157936406      1.892      4.179
REMARK  4 active torsions:
REMARK  status: ('A' for Active; 'I' for Inactive)
REMARK    1  A    between atoms: O1_1  and  N1_3 
REMARK    2  A    between atoms: C1_5  and  O2_6 
REMARK    3  A    between atoms: C1_5  and  C2_8 
REMARK    4  A    between atoms: C8_14  and  O3_15 
ROOT
HETATM    1  C2  UNL     1     -12.468  18.455 -15.733  1.00  0.00     0.307 C 
HETATM    2  C3  UNL     1     -13.187  17.621 -14.663  1.00  0.00     0.116 C 
HETATM    3  C4  UNL     1     -14.246  17.395 -15.700  1.00  0.00     0.264 C 
HETATM    4  C5  UNL     1     -15.639  17.834 -15.338  1.00  0.00     0.072 C 
HETATM    5  C6  UNL     1     -16.191  18.675 -16.443  1.00  0.00     0.008 C 
HETATM    6  C7  UNL     1     -16.176  18.071 -17.786  1.00  0.00     0.042 C 
HETATM    7  C8  UNL     1     -14.926  17.315 -18.139  1.00  0.00     0.106 C 
HETATM    8  C9  UNL     1     -14.813  15.998 -17.451  1.00  0.00     0.210 C 
HETATM    9  O4  UNL     1     -14.176  16.147 -16.236  1.00  0.00    -0.349 OA
HETATM   10  C10 UNL     1     -13.689  18.176 -17.867  1.00  0.00     0.317 C 
HETATM   11  N2  UNL     1     -13.653  18.435 -16.485  1.00  0.00     0.139 N 
ENDROOT
BRANCH   1  12
HETATM   12  C1  UNL     1     -11.239  17.858 -16.239  1.00  0.00     0.170 C 
HETATM   13  N1  UNL     1     -10.968  16.628 -15.990  1.00  0.00    -0.249 N 
ATOM     14  H1  UNL     1     -11.623  16.078 -15.435  1.00  0.00     0.196 HD
BRANCH  13  15
HETATM   15  O1  UNL     1      -9.813  16.030 -16.453  1.00  0.00    -0.288 OA
ATOM     16  H1  UNL     1      -9.825  15.397 -17.161  1.00  0.00     0.244 HD
ENDBRANCH  13  15
BRANCH  12  17
HETATM   17  O2  UNL     1     -10.366  18.626 -16.991  1.00  0.00    -0.346 OA
ATOM     18  H2  UNL     1     -10.179  18.393 -17.892  1.00  0.00     0.219 HD
ENDBRANCH  12  17
ENDBRANCH   1  12
BRANCH   7  19
HETATM   19  O3  UNL     1     -14.948  17.095 -19.520  1.00  0.00    -0.386 OA
ATOM     20  H3  UNL     1     -15.783  17.414 -19.844  1.00  0.00     0.210 HD
ENDBRANCH   7  19
TORSDOF 4
ENDMDL
MODEL 3
REMARK VINA RESULT: -6.144743993      1.910      2.388
REMARK  4 active torsions:
REMARK  status: ('A' for Active; 'I' for Inactive)
REMARK    1  A    between atoms: O1_1  and  N1_3 
REMARK    2  A    between atoms: C1_5  and  O2_6 
REMARK    3  A    between atoms: C1_5  and  C2_8 
REMARK    4  A    between atoms: C8_14  and  O3_15 
ROOT
HETATM    1  C2  UNL     1     -14.577  17.660 -17.983  1.00  0.00     0.307 C 
HETATM    2  C3  UNL     1     -13.060  17.851 -18.123  1.00  0.00     0.116 C 
HETATM    3  C4  UNL     1     -13.027  17.853 -16.624  1.00  0.00     0.264 C 
HETATM    4  C5  UNL     1     -12.447  19.078 -15.970  1.00  0.00     0.072 C 
HETATM    5  C6  UNL     1     -13.392  19.570 -14.923  1.00  0.00     0.008 C 
HETATM    6  C7  UNL     1     -13.798  18.587 -13.903  1.00  0.00     0.042 C 
HETATM    7  C8  UNL     1     -14.096  17.208 -14.420  1.00  0.00     0.106 C 
HETATM    8  C9  UNL     1     -12.879  16.439 -14.802  1.00  0.00     0.210 C 
HETATM    9  O4  UNL     1     -12.557  16.679 -16.123  1.00  0.00    -0.349 OA
HETATM   10  C10 UNL     1     -15.082  17.281 -15.590  1.00  0.00     0.317 C 
HETATM   11  N2  UNL     1     -14.452  17.995 -16.625  1.00  0.00     0.139 N 
ENDROOT
BRANCH   1  12
HETATM   12  C1  UNL     1     -15.061  16.350 -18.398  1.00  0.00     0.170 C 
HETATM   13  N1  UNL     1     -14.242  15.370 -18.530  1.00  0.00    -0.249 N 
ATOM     14  H1  UNL     1     -13.252  15.522 -18.340  1.00  0.00     0.196 HD
BRANCH  13  15
HETATM   15  O1  UNL     1     -14.665  14.116 -18.923  1.00  0.00    -0.288 OA
ATOM     16  H1  UNL     1     -14.598  13.823 -19.824  1.00  0.00     0.244 HD
ENDBRANCH  13  15
BRANCH  12  17
HETATM   17  O2  UNL     1     -16.411  16.169 -18.651  1.00  0.00    -0.346 OA
ATOM     18  H2  UNL     1     -16.746  15.305 -18.858  1.00  0.00     0.219 HD
ENDBRANCH  12  17
ENDBRANCH   1  12
BRANCH   7  19
HETATM   19  O3  UNL     1     -14.758  16.516 -13.400  1.00  0.00    -0.386 OA
ATOM     20  H3  UNL     1     -14.417  16.836 -12.573  1.00  0.00     0.210 HD
ENDBRANCH   7  19
TORSDOF 4
ENDMDL
MODEL 4
REMARK VINA RESULT: -6.142083287      2.543      3.360
REMARK  4 active torsions:
REMARK  status: ('A' for Active; 'I' for Inactive)
REMARK    1  A    between atoms: O1_1  and  N1_3 
REMARK    2  A    between atoms: C1_5  and  O2_6 
REMARK    3  A    between atoms: C1_5  and  C2_8 
REMARK    4  A    between atoms: C8_14  and  O3_15 
ROOT
HETATM    1  C2  UNL     1     -16.250  17.706 -16.623  1.00  0.00     0.307 C 
HETATM    2  C3  UNL     1     -15.417  18.940 -16.247  1.00  0.00     0.116 C 
HETATM    3  C4  UNL     1     -14.218  18.067 -16.463  1.00  0.00     0.264 C 
HETATM    4  C5  UNL     1     -13.286  17.910 -15.291  1.00  0.00     0.072 C 
HETATM    5  C6  UNL     1     -13.020  16.457 -15.067  1.00  0.00     0.008 C 
HETATM    6  C7  UNL     1     -12.515  15.704 -16.229  1.00  0.00     0.042 C 
HETATM    7  C8  UNL     1     -13.173  16.026 -17.541  1.00  0.00     0.106 C 
HETATM    8  C9  UNL     1     -12.763  17.342 -18.106  1.00  0.00     0.210 C 
HETATM    9  O4  UNL     1     -13.592  18.342 -17.639  1.00  0.00    -0.349 OA
HETATM   10  C10 UNL     1     -14.697  15.945 -17.405  1.00  0.00     0.317 C 
HETATM   11  N2  UNL     1     -15.089  16.930 -16.480  1.00  0.00     0.139 N 
ENDROOT
BRANCH   1  12
HETATM   12  C1  UNL     1     -16.939  17.810 -17.902  1.00  0.00     0.170 C 
HETATM   13  N1  UNL     1     -18.220  17.889 -17.942  1.00  0.00    -0.249 N 
ATOM     14  H1  UNL     1     -18.746  17.878 -17.067  1.00  0.00     0.196 HD
BRANCH  13  15
HETATM   15  O1  UNL     1     -18.907  17.988 -19.136  1.00  0.00    -0.288 OA
ATOM     16  H1  UNL     1     -19.785  17.642 -19.239  1.00  0.00     0.244 HD
ENDBRANCH  13  15
BRANCH  12  17
HETATM   17  O2  UNL     1     -16.204  17.824 -19.076  1.00  0.00    -0.346 OA
ATOM     18  H2  UNL     1     -15.952  17.008 -19.491  1.00  0.00     0.219 HD
ENDBRANCH  12  17
ENDBRANCH   1  12
BRANCH   7  19
HETATM   19  O3  UNL     1     -12.813  15.021 -18.445  1.00  0.00    -0.386 OA
ATOM     20  H3  UNL     1     -11.872  15.075 -18.566  1.00  0.00     0.210 HD
ENDBRANCH   7  19
TORSDOF 4
ENDMDL
MODEL 5
REMARK VINA RESULT: -6.130410322      1.537      1.714
REMARK  4 active torsions:
REMARK  status: ('A' for Active; 'I' for Inactive)
REMARK    1  A    between atoms: O1_1  and  N1_3 
REMARK    2  A    between atoms: C1_5  and  O2_6 
REMARK    3  A    between atoms: C1_5  and  C2_8 
REMARK    4  A    between atoms: C8_14  and  O3_15 
ROOT
HETATM    1  C2  UNL     1     -15.403  16.882 -16.756  1.00  0.00     0.307 C 
HETATM    2  C3  UNL     1     -15.509  18.414 -16.773  1.00  0.00     0.116 C 
HETATM    3  C4  UNL     1     -14.060  18.415 -16.385  1.00  0.00     0.264 C 
HETATM    4  C5  UNL     1     -13.712  19.120 -15.102  1.00  0.00     0.072 C 
HETATM    5  C6  UNL     1     -12.875  18.216 -14.256  1.00  0.00     0.008 C 
HETATM    6  C7  UNL     1     -11.661  17.676 -14.891  1.00  0.00     0.042 C 
HETATM    7  C8  UNL     1     -11.822  17.228 -16.316  1.00  0.00     0.106 C 
HETATM    8  C9  UNL     1     -11.933  18.354 -17.285  1.00  0.00     0.210 C 
HETATM    9  O4  UNL     1     -13.252  18.731 -17.432  1.00  0.00    -0.349 OA
HETATM   10  C10 UNL     1     -13.022  16.284 -16.444  1.00  0.00     0.317 C 
HETATM   11  N2  UNL     1     -14.171  17.016 -16.095  1.00  0.00     0.139 N 
ENDROOT
BRANCH   1  12
HETATM   12  C1  UNL     1     -15.494  16.257 -18.068  1.00  0.00     0.170 C 
HETATM   13  N1  UNL     1     -15.417  16.972 -19.132  1.00  0.00    -0.249 N 
ATOM     14  H1  UNL     1     -15.291  17.980 -19.045  1.00  0.00     0.196 HD
BRANCH  13  15
HETATM   15  O1  UNL     1     -15.500  16.413 -20.392  1.00  0.00    -0.288 OA
ATOM     16  H1  UNL     1     -15.989  15.615 -20.555  1.00  0.00     0.244 HD
ENDBRANCH  13  15
BRANCH  12  17
HETATM   17  O2  UNL     1     -15.665  14.886 -18.161  1.00  0.00    -0.346 OA
ATOM     18  H2  UNL     1     -15.229  14.396 -18.848  1.00  0.00     0.219 HD
ENDBRANCH  12  17
ENDBRANCH   1  12
BRANCH   7  19
HETATM   19  O3  UNL     1     -10.695  16.467 -16.644  1.00  0.00    -0.386 OA
ATOM     20  H3  UNL     1     -10.891  15.564 -16.424  1.00  0.00     0.210 HD
ENDBRANCH   7  19
TORSDOF 4
ENDMDL
