MODEL 1
REMARK VINA RESULT: -6.873825231      0.000      0.000
REMARK  5 active torsions:
REMARK  status: ('A' for Active; 'I' for Inactive)
REMARK    1  A    between atoms: C4_4  and  C5_5 
REMARK    2  A    between atoms: C6_6  and  C7_7 
REMARK       I    between atoms: C7_7  and  N1_9 
REMARK    3  A    between atoms: N1_9  and  C8_11 
REMARK    4  A    between atoms: C8_11  and  C10_13 
REMARK    5  A    between atoms: C10_13  and  C11_14 
ROOT
HETATM    1  C1  UNL     1      -0.651   9.377  15.226  1.00  0.00     0.068 C 
HETATM    2  C2  UNL     1      -1.581   8.691  14.263  1.00  0.00     0.006 A 
HETATM    3  C3  UNL     1      -2.245   7.526  14.603  1.00  0.00     0.047 A 
HETATM    4  C4  UNL     1      -3.095   6.886  13.745  1.00  0.00     0.042 A 
HETATM    5  C14 UNL     1      -3.302   7.422  12.488  1.00  0.00     0.085 A 
HETATM    6  C15 UNL     1      -4.196   6.769  11.555  1.00  0.00     0.103 C 
HETATM    7  N2  UNL     1      -4.919   6.230  10.818  1.00  0.00    -0.191 NA
HETATM    8  C16 UNL     1      -2.632   8.586  12.162  1.00  0.00     0.028 A 
HETATM    9  C17 UNL     1      -2.876   9.140  10.797  1.00  0.00     0.070 C 
HETATM   10  N3  UNL     1      -1.798   9.194  13.033  1.00  0.00    -0.362 N 
ATOM     11  H3  UNL     1      -1.322  10.052  12.754  1.00  0.00     0.165 HD
ENDROOT
BRANCH   4  12
HETATM   12  C5  UNL     1      -3.793   5.666  14.097  1.00  0.00    -0.055 C 
HETATM   13  C6  UNL     1      -4.393   4.655  14.385  1.00  0.00    -0.000 C 
BRANCH  13  14
HETATM   14  C7  UNL     1      -5.098   3.458  14.704  1.00  0.00     0.297 C 
HETATM   15  O1  UNL     1      -6.328   3.401  14.473  1.00  0.00    -0.258 OA
HETATM   16  N1  UNL     1      -4.407   2.369  15.271  1.00  0.00    -0.346 N 
ATOM     17  H1  UNL     1      -3.406   2.466  15.441  1.00  0.00     0.163 HD
BRANCH  16  18
HETATM   18  C8  UNL     1      -5.047   1.119  15.624  1.00  0.00     0.081 C 
HETATM   19  C9  UNL     1      -4.426   0.016  14.849  1.00  0.00     0.032 C 
BRANCH  18  20
HETATM   20  C10 UNL     1      -5.064   0.910  17.108  1.00  0.00     0.028 C 
BRANCH  20  21
HETATM   21  C11 UNL     1      -6.380   1.130  17.755  1.00  0.00    -0.021 C 
HETATM   22  C12 UNL     1      -7.489   1.094  16.713  1.00  0.00     0.009 C 
HETATM   23  C13 UNL     1      -6.391   2.531  18.340  1.00  0.00     0.009 C 
ENDBRANCH  20  21
ENDBRANCH  18  20
ENDBRANCH  16  18
ENDBRANCH  13  14
ENDBRANCH   4  12
TORSDOF 5
ENDMDL
MODEL 2
REMARK VINA RESULT: -6.818619260      1.948      2.172
REMARK  5 active torsions:
REMARK  status: ('A' for Active; 'I' for Inactive)
REMARK    1  A    between atoms: C4_4  and  C5_5 
REMARK    2  A    between atoms: C6_6  and  C7_7 
REMARK       I    between atoms: C7_7  and  N1_9 
REMARK    3  A    between atoms: N1_9  and  C8_11 
REMARK    4  A    between atoms: C8_11  and  C10_13 
REMARK    5  A    between atoms: C10_13  and  C11_14 
ROOT
HETATM    1  C1  UNL     1      -0.603   9.833  14.953  1.00  0.00     0.068 C 
HETATM    2  C2  UNL     1      -0.668   8.564  14.149  1.00  0.00     0.006 A 
HETATM    3  C3  UNL     1      -1.603   7.581  14.423  1.00  0.00     0.047 A 
HETATM    4  C4  UNL     1      -1.681   6.420  13.706  1.00  0.00     0.042 A 
HETATM    5  C14 UNL     1      -0.793   6.216  12.667  1.00  0.00     0.085 A 
HETATM    6  C15 UNL     1      -0.850   4.997  11.888  1.00  0.00     0.103 C 
HETATM    7  N2  UNL     1      -0.910   4.011  11.273  1.00  0.00    -0.191 NA
HETATM    8  C16 UNL     1       0.135   7.206  12.406  1.00  0.00     0.028 A 
HETATM    9  C17 UNL     1       1.081   6.957  11.277  1.00  0.00     0.070 C 
HETATM   10  N3  UNL     1       0.186   8.344  13.133  1.00  0.00    -0.362 N 
ATOM     11  H3  UNL     1       0.887   9.050  12.908  1.00  0.00     0.165 HD
ENDROOT
BRANCH   4  12
HETATM   12  C5  UNL     1      -2.659   5.388  13.989  1.00  0.00    -0.055 C 
HETATM   13  C6  UNL     1      -3.477   4.522  14.205  1.00  0.00    -0.000 C 
BRANCH  13  14
HETATM   14  C7  UNL     1      -4.424   3.488  14.461  1.00  0.00     0.297 C 
HETATM   15  O1  UNL     1      -5.623   3.677  14.153  1.00  0.00    -0.258 OA
HETATM   16  N1  UNL     1      -4.000   2.282  15.052  1.00  0.00    -0.346 N 
ATOM     17  H1  UNL     1      -3.012   2.178  15.286  1.00  0.00     0.163 HD
BRANCH  16  18
HETATM   18  C8  UNL     1      -4.896   1.183  15.345  1.00  0.00     0.081 C 
HETATM   19  C9  UNL     1      -4.346  -0.066  14.760  1.00  0.00     0.032 C 
BRANCH  18  20
HETATM   20  C10 UNL     1      -5.209   1.103  16.808  1.00  0.00     0.028 C 
BRANCH  20  21
HETATM   21  C11 UNL     1      -6.368   1.918  17.245  1.00  0.00    -0.021 C 
HETATM   22  C12 UNL     1      -6.309   2.150  18.749  1.00  0.00     0.009 C 
HETATM   23  C13 UNL     1      -7.633   1.118  16.988  1.00  0.00     0.009 C 
ENDBRANCH  20  21
ENDBRANCH  18  20
ENDBRANCH  16  18
ENDBRANCH  13  14
ENDBRANCH   4  12
TORSDOF 5
ENDMDL
MODEL 3
REMARK VINA RESULT: -6.397544138      1.642      2.062
REMARK  5 active torsions:
REMARK  status: ('A' for Active; 'I' for Inactive)
REMARK    1  A    between atoms: C4_4  and  C5_5 
REMARK    2  A    between atoms: C6_6  and  C7_7 
REMARK       I    between atoms: C7_7  and  N1_9 
REMARK    3  A    between atoms: N1_9  and  C8_11 
REMARK    4  A    between atoms: C8_11  and  C10_13 
REMARK    5  A    between atoms: C10_13  and  C11_14 
ROOT
HETATM    1  C1  UNL     1      -2.111   9.894  12.068  1.00  0.00     0.068 C 
HETATM    2  C2  UNL     1      -2.448   8.534  11.522  1.00  0.00     0.006 A 
HETATM    3  C3  UNL     1      -3.061   7.571  12.304  1.00  0.00     0.047 A 
HETATM    4  C4  UNL     1      -3.377   6.328  11.829  1.00  0.00     0.042 A 
HETATM    5  C14 UNL     1      -3.073   6.019  10.517  1.00  0.00     0.085 A 
HETATM    6  C15 UNL     1      -3.394   4.713   9.983  1.00  0.00     0.103 C 
HETATM    7  N2  UNL     1      -3.661   3.657   9.570  1.00  0.00    -0.191 NA
HETATM    8  C16 UNL     1      -2.461   6.991   9.748  1.00  0.00     0.028 A 
HETATM    9  C17 UNL     1      -2.145   6.626   8.334  1.00  0.00     0.070 C 
HETATM   10  N3  UNL     1      -2.161   8.210  10.247  1.00  0.00    -0.362 N 
ATOM     11  H3  UNL     1      -1.709   8.899   9.647  1.00  0.00     0.165 HD
ENDROOT
BRANCH   4  12
HETATM   12  C5  UNL     1      -4.019   5.318  12.644  1.00  0.00    -0.055 C 
HETATM   13  C6  UNL     1      -4.540   4.475  13.339  1.00  0.00    -0.000 C 
BRANCH  13  14
HETATM   14  C7  UNL     1      -5.166   3.498  14.168  1.00  0.00     0.297 C 
HETATM   15  O1  UNL     1      -6.345   3.689  14.542  1.00  0.00    -0.258 OA
HETATM   16  N1  UNL     1      -4.452   2.345  14.552  1.00  0.00    -0.346 N 
ATOM     17  H1  UNL     1      -3.492   2.238  14.222  1.00  0.00     0.163 HD
BRANCH  16  18
HETATM   18  C8  UNL     1      -5.012   1.307  15.391  1.00  0.00     0.081 C 
HETATM   19  C9  UNL     1      -4.400   0.003  15.029  1.00  0.00     0.032 C 
BRANCH  18  20
HETATM   20  C10 UNL     1      -4.917   1.661  16.843  1.00  0.00     0.028 C 
BRANCH  20  21
HETATM   21  C11 UNL     1      -6.074   1.236  17.667  1.00  0.00    -0.021 C 
HETATM   22  C12 UNL     1      -7.329   1.160  16.809  1.00  0.00     0.009 C 
HETATM   23  C13 UNL     1      -6.335   2.312  18.707  1.00  0.00     0.009 C 
ENDBRANCH  20  21
ENDBRANCH  18  20
ENDBRANCH  16  18
ENDBRANCH  13  14
ENDBRANCH   4  12
TORSDOF 5
ENDMDL
MODEL 4
REMARK VINA RESULT: -6.379946886      3.169      3.302
REMARK  5 active torsions:
REMARK  status: ('A' for Active; 'I' for Inactive)
REMARK    1  A    between atoms: C4_4  and  C5_5 
REMARK    2  A    between atoms: C6_6  and  C7_7 
REMARK       I    between atoms: C7_7  and  N1_9 
REMARK    3  A    between atoms: N1_9  and  C8_11 
REMARK    4  A    between atoms: C8_11  and  C10_13 
REMARK    5  A    between atoms: C10_13  and  C11_14 
ROOT
HETATM    1  C1  UNL     1       2.057   6.311  11.704  1.00  0.00     0.068 C 
HETATM    2  C2  UNL     1       0.794   5.885  11.008  1.00  0.00     0.006 A 
HETATM    3  C3  UNL     1      -0.185   5.160  11.666  1.00  0.00     0.047 A 
HETATM    4  C4  UNL     1      -1.341   4.762  11.054  1.00  0.00     0.042 A 
HETATM    5  C14 UNL     1      -1.543   5.094   9.728  1.00  0.00     0.085 A 
HETATM    6  C15 UNL     1      -2.757   4.688   9.051  1.00  0.00     0.103 C 
HETATM    7  N2  UNL     1      -3.739   4.353   8.524  1.00  0.00    -0.191 NA
HETATM    8  C16 UNL     1      -0.557   5.818   9.085  1.00  0.00     0.028 A 
HETATM    9  C17 UNL     1      -0.804   6.162   7.653  1.00  0.00     0.070 C 
HETATM   10  N3  UNL     1       0.575   6.197   9.717  1.00  0.00    -0.362 N 
ATOM     11  H3  UNL     1       1.279   6.730   9.207  1.00  0.00     0.165 HD
ENDROOT
BRANCH   4  12
HETATM   12  C5  UNL     1      -2.368   4.003  11.738  1.00  0.00    -0.055 C 
HETATM   13  C6  UNL     1      -3.213   3.355  12.315  1.00  0.00    -0.000 C 
BRANCH  13  14
HETATM   14  C7  UNL     1      -4.202   2.602  13.012  1.00  0.00     0.297 C 
HETATM   15  O1  UNL     1      -5.228   2.235  12.395  1.00  0.00    -0.258 OA
HETATM   16  N1  UNL     1      -4.012   2.287  14.372  1.00  0.00    -0.346 N 
ATOM     17  H1  UNL     1      -3.159   2.610  14.830  1.00  0.00     0.163 HD
BRANCH  16  18
HETATM   18  C8  UNL     1      -4.966   1.527  15.153  1.00  0.00     0.081 C 
HETATM   19  C9  UNL     1      -4.494   0.125  15.273  1.00  0.00     0.032 C 
BRANCH  18  20
HETATM   20  C10 UNL     1      -5.270   2.200  16.456  1.00  0.00     0.028 C 
BRANCH  20  21
HETATM   21  C11 UNL     1      -6.060   1.385  17.411  1.00  0.00    -0.021 C 
HETATM   22  C12 UNL     1      -7.474   1.185  16.883  1.00  0.00     0.009 C 
HETATM   23  C13 UNL     1      -6.196   2.171  18.704  1.00  0.00     0.009 C 
ENDBRANCH  20  21
ENDBRANCH  18  20
ENDBRANCH  16  18
ENDBRANCH  13  14
ENDBRANCH   4  12
TORSDOF 5
ENDMDL
MODEL 5
REMARK VINA RESULT: -6.323577845      2.291      2.917
REMARK  5 active torsions:
REMARK  status: ('A' for Active; 'I' for Inactive)
REMARK    1  A    between atoms: C4_4  and  C5_5 
REMARK    2  A    between atoms: C6_6  and  C7_7 
REMARK       I    between atoms: C7_7  and  N1_9 
REMARK    3  A    between atoms: N1_9  and  C8_11 
REMARK    4  A    between atoms: C8_11  and  C10_13 
REMARK    5  A    between atoms: C10_13  and  C11_14 
ROOT
HETATM    1  C1  UNL     1       1.801   6.065  10.384  1.00  0.00     0.068 C 
HETATM    2  C2  UNL     1       0.804   6.460  11.438  1.00  0.00     0.006 A 
HETATM    3  C3  UNL     1      -0.217   5.609  11.824  1.00  0.00     0.047 A 
HETATM    4  C4  UNL     1      -1.134   5.947  12.780  1.00  0.00     0.042 A 
HETATM    5  C14 UNL     1      -1.040   7.185  13.387  1.00  0.00     0.085 A 
HETATM    6  C15 UNL     1      -1.995   7.573  14.404  1.00  0.00     0.103 C 
HETATM    7  N2  UNL     1      -2.772   7.867  15.220  1.00  0.00    -0.191 NA
HETATM    8  C16 UNL     1      -0.015   8.023  12.991  1.00  0.00     0.028 A 
HETATM    9  C17 UNL     1       0.059   9.354  13.665  1.00  0.00     0.070 C 
HETATM   10  N3  UNL     1       0.875   7.660  12.043  1.00  0.00    -0.362 N 
ATOM     11  H3  UNL     1       1.617   8.309  11.779  1.00  0.00     0.165 HD
ENDROOT
BRANCH   4  12
HETATM   12  C5  UNL     1      -2.204   5.059  13.188  1.00  0.00    -0.055 C 
HETATM   13  C6  UNL     1      -3.085   4.303  13.531  1.00  0.00    -0.000 C 
BRANCH  13  14
HETATM   14  C7  UNL     1      -4.118   3.417  13.956  1.00  0.00     0.297 C 
HETATM   15  O1  UNL     1      -5.217   3.439  13.356  1.00  0.00    -0.258 OA
HETATM   16  N1  UNL     1      -3.889   2.541  15.036  1.00  0.00    -0.346 N 
ATOM     17  H1  UNL     1      -2.977   2.564  15.492  1.00  0.00     0.163 HD
BRANCH  16  18
HETATM   18  C8  UNL     1      -4.884   1.612  15.530  1.00  0.00     0.081 C 
HETATM   19  C9  UNL     1      -4.529   0.239  15.092  1.00  0.00     0.032 C 
BRANCH  18  20
HETATM   20  C10 UNL     1      -5.095   1.765  17.005  1.00  0.00     0.028 C 
BRANCH  20  21
HETATM   21  C11 UNL     1      -6.469   2.155  17.403  1.00  0.00    -0.021 C 
HETATM   22  C12 UNL     1      -7.461   1.079  16.985  1.00  0.00     0.009 C 
HETATM   23  C13 UNL     1      -6.848   3.406  16.630  1.00  0.00     0.009 C 
ENDBRANCH  20  21
ENDBRANCH  18  20
ENDBRANCH  16  18
ENDBRANCH  13  14
ENDBRANCH   4  12
TORSDOF 5
ENDMDL
