MODEL 1
REMARK VINA RESULT: -6.726203626      0.000      0.000
REMARK  4 active torsions:
REMARK  status: ('A' for Active; 'I' for Inactive)
REMARK    1  A    between atoms: C3_3  and  N1_4 
REMARK    2  A    between atoms: N1_4  and  C4_6 
REMARK    3  A    between atoms: C5_9  and  C6_10 
REMARK    4  A    between atoms: C12_18  and  N4_19 
ROOT
HETATM    1  C1  UNL     1       2.501   3.338   8.861  1.00  0.00     0.014 C 
HETATM    2  C2  UNL     1       1.973   3.906   9.797  1.00  0.00    -0.098 C 
HETATM    3  C3  UNL     1       1.331   4.609  10.907  1.00  0.00     0.215 C 
ENDROOT
BRANCH   3   4
HETATM    4  N1  UNL     1       0.445   3.716  11.630  1.00  0.00    -0.360 N 
ATOM      5  H1  UNL     1       0.812   2.912  12.140  1.00  0.00     0.162 HD
BRANCH   4   6
HETATM    6  C4  UNL     1      -0.844   3.973  11.607  1.00  0.00     0.145 A 
HETATM    7  N2  UNL     1      -1.745   3.612  12.515  1.00  0.00    -0.336 N 
HETATM    8  C5  UNL     1      -3.002   3.959  12.333  1.00  0.00     0.055 A 
ATOM      9  H2  UNL     1      -1.468   3.078  13.338  1.00  0.00     0.168 HD
HETATM   10  C15 UNL     1      -3.289   4.676  11.199  1.00  0.00     0.083 A 
HETATM   11  S1  UNL     1      -1.758   4.819  10.457  1.00  0.00    -0.064 SA
BRANCH   8  12
HETATM   12  C6  UNL     1      -4.067   3.706  13.355  1.00  0.00     0.041 A 
HETATM   13  C7  UNL     1      -4.291   4.630  14.374  1.00  0.00    -0.044 A 
HETATM   14  C8  UNL     1      -3.639   5.953  14.423  1.00  0.00     0.049 C 
HETATM   15  C9  UNL     1      -5.209   4.380  15.401  1.00  0.00     0.032 A 
HETATM   16  C10 UNL     1      -5.903   3.197  15.402  1.00  0.00     0.007 A 
HETATM   17  C11 UNL     1      -6.886   2.925  16.499  1.00  0.00     0.068 C 
HETATM   18  N3  UNL     1      -5.677   2.333  14.427  1.00  0.00    -0.346 N 
HETATM   19  C12 UNL     1      -4.782   2.535  13.396  1.00  0.00     0.116 A 
ATOM     20  H3  UNL     1      -6.201   1.458  14.438  1.00  0.00     0.167 HD
BRANCH  19  21
HETATM   21  N4  UNL     1      -4.637   1.461  12.476  1.00  0.00    -0.375 N 
HETATM   22  C13 UNL     1      -4.045   0.227  12.900  1.00  0.00     0.150 C 
HETATM   23  C14 UNL     1      -5.156   1.647  11.137  1.00  0.00     0.150 C 
ENDBRANCH  19  21
ENDBRANCH   8  12
ENDBRANCH   4   6
ENDBRANCH   3   4
TORSDOF 4
ENDMDL
MODEL 2
REMARK VINA RESULT: -6.193835256      2.247      5.912
REMARK  4 active torsions:
REMARK  status: ('A' for Active; 'I' for Inactive)
REMARK    1  A    between atoms: C3_3  and  N1_4 
REMARK    2  A    between atoms: N1_4  and  C4_6 
REMARK    3  A    between atoms: C5_9  and  C6_10 
REMARK    4  A    between atoms: C12_18  and  N4_19 
ROOT
HETATM    1  C1  UNL     1      -6.900   1.094  16.860  1.00  0.00     0.014 C 
HETATM    2  C2  UNL     1      -5.793   0.895  16.400  1.00  0.00    -0.098 C 
HETATM    3  C3  UNL     1      -4.457   0.637  15.864  1.00  0.00     0.215 C 
ENDROOT
BRANCH   3   4
HETATM    4  N1  UNL     1      -4.507   0.494  14.421  1.00  0.00    -0.360 N 
ATOM      5  H1  UNL     1      -4.642  -0.420  13.989  1.00  0.00     0.162 HD
BRANCH   4   6
HETATM    6  C4  UNL     1      -4.373   1.578  13.689  1.00  0.00     0.145 A 
HETATM    7  N2  UNL     1      -3.797   2.719  14.052  1.00  0.00    -0.336 N 
HETATM    8  C5  UNL     1      -3.750   3.708  13.185  1.00  0.00     0.055 A 
ATOM      9  H2  UNL     1      -3.400   2.827  14.985  1.00  0.00     0.168 HD
HETATM   10  C15 UNL     1      -4.308   3.480  11.953  1.00  0.00     0.083 A 
HETATM   11  S1  UNL     1      -4.869   1.874  12.095  1.00  0.00    -0.064 SA
BRANCH   8  12
HETATM   12  C6  UNL     1      -3.017   4.987  13.457  1.00  0.00     0.041 A 
HETATM   13  C7  UNL     1      -3.543   5.916  14.353  1.00  0.00    -0.044 A 
HETATM   14  C8  UNL     1      -4.725   5.649  15.194  1.00  0.00     0.049 C 
HETATM   15  C9  UNL     1      -2.936   7.162  14.556  1.00  0.00     0.032 A 
HETATM   16  C10 UNL     1      -1.799   7.471  13.856  1.00  0.00     0.007 A 
HETATM   17  C11 UNL     1      -1.146   8.803  14.070  1.00  0.00     0.068 C 
HETATM   18  N3  UNL     1      -1.314   6.577  13.011  1.00  0.00    -0.346 N 
HETATM   19  C12 UNL     1      -1.878   5.339  12.777  1.00  0.00     0.116 A 
ATOM     20  H3  UNL     1      -0.467   6.818  12.498  1.00  0.00     0.167 HD
BRANCH  19  21
HETATM   21  N4  UNL     1      -1.243   4.541  11.787  1.00  0.00    -0.375 N 
HETATM   22  C13 UNL     1      -0.521   3.363  12.168  1.00  0.00     0.150 C 
HETATM   23  C14 UNL     1      -1.403   4.933  10.401  1.00  0.00     0.150 C 
ENDBRANCH  19  21
ENDBRANCH   8  12
ENDBRANCH   4   6
ENDBRANCH   3   4
TORSDOF 4
ENDMDL
MODEL 3
REMARK VINA RESULT: -6.066255415      2.721      6.467
REMARK  4 active torsions:
REMARK  status: ('A' for Active; 'I' for Inactive)
REMARK    1  A    between atoms: C3_3  and  N1_4 
REMARK    2  A    between atoms: N1_4  and  C4_6 
REMARK    3  A    between atoms: C5_9  and  C6_10 
REMARK    4  A    between atoms: C12_18  and  N4_19 
ROOT
HETATM    1  C1  UNL     1      -6.263   2.106  18.456  1.00  0.00     0.014 C 
HETATM    2  C2  UNL     1      -5.694   1.707  17.459  1.00  0.00    -0.098 C 
HETATM    3  C3  UNL     1      -5.032   1.228  16.246  1.00  0.00     0.215 C 
ENDROOT
BRANCH   3   4
HETATM    4  N1  UNL     1      -3.845   2.015  15.970  1.00  0.00    -0.360 N 
ATOM      5  H1  UNL     1      -2.937   1.746  16.348  1.00  0.00     0.162 HD
BRANCH   4   6
HETATM    6  C4  UNL     1      -3.976   3.087  15.219  1.00  0.00     0.145 A 
HETATM    7  N2  UNL     1      -3.030   3.970  14.918  1.00  0.00    -0.336 N 
HETATM    8  C5  UNL     1      -3.338   4.990  14.146  1.00  0.00     0.055 A 
ATOM      9  H2  UNL     1      -2.082   3.858  15.278  1.00  0.00     0.168 HD
HETATM   10  C15 UNL     1      -4.635   5.065  13.706  1.00  0.00     0.083 A 
HETATM   11  S1  UNL     1      -5.344   3.682  14.413  1.00  0.00    -0.064 SA
BRANCH   8  12
HETATM   12  C6  UNL     1      -2.316   5.968  13.653  1.00  0.00     0.041 A 
HETATM   13  C7  UNL     1      -2.185   7.212  14.267  1.00  0.00    -0.044 A 
HETATM   14  C8  UNL     1      -2.898   7.581  15.505  1.00  0.00     0.049 C 
HETATM   15  C9  UNL     1      -1.310   8.186  13.770  1.00  0.00     0.032 A 
HETATM   16  C10 UNL     1      -0.565   7.906  12.654  1.00  0.00     0.007 A 
HETATM   17  C11 UNL     1       0.373   8.945  12.120  1.00  0.00     0.068 C 
HETATM   18  N3  UNL     1      -0.701   6.720  12.085  1.00  0.00    -0.346 N 
HETATM   19  C12 UNL     1      -1.552   5.731  12.537  1.00  0.00     0.116 A 
ATOM     20  H3  UNL     1      -0.141   6.524  11.257  1.00  0.00     0.167 HD
BRANCH  19  21
HETATM   21  N4  UNL     1      -1.601   4.545  11.755  1.00  0.00    -0.375 N 
HETATM   22  C13 UNL     1      -0.755   3.435  12.078  1.00  0.00     0.150 C 
HETATM   23  C14 UNL     1      -2.565   4.490  10.675  1.00  0.00     0.150 C 
ENDBRANCH  19  21
ENDBRANCH   8  12
ENDBRANCH   4   6
ENDBRANCH   3   4
TORSDOF 4
ENDMDL
MODEL 4
REMARK VINA RESULT: -6.013718464      2.148      5.118
REMARK  4 active torsions:
REMARK  status: ('A' for Active; 'I' for Inactive)
REMARK    1  A    between atoms: C3_3  and  N1_4 
REMARK    2  A    between atoms: N1_4  and  C4_6 
REMARK    3  A    between atoms: C5_9  and  C6_10 
REMARK    4  A    between atoms: C12_18  and  N4_19 
ROOT
HETATM    1  C1  UNL     1      -2.903  -3.090  11.465  1.00  0.00     0.014 C 
HETATM    2  C2  UNL     1      -3.656  -2.151  11.636  1.00  0.00    -0.098 C 
HETATM    3  C3  UNL     1      -4.580  -1.037  11.848  1.00  0.00     0.215 C 
ENDROOT
BRANCH   3   4
HETATM    4  N1  UNL     1      -3.993  -0.051  12.735  1.00  0.00    -0.360 N 
ATOM      5  H1  UNL     1      -3.504  -0.333  13.584  1.00  0.00     0.162 HD
BRANCH   4   6
HETATM    6  C4  UNL     1      -4.110   1.218  12.410  1.00  0.00     0.145 A 
HETATM    7  N2  UNL     1      -3.664   2.262  13.101  1.00  0.00    -0.336 N 
HETATM    8  C5  UNL     1      -3.870   3.472  12.625  1.00  0.00     0.055 A 
ATOM      9  H2  UNL     1      -3.171   2.129  13.984  1.00  0.00     0.168 HD
HETATM   10  C15 UNL     1      -4.541   3.562  11.432  1.00  0.00     0.083 A 
HETATM   11  S1  UNL     1      -4.842   1.925  11.054  1.00  0.00    -0.064 SA
BRANCH   8  12
HETATM   12  C6  UNL     1      -3.301   4.700  13.266  1.00  0.00     0.041 A 
HETATM   13  C7  UNL     1      -4.002   5.345  14.284  1.00  0.00    -0.044 A 
HETATM   14  C8  UNL     1      -5.225   4.795  14.898  1.00  0.00     0.049 C 
HETATM   15  C9  UNL     1      -3.548   6.549  14.836  1.00  0.00     0.032 A 
HETATM   16  C10 UNL     1      -2.386   7.104  14.364  1.00  0.00     0.007 A 
HETATM   17  C11 UNL     1      -1.897   8.392  14.953  1.00  0.00     0.068 C 
HETATM   18  N3  UNL     1      -1.735   6.477  13.399  1.00  0.00    -0.346 N 
HETATM   19  C12 UNL     1      -2.145   5.291  12.823  1.00  0.00     0.116 A 
ATOM     20  H3  UNL     1      -0.872   6.899  13.057  1.00  0.00     0.167 HD
BRANCH  19  21
HETATM   21  N4  UNL     1      -1.340   4.805  11.757  1.00  0.00    -0.375 N 
HETATM   22  C13 UNL     1      -0.483   3.674  11.962  1.00  0.00     0.150 C 
HETATM   23  C14 UNL     1      -1.464   5.453  10.468  1.00  0.00     0.150 C 
ENDBRANCH  19  21
ENDBRANCH   8  12
ENDBRANCH   4   6
ENDBRANCH   3   4
TORSDOF 4
ENDMDL
MODEL 5
REMARK VINA RESULT: -5.954188739      2.558      4.041
REMARK  4 active torsions:
REMARK  status: ('A' for Active; 'I' for Inactive)
REMARK    1  A    between atoms: C3_3  and  N1_4 
REMARK    2  A    between atoms: N1_4  and  C4_6 
REMARK    3  A    between atoms: C5_9  and  C6_10 
REMARK    4  A    between atoms: C12_18  and  N4_19 
ROOT
HETATM    1  C1  UNL     1      -7.247   7.834  11.129  1.00  0.00     0.014 C 
HETATM    2  C2  UNL     1      -6.187   7.634  10.570  1.00  0.00    -0.098 C 
HETATM    3  C3  UNL     1      -4.899   7.407   9.916  1.00  0.00     0.215 C 
ENDROOT
BRANCH   3   4
HETATM    4  N1  UNL     1      -4.744   6.006   9.571  1.00  0.00    -0.360 N 
ATOM      5  H1  UNL     1      -5.109   5.637   8.693  1.00  0.00     0.162 HD
BRANCH   4   6
HETATM    6  C4  UNL     1      -4.118   5.226  10.426  1.00  0.00     0.145 A 
HETATM    7  N2  UNL     1      -4.609   4.727  11.556  1.00  0.00    -0.336 N 
HETATM    8  C5  UNL     1      -3.838   3.958  12.295  1.00  0.00     0.055 A 
ATOM      9  H2  UNL     1      -5.564   4.935  11.844  1.00  0.00     0.168 HD
HETATM   10  C15 UNL     1      -2.566   3.729  11.835  1.00  0.00     0.083 A 
HETATM   11  S1  UNL     1      -2.537   4.618  10.377  1.00  0.00    -0.064 SA
BRANCH   8  12
HETATM   12  C6  UNL     1      -4.336   3.251  13.519  1.00  0.00     0.041 A 
HETATM   13  C7  UNL     1      -4.384   3.920  14.740  1.00  0.00    -0.044 A 
HETATM   14  C8  UNL     1      -4.118   5.364  14.883  1.00  0.00     0.049 C 
HETATM   15  C9  UNL     1      -4.750   3.262  15.921  1.00  0.00     0.032 A 
HETATM   16  C10 UNL     1      -5.070   1.930  15.871  1.00  0.00     0.007 A 
HETATM   17  C11 UNL     1      -5.463   1.223  17.132  1.00  0.00     0.068 C 
HETATM   18  N3  UNL     1      -5.020   1.313  14.703  1.00  0.00    -0.346 N 
HETATM   19  C12 UNL     1      -4.662   1.918  13.515  1.00  0.00     0.116 A 
ATOM     20  H3  UNL     1      -5.261   0.323  14.678  1.00  0.00     0.167 HD
BRANCH  19  21
HETATM   21  N4  UNL     1      -4.611   1.072  12.374  1.00  0.00    -0.375 N 
HETATM   22  C13 UNL     1      -4.001  -0.222  12.467  1.00  0.00     0.150 C 
HETATM   23  C14 UNL     1      -5.239   1.542  11.157  1.00  0.00     0.150 C 
ENDBRANCH  19  21
ENDBRANCH   8  12
ENDBRANCH   4   6
ENDBRANCH   3   4
TORSDOF 4
ENDMDL
