MODEL 1
REMARK VINA RESULT: -7.328459498      0.000      0.000
REMARK  6 active torsions:
REMARK  status: ('A' for Active; 'I' for Inactive)
REMARK    1  A    between atoms: C2_2  and  C3_3 
REMARK    2  A    between atoms: C4_10  and  C5_11 
REMARK    3  A    between atoms: C7_15  and  N5_16 
REMARK    4  A    between atoms: N5_16  and  C8_18 
REMARK    5  A    between atoms: C8_18  and  C9_19 
REMARK    6  A    between atoms: N7_25  and  C13_27 
ROOT
HETATM    1  C5  UNL     1      -3.356   3.946  13.320  1.00  0.00     0.070 A 
HETATM    2  C6  UNL     1      -3.630   4.929  14.252  1.00  0.00     0.125 A 
HETATM    3  N4  UNL     1      -4.653   4.884  15.124  1.00  0.00    -0.201 N 
ATOM      4  H4  UNL     1      -4.814   5.638  15.793  1.00  0.00     0.183 HD
HETATM    5  C7  UNL     1      -5.454   3.806  15.076  1.00  0.00     0.679 A 
HETATM    6  N6  UNL     1      -5.215   2.817  14.174  1.00  0.00    -0.176 N 
ATOM      7  H6  UNL     1      -5.837   2.008  14.159  1.00  0.00     0.186 HD
HETATM    8  C12 UNL     1      -4.195   2.860  13.303  1.00  0.00     0.132 A 
HETATM    9  N7  UNL     1      -3.973   1.921  12.449  1.00  0.00    -0.371 N 
ATOM     10  H7  UNL     1      -3.177   2.030  11.820  1.00  0.00     0.161 HD
ENDROOT
BRANCH   1  11
HETATM   11  C4  UNL     1      -2.224   4.084  12.418  1.00  0.00     0.138 A 
HETATM   12  N3  UNL     1      -1.043   3.560  12.777  1.00  0.00    -0.270 N 
HETATM   13  N2  UNL     1       0.034   3.650  11.998  1.00  0.00    -0.240 N 
ATOM     14  H3  UNL     1      -0.966   3.079  13.673  1.00  0.00     0.190 HD
HETATM   15  N1  UNL     1      -0.067   4.278  10.832  1.00  0.00    -0.275 N 
ATOM     16  H2  UNL     1       0.921   3.243  12.292  1.00  0.00     0.208 HD
HETATM   17  C3  UNL     1      -1.222   4.821  10.422  1.00  0.00     0.098 A 
ATOM     18  H1  UNL     1       0.756   4.349  10.234  1.00  0.00     0.189 HD
HETATM   19  N8  UNL     1      -2.286   4.712  11.231  1.00  0.00    -0.329 N 
ATOM     20  H8  UNL     1      -3.173   5.119  10.935  1.00  0.00     0.168 HD
BRANCH  17  21
HETATM   21  C2  UNL     1      -1.272   5.506   9.117  1.00  0.00     0.073 C 
HETATM   22  C1  UNL     1      -2.106   4.745   8.105  1.00  0.00     0.013 C 
ENDBRANCH  17  21
ENDBRANCH   1  11
BRANCH   9  23
HETATM   23  C13 UNL     1      -4.767   0.737  12.322  1.00  0.00     0.075 C 
HETATM   24  C14 UNL     1      -4.068  -0.516  12.776  1.00  0.00     0.031 C 
HETATM   25  C15 UNL     1      -5.135   0.575  10.860  1.00  0.00     0.031 C 
ENDBRANCH   9  23
BRANCH   5  26
HETATM   26  N5  UNL     1      -6.433   3.722  15.882  1.00  0.00    -0.226 N 
ATOM     27  H5  UNL     1      -6.894   4.595  16.137  1.00  0.00     0.177 HD
BRANCH  26  28
HETATM   28  C8  UNL     1      -6.953   2.530  16.465  1.00  0.00     0.142 C 
BRANCH  28  29
HETATM   29  C9  UNL     1      -5.958   1.895  17.426  1.00  0.00    -0.004 C 
HETATM   30  C10 UNL     1      -6.398   2.192  18.856  1.00  0.00     0.011 C 
HETATM   31  C11 UNL     1      -5.951   0.388  17.280  1.00  0.00     0.011 C 
ENDBRANCH  28  29
ENDBRANCH  26  28
ENDBRANCH   5  26
TORSDOF 6
ENDMDL
MODEL 2
REMARK VINA RESULT: -6.659417529      1.065      1.591
REMARK  6 active torsions:
REMARK  status: ('A' for Active; 'I' for Inactive)
REMARK    1  A    between atoms: C2_2  and  C3_3 
REMARK    2  A    between atoms: C4_10  and  C5_11 
REMARK    3  A    between atoms: C7_15  and  N5_16 
REMARK    4  A    between atoms: N5_16  and  C8_18 
REMARK    5  A    between atoms: C8_18  and  C9_19 
REMARK    6  A    between atoms: N7_25  and  C13_27 
ROOT
HETATM    1  C5  UNL     1      -3.651   4.214  12.960  1.00  0.00     0.070 A 
HETATM    2  C6  UNL     1      -3.884   5.174  13.927  1.00  0.00     0.125 A 
HETATM    3  N4  UNL     1      -4.772   5.042  14.928  1.00  0.00    -0.201 N 
ATOM      4  H4  UNL     1      -4.909   5.782  15.618  1.00  0.00     0.183 HD
HETATM    5  C7  UNL     1      -5.471   3.895  14.983  1.00  0.00     0.679 A 
HETATM    6  N6  UNL     1      -5.269   2.927  14.050  1.00  0.00    -0.176 N 
ATOM      7  H6  UNL     1      -5.811   2.065  14.114  1.00  0.00     0.186 HD
HETATM    8  C12 UNL     1      -4.384   3.057  13.049  1.00  0.00     0.132 A 
HETATM    9  N7  UNL     1      -4.195   2.137  12.167  1.00  0.00    -0.371 N 
ATOM     10  H7  UNL     1      -3.504   2.313  11.437  1.00  0.00     0.161 HD
ENDROOT
BRANCH   1  11
HETATM   11  C4  UNL     1      -2.668   4.449  11.914  1.00  0.00     0.138 A 
HETATM   12  N3  UNL     1      -3.072   4.998  10.759  1.00  0.00    -0.270 N 
HETATM   13  N2  UNL     1      -2.225   5.241   9.761  1.00  0.00    -0.240 N 
ATOM     14  H3  UNL     1      -4.056   5.237  10.643  1.00  0.00     0.190 HD
HETATM   15  N1  UNL     1      -0.944   4.928   9.914  1.00  0.00    -0.275 N 
ATOM     16  H2  UNL     1      -2.555   5.661   8.892  1.00  0.00     0.208 HD
HETATM   17  C3  UNL     1      -0.484   4.376  11.046  1.00  0.00     0.098 A 
ATOM     18  H1  UNL     1      -0.293   5.112   9.151  1.00  0.00     0.189 HD
HETATM   19  N8  UNL     1      -1.364   4.146  12.031  1.00  0.00    -0.329 N 
ATOM     20  H8  UNL     1      -1.032   3.727  12.900  1.00  0.00     0.168 HD
BRANCH  17  21
HETATM   21  C2  UNL     1       0.950   4.050  11.158  1.00  0.00     0.073 C 
HETATM   22  C1  UNL     1       1.628   3.993   9.803  1.00  0.00     0.013 C 
ENDBRANCH  17  21
ENDBRANCH   1  11
BRANCH   9  23
HETATM   23  C13 UNL     1      -4.889   0.885  12.142  1.00  0.00     0.075 C 
HETATM   24  C14 UNL     1      -4.120  -0.250  12.760  1.00  0.00     0.031 C 
HETATM   25  C15 UNL     1      -5.171   0.536  10.693  1.00  0.00     0.031 C 
ENDBRANCH   9  23
BRANCH   5  26
HETATM   26  N5  UNL     1      -6.321   3.728  15.913  1.00  0.00    -0.226 N 
ATOM     27  H5  UNL     1      -6.671   4.569  16.372  1.00  0.00     0.177 HD
BRANCH  26  28
HETATM   28  C8  UNL     1      -6.835   2.483  16.379  1.00  0.00     0.142 C 
BRANCH  28  29
HETATM   29  C9  UNL     1      -5.916   1.847  17.412  1.00  0.00    -0.004 C 
HETATM   30  C10 UNL     1      -6.416   2.213  18.805  1.00  0.00     0.011 C 
HETATM   31  C11 UNL     1      -5.962   0.337  17.319  1.00  0.00     0.011 C 
ENDBRANCH  28  29
ENDBRANCH  26  28
ENDBRANCH   5  26
TORSDOF 6
ENDMDL
MODEL 3
REMARK VINA RESULT: -6.605533715      1.999      7.360
REMARK  6 active torsions:
REMARK  status: ('A' for Active; 'I' for Inactive)
REMARK    1  A    between atoms: C2_2  and  C3_3 
REMARK    2  A    between atoms: C4_10  and  C5_11 
REMARK    3  A    between atoms: C7_15  and  N5_16 
REMARK    4  A    between atoms: N5_16  and  C8_18 
REMARK    5  A    between atoms: C8_18  and  C9_19 
REMARK    6  A    between atoms: N7_25  and  C13_27 
ROOT
HETATM    1  C5  UNL     1      -4.624   2.331  13.009  1.00  0.00     0.070 A 
HETATM    2  C6  UNL     1      -5.019   1.754  11.816  1.00  0.00     0.125 A 
HETATM    3  N4  UNL     1      -4.853   2.321  10.609  1.00  0.00    -0.201 N 
ATOM      4  H4  UNL     1      -5.163   1.855   9.756  1.00  0.00     0.183 HD
HETATM    5  C7  UNL     1      -4.262   3.528  10.572  1.00  0.00     0.679 A 
HETATM    6  N6  UNL     1      -3.859   4.127  11.725  1.00  0.00    -0.176 N 
ATOM      7  H6  UNL     1      -3.413   5.042  11.670  1.00  0.00     0.186 HD
HETATM    8  C12 UNL     1      -4.024   3.563  12.932  1.00  0.00     0.132 A 
HETATM    9  N7  UNL     1      -3.642   4.133  14.022  1.00  0.00    -0.371 N 
ATOM     10  H7  UNL     1      -3.804   3.639  14.899  1.00  0.00     0.161 HD
ENDROOT
BRANCH   1  11
HETATM   11  C4  UNL     1      -4.847   1.638  14.269  1.00  0.00     0.138 A 
HETATM   12  N3  UNL     1      -4.104   0.559  14.553  1.00  0.00    -0.270 N 
HETATM   13  N2  UNL     1      -4.255  -0.121  15.689  1.00  0.00    -0.240 N 
ATOM     14  H3  UNL     1      -3.402   0.250  13.881  1.00  0.00     0.190 HD
HETATM   15  N1  UNL     1      -5.170   0.282  16.562  1.00  0.00    -0.275 N 
ATOM     16  H2  UNL     1      -3.677  -0.938  15.884  1.00  0.00     0.208 HD
HETATM   17  C3  UNL     1      -5.941   1.354  16.330  1.00  0.00     0.098 A 
ATOM     18  H1  UNL     1      -5.288  -0.236  17.432  1.00  0.00     0.189 HD
HETATM   19  N8  UNL     1      -5.762   2.015  15.178  1.00  0.00    -0.329 N 
ATOM     20  H8  UNL     1      -6.340   2.833  14.985  1.00  0.00     0.168 HD
BRANCH  17  21
HETATM   21  C2  UNL     1      -6.941   1.754  17.340  1.00  0.00     0.073 C 
HETATM   22  C1  UNL     1      -6.302   2.082  18.675  1.00  0.00     0.013 C 
ENDBRANCH  17  21
ENDBRANCH   1  11
BRANCH   9  23
HETATM   23  C13 UNL     1      -3.005   5.414  14.085  1.00  0.00     0.075 C 
HETATM   24  C14 UNL     1      -1.558   5.354  14.493  1.00  0.00     0.031 C 
HETATM   25  C15 UNL     1      -3.752   6.258  15.099  1.00  0.00     0.031 C 
ENDBRANCH   9  23
BRANCH   5  26
HETATM   26  N5  UNL     1      -4.085   4.102   9.451  1.00  0.00    -0.226 N 
ATOM     27  H5  UNL     1      -4.290   3.552   8.617  1.00  0.00     0.177 HD
BRANCH  26  28
HETATM   28  C8  UNL     1      -3.630   5.435   9.243  1.00  0.00     0.142 C 
BRANCH  28  29
HETATM   29  C9  UNL     1      -2.976   5.599   7.878  1.00  0.00    -0.004 C 
HETATM   30  C10 UNL     1      -1.787   4.648   7.785  1.00  0.00     0.011 C 
HETATM   31  C11 UNL     1      -3.930   5.208   6.770  1.00  0.00     0.011 C 
ENDBRANCH  28  29
ENDBRANCH  26  28
ENDBRANCH   5  26
TORSDOF 6
ENDMDL
MODEL 4
REMARK VINA RESULT: -6.555713844      2.424      6.934
REMARK  6 active torsions:
REMARK  status: ('A' for Active; 'I' for Inactive)
REMARK    1  A    between atoms: C2_2  and  C3_3 
REMARK    2  A    between atoms: C4_10  and  C5_11 
REMARK    3  A    between atoms: C7_15  and  N5_16 
REMARK    4  A    between atoms: N5_16  and  C8_18 
REMARK    5  A    between atoms: C8_18  and  C9_19 
REMARK    6  A    between atoms: N7_25  and  C13_27 
ROOT
HETATM    1  C5  UNL     1      -4.513   2.434  13.153  1.00  0.00     0.070 A 
HETATM    2  C6  UNL     1      -5.019   2.035  11.930  1.00  0.00     0.125 A 
HETATM    3  N4  UNL     1      -4.826   2.698  10.777  1.00  0.00    -0.201 N 
ATOM      4  H4  UNL     1      -5.223   2.363   9.898  1.00  0.00     0.183 HD
HETATM    5  C7  UNL     1      -4.090   3.821  10.829  1.00  0.00     0.679 A 
HETATM    6  N6  UNL     1      -3.573   4.245  12.013  1.00  0.00    -0.176 N 
ATOM      7  H6  UNL     1      -3.017   5.100  12.026  1.00  0.00     0.186 HD
HETATM    8  C12 UNL     1      -3.766   3.585  13.166  1.00  0.00     0.132 A 
HETATM    9  N7  UNL     1      -3.276   3.991  14.287  1.00  0.00    -0.371 N 
ATOM     10  H7  UNL     1      -3.468   3.433  15.119  1.00  0.00     0.161 HD
ENDROOT
BRANCH   1  11
HETATM   11  C4  UNL     1      -4.777   1.649  14.349  1.00  0.00     0.138 A 
HETATM   12  N3  UNL     1      -4.069   0.529  14.556  1.00  0.00    -0.270 N 
HETATM   13  N2  UNL     1      -4.258  -0.235  15.630  1.00  0.00    -0.240 N 
ATOM     14  H3  UNL     1      -3.365   0.255  13.871  1.00  0.00     0.190 HD
HETATM   15  N1  UNL     1      -5.176   0.123  16.520  1.00  0.00    -0.275 N 
ATOM     16  H2  UNL     1      -3.707  -1.082  15.766  1.00  0.00     0.208 HD
HETATM   17  C3  UNL     1      -5.913   1.232  16.365  1.00  0.00     0.098 A 
ATOM     18  H1  UNL     1      -5.324  -0.461  17.343  1.00  0.00     0.189 HD
HETATM   19  N8  UNL     1      -5.696   1.979  15.272  1.00  0.00    -0.329 N 
ATOM     20  H8  UNL     1      -6.247   2.826  15.138  1.00  0.00     0.168 HD
BRANCH  17  21
HETATM   21  C2  UNL     1      -6.918   1.578  17.388  1.00  0.00     0.073 C 
HETATM   22  C1  UNL     1      -6.278   2.083  18.667  1.00  0.00     0.013 C 
ENDBRANCH  17  21
ENDBRANCH   1  11
BRANCH   9  23
HETATM   23  C13 UNL     1      -2.480   5.171  14.443  1.00  0.00     0.075 C 
HETATM   24  C14 UNL     1      -3.253   6.451  14.281  1.00  0.00     0.031 C 
HETATM   25  C15 UNL     1      -1.386   5.139  13.393  1.00  0.00     0.031 C 
ENDBRANCH   9  23
BRANCH   5  26
HETATM   26  N5  UNL     1      -3.882   4.480   9.762  1.00  0.00    -0.226 N 
ATOM     27  H5  UNL     1      -3.523   3.958   8.963  1.00  0.00     0.177 HD
BRANCH  26  28
HETATM   28  C8  UNL     1      -4.101   5.875   9.569  1.00  0.00     0.142 C 
BRANCH  28  29
HETATM   29  C9  UNL     1      -5.482   6.299  10.050  1.00  0.00    -0.004 C 
HETATM   30  C10 UNL     1      -5.319   7.311  11.178  1.00  0.00     0.011 C 
HETATM   31  C11 UNL     1      -6.246   6.999   8.947  1.00  0.00     0.011 C 
ENDBRANCH  28  29
ENDBRANCH  26  28
ENDBRANCH   5  26
TORSDOF 6
ENDMDL
MODEL 5
REMARK VINA RESULT: -6.404046530      2.351      5.862
REMARK  6 active torsions:
REMARK  status: ('A' for Active; 'I' for Inactive)
REMARK    1  A    between atoms: C2_2  and  C3_3 
REMARK    2  A    between atoms: C4_10  and  C5_11 
REMARK    3  A    between atoms: C7_15  and  N5_16 
REMARK    4  A    between atoms: N5_16  and  C8_18 
REMARK    5  A    between atoms: C8_18  and  C9_19 
REMARK    6  A    between atoms: N7_25  and  C13_27 
ROOT
HETATM    1  C5  UNL     1      -4.038   2.989  12.909  1.00  0.00     0.070 A 
HETATM    2  C6  UNL     1      -3.363   3.986  12.230  1.00  0.00     0.125 A 
HETATM    3  N4  UNL     1      -3.015   5.168  12.767  1.00  0.00    -0.201 N 
ATOM      4  H4  UNL     1      -2.517   5.873  12.223  1.00  0.00     0.183 HD
HETATM    5  C7  UNL     1      -3.351   5.383  14.051  1.00  0.00     0.679 A 
HETATM    6  N6  UNL     1      -4.015   4.425  14.753  1.00  0.00    -0.176 N 
ATOM      7  H6  UNL     1      -4.258   4.612  15.726  1.00  0.00     0.186 HD
HETATM    8  C12 UNL     1      -4.364   3.245  14.218  1.00  0.00     0.132 A 
HETATM    9  N7  UNL     1      -4.993   2.340  14.886  1.00  0.00    -0.371 N 
ATOM     10  H7  UNL     1      -5.223   1.469  14.407  1.00  0.00     0.161 HD
ENDROOT
BRANCH   1  11
HETATM   11  C4  UNL     1      -4.372   1.741  12.241  1.00  0.00     0.138 A 
HETATM   12  N3  UNL     1      -5.127   1.782  11.134  1.00  0.00    -0.270 N 
HETATM   13  N2  UNL     1      -5.468   0.677  10.473  1.00  0.00    -0.240 N 
ATOM     14  H3  UNL     1      -5.450   2.685  10.788  1.00  0.00     0.190 HD
HETATM   15  N1  UNL     1      -5.049  -0.498  10.926  1.00  0.00    -0.275 N 
ATOM     16  H2  UNL     1      -6.043   0.733   9.633  1.00  0.00     0.208 HD
HETATM   17  C3  UNL     1      -4.291  -0.599  12.027  1.00  0.00     0.098 A 
ATOM     18  H1  UNL     1      -5.309  -1.346  10.422  1.00  0.00     0.189 HD
HETATM   19  N8  UNL     1      -3.966   0.533  12.668  1.00  0.00    -0.329 N 
ATOM     20  H8  UNL     1      -3.390   0.475  13.508  1.00  0.00     0.168 HD
BRANCH  17  21
HETATM   21  C2  UNL     1      -3.855  -1.934  12.482  1.00  0.00     0.073 C 
HETATM   22  C1  UNL     1      -3.243  -2.746  11.358  1.00  0.00     0.013 C 
ENDBRANCH  17  21
ENDBRANCH   1  11
BRANCH   9  23
HETATM   23  C13 UNL     1      -5.392   2.475  16.254  1.00  0.00     0.075 C 
HETATM   24  C14 UNL     1      -5.476   1.169  16.995  1.00  0.00     0.031 C 
HETATM   25  C15 UNL     1      -6.763   3.125  16.279  1.00  0.00     0.031 C 
ENDBRANCH   9  23
BRANCH   5  26
HETATM   26  N5  UNL     1      -3.042   6.487  14.600  1.00  0.00    -0.226 N 
ATOM     27  H5  UNL     1      -3.725   6.887  15.243  1.00  0.00     0.177 HD
BRANCH  26  28
HETATM   28  C8  UNL     1      -1.836   7.222  14.407  1.00  0.00     0.142 C 
BRANCH  28  29
HETATM   29  C9  UNL     1      -2.058   8.719  14.571  1.00  0.00    -0.004 C 
HETATM   30  C10 UNL     1      -1.013   9.267  15.537  1.00  0.00     0.011 C 
HETATM   31  C11 UNL     1      -1.855   9.443  13.258  1.00  0.00     0.011 C 
ENDBRANCH  28  29
ENDBRANCH  26  28
ENDBRANCH   5  26
TORSDOF 6
ENDMDL
