MODEL 1
REMARK VINA RESULT: -5.981784754      0.000      0.000
REMARK  7 active torsions:
REMARK  status: ('A' for Active; 'I' for Inactive)
REMARK       I    between atoms: C2_2  and  N1_4 
REMARK    1  A    between atoms: N2_7  and  C5_8 
REMARK    2  A    between atoms: C9_12  and  S1_13 
REMARK    3  A    between atoms: S1_13  and  S2_14 
REMARK    4  A    between atoms: S2_14  and  C10_15 
REMARK    5  A    between atoms: C10_15  and  O2_16 
REMARK    6  A    between atoms: C10_15  and  C11_18 
REMARK    7  A    between atoms: C11_18  and  O3_19 
ROOT
HETATM    1  C5  UNL     1      -4.219   3.766  12.885  1.00  0.00     0.018 C 
HETATM    2  C6  UNL     1      -4.691   2.933  11.973  1.00  0.00    -0.001 C 
HETATM    3  C7  UNL     1      -4.073   3.193  10.650  1.00  0.00     0.030 C 
HETATM    4  C8  UNL     1      -3.583   4.610  10.764  1.00  0.00     0.026 C 
HETATM    5  C9  UNL     1      -3.219   4.692  12.252  1.00  0.00     0.108 C 
ENDROOT
BRANCH   1   6
HETATM    6  N2  UNL     1      -4.594   3.791  14.250  1.00  0.00    -0.380 N 
HETATM    7  C4  UNL     1      -5.915   4.134  14.722  1.00  0.00     0.142 C 
HETATM    8  C3  UNL     1      -6.325   3.322  15.926  1.00  0.00     0.145 C 
HETATM    9  N1  UNL     1      -5.483   2.183  16.158  1.00  0.00    -0.349 N 
HETATM   10  C2  UNL     1      -6.080   1.013  16.759  1.00  0.00     0.215 C 
HETATM   11  C13 UNL     1      -4.082   2.120  15.835  1.00  0.00     0.145 C 
HETATM   12  C1  UNL     1      -7.504   0.949  17.137  1.00  0.00     0.117 C 
HETATM   13  O1  UNL     1      -5.383  -0.031  16.990  1.00  0.00    -0.274 OA
HETATM   14  C12 UNL     1      -3.630   3.453  15.297  1.00  0.00     0.142 C 
ENDBRANCH   1   6
BRANCH   5  15
HETATM   15  S1  UNL     1      -3.335   6.345  12.916  1.00  0.00    -0.084 SA
BRANCH  15  16
HETATM   16  S2  UNL     1      -4.042   7.685  11.438  1.00  0.00    -0.063 SA
BRANCH  16  17
HETATM   17  C10 UNL     1      -5.815   7.528  11.183  1.00  0.00     0.213 C 
BRANCH  17  18
HETATM   18  O2  UNL     1      -6.371   6.544  11.993  1.00  0.00    -0.382 OA
ATOM     19  H2  UNL     1      -7.144   6.156  11.600  1.00  0.00     0.211 HD
ENDBRANCH  17  18
BRANCH  17  20
HETATM   20  C11 UNL     1      -6.137   7.207   9.723  1.00  0.00     0.207 C 
BRANCH  20  21
HETATM   21  O3  UNL     1      -6.721   5.946   9.615  1.00  0.00    -0.397 OA
ATOM     22  H3  UNL     1      -6.829   5.705   8.702  1.00  0.00     0.209 HD
ENDBRANCH  20  21
ENDBRANCH  17  20
ENDBRANCH  16  17
ENDBRANCH  15  16
ENDBRANCH   5  15
TORSDOF 7
ENDMDL
MODEL 2
REMARK VINA RESULT: -5.720932055      3.171      6.133
REMARK  7 active torsions:
REMARK  status: ('A' for Active; 'I' for Inactive)
REMARK       I    between atoms: C2_2  and  N1_4 
REMARK    1  A    between atoms: N2_7  and  C5_8 
REMARK    2  A    between atoms: C9_12  and  S1_13 
REMARK    3  A    between atoms: S1_13  and  S2_14 
REMARK    4  A    between atoms: S2_14  and  C10_15 
REMARK    5  A    between atoms: C10_15  and  O2_16 
REMARK    6  A    between atoms: C10_15  and  C11_18 
REMARK    7  A    between atoms: C11_18  and  O3_19 
ROOT
HETATM    1  C5  UNL     1      -5.000   5.024  14.123  1.00  0.00     0.018 C 
HETATM    2  C6  UNL     1      -6.194   5.215  14.656  1.00  0.00    -0.001 C 
HETATM    3  C7  UNL     1      -6.472   4.206  15.706  1.00  0.00     0.030 C 
HETATM    4  C8  UNL     1      -5.535   3.080  15.367  1.00  0.00     0.026 C 
HETATM    5  C9  UNL     1      -4.342   3.840  14.772  1.00  0.00     0.108 C 
ENDROOT
BRANCH   1   6
HETATM    6  N2  UNL     1      -4.421   5.809  13.095  1.00  0.00    -0.380 N 
HETATM    7  C4  UNL     1      -3.104   6.396  13.166  1.00  0.00     0.142 C 
HETATM    8  C3  UNL     1      -2.400   6.393  11.831  1.00  0.00     0.145 C 
HETATM    9  N1  UNL     1      -3.027   5.544  10.859  1.00  0.00    -0.349 N 
HETATM   10  C2  UNL     1      -2.185   4.917   9.867  1.00  0.00     0.215 C 
HETATM   11  C13 UNL     1      -4.439   5.270  10.798  1.00  0.00     0.145 C 
HETATM   12  C1  UNL     1      -0.725   5.116   9.820  1.00  0.00     0.117 C 
HETATM   13  O1  UNL     1      -2.684   4.152   8.976  1.00  0.00    -0.274 OA
HETATM   14  C12 UNL     1      -5.152   6.073  11.856  1.00  0.00     0.142 C 
ENDBRANCH   1   6
BRANCH   5  15
HETATM   15  S1  UNL     1      -3.407   2.874  13.597  1.00  0.00    -0.084 SA
BRANCH  15  16
HETATM   16  S2  UNL     1      -4.510   1.169  13.000  1.00  0.00    -0.063 SA
BRANCH  16  17
HETATM   17  C10 UNL     1      -4.934   1.221  11.253  1.00  0.00     0.213 C 
BRANCH  17  18
HETATM   18  O2  UNL     1      -6.105   1.935  11.024  1.00  0.00    -0.382 OA
ATOM     19  H2  UNL     1      -6.575   1.611  10.264  1.00  0.00     0.211 HD
ENDBRANCH  17  18
BRANCH  17  20
HETATM   20  C11 UNL     1      -5.093  -0.188  10.682  1.00  0.00     0.207 C 
BRANCH  20  21
HETATM   21  O3  UNL     1      -4.983  -0.170   9.293  1.00  0.00    -0.397 OA
ATOM     22  H3  UNL     1      -5.839  -0.246   8.888  1.00  0.00     0.209 HD
ENDBRANCH  20  21
ENDBRANCH  17  20
ENDBRANCH  16  17
ENDBRANCH  15  16
ENDBRANCH   5  15
TORSDOF 7
ENDMDL
MODEL 3
REMARK VINA RESULT: -5.643524942      3.776      7.526
REMARK  7 active torsions:
REMARK  status: ('A' for Active; 'I' for Inactive)
REMARK       I    between atoms: C2_2  and  N1_4 
REMARK    1  A    between atoms: N2_7  and  C5_8 
REMARK    2  A    between atoms: C9_12  and  S1_13 
REMARK    3  A    between atoms: S1_13  and  S2_14 
REMARK    4  A    between atoms: S2_14  and  C10_15 
REMARK    5  A    between atoms: C10_15  and  O2_16 
REMARK    6  A    between atoms: C10_15  and  C11_18 
REMARK    7  A    between atoms: C11_18  and  O3_19 
ROOT
HETATM    1  C5  UNL     1      -2.702   5.136  13.083  1.00  0.00     0.018 C 
HETATM    2  C6  UNL     1      -2.750   6.430  13.346  1.00  0.00    -0.001 C 
HETATM    3  C7  UNL     1      -3.377   6.678  14.667  1.00  0.00     0.030 C 
HETATM    4  C8  UNL     1      -4.172   5.427  14.918  1.00  0.00     0.026 C 
HETATM    5  C9  UNL     1      -3.308   4.367  14.222  1.00  0.00     0.108 C 
ENDROOT
BRANCH   1   6
HETATM    6  N2  UNL     1      -2.165   4.553  11.909  1.00  0.00    -0.380 N 
HETATM    7  C4  UNL     1      -2.758   4.676  10.598  1.00  0.00     0.142 C 
HETATM    8  C3  UNL     1      -1.723   4.782   9.506  1.00  0.00     0.145 C 
HETATM    9  N1  UNL     1      -0.403   5.056   9.997  1.00  0.00    -0.349 N 
HETATM   10  C2  UNL     1       0.484   5.825   9.156  1.00  0.00     0.215 C 
HETATM   11  C13 UNL     1       0.106   4.619  11.271  1.00  0.00     0.145 C 
HETATM   12  C1  UNL     1       0.087   6.332   7.830  1.00  0.00     0.117 C 
HETATM   13  O1  UNL     1       1.671   6.101   9.537  1.00  0.00    -0.274 OA
HETATM   14  C12 UNL     1      -0.931   3.769  11.960  1.00  0.00     0.142 C 
ENDBRANCH   1   6
BRANCH   5  15
HETATM   15  S1  UNL     1      -4.245   2.960  13.649  1.00  0.00    -0.084 SA
BRANCH  15  16
HETATM   16  S2  UNL     1      -5.614   2.330  15.135  1.00  0.00    -0.063 SA
BRANCH  16  17
HETATM   17  C10 UNL     1      -4.781   1.562  16.532  1.00  0.00     0.213 C 
BRANCH  17  18
HETATM   18  O2  UNL     1      -3.837   0.626  16.124  1.00  0.00    -0.382 OA
ATOM     19  H2  UNL     1      -3.268   0.362  16.838  1.00  0.00     0.211 HD
ENDBRANCH  17  18
BRANCH  17  20
HETATM   20  C11 UNL     1      -5.782   0.882  17.466  1.00  0.00     0.207 C 
BRANCH  20  21
HETATM   21  O3  UNL     1      -5.873  -0.479  17.181  1.00  0.00    -0.397 OA
ATOM     22  H3  UNL     1      -5.684  -0.643  16.264  1.00  0.00     0.209 HD
ENDBRANCH  20  21
ENDBRANCH  17  20
ENDBRANCH  16  17
ENDBRANCH  15  16
ENDBRANCH   5  15
TORSDOF 7
ENDMDL
MODEL 4
REMARK VINA RESULT: -5.593657205      2.612      3.730
REMARK  7 active torsions:
REMARK  status: ('A' for Active; 'I' for Inactive)
REMARK       I    between atoms: C2_2  and  N1_4 
REMARK    1  A    between atoms: N2_7  and  C5_8 
REMARK    2  A    between atoms: C9_12  and  S1_13 
REMARK    3  A    between atoms: S1_13  and  S2_14 
REMARK    4  A    between atoms: S2_14  and  C10_15 
REMARK    5  A    between atoms: C10_15  and  O2_16 
REMARK    6  A    between atoms: C10_15  and  C11_18 
REMARK    7  A    between atoms: C11_18  and  O3_19 
ROOT
HETATM    1  C5  UNL     1      -3.110   6.574  14.199  1.00  0.00     0.018 C 
HETATM    2  C6  UNL     1      -2.878   7.152  15.365  1.00  0.00    -0.001 C 
HETATM    3  C7  UNL     1      -2.124   8.416  15.188  1.00  0.00     0.030 C 
HETATM    4  C8  UNL     1      -1.475   8.252  13.841  1.00  0.00     0.026 C 
HETATM    5  C9  UNL     1      -2.518   7.407  13.098  1.00  0.00     0.108 C 
ENDROOT
BRANCH   1   6
HETATM    6  N2  UNL     1      -3.806   5.355  14.008  1.00  0.00    -0.380 N 
HETATM    7  C4  UNL     1      -3.228   4.049  14.219  1.00  0.00     0.142 C 
HETATM    8  C3  UNL     1      -4.220   3.067  14.792  1.00  0.00     0.145 C 
HETATM    9  N1  UNL     1      -5.409   3.690  15.300  1.00  0.00    -0.349 N 
HETATM   10  C2  UNL     1      -6.075   3.061  16.417  1.00  0.00     0.215 C 
HETATM   11  C13 UNL     1      -5.989   4.898  14.777  1.00  0.00     0.145 C 
HETATM   12  C1  UNL     1      -5.583   1.821  17.045  1.00  0.00     0.117 C 
HETATM   13  O1  UNL     1      -7.137   3.567  16.913  1.00  0.00    -0.274 OA
HETATM   14  C12 UNL     1      -5.203   5.353  13.574  1.00  0.00     0.142 C 
ENDBRANCH   1   6
BRANCH   5  15
HETATM   15  S1  UNL     1      -1.814   6.395  11.807  1.00  0.00    -0.084 SA
BRANCH  15  16
HETATM   16  S2  UNL     1      -3.181   6.186  10.205  1.00  0.00    -0.063 SA
BRANCH  16  17
HETATM   17  C10 UNL     1      -3.330   4.476   9.668  1.00  0.00     0.213 C 
BRANCH  17  18
HETATM   18  O2  UNL     1      -3.988   4.370   8.448  1.00  0.00    -0.382 OA
ATOM     19  H2  UNL     1      -4.047   3.468   8.153  1.00  0.00     0.211 HD
ENDBRANCH  17  18
BRANCH  17  20
HETATM   20  C11 UNL     1      -4.072   3.634  10.706  1.00  0.00     0.207 C 
BRANCH  20  21
HETATM   21  O3  UNL     1      -4.805   2.624  10.086  1.00  0.00    -0.397 OA
ATOM     22  H3  UNL     1      -5.686   2.585  10.439  1.00  0.00     0.209 HD
ENDBRANCH  20  21
ENDBRANCH  17  20
ENDBRANCH  16  17
ENDBRANCH  15  16
ENDBRANCH   5  15
TORSDOF 7
ENDMDL
MODEL 5
REMARK VINA RESULT: -5.551589162      2.866      4.069
REMARK  7 active torsions:
REMARK  status: ('A' for Active; 'I' for Inactive)
REMARK       I    between atoms: C2_2  and  N1_4 
REMARK    1  A    between atoms: N2_7  and  C5_8 
REMARK    2  A    between atoms: C9_12  and  S1_13 
REMARK    3  A    between atoms: S1_13  and  S2_14 
REMARK    4  A    between atoms: S2_14  and  C10_15 
REMARK    5  A    between atoms: C10_15  and  O2_16 
REMARK    6  A    between atoms: C10_15  and  C11_18 
REMARK    7  A    between atoms: C11_18  and  O3_19 
ROOT
HETATM    1  C5  UNL     1      -4.183   5.864  12.387  1.00  0.00     0.018 C 
HETATM    2  C6  UNL     1      -3.802   7.058  11.968  1.00  0.00    -0.001 C 
HETATM    3  C7  UNL     1      -3.468   7.030  10.523  1.00  0.00     0.030 C 
HETATM    4  C8  UNL     1      -3.184   5.578  10.257  1.00  0.00     0.026 C 
HETATM    5  C9  UNL     1      -4.138   4.891  11.243  1.00  0.00     0.108 C 
ENDROOT
BRANCH   1   6
HETATM    6  N2  UNL     1      -4.572   5.541  13.710  1.00  0.00    -0.380 N 
HETATM    7  C4  UNL     1      -5.904   5.134  14.087  1.00  0.00     0.142 C 
HETATM    8  C3  UNL     1      -5.900   4.089  15.176  1.00  0.00     0.145 C 
HETATM    9  N1  UNL     1      -4.613   3.491  15.386  1.00  0.00    -0.349 N 
HETATM   10  C2  UNL     1      -4.572   2.117  15.829  1.00  0.00     0.215 C 
HETATM   11  C13 UNL     1      -3.355   4.161  15.188  1.00  0.00     0.145 C 
HETATM   12  C1  UNL     1      -5.787   1.319  16.070  1.00  0.00     0.117 C 
HETATM   13  O1  UNL     1      -3.457   1.530  16.035  1.00  0.00    -0.274 OA
HETATM   14  C12 UNL     1      -3.606   5.598  14.807  1.00  0.00     0.142 C 
ENDBRANCH   1   6
BRANCH   5  15
HETATM   15  S1  UNL     1      -3.572   3.280  11.764  1.00  0.00    -0.084 SA
BRANCH  15  16
HETATM   16  S2  UNL     1      -5.181   1.905  11.787  1.00  0.00    -0.063 SA
BRANCH  16  17
HETATM   17  C10 UNL     1      -4.647   0.255  12.261  1.00  0.00     0.213 C 
BRANCH  17  18
HETATM   18  O2  UNL     1      -3.338   0.247  12.730  1.00  0.00    -0.382 OA
ATOM     19  H2  UNL     1      -3.247  -0.274  13.519  1.00  0.00     0.211 HD
ENDBRANCH  17  18
BRANCH  17  20
HETATM   20  C11 UNL     1      -4.757  -0.719  11.088  1.00  0.00     0.207 C 
BRANCH  20  21
HETATM   21  O3  UNL     1      -5.087  -0.042   9.916  1.00  0.00    -0.397 OA
ATOM     22  H3  UNL     1      -4.781  -0.520   9.155  1.00  0.00     0.209 HD
ENDBRANCH  20  21
ENDBRANCH  17  20
ENDBRANCH  16  17
ENDBRANCH  15  16
ENDBRANCH   5  15
TORSDOF 7
ENDMDL
