MODEL 1
REMARK VINA RESULT: -6.541221970      0.000      0.000
REMARK  7 active torsions:
REMARK  status: ('A' for Active; 'I' for Inactive)
REMARK    1  A    between atoms: C3_4  and  C4_5 
REMARK    2  A    between atoms: C9_11  and  O2_12 
REMARK    3  A    between atoms: N1_14  and  C10_15 
REMARK    4  A    between atoms: C10_15  and  C11_16 
REMARK    5  A    between atoms: C11_16  and  O3_17 
REMARK    6  A    between atoms: C11_16  and  C12_19 
REMARK    7  A    between atoms: C12_19  and  N2_20 
ROOT
HETATM    1  O1  UNL     1      -5.815   5.506  13.752  1.00  0.00    -0.266 OA
HETATM    2  C1  UNL     1      -4.694   5.523  13.136  1.00  0.00     0.266 A 
HETATM    3  C2  UNL     1      -4.661   6.281  11.924  1.00  0.00     0.069 A 
HETATM    4  C3  UNL     1      -5.702   6.922  11.460  1.00  0.00     0.002 C 
HETATM    5  S1  UNL     1      -3.139   6.358  11.006  1.00  0.00    -0.092 SA
HETATM    6  C8  UNL     1      -1.997   5.354  11.986  1.00  0.00     0.106 A 
HETATM    7  C9  UNL     1      -2.372   4.773  13.097  1.00  0.00     0.151 A 
HETATM    8  N1  UNL     1      -3.629   4.804  13.709  1.00  0.00    -0.291 N 
ENDROOT
BRANCH   8   9
HETATM    9  C10 UNL     1      -3.860   4.089  14.953  1.00  0.00     0.167 C 
BRANCH   9  10
HETATM   10  C11 UNL     1      -4.277   2.656  14.724  1.00  0.00     0.164 C 
BRANCH  10  11
HETATM   11  O3  UNL     1      -3.861   2.237  13.464  1.00  0.00    -0.392 OA
ATOM     12  H3  UNL     1      -4.319   1.441  13.220  1.00  0.00     0.210 HD
ENDBRANCH  10  11
BRANCH  10  13
HETATM   13  C12 UNL     1      -5.795   2.551  14.714  1.00  0.00     0.305 C 
BRANCH  13  14
HETATM   14  N2  UNL     1      -6.244   1.778  15.827  1.00  0.00     0.090 N 
HETATM   15  C13 UNL     1      -5.262   0.878  16.374  1.00  0.00     0.272 C 
HETATM   16  C14 UNL     1      -5.977   0.470  17.672  1.00  0.00     0.032 C 
HETATM   17  C15 UNL     1      -6.328   1.864  18.209  1.00  0.00     0.032 C 
HETATM   18  C16 UNL     1      -6.678   2.597  16.928  1.00  0.00     0.272 C 
ENDBRANCH  13  14
ENDBRANCH  10  13
ENDBRANCH   9  10
ENDBRANCH   8   9
BRANCH   7  19
HETATM   19  O2  UNL     1      -1.373   4.030  13.742  1.00  0.00    -0.346 OA
ATOM     20  H2  UNL     1      -1.348   4.127  14.687  1.00  0.00     0.219 HD
ENDBRANCH   7  19
BRANCH   4  21
HETATM   21  C4  UNL     1      -5.702   7.715  10.211  1.00  0.00     0.010 C 
HETATM   22  C5  UNL     1      -6.712   8.863  10.362  1.00  0.00     0.008 C 
HETATM   23  C6  UNL     1      -7.727   8.080   9.552  1.00  0.00     0.001 C 
HETATM   24  C7  UNL     1      -6.581   7.187   9.108  1.00  0.00     0.008 C 
ENDBRANCH   4  21
TORSDOF 7
ENDMDL
MODEL 2
REMARK VINA RESULT: -6.535873015      1.486      1.938
REMARK  7 active torsions:
REMARK  status: ('A' for Active; 'I' for Inactive)
REMARK    1  A    between atoms: C3_4  and  C4_5 
REMARK    2  A    between atoms: C9_11  and  O2_12 
REMARK    3  A    between atoms: N1_14  and  C10_15 
REMARK    4  A    between atoms: C10_15  and  C11_16 
REMARK    5  A    between atoms: C11_16  and  O3_17 
REMARK    6  A    between atoms: C11_16  and  C12_19 
REMARK    7  A    between atoms: C12_19  and  N2_20 
ROOT
HETATM    1  O1  UNL     1      -5.200   4.167  10.920  1.00  0.00    -0.266 OA
HETATM    2  C1  UNL     1      -4.600   5.247  11.253  1.00  0.00     0.266 A 
HETATM    3  C2  UNL     1      -5.031   6.431  10.577  1.00  0.00     0.069 A 
HETATM    4  C3  UNL     1      -5.976   6.428   9.673  1.00  0.00     0.002 C 
HETATM    5  S1  UNL     1      -4.250   7.977  10.982  1.00  0.00    -0.092 SA
HETATM    6  C8  UNL     1      -3.035   7.525  12.244  1.00  0.00     0.106 A 
HETATM    7  C9  UNL     1      -2.896   6.290  12.653  1.00  0.00     0.151 A 
HETATM    8  N1  UNL     1      -3.597   5.155  12.234  1.00  0.00    -0.291 N 
ENDROOT
BRANCH   8   9
HETATM    9  C10 UNL     1      -3.299   3.853  12.808  1.00  0.00     0.167 C 
BRANCH   9  10
HETATM   10  C11 UNL     1      -3.838   3.706  14.210  1.00  0.00     0.164 C 
BRANCH  10  11
HETATM   11  O3  UNL     1      -2.785   3.591  15.113  1.00  0.00    -0.392 OA
ATOM     12  H3  UNL     1      -2.664   2.681  15.355  1.00  0.00     0.210 HD
ENDBRANCH  10  11
BRANCH  10  13
HETATM   13  C12 UNL     1      -4.628   2.412  14.332  1.00  0.00     0.305 C 
BRANCH  13  14
HETATM   14  N2  UNL     1      -5.138   2.268  15.658  1.00  0.00     0.090 N 
HETATM   15  C13 UNL     1      -6.406   2.908  15.892  1.00  0.00     0.272 C 
HETATM   16  C14 UNL     1      -6.753   2.306  17.263  1.00  0.00     0.032 C 
HETATM   17  C15 UNL     1      -6.532   0.821  16.944  1.00  0.00     0.032 C 
HETATM   18  C16 UNL     1      -5.321   0.890  16.032  1.00  0.00     0.272 C 
ENDBRANCH  13  14
ENDBRANCH  10  13
ENDBRANCH   9  10
ENDBRANCH   8   9
BRANCH   7  19
HETATM   19  O2  UNL     1      -1.913   6.100  13.635  1.00  0.00    -0.346 OA
ATOM     20  H2  UNL     1      -1.627   5.200  13.747  1.00  0.00     0.219 HD
ENDBRANCH   7  19
BRANCH   4  21
HETATM   21  C4  UNL     1      -6.444   7.633   8.954  1.00  0.00     0.010 C 
HETATM   22  C5  UNL     1      -7.863   7.968   9.439  1.00  0.00     0.008 C 
HETATM   23  C6  UNL     1      -8.442   7.326   8.193  1.00  0.00     0.001 C 
HETATM   24  C7  UNL     1      -7.046   7.387   7.596  1.00  0.00     0.008 C 
ENDBRANCH   4  21
TORSDOF 7
ENDMDL
MODEL 3
REMARK VINA RESULT: -6.432794353      2.218      2.650
REMARK  7 active torsions:
REMARK  status: ('A' for Active; 'I' for Inactive)
REMARK    1  A    between atoms: C3_4  and  C4_5 
REMARK    2  A    between atoms: C9_11  and  O2_12 
REMARK    3  A    between atoms: N1_14  and  C10_15 
REMARK    4  A    between atoms: C10_15  and  C11_16 
REMARK    5  A    between atoms: C11_16  and  O3_17 
REMARK    6  A    between atoms: C11_16  and  C12_19 
REMARK    7  A    between atoms: C12_19  and  N2_20 
ROOT
HETATM    1  O1  UNL     1      -4.914   3.621  10.818  1.00  0.00    -0.266 OA
HETATM    2  C1  UNL     1      -3.731   4.037  11.071  1.00  0.00     0.266 A 
HETATM    3  C2  UNL     1      -3.115   4.822  10.045  1.00  0.00     0.069 A 
HETATM    4  C3  UNL     1      -3.711   5.104   8.915  1.00  0.00     0.002 C 
HETATM    5  S1  UNL     1      -1.471   5.442  10.316  1.00  0.00    -0.092 SA
HETATM    6  C8  UNL     1      -1.047   4.826  11.963  1.00  0.00     0.106 A 
HETATM    7  C9  UNL     1      -1.883   4.101  12.662  1.00  0.00     0.151 A 
HETATM    8  N1  UNL     1      -3.170   3.684  12.311  1.00  0.00    -0.291 N 
ENDROOT
BRANCH   8   9
HETATM    9  C10 UNL     1      -3.956   2.874  13.227  1.00  0.00     0.167 C 
BRANCH   9  10
HETATM   10  C11 UNL     1      -4.739   3.713  14.209  1.00  0.00     0.164 C 
BRANCH  10  11
HETATM   11  O3  UNL     1      -3.964   3.970  15.335  1.00  0.00    -0.392 OA
ATOM     12  H3  UNL     1      -4.401   4.606  15.890  1.00  0.00     0.210 HD
ENDBRANCH  10  11
BRANCH  10  13
HETATM   13  C12 UNL     1      -5.948   2.936  14.708  1.00  0.00     0.305 C 
BRANCH  13  14
HETATM   14  N2  UNL     1      -5.716   2.463  16.036  1.00  0.00     0.090 N 
HETATM   15  C13 UNL     1      -6.785   2.722  16.965  1.00  0.00     0.272 C 
HETATM   16  C14 UNL     1      -6.326   1.844  18.141  1.00  0.00     0.032 C 
HETATM   17  C15 UNL     1      -6.077   0.531  17.387  1.00  0.00     0.032 C 
HETATM   18  C16 UNL     1      -5.493   1.042  16.084  1.00  0.00     0.272 C 
ENDBRANCH  13  14
ENDBRANCH  10  13
ENDBRANCH   9  10
ENDBRANCH   8   9
BRANCH   7  19
HETATM   19  O2  UNL     1      -1.408   3.700  13.920  1.00  0.00    -0.346 OA
ATOM     20  H2  UNL     1      -1.877   2.971  14.311  1.00  0.00     0.219 HD
ENDBRANCH   7  19
BRANCH   4  21
HETATM   21  C4  UNL     1      -3.103   5.911   7.834  1.00  0.00     0.010 C 
HETATM   22  C5  UNL     1      -3.918   7.204   7.675  1.00  0.00     0.008 C 
HETATM   23  C6  UNL     1      -4.627   6.612   6.473  1.00  0.00     0.001 C 
HETATM   24  C7  UNL     1      -3.536   5.555   6.437  1.00  0.00     0.008 C 
ENDBRANCH   4  21
TORSDOF 7
ENDMDL
MODEL 4
REMARK VINA RESULT: -6.387915670      2.619      4.786
REMARK  7 active torsions:
REMARK  status: ('A' for Active; 'I' for Inactive)
REMARK    1  A    between atoms: C3_4  and  C4_5 
REMARK    2  A    between atoms: C9_11  and  O2_12 
REMARK    3  A    between atoms: N1_14  and  C10_15 
REMARK    4  A    between atoms: C10_15  and  C11_16 
REMARK    5  A    between atoms: C11_16  and  O3_17 
REMARK    6  A    between atoms: C11_16  and  C12_19 
REMARK    7  A    between atoms: C12_19  and  N2_20 
ROOT
HETATM    1  O1  UNL     1      -1.597   3.731  13.615  1.00  0.00    -0.266 OA
HETATM    2  C1  UNL     1      -2.070   3.997  12.456  1.00  0.00     0.266 A 
HETATM    3  C2  UNL     1      -1.208   4.736  11.587  1.00  0.00     0.069 A 
HETATM    4  C3  UNL     1      -0.010   5.123  11.938  1.00  0.00     0.002 C 
HETATM    5  S1  UNL     1      -1.789   5.146   9.956  1.00  0.00    -0.092 SA
HETATM    6  C8  UNL     1      -3.450   4.433   9.901  1.00  0.00     0.106 A 
HETATM    7  C9  UNL     1      -3.956   3.790  10.923  1.00  0.00     0.151 A 
HETATM    8  N1  UNL     1      -3.369   3.541  12.166  1.00  0.00    -0.291 N 
ENDROOT
BRANCH   8   9
HETATM    9  C10 UNL     1      -4.093   2.802  13.188  1.00  0.00     0.167 C 
BRANCH   9  10
HETATM   10  C11 UNL     1      -4.860   3.710  14.118  1.00  0.00     0.164 C 
BRANCH  10  11
HETATM   11  O3  UNL     1      -4.066   4.051  15.209  1.00  0.00    -0.392 OA
ATOM     12  H3  UNL     1      -4.615   4.307  15.941  1.00  0.00     0.210 HD
ENDBRANCH  10  11
BRANCH  10  13
HETATM   13  C12 UNL     1      -6.059   2.972  14.695  1.00  0.00     0.305 C 
BRANCH  13  14
HETATM   14  N2  UNL     1      -5.773   2.527  16.021  1.00  0.00     0.090 N 
HETATM   15  C13 UNL     1      -6.819   2.771  16.981  1.00  0.00     0.272 C 
HETATM   16  C14 UNL     1      -6.299   1.926  18.154  1.00  0.00     0.032 C 
HETATM   17  C15 UNL     1      -6.037   0.608  17.413  1.00  0.00     0.032 C 
HETATM   18  C16 UNL     1      -5.508   1.114  16.084  1.00  0.00     0.272 C 
ENDBRANCH  13  14
ENDBRANCH  10  13
ENDBRANCH   9  10
ENDBRANCH   8   9
BRANCH   7  19
HETATM   19  O2  UNL     1      -5.254   3.296  10.726  1.00  0.00    -0.346 OA
ATOM     20  H2  UNL     1      -5.877   3.930  10.387  1.00  0.00     0.219 HD
ENDBRANCH   7  19
BRANCH   4  21
HETATM   21  C4  UNL     1       0.907   5.888  11.064  1.00  0.00     0.010 C 
HETATM   22  C5  UNL     1       2.048   4.959  10.622  1.00  0.00     0.008 C 
HETATM   23  C6  UNL     1       2.957   5.575  11.667  1.00  0.00     0.001 C 
HETATM   24  C7  UNL     1       1.950   6.707  11.777  1.00  0.00     0.008 C 
ENDBRANCH   4  21
TORSDOF 7
ENDMDL
MODEL 5
REMARK VINA RESULT: -6.367464524      1.290      1.632
REMARK  7 active torsions:
REMARK  status: ('A' for Active; 'I' for Inactive)
REMARK    1  A    between atoms: C3_4  and  C4_5 
REMARK    2  A    between atoms: C9_11  and  O2_12 
REMARK    3  A    between atoms: N1_14  and  C10_15 
REMARK    4  A    between atoms: C10_15  and  C11_16 
REMARK    5  A    between atoms: C11_16  and  O3_17 
REMARK    6  A    between atoms: C11_16  and  C12_19 
REMARK    7  A    between atoms: C12_19  and  N2_20 
ROOT
HETATM    1  O1  UNL     1      -5.320   5.178  11.767  1.00  0.00    -0.266 OA
HETATM    2  C1  UNL     1      -4.190   5.742  11.968  1.00  0.00     0.266 A 
HETATM    3  C2  UNL     1      -4.067   7.082  11.484  1.00  0.00     0.069 A 
HETATM    4  C3  UNL     1      -5.040   7.706  10.872  1.00  0.00     0.002 C 
HETATM    5  S1  UNL     1      -2.528   7.940  11.725  1.00  0.00    -0.092 SA
HETATM    6  C8  UNL     1      -1.496   6.732  12.590  1.00  0.00     0.106 A 
HETATM    7  C9  UNL     1      -1.941   5.539  12.894  1.00  0.00     0.151 A 
HETATM    8  N1  UNL     1      -3.202   4.994  12.635  1.00  0.00    -0.291 N 
ENDROOT
BRANCH   8   9
HETATM    9  C10 UNL     1      -3.517   3.638  13.051  1.00  0.00     0.167 C 
BRANCH   9  10
HETATM   10  C11 UNL     1      -4.020   3.575  14.474  1.00  0.00     0.164 C 
BRANCH  10  11
HETATM   11  O3  UNL     1      -2.966   3.290  15.337  1.00  0.00    -0.392 OA
ATOM     12  H3  UNL     1      -2.888   2.351  15.453  1.00  0.00     0.210 HD
ENDBRANCH  10  11
BRANCH  10  13
HETATM   13  C12 UNL     1      -5.002   2.424  14.629  1.00  0.00     0.305 C 
BRANCH  13  14
HETATM   14  N2  UNL     1      -5.201   2.128  16.012  1.00  0.00     0.090 N 
HETATM   15  C13 UNL     1      -6.448   2.598  16.558  1.00  0.00     0.272 C 
HETATM   16  C14 UNL     1      -6.434   1.864  17.909  1.00  0.00     0.032 C 
HETATM   17  C15 UNL     1      -6.138   0.442  17.414  1.00  0.00     0.032 C 
HETATM   18  C16 UNL     1      -5.163   0.716  16.285  1.00  0.00     0.272 C 
ENDBRANCH  13  14
ENDBRANCH  10  13
ENDBRANCH   9  10
ENDBRANCH   8   9
BRANCH   7  19
HETATM   19  O2  UNL     1      -1.022   4.718  13.563  1.00  0.00    -0.346 OA
ATOM     20  H2  UNL     1      -1.290   4.442  14.432  1.00  0.00     0.219 HD
ENDBRANCH   7  19
BRANCH   4  21
HETATM   21  C4  UNL     1      -4.947   9.090  10.358  1.00  0.00     0.010 C 
HETATM   22  C5  UNL     1      -6.329   9.750  10.483  1.00  0.00     0.008 C 
HETATM   23  C6  UNL     1      -6.582   9.504   9.009  1.00  0.00     0.001 C 
HETATM   24  C7  UNL     1      -5.093   9.241   8.867  1.00  0.00     0.008 C 
ENDBRANCH   4  21
TORSDOF 7
ENDMDL
