MODEL 1
REMARK VINA RESULT: -6.731436845      0.000      0.000
REMARK  6 active torsions:
REMARK  status: ('A' for Active; 'I' for Inactive)
REMARK    1  A    between atoms: C2_4  and  O1_5 
REMARK    2  A    between atoms: C2_4  and  C8_14 
REMARK    3  A    between atoms: O1_5  and  C3_6 
REMARK    4  A    between atoms: C3_6  and  C4_7 
REMARK       I    between atoms: C4_7  and  N2_9 
REMARK    5  A    between atoms: N2_9  and  C5_11 
REMARK    6  A    between atoms: C13_19  and  C14_20 
ROOT
HETATM    1  C8  UNL     1      -3.235   3.648  11.992  1.00  0.00     0.205 C 
HETATM    2  C9  UNL     1      -3.418   5.111  11.654  1.00  0.00     0.051 C 
HETATM    3  C10 UNL     1      -2.659   5.367  10.356  1.00  0.00    -0.027 C 
HETATM    4  C11 UNL     1      -2.721   6.875  10.138  1.00  0.00     0.016 C 
HETATM    5  C12 UNL     1      -3.474   4.730   9.245  1.00  0.00     0.016 C 
HETATM    6  C13 UNL     1      -1.270   4.828  10.381  1.00  0.00     0.137 C 
HETATM    7  C16 UNL     1      -0.928   4.046  11.590  1.00  0.00     0.124 C 
HETATM    8  N3  UNL     1       0.321   3.833  11.835  1.00  0.00    -0.383 N 
ATOM      9  H31 UNL     1       0.557   3.294  12.669  1.00  0.00     0.158 HD
ATOM     10  H32 UNL     1       1.026   4.205  11.199  1.00  0.00     0.158 HD
HETATM   11  O4  UNL     1      -1.900   3.533  12.469  1.00  0.00    -0.325 OA
ENDROOT
BRANCH   1  12
HETATM   12  C2  UNL     1      -4.226   3.196  12.961  1.00  0.00     0.144 C 
HETATM   13  N1  UNL     1      -5.037   2.246  12.639  1.00  0.00    -0.377 N 
HETATM   14  C1  UNL     1      -4.997   1.614  11.351  1.00  0.00     0.148 C 
ATOM     15  H1  UNL     1      -5.727   1.933  13.321  1.00  0.00     0.160 HD
BRANCH  12  16
HETATM   16  O1  UNL     1      -4.372   3.721  14.240  1.00  0.00    -0.328 OA
BRANCH  16  17
HETATM   17  C3  UNL     1      -3.567   3.277  15.285  1.00  0.00     0.279 C 
BRANCH  17  18
HETATM   18  C4  UNL     1      -4.176   2.236  16.124  1.00  0.00     0.242 C 
HETATM   19  O2  UNL     1      -3.597   1.122  16.364  1.00  0.00    -0.271 OA
HETATM   20  N2  UNL     1      -5.454   2.413  16.717  1.00  0.00    -0.355 N 
ATOM     21  H2  UNL     1      -5.952   3.286  16.551  1.00  0.00     0.162 HD
BRANCH  20  22
HETATM   22  C5  UNL     1      -6.080   1.405  17.549  1.00  0.00     0.076 C 
HETATM   23  C6  UNL     1      -7.393   0.942  17.011  1.00  0.00     0.032 C 
HETATM   24  C7  UNL     1      -6.291   1.906  18.966  1.00  0.00     0.032 C 
ENDBRANCH  20  22
ENDBRANCH  17  18
ENDBRANCH  16  17
ENDBRANCH  12  16
ENDBRANCH   1  12
BRANCH   6  25
HETATM   25  C14 UNL     1      -0.222   5.839  10.060  1.00  0.00     0.135 C 
HETATM   26  C15 UNL     1       0.312   6.048   8.690  1.00  0.00     0.091 C 
HETATM   27  O3  UNL     1       0.221   6.528  10.957  1.00  0.00    -0.297 OA
ENDBRANCH   6  25
TORSDOF 6
ENDMDL
MODEL 2
REMARK VINA RESULT: -6.586599439      2.007      2.716
REMARK  6 active torsions:
REMARK  status: ('A' for Active; 'I' for Inactive)
REMARK    1  A    between atoms: C2_4  and  O1_5 
REMARK    2  A    between atoms: C2_4  and  C8_14 
REMARK    3  A    between atoms: O1_5  and  C3_6 
REMARK    4  A    between atoms: C3_6  and  C4_7 
REMARK       I    between atoms: C4_7  and  N2_9 
REMARK    5  A    between atoms: N2_9  and  C5_11 
REMARK    6  A    between atoms: C13_19  and  C14_20 
ROOT
HETATM    1  C8  UNL     1      -3.823   3.034  12.980  1.00  0.00     0.205 C 
HETATM    2  C9  UNL     1      -3.786   3.958  14.176  1.00  0.00     0.051 C 
HETATM    3  C10 UNL     1      -3.907   5.383  13.643  1.00  0.00    -0.027 C 
HETATM    4  C11 UNL     1      -3.694   6.289  14.851  1.00  0.00     0.016 C 
HETATM    5  C12 UNL     1      -5.350   5.562  13.208  1.00  0.00     0.016 C 
HETATM    6  C13 UNL     1      -2.968   5.662  12.520  1.00  0.00     0.137 C 
HETATM    7  C16 UNL     1      -2.194   4.491  12.051  1.00  0.00     0.124 C 
HETATM    8  N3  UNL     1      -1.148   4.712  11.327  1.00  0.00    -0.383 N 
ATOM      9  H31 UNL     1      -0.614   3.905  11.003  1.00  0.00     0.158 HD
ATOM     10  H32 UNL     1      -0.890   5.673  11.103  1.00  0.00     0.158 HD
HETATM   11  O4  UNL     1      -2.550   3.166  12.360  1.00  0.00    -0.325 OA
ENDROOT
BRANCH   1  12
HETATM   12  C2  UNL     1      -4.126   1.663  13.374  1.00  0.00     0.144 C 
HETATM   13  N1  UNL     1      -4.762   0.896  12.555  1.00  0.00    -0.377 N 
HETATM   14  C1  UNL     1      -5.187   1.349  11.261  1.00  0.00     0.148 C 
ATOM     15  H1  UNL     1      -4.970  -0.062  12.836  1.00  0.00     0.160 HD
BRANCH  12  16
HETATM   16  O1  UNL     1      -3.773   1.100  14.594  1.00  0.00    -0.328 OA
BRANCH  16  17
HETATM   17  C3  UNL     1      -4.526   0.067  15.145  1.00  0.00     0.279 C 
BRANCH  17  18
HETATM   18  C4  UNL     1      -5.486   0.493  16.172  1.00  0.00     0.242 C 
HETATM   19  O2  UNL     1      -6.055  -0.332  16.964  1.00  0.00    -0.271 OA
HETATM   20  N2  UNL     1      -5.837   1.859  16.340  1.00  0.00    -0.355 N 
ATOM     21  H2  UNL     1      -5.407   2.552  15.728  1.00  0.00     0.162 HD
BRANCH  20  22
HETATM   22  C5  UNL     1      -6.779   2.310  17.343  1.00  0.00     0.076 C 
HETATM   23  C6  UNL     1      -7.154   3.747  17.183  1.00  0.00     0.032 C 
HETATM   24  C7  UNL     1      -6.239   2.108  18.746  1.00  0.00     0.032 C 
ENDBRANCH  20  22
ENDBRANCH  17  18
ENDBRANCH  16  17
ENDBRANCH  12  16
ENDBRANCH   1  12
BRANCH   6  25
HETATM   25  C14 UNL     1      -2.096   6.851  12.740  1.00  0.00     0.135 C 
HETATM   26  C15 UNL     1      -2.442   8.212  12.258  1.00  0.00     0.091 C 
HETATM   27  O3  UNL     1      -1.051   6.707  13.341  1.00  0.00    -0.297 OA
ENDBRANCH   6  25
TORSDOF 6
ENDMDL
MODEL 3
REMARK VINA RESULT: -6.573054621      2.423      3.474
REMARK  6 active torsions:
REMARK  status: ('A' for Active; 'I' for Inactive)
REMARK    1  A    between atoms: C2_4  and  O1_5 
REMARK    2  A    between atoms: C2_4  and  C8_14 
REMARK    3  A    between atoms: O1_5  and  C3_6 
REMARK    4  A    between atoms: C3_6  and  C4_7 
REMARK       I    between atoms: C4_7  and  N2_9 
REMARK    5  A    between atoms: N2_9  and  C5_11 
REMARK    6  A    between atoms: C13_19  and  C14_20 
ROOT
HETATM    1  C8  UNL     1      -3.924   4.727  12.375  1.00  0.00     0.205 C 
HETATM    2  C9  UNL     1      -3.768   4.208  10.964  1.00  0.00     0.051 C 
HETATM    3  C10 UNL     1      -3.436   5.409  10.082  1.00  0.00    -0.027 C 
HETATM    4  C11 UNL     1      -3.456   4.881   8.651  1.00  0.00     0.016 C 
HETATM    5  C12 UNL     1      -1.999   5.789  10.390  1.00  0.00     0.016 C 
HETATM    6  C13 UNL     1      -4.356   6.560  10.302  1.00  0.00     0.137 C 
HETATM    7  C16 UNL     1      -5.327   6.379  11.404  1.00  0.00     0.124 C 
HETATM    8  N3  UNL     1      -6.347   7.169  11.443  1.00  0.00    -0.383 N 
ATOM      9  H31 UNL     1      -7.017   7.044  12.203  1.00  0.00     0.158 HD
ATOM     10  H32 UNL     1      -6.453   7.883  10.722  1.00  0.00     0.158 HD
HETATM   11  O4  UNL     1      -5.180   5.394  12.398  1.00  0.00    -0.325 OA
ENDROOT
BRANCH   1  12
HETATM   12  C2  UNL     1      -3.835   3.648  13.353  1.00  0.00     0.144 C 
HETATM   13  N1  UNL     1      -2.869   3.648  14.207  1.00  0.00    -0.377 N 
HETATM   14  C1  UNL     1      -1.870   4.678  14.229  1.00  0.00     0.148 C 
ATOM     15  H1  UNL     1      -2.813   2.891  14.889  1.00  0.00     0.160 HD
BRANCH  12  16
HETATM   16  O1  UNL     1      -4.734   2.591  13.441  1.00  0.00    -0.328 OA
BRANCH  16  17
HETATM   17  C3  UNL     1      -4.296   1.313  13.777  1.00  0.00     0.279 C 
BRANCH  17  18
HETATM   18  C4  UNL     1      -4.911   0.758  14.990  1.00  0.00     0.242 C 
HETATM   19  O2  UNL     1      -4.845  -0.483  15.287  1.00  0.00    -0.271 OA
HETATM   20  N2  UNL     1      -5.619   1.579  15.907  1.00  0.00    -0.355 N 
ATOM     21  H2  UNL     1      -5.697   2.576  15.709  1.00  0.00     0.162 HD
BRANCH  20  22
HETATM   22  C5  UNL     1      -6.235   1.062  17.112  1.00  0.00     0.076 C 
HETATM   23  C6  UNL     1      -7.720   0.946  17.001  1.00  0.00     0.032 C 
HETATM   24  C7  UNL     1      -5.910   1.922  18.317  1.00  0.00     0.032 C 
ENDBRANCH  20  22
ENDBRANCH  17  18
ENDBRANCH  16  17
ENDBRANCH  12  16
ENDBRANCH   1  12
BRANCH   6  25
HETATM   25  C14 UNL     1      -5.014   7.055   9.060  1.00  0.00     0.135 C 
HETATM   26  C15 UNL     1      -4.485   8.187   8.256  1.00  0.00     0.091 C 
HETATM   27  O3  UNL     1      -6.033   6.513   8.680  1.00  0.00    -0.297 OA
ENDBRANCH   6  25
TORSDOF 6
ENDMDL
MODEL 4
REMARK VINA RESULT: -6.555937474      4.332      7.906
REMARK  6 active torsions:
REMARK  status: ('A' for Active; 'I' for Inactive)
REMARK    1  A    between atoms: C2_4  and  O1_5 
REMARK    2  A    between atoms: C2_4  and  C8_14 
REMARK    3  A    between atoms: O1_5  and  C3_6 
REMARK    4  A    between atoms: C3_6  and  C4_7 
REMARK       I    between atoms: C4_7  and  N2_9 
REMARK    5  A    between atoms: N2_9  and  C5_11 
REMARK    6  A    between atoms: C13_19  and  C14_20 
ROOT
HETATM    1  C8  UNL     1      -4.451   5.016  11.748  1.00  0.00     0.205 C 
HETATM    2  C9  UNL     1      -5.256   5.467  12.946  1.00  0.00     0.051 C 
HETATM    3  C10 UNL     1      -4.584   4.877  14.182  1.00  0.00    -0.027 C 
HETATM    4  C11 UNL     1      -5.512   5.206  15.347  1.00  0.00     0.016 C 
HETATM    5  C12 UNL     1      -3.307   5.668  14.401  1.00  0.00     0.016 C 
HETATM    6  C13 UNL     1      -4.297   3.421  14.046  1.00  0.00     0.137 C 
HETATM    7  C16 UNL     1      -4.595   2.851  12.713  1.00  0.00     0.124 C 
HETATM    8  N3  UNL     1      -4.686   1.567  12.615  1.00  0.00    -0.383 N 
ATOM      9  H31 UNL     1      -4.892   1.173  11.696  1.00  0.00     0.158 HD
ATOM     10  H32 UNL     1      -4.554   0.992  13.447  1.00  0.00     0.158 HD
HETATM   11  O4  UNL     1      -4.779   3.644  11.566  1.00  0.00    -0.325 OA
ENDROOT
BRANCH   1  12
HETATM   12  C2  UNL     1      -4.740   5.831  10.573  1.00  0.00     0.144 C 
HETATM   13  N1  UNL     1      -3.813   6.581  10.081  1.00  0.00    -0.377 N 
HETATM   14  C1  UNL     1      -2.499   6.643  10.653  1.00  0.00     0.148 C 
ATOM     15  H1  UNL     1      -4.021   7.148   9.259  1.00  0.00     0.160 HD
BRANCH  12  16
HETATM   16  O1  UNL     1      -5.968   5.865   9.923  1.00  0.00    -0.328 OA
BRANCH  16  17
HETATM   17  C3  UNL     1      -6.728   7.030   9.901  1.00  0.00     0.279 C 
BRANCH  17  18
HETATM   18  C4  UNL     1      -7.523   7.217   8.679  1.00  0.00     0.242 C 
HETATM   19  O2  UNL     1      -7.839   6.246   7.911  1.00  0.00    -0.271 OA
HETATM   20  N2  UNL     1      -7.987   8.499   8.284  1.00  0.00    -0.355 N 
ATOM     21  H2  UNL     1      -7.757   9.303   8.868  1.00  0.00     0.162 HD
BRANCH  20  22
HETATM   22  C5  UNL     1      -8.773   8.715   7.086  1.00  0.00     0.076 C 
HETATM   23  C6  UNL     1      -8.092   9.602   6.097  1.00  0.00     0.032 C 
HETATM   24  C7  UNL     1     -10.130   9.311   7.411  1.00  0.00     0.032 C 
ENDBRANCH  20  22
ENDBRANCH  17  18
ENDBRANCH  16  17
ENDBRANCH  12  16
ENDBRANCH   1  12
BRANCH   6  25
HETATM   25  C14 UNL     1      -4.862   2.587  15.144  1.00  0.00     0.135 C 
HETATM   26  C15 UNL     1      -4.034   2.016  16.238  1.00  0.00     0.091 C 
HETATM   27  O3  UNL     1      -6.055   2.358  15.152  1.00  0.00    -0.297 OA
ENDBRANCH   6  25
TORSDOF 6
ENDMDL
MODEL 5
REMARK VINA RESULT: -6.464698209      2.903      6.726
REMARK  6 active torsions:
REMARK  status: ('A' for Active; 'I' for Inactive)
REMARK    1  A    between atoms: C2_4  and  O1_5 
REMARK    2  A    between atoms: C2_4  and  C8_14 
REMARK    3  A    between atoms: O1_5  and  C3_6 
REMARK    4  A    between atoms: C3_6  and  C4_7 
REMARK       I    between atoms: C4_7  and  N2_9 
REMARK    5  A    between atoms: N2_9  and  C5_11 
REMARK    6  A    between atoms: C13_19  and  C14_20 
ROOT
HETATM    1  C8  UNL     1      -2.715   4.153  11.711  1.00  0.00     0.205 C 
HETATM    2  C9  UNL     1      -3.379   5.151  12.632  1.00  0.00     0.051 C 
HETATM    3  C10 UNL     1      -3.461   4.501  14.010  1.00  0.00    -0.027 C 
HETATM    4  C11 UNL     1      -4.284   5.459  14.864  1.00  0.00     0.016 C 
HETATM    5  C12 UNL     1      -2.053   4.506  14.576  1.00  0.00     0.016 C 
HETATM    6  C13 UNL     1      -4.018   3.119  13.965  1.00  0.00     0.137 C 
HETATM    7  C16 UNL     1      -4.266   2.592  12.605  1.00  0.00     0.124 C 
HETATM    8  N3  UNL     1      -5.036   1.562  12.489  1.00  0.00    -0.383 N 
ATOM      9  H31 UNL     1      -5.208   1.199  11.552  1.00  0.00     0.158 HD
ATOM     10  H32 UNL     1      -5.445   1.148  13.327  1.00  0.00     0.158 HD
HETATM   11  O4  UNL     1      -3.702   3.163  11.449  1.00  0.00    -0.325 OA
ENDROOT
BRANCH   1  12
HETATM   12  C2  UNL     1      -2.217   4.794  10.500  1.00  0.00     0.144 C 
HETATM   13  N1  UNL     1      -0.968   5.108  10.419  1.00  0.00    -0.377 N 
HETATM   14  C1  UNL     1      -0.046   4.848  11.487  1.00  0.00     0.148 C 
ATOM     15  H1  UNL     1      -0.625   5.555   9.569  1.00  0.00     0.160 HD
BRANCH  12  16
HETATM   16  O1  UNL     1      -3.000   5.101   9.393  1.00  0.00    -0.328 OA
BRANCH  16  17
HETATM   17  C3  UNL     1      -3.607   6.348   9.278  1.00  0.00     0.279 C 
BRANCH  17  18
HETATM   18  C4  UNL     1      -5.032   6.368   9.635  1.00  0.00     0.242 C 
HETATM   19  O2  UNL     1      -5.649   5.331  10.056  1.00  0.00    -0.271 OA
HETATM   20  N2  UNL     1      -5.808   7.552   9.530  1.00  0.00    -0.355 N 
ATOM     21  H2  UNL     1      -5.357   8.403   9.196  1.00  0.00     0.162 HD
BRANCH  20  22
HETATM   22  C5  UNL     1      -7.214   7.604   9.875  1.00  0.00     0.076 C 
HETATM   23  C6  UNL     1      -8.006   8.474   8.956  1.00  0.00     0.032 C 
HETATM   24  C7  UNL     1      -7.421   8.092  11.296  1.00  0.00     0.032 C 
ENDBRANCH  20  22
ENDBRANCH  17  18
ENDBRANCH  16  17
ENDBRANCH  12  16
ENDBRANCH   1  12
BRANCH   6  25
HETATM   25  C14 UNL     1      -5.189   2.908  14.863  1.00  0.00     0.135 C 
HETATM   26  C15 UNL     1      -5.079   2.288  16.208  1.00  0.00     0.091 C 
HETATM   27  O3  UNL     1      -6.288   3.257  14.484  1.00  0.00    -0.297 OA
ENDBRANCH   6  25
TORSDOF 6
ENDMDL
