MODEL 1
REMARK VINA RESULT: -9.008483205      0.000      0.000
REMARK  5 active torsions:
REMARK  status: ('A' for Active; 'I' for Inactive)
REMARK    1  A    between atoms: C4_4  and  C5_5 
REMARK    2  A    between atoms: C17_19  and  O3_20 
REMARK    3  A    between atoms: C20_24  and  O4_25 
REMARK    4  A    between atoms: O4_25  and  C21_26 
REMARK    5  A    between atoms: C21_26  and  C22_28 
ROOT
HETATM    1  C5  UNL     1      34.332  16.267  19.867  1.00  0.00     0.168 C 
HETATM    2  C6  UNL     1      34.334  16.313  21.336  1.00  0.00     0.052 C 
HETATM    3  C7  UNL     1      35.083  15.227  21.987  1.00  0.00    -0.004 C 
HETATM    4  C8  UNL     1      34.331  13.961  22.085  1.00  0.00     0.021 C 
HETATM    5  C9  UNL     1      35.598  15.720  23.392  1.00  0.00     0.052 C 
HETATM    6  C10 UNL     1      36.671  14.737  23.510  1.00  0.00    -0.038 C 
HETATM    7  C11 UNL     1      37.382  14.843  22.217  1.00  0.00    -0.029 C 
HETATM    8  C12 UNL     1      36.417  15.111  21.341  1.00  0.00     0.033 C 
HETATM    9  C13 UNL     1      36.454  15.180  19.861  1.00  0.00     0.291 C 
HETATM   10  O1  UNL     1      37.203  14.364  19.332  1.00  0.00    -0.260 OA
HETATM   11  O2  UNL     1      35.642  16.143  19.294  1.00  0.00    -0.307 OA
HETATM   12  C14 UNL     1      38.826  14.732  21.958  1.00  0.00     0.012 C 
HETATM   13  C15 UNL     1      39.467  15.382  20.819  1.00  0.00     0.023 C 
HETATM   14  C16 UNL     1      39.434  15.562  23.134  1.00  0.00     0.023 C 
HETATM   15  C17 UNL     1      39.190  13.322  22.230  1.00  0.00     0.180 C 
HETATM   16  C18 UNL     1      38.851  12.770  23.538  1.00  0.00     0.006 C 
HETATM   17  C19 UNL     1      38.135  13.201  24.565  1.00  0.00     0.008 C 
HETATM   18  C20 UNL     1      37.388  14.474  24.740  1.00  0.00     0.184 C 
ENDROOT
BRANCH   1  19
HETATM   19  C4  UNL     1      33.667  17.506  19.363  1.00  0.00    -0.004 A 
HETATM   20  C3  UNL     1      33.892  18.111  18.145  1.00  0.00     0.044 A 
HETATM   21  C2  UNL     1      33.082  19.220  18.074  1.00  0.00     0.049 A 
HETATM   22  C1  UNL     1      33.011  20.171  16.911  1.00  0.00     0.076 C 
HETATM   23  O6  UNL     1      32.397  19.286  19.195  1.00  0.00    -0.327 OA
HETATM   24  C25 UNL     1      32.714  18.288  19.988  1.00  0.00     0.151 A 
ENDBRANCH   1  19
BRANCH  18  25
HETATM   25  O4  UNL     1      36.337  14.128  25.690  1.00  0.00    -0.307 OA
BRANCH  25  26
HETATM   26  C21 UNL     1      36.035  14.884  26.784  1.00  0.00     0.263 C 
HETATM   27  O5  UNL     1      36.978  15.267  27.523  1.00  0.00    -0.265 OA
BRANCH  26  28
HETATM   28  C22 UNL     1      34.646  15.281  27.153  1.00  0.00     0.077 C 
HETATM   29  C23 UNL     1      33.674  14.238  26.590  1.00  0.00     0.020 C 
HETATM   30  C24 UNL     1      34.295  16.649  26.589  1.00  0.00     0.020 C 
ENDBRANCH  26  28
ENDBRANCH  25  26
ENDBRANCH  18  25
BRANCH  15  31
HETATM   31  O3  UNL     1      40.581  13.214  22.024  1.00  0.00    -0.274 OA
HETATM   32 CL1  UNL     1      41.322  12.104  23.045  1.00  0.00     0.062 Cl
ENDBRANCH  15  31
TORSDOF 5
ENDMDL
MODEL 2
REMARK VINA RESULT: -8.996373509      3.145      5.968
REMARK  5 active torsions:
REMARK  status: ('A' for Active; 'I' for Inactive)
REMARK    1  A    between atoms: C4_4  and  C5_5 
REMARK    2  A    between atoms: C17_19  and  O3_20 
REMARK    3  A    between atoms: C20_24  and  O4_25 
REMARK    4  A    between atoms: O4_25  and  C21_26 
REMARK    5  A    between atoms: C21_26  and  C22_28 
ROOT
HETATM    1  C5  UNL     1      40.809  15.000  18.357  1.00  0.00     0.168 C 
HETATM    2  C6  UNL     1      40.122  15.984  19.205  1.00  0.00     0.052 C 
HETATM    3  C7  UNL     1      39.043  15.434  20.039  1.00  0.00    -0.004 C 
HETATM    4  C8  UNL     1      37.768  15.251  19.320  1.00  0.00     0.021 C 
HETATM    5  C9  UNL     1      38.873  16.329  21.326  1.00  0.00     0.052 C 
HETATM    6  C10 UNL     1      38.213  15.307  22.132  1.00  0.00    -0.038 C 
HETATM    7  C11 UNL     1      39.091  14.126  21.982  1.00  0.00    -0.029 C 
HETATM    8  C12 UNL     1      39.546  14.220  20.735  1.00  0.00     0.033 C 
HETATM    9  C13 UNL     1      40.343  13.267  19.928  1.00  0.00     0.291 C 
HETATM   10  O1  UNL     1      40.075  12.085  20.123  1.00  0.00    -0.260 OA
HETATM   11  O2  UNL     1      41.264  13.842  19.074  1.00  0.00    -0.307 OA
HETATM   12  C14 UNL     1      39.430  13.107  22.988  1.00  0.00     0.012 C 
HETATM   13  C15 UNL     1      40.677  12.349  22.941  1.00  0.00     0.023 C 
HETATM   14  C16 UNL     1      39.677  13.977  24.262  1.00  0.00     0.023 C 
HETATM   15  C17 UNL     1      38.183  12.352  23.251  1.00  0.00     0.180 C 
HETATM   16  C18 UNL     1      37.000  13.106  23.652  1.00  0.00     0.006 C 
HETATM   17  C19 UNL     1      36.705  14.395  23.717  1.00  0.00     0.008 C 
HETATM   18  C20 UNL     1      37.534  15.582  23.381  1.00  0.00     0.184 C 
ENDROOT
BRANCH   1  19
HETATM   19  C4  UNL     1      41.963  15.679  17.695  1.00  0.00    -0.004 A 
HETATM   20  C3  UNL     1      42.688  15.193  16.628  1.00  0.00     0.044 A 
HETATM   21  C2  UNL     1      43.658  16.121  16.327  1.00  0.00     0.049 A 
HETATM   22  C1  UNL     1      44.673  15.990  15.225  1.00  0.00     0.076 C 
HETATM   23  O6  UNL     1      43.527  17.123  17.169  1.00  0.00    -0.327 OA
HETATM   24  C25 UNL     1      42.533  16.901  17.998  1.00  0.00     0.151 A 
ENDBRANCH   1  19
BRANCH  18  25
HETATM   25  O4  UNL     1      36.551  16.599  23.027  1.00  0.00    -0.307 OA
BRANCH  25  26
HETATM   26  C21 UNL     1      35.274  16.310  22.648  1.00  0.00     0.263 C 
HETATM   27  O5  UNL     1      34.375  16.311  23.529  1.00  0.00    -0.265 OA
BRANCH  26  28
HETATM   28  C22 UNL     1      34.882  15.993  21.245  1.00  0.00     0.077 C 
HETATM   29  C23 UNL     1      33.821  17.003  20.794  1.00  0.00     0.020 C 
HETATM   30  C24 UNL     1      34.315  14.587  21.135  1.00  0.00     0.020 C 
ENDBRANCH  26  28
ENDBRANCH  25  26
ENDBRANCH  18  25
BRANCH  15  31
HETATM   31  O3  UNL     1      38.488  11.398  24.245  1.00  0.00    -0.274 OA
HETATM   32 CL1  UNL     1      38.312   9.811  23.721  1.00  0.00     0.062 Cl
ENDBRANCH  15  31
TORSDOF 5
ENDMDL
MODEL 3
REMARK VINA RESULT: -8.925922574      3.334      6.552
REMARK  5 active torsions:
REMARK  status: ('A' for Active; 'I' for Inactive)
REMARK    1  A    between atoms: C4_4  and  C5_5 
REMARK    2  A    between atoms: C17_19  and  O3_20 
REMARK    3  A    between atoms: C20_24  and  O4_25 
REMARK    4  A    between atoms: O4_25  and  C21_26 
REMARK    5  A    between atoms: C21_26  and  C22_28 
ROOT
HETATM    1  C5  UNL     1      34.224  13.483  23.320  1.00  0.00     0.168 C 
HETATM    2  C6  UNL     1      35.112  13.731  22.176  1.00  0.00     0.052 C 
HETATM    3  C7  UNL     1      36.257  14.609  22.462  1.00  0.00    -0.004 C 
HETATM    4  C8  UNL     1      35.924  16.047  22.441  1.00  0.00     0.021 C 
HETATM    5  C9  UNL     1      37.438  14.261  21.480  1.00  0.00     0.052 C 
HETATM    6  C10 UNL     1      38.495  14.830  22.310  1.00  0.00    -0.038 C 
HETATM    7  C11 UNL     1      38.246  14.238  23.643  1.00  0.00    -0.029 C 
HETATM    8  C12 UNL     1      36.920  14.141  23.708  1.00  0.00     0.033 C 
HETATM    9  C13 UNL     1      36.038  13.772  24.840  1.00  0.00     0.291 C 
HETATM   10  O1  UNL     1      36.424  14.168  25.936  1.00  0.00    -0.260 OA
HETATM   11  O2  UNL     1      34.914  13.045  24.500  1.00  0.00    -0.307 OA
HETATM   12  C14 UNL     1      39.230  13.805  24.647  1.00  0.00     0.012 C 
HETATM   13  C15 UNL     1      38.936  12.766  25.629  1.00  0.00     0.023 C 
HETATM   14  C16 UNL     1      40.292  13.070  23.769  1.00  0.00     0.023 C 
HETATM   15  C17 UNL     1      39.894  15.036  25.136  1.00  0.00     0.180 C 
HETATM   16  C18 UNL     1      40.510  15.917  24.149  1.00  0.00     0.006 C 
HETATM   17  C19 UNL     1      40.511  15.963  22.826  1.00  0.00     0.008 C 
HETATM   18  C20 UNL     1      39.842  15.076  21.840  1.00  0.00     0.184 C 
ENDROOT
BRANCH   1  19
HETATM   19  C4  UNL     1      33.210  12.465  22.912  1.00  0.00    -0.004 A 
HETATM   20  C3  UNL     1      32.375  11.765  23.756  1.00  0.00     0.044 A 
HETATM   21  C2  UNL     1      31.601  10.933  22.981  1.00  0.00     0.049 A 
HETATM   22  C1  UNL     1      30.551   9.989  23.500  1.00  0.00     0.076 C 
HETATM   23  O6  UNL     1      31.950  11.118  21.726  1.00  0.00    -0.327 OA
HETATM   24  C25 UNL     1      32.901  12.018  21.640  1.00  0.00     0.151 A 
ENDBRANCH   1  19
BRANCH  18  25
HETATM   25  O4  UNL     1      39.655  15.934  20.676  1.00  0.00    -0.307 OA
BRANCH  25  26
HETATM   26  C21 UNL     1      40.079  15.606  19.423  1.00  0.00     0.263 C 
HETATM   27  O5  UNL     1      39.236  15.607  18.488  1.00  0.00    -0.265 OA
BRANCH  26  28
HETATM   28  C22 UNL     1      41.489  15.244  19.098  1.00  0.00     0.077 C 
HETATM   29  C23 UNL     1      42.384  16.451  19.399  1.00  0.00     0.020 C 
HETATM   30  C24 UNL     1      41.637  14.861  17.634  1.00  0.00     0.020 C 
ENDBRANCH  26  28
ENDBRANCH  25  26
ENDBRANCH  18  25
BRANCH  15  31
HETATM   31  O3  UNL     1      40.868  14.629  26.072  1.00  0.00    -0.274 OA
HETATM   32 CL1  UNL     1      40.393  14.851  27.668  1.00  0.00     0.062 Cl
ENDBRANCH  15  31
TORSDOF 5
ENDMDL
MODEL 4
REMARK VINA RESULT: -8.880720233      1.078      1.540
REMARK  5 active torsions:
REMARK  status: ('A' for Active; 'I' for Inactive)
REMARK    1  A    between atoms: C4_4  and  C5_5 
REMARK    2  A    between atoms: C17_19  and  O3_20 
REMARK    3  A    between atoms: C20_24  and  O4_25 
REMARK    4  A    between atoms: O4_25  and  C21_26 
REMARK    5  A    between atoms: C21_26  and  C22_28 
ROOT
HETATM    1  C5  UNL     1      34.324  16.112  20.196  1.00  0.00     0.168 C 
HETATM    2  C6  UNL     1      34.506  16.278  21.646  1.00  0.00     0.052 C 
HETATM    3  C7  UNL     1      35.258  15.198  22.301  1.00  0.00    -0.004 C 
HETATM    4  C8  UNL     1      34.445  14.003  22.599  1.00  0.00     0.021 C 
HETATM    5  C9  UNL     1      35.969  15.765  23.588  1.00  0.00     0.052 C 
HETATM    6  C10 UNL     1      36.984  14.719  23.670  1.00  0.00    -0.038 C 
HETATM    7  C11 UNL     1      37.539  14.665  22.300  1.00  0.00    -0.029 C 
HETATM    8  C12 UNL     1      36.495  14.931  21.519  1.00  0.00     0.033 C 
HETATM    9  C13 UNL     1      36.357  14.874  20.045  1.00  0.00     0.291 C 
HETATM   10  O1  UNL     1      36.983  13.965  19.509  1.00  0.00    -0.260 OA
HETATM   11  O2  UNL     1      35.545  15.845  19.490  1.00  0.00    -0.307 OA
HETATM   12  C14 UNL     1      38.931  14.427  21.888  1.00  0.00     0.012 C 
HETATM   13  C15 UNL     1      39.470  14.933  20.629  1.00  0.00     0.023 C 
HETATM   14  C16 UNL     1      39.728  15.304  22.907  1.00  0.00     0.023 C 
HETATM   15  C17 UNL     1      39.235  13.022  22.243  1.00  0.00     0.180 C 
HETATM   16  C18 UNL     1      39.023  12.605  23.626  1.00  0.00     0.006 C 
HETATM   17  C19 UNL     1      38.465  13.172  24.684  1.00  0.00     0.008 C 
HETATM   18  C20 UNL     1      37.827  14.506  24.828  1.00  0.00     0.184 C 
ENDROOT
BRANCH   1  19
HETATM   19  C4  UNL     1      33.683  17.351  19.661  1.00  0.00    -0.004 A 
HETATM   20  C3  UNL     1      33.898  17.905  18.418  1.00  0.00     0.044 A 
HETATM   21  C2  UNL     1      33.118  19.034  18.325  1.00  0.00     0.049 A 
HETATM   22  C1  UNL     1      33.047  19.945  17.130  1.00  0.00     0.076 C 
HETATM   23  O6  UNL     1      32.460  19.159  19.457  1.00  0.00    -0.327 OA
HETATM   24  C25 UNL     1      32.766  18.181  20.278  1.00  0.00     0.151 A 
ENDBRANCH   1  19
BRANCH  18  25
HETATM   25  O4  UNL     1      36.878  14.318  25.920  1.00  0.00    -0.307 OA
BRANCH  25  26
HETATM   26  C21 UNL     1      37.135  14.680  27.209  1.00  0.00     0.263 C 
HETATM   27  O5  UNL     1      36.437  15.595  27.721  1.00  0.00    -0.265 OA
BRANCH  26  28
HETATM   28  C22 UNL     1      38.196  14.052  28.046  1.00  0.00     0.077 C 
HETATM   29  C23 UNL     1      37.614  13.761  29.434  1.00  0.00     0.020 C 
HETATM   30  C24 UNL     1      39.400  14.970  28.190  1.00  0.00     0.020 C 
ENDBRANCH  26  28
ENDBRANCH  25  26
ENDBRANCH  18  25
BRANCH  15  31
HETATM   31  O3  UNL     1      40.582  12.794  21.888  1.00  0.00    -0.274 OA
HETATM   32 CL1  UNL     1      41.459  11.997  23.079  1.00  0.00     0.062 Cl
ENDBRANCH  15  31
TORSDOF 5
ENDMDL
MODEL 5
REMARK VINA RESULT: -8.769960992      3.145      6.711
REMARK  5 active torsions:
REMARK  status: ('A' for Active; 'I' for Inactive)
REMARK    1  A    between atoms: C4_4  and  C5_5 
REMARK    2  A    between atoms: C17_19  and  O3_20 
REMARK    3  A    between atoms: C20_24  and  O4_25 
REMARK    4  A    between atoms: O4_25  and  C21_26 
REMARK    5  A    between atoms: C21_26  and  C22_28 
ROOT
HETATM    1  C5  UNL     1      33.561  13.426  24.643  1.00  0.00     0.168 C 
HETATM    2  C6  UNL     1      34.288  13.222  23.382  1.00  0.00     0.052 C 
HETATM    3  C7  UNL     1      35.339  14.214  23.108  1.00  0.00    -0.004 C 
HETATM    4  C8  UNL     1      34.831  15.478  22.542  1.00  0.00     0.021 C 
HETATM    5  C9  UNL     1      36.446  13.561  22.196  1.00  0.00     0.052 C 
HETATM    6  C10 UNL     1      37.505  14.499  22.552  1.00  0.00    -0.038 C 
HETATM    7  C11 UNL     1      37.471  14.518  24.030  1.00  0.00    -0.029 C 
HETATM    8  C12 UNL     1      36.181  14.368  24.324  1.00  0.00     0.033 C 
HETATM    9  C13 UNL     1      35.474  14.459  25.623  1.00  0.00     0.291 C 
HETATM   10  O1  UNL     1      35.919  15.310  26.387  1.00  0.00    -0.260 OA
HETATM   11  O2  UNL     1      34.419  13.582  25.783  1.00  0.00    -0.307 OA
HETATM   12  C14 UNL     1      38.600  14.624  24.968  1.00  0.00     0.012 C 
HETATM   13  C15 UNL     1      38.540  14.085  26.324  1.00  0.00     0.023 C 
HETATM   14  C16 UNL     1      39.647  13.658  24.327  1.00  0.00     0.023 C 
HETATM   15  C17 UNL     1      39.154  15.987  24.800  1.00  0.00     0.180 C 
HETATM   16  C18 UNL     1      39.550  16.402  23.458  1.00  0.00     0.006 C 
HETATM   17  C19 UNL     1      39.408  15.879  22.250  1.00  0.00     0.008 C 
HETATM   18  C20 UNL     1      38.755  14.612  21.830  1.00  0.00     0.184 C 
ENDROOT
BRANCH   1  19
HETATM   19  C4  UNL     1      32.644  12.265  24.846  1.00  0.00    -0.004 A 
HETATM   20  C3  UNL     1      32.108  11.469  23.856  1.00  0.00     0.044 A 
HETATM   21  C2  UNL     1      31.322  10.520  24.465  1.00  0.00     0.049 A 
HETATM   22  C1  UNL     1      30.547   9.445  23.752  1.00  0.00     0.076 C 
HETATM   23  O6  UNL     1      31.377  10.728  25.763  1.00  0.00    -0.327 OA
HETATM   24  C25 UNL     1      32.150  11.754  26.032  1.00  0.00     0.151 A 
ENDBRANCH   1  19
BRANCH  18  25
HETATM   25  O4  UNL     1      38.343  14.877  20.457  1.00  0.00    -0.307 OA
BRANCH  25  26
HETATM   26  C21 UNL     1      39.169  14.729  19.382  1.00  0.00     0.263 C 
HETATM   27  O5  UNL     1      39.279  15.691  18.577  1.00  0.00    -0.265 OA
BRANCH  26  28
HETATM   28  C22 UNL     1      39.951  13.490  19.107  1.00  0.00     0.077 C 
HETATM   29  C23 UNL     1      39.143  12.285  19.600  1.00  0.00     0.020 C 
HETATM   30  C24 UNL     1      41.295  13.517  19.816  1.00  0.00     0.020 C 
ENDBRANCH  26  28
ENDBRANCH  25  26
ENDBRANCH  18  25
BRANCH  15  31
HETATM   31  O3  UNL     1      40.263  16.085  25.667  1.00  0.00    -0.274 OA
HETATM   32 CL1  UNL     1      41.676  16.557  24.890  1.00  0.00     0.062 Cl
ENDBRANCH  15  31
TORSDOF 5
ENDMDL
