MODEL 1
REMARK VINA RESULT: -8.977850411      0.000      0.000
REMARK  6 active torsions:
REMARK  status: ('A' for Active; 'I' for Inactive)
REMARK    1  A    between atoms: C2_2  and  C3_4 
REMARK    2  A    between atoms: C3_4  and  C4_5 
REMARK    3  A    between atoms: C3_4  and  C18_23 
REMARK    4  A    between atoms: C4_5  and  C5_6 
REMARK    5  A    between atoms: C18_23  and  O6_25 
REMARK    6  A    between atoms: O6_25  and  C19_26 
ROOT
HETATM    1  C5  UNL     1      38.424  15.052  22.040  1.00  0.00     0.011 C 
HETATM    2  C6  UNL     1      37.298  14.531  21.128  1.00  0.00     0.017 C 
HETATM    3  C7  UNL     1      37.760  13.647  20.013  1.00  0.00     0.018 C 
HETATM    4  C8  UNL     1      38.911  12.753  20.371  1.00  0.00     0.115 C 
HETATM    5  C9  UNL     1      40.144  13.548  20.145  1.00  0.00     0.266 C 
HETATM    6  O1  UNL     1      40.929  13.110  19.290  1.00  0.00    -0.265 OA
HETATM    7  O2  UNL     1      40.459  14.700  20.802  1.00  0.00    -0.315 OA
HETATM    8  C10 UNL     1      39.508  15.693  21.258  1.00  0.00     0.140 C 
HETATM    9  C11 UNL     1      39.114  16.498  20.075  1.00  0.00     0.041 C 
HETATM   10  C12 UNL     1      38.818  12.533  21.862  1.00  0.00     0.144 C 
HETATM   11  O3  UNL     1      39.804  11.654  22.313  1.00  0.00    -0.354 OA
HETATM   12  C13 UNL     1      40.823  12.393  22.855  1.00  0.00     0.267 C 
HETATM   13  O4  UNL     1      41.154  12.097  24.174  1.00  0.00    -0.355 OA
HETATM   14  C14 UNL     1      40.296  13.068  24.627  1.00  0.00     0.130 C 
HETATM   15  C15 UNL     1      40.853  13.941  25.712  1.00  0.00     0.040 C 
HETATM   16  C16 UNL     1      40.254  13.743  23.247  1.00  0.00     0.077 C 
HETATM   17  C17 UNL     1      38.892  13.738  22.706  1.00  0.00     0.041 C 
ENDROOT
BRANCH   1  18
HETATM   18  C4  UNL     1      37.828  15.822  23.173  1.00  0.00     0.005 C 
BRANCH  18  19
HETATM   19  C3  UNL     1      36.599  15.451  23.838  1.00  0.00     0.053 C 
BRANCH  19  20
HETATM   20  C2  UNL     1      35.448  16.078  23.737  1.00  0.00     0.024 C 
HETATM   21  C1  UNL     1      34.728  16.541  24.932  1.00  0.00     0.063 C 
HETATM   22 CL1  UNL     1      34.704  16.383  22.199  1.00  0.00    -0.088 Cl
ENDBRANCH  19  20
BRANCH  19  23
HETATM   23  C18 UNL     1      36.539  14.217  24.631  1.00  0.00     0.294 C 
HETATM   24  O5  UNL     1      37.054  14.069  25.773  1.00  0.00    -0.259 OA
BRANCH  23  25
HETATM   25  O6  UNL     1      35.909  13.045  24.239  1.00  0.00    -0.312 OA
BRANCH  25  26
HETATM   26  C19 UNL     1      34.609  12.877  23.851  1.00  0.00     0.132 C 
HETATM   27  C20 UNL     1      33.772  11.920  24.616  1.00  0.00     0.032 C 
HETATM   28  C21 UNL     1      32.357  11.983  24.070  1.00  0.00     0.002 C 
HETATM   29  C22 UNL     1      32.302  11.785  22.582  1.00  0.00     0.000 C 
HETATM   30  C23 UNL     1      33.244  12.709  21.841  1.00  0.00     0.002 C 
HETATM   31  C24 UNL     1      34.623  12.445  22.395  1.00  0.00     0.032 C 
ENDBRANCH  25  26
ENDBRANCH  23  25
ENDBRANCH  19  23
ENDBRANCH  18  19
ENDBRANCH   1  18
TORSDOF 6
ENDMDL
MODEL 2
REMARK VINA RESULT: -8.907673485      3.004      6.762
REMARK  6 active torsions:
REMARK  status: ('A' for Active; 'I' for Inactive)
REMARK    1  A    between atoms: C2_2  and  C3_4 
REMARK    2  A    between atoms: C3_4  and  C4_5 
REMARK    3  A    between atoms: C3_4  and  C18_23 
REMARK    4  A    between atoms: C4_5  and  C5_6 
REMARK    5  A    between atoms: C18_23  and  O6_25 
REMARK    6  A    between atoms: O6_25  and  C19_26 
ROOT
HETATM    1  C5  UNL     1      38.871  14.996  23.130  1.00  0.00     0.011 C 
HETATM    2  C6  UNL     1      40.100  15.904  22.939  1.00  0.00     0.017 C 
HETATM    3  C7  UNL     1      40.803  16.271  24.207  1.00  0.00     0.018 C 
HETATM    4  C8  UNL     1      40.827  15.182  25.238  1.00  0.00     0.115 C 
HETATM    5  C9  UNL     1      39.559  15.300  26.001  1.00  0.00     0.266 C 
HETATM    6  O1  UNL     1      39.668  15.542  27.213  1.00  0.00    -0.265 OA
HETATM    7  O2  UNL     1      38.312  15.164  25.465  1.00  0.00    -0.315 OA
HETATM    8  C10 UNL     1      37.927  15.557  24.126  1.00  0.00     0.140 C 
HETATM    9  C11 UNL     1      37.739  17.029  24.137  1.00  0.00     0.041 C 
HETATM   10  C12 UNL     1      40.739  13.884  24.473  1.00  0.00     0.144 C 
HETATM   11  O3  UNL     1      40.820  12.779  25.323  1.00  0.00    -0.354 OA
HETATM   12  C13 UNL     1      39.550  12.311  25.543  1.00  0.00     0.267 C 
HETATM   13  O4  UNL     1      39.330  10.976  25.220  1.00  0.00    -0.355 OA
HETATM   14  C14 UNL     1      38.912  11.330  23.961  1.00  0.00     0.130 C 
HETATM   15  C15 UNL     1      37.670  10.633  23.493  1.00  0.00     0.040 C 
HETATM   16  C16 UNL     1      38.681  12.786  24.394  1.00  0.00     0.077 C 
HETATM   17  C17 UNL     1      39.541  13.698  23.635  1.00  0.00     0.041 C 
ENDROOT
BRANCH   1  18
HETATM   18  C4  UNL     1      38.329  14.608  21.792  1.00  0.00     0.005 C 
BRANCH  18  19
HETATM   19  C3  UNL     1      39.150  14.420  20.616  1.00  0.00     0.053 C 
BRANCH  19  20
HETATM   20  C2  UNL     1      39.826  13.335  20.314  1.00  0.00     0.024 C 
HETATM   21  C1  UNL     1      39.166  12.177  19.693  1.00  0.00     0.063 C 
HETATM   22 CL1  UNL     1      41.525  13.193  20.642  1.00  0.00    -0.088 Cl
ENDBRANCH  19  20
BRANCH  19  23
HETATM   23  C18 UNL     1      39.193  15.458  19.579  1.00  0.00     0.294 C 
HETATM   24  O5  UNL     1      38.288  15.659  18.723  1.00  0.00    -0.259 OA
BRANCH  23  25
HETATM   25  O6  UNL     1      40.229  16.361  19.396  1.00  0.00    -0.312 OA
BRANCH  25  26
HETATM   26  C19 UNL     1      41.411  16.164  18.736  1.00  0.00     0.132 C 
HETATM   27  C20 UNL     1      42.179  17.360  18.312  1.00  0.00     0.032 C 
HETATM   28  C21 UNL     1      43.488  16.892  17.700  1.00  0.00     0.002 C 
HETATM   29  C22 UNL     1      43.287  15.879  16.609  1.00  0.00     0.000 C 
HETATM   30  C23 UNL     1      42.414  14.723  17.048  1.00  0.00     0.002 C 
HETATM   31  C24 UNL     1      41.108  15.326  17.506  1.00  0.00     0.032 C 
ENDBRANCH  25  26
ENDBRANCH  23  25
ENDBRANCH  19  23
ENDBRANCH  18  19
ENDBRANCH   1  18
TORSDOF 6
ENDMDL
MODEL 3
REMARK VINA RESULT: -8.897290289      1.633      2.339
REMARK  6 active torsions:
REMARK  status: ('A' for Active; 'I' for Inactive)
REMARK    1  A    between atoms: C2_2  and  C3_4 
REMARK    2  A    between atoms: C3_4  and  C4_5 
REMARK    3  A    between atoms: C3_4  and  C18_23 
REMARK    4  A    between atoms: C4_5  and  C5_6 
REMARK    5  A    between atoms: C18_23  and  O6_25 
REMARK    6  A    between atoms: O6_25  and  C19_26 
ROOT
HETATM    1  C5  UNL     1      37.879  13.949  21.691  1.00  0.00     0.011 C 
HETATM    2  C6  UNL     1      37.901  13.116  20.396  1.00  0.00     0.017 C 
HETATM    3  C7  UNL     1      39.215  13.116  19.680  1.00  0.00     0.018 C 
HETATM    4  C8  UNL     1      40.412  13.128  20.585  1.00  0.00     0.115 C 
HETATM    5  C9  UNL     1      40.677  14.553  20.906  1.00  0.00     0.266 C 
HETATM    6  O1  UNL     1      41.775  15.002  20.542  1.00  0.00    -0.265 OA
HETATM    7  O2  UNL     1      39.811  15.378  21.561  1.00  0.00    -0.315 OA
HETATM    8  C10 UNL     1      38.368  15.330  21.461  1.00  0.00     0.140 C 
HETATM    9  C11 UNL     1      37.994  15.983  20.182  1.00  0.00     0.041 C 
HETATM   10  C12 UNL     1      39.964  12.482  21.874  1.00  0.00     0.144 C 
HETATM   11  O3  UNL     1      41.016  12.371  22.785  1.00  0.00    -0.354 OA
HETATM   12  C13 UNL     1      40.911  13.396  23.690  1.00  0.00     0.267 C 
HETATM   13  O4  UNL     1      40.837  13.020  25.027  1.00  0.00    -0.355 OA
HETATM   14  C14 UNL     1      39.465  13.016  24.969  1.00  0.00     0.130 C 
HETATM   15  C15 UNL     1      38.786  13.678  26.131  1.00  0.00     0.040 C 
HETATM   16  C16 UNL     1      39.468  13.863  23.688  1.00  0.00     0.077 C 
HETATM   17  C17 UNL     1      38.847  13.134  22.579  1.00  0.00     0.041 C 
ENDROOT
BRANCH   1  18
HETATM   18  C4  UNL     1      36.559  13.776  22.368  1.00  0.00     0.005 C 
BRANCH  18  19
HETATM   19  C3  UNL     1      35.342  14.426  21.935  1.00  0.00     0.053 C 
BRANCH  19  20
HETATM   20  C2  UNL     1      34.965  15.645  22.250  1.00  0.00     0.024 C 
HETATM   21  C1  UNL     1      35.221  16.197  23.588  1.00  0.00     0.063 C 
HETATM   22 CL1  UNL     1      34.134  16.667  21.120  1.00  0.00    -0.088 Cl
ENDBRANCH  19  20
BRANCH  19  23
HETATM   23  C18 UNL     1      34.454  13.756  20.976  1.00  0.00     0.294 C 
HETATM   24  O5  UNL     1      34.700  13.610  19.748  1.00  0.00    -0.259 OA
BRANCH  23  25
HETATM   25  O6  UNL     1      33.227  13.191  21.285  1.00  0.00    -0.312 OA
BRANCH  25  26
HETATM   26  C19 UNL     1      32.968  12.151  22.135  1.00  0.00     0.132 C 
HETATM   27  C20 UNL     1      31.705  11.396  21.948  1.00  0.00     0.032 C 
HETATM   28  C21 UNL     1      31.691  10.240  22.931  1.00  0.00     0.002 C 
HETATM   29  C22 UNL     1      31.932  10.681  24.347  1.00  0.00     0.000 C 
HETATM   30  C23 UNL     1      33.175  11.534  24.482  1.00  0.00     0.002 C 
HETATM   31  C24 UNL     1      32.991  12.706  23.549  1.00  0.00     0.032 C 
ENDBRANCH  25  26
ENDBRANCH  23  25
ENDBRANCH  19  23
ENDBRANCH  18  19
ENDBRANCH   1  18
TORSDOF 6
ENDMDL
MODEL 4
REMARK VINA RESULT: -8.884488313      2.014      3.263
REMARK  6 active torsions:
REMARK  status: ('A' for Active; 'I' for Inactive)
REMARK    1  A    between atoms: C2_2  and  C3_4 
REMARK    2  A    between atoms: C3_4  and  C4_5 
REMARK    3  A    between atoms: C3_4  and  C18_23 
REMARK    4  A    between atoms: C4_5  and  C5_6 
REMARK    5  A    between atoms: C18_23  and  O6_25 
REMARK    6  A    between atoms: O6_25  and  C19_26 
ROOT
HETATM    1  C5  UNL     1      38.307  13.854  22.717  1.00  0.00     0.011 C 
HETATM    2  C6  UNL     1      37.560  12.533  22.983  1.00  0.00     0.017 C 
HETATM    3  C7  UNL     1      38.446  11.379  23.333  1.00  0.00     0.018 C 
HETATM    4  C8  UNL     1      39.640  11.746  24.163  1.00  0.00     0.115 C 
HETATM    5  C9  UNL     1      40.698  12.166  23.211  1.00  0.00     0.266 C 
HETATM    6  O1  UNL     1      41.736  11.487  23.211  1.00  0.00    -0.265 OA
HETATM    7  O2  UNL     1      40.603  13.226  22.358  1.00  0.00    -0.315 OA
HETATM    8  C10 UNL     1      39.387  13.680  21.717  1.00  0.00     0.140 C 
HETATM    9  C11 UNL     1      39.123  12.765  20.579  1.00  0.00     0.041 C 
HETATM   10  C12 UNL     1      39.246  12.986  24.930  1.00  0.00     0.144 C 
HETATM   11  O3  UNL     1      40.259  13.394  25.800  1.00  0.00    -0.354 OA
HETATM   12  C13 UNL     1      40.946  14.423  25.209  1.00  0.00     0.267 C 
HETATM   13  O4  UNL     1      41.011  15.608  25.935  1.00  0.00    -0.355 OA
HETATM   14  C14 UNL     1      39.888  16.080  25.302  1.00  0.00     0.130 C 
HETATM   15  C15 UNL     1      39.980  17.503  24.839  1.00  0.00     0.040 C 
HETATM   16  C16 UNL     1      40.032  15.049  24.172  1.00  0.00     0.077 C 
HETATM   17  C17 UNL     1      38.867  14.160  24.125  1.00  0.00     0.041 C 
ENDROOT
BRANCH   1  18
HETATM   18  C4  UNL     1      37.314  14.947  22.494  1.00  0.00     0.005 C 
BRANCH  18  19
HETATM   19  C3  UNL     1      36.539  15.096  21.282  1.00  0.00     0.053 C 
BRANCH  19  20
HETATM   20  C2  UNL     1      37.012  15.428  20.102  1.00  0.00     0.024 C 
HETATM   21  C1  UNL     1      36.314  15.040  18.867  1.00  0.00     0.063 C 
HETATM   22 CL1  UNL     1      38.488  16.324  19.926  1.00  0.00    -0.088 Cl
ENDBRANCH  19  20
BRANCH  19  23
HETATM   23  C18 UNL     1      35.110  14.762  21.280  1.00  0.00     0.294 C 
HETATM   24  O5  UNL     1      34.173  15.607  21.260  1.00  0.00    -0.259 OA
BRANCH  23  25
HETATM   25  O6  UNL     1      34.590  13.477  21.300  1.00  0.00    -0.312 OA
BRANCH  25  26
HETATM   26  C19 UNL     1      33.587  12.986  22.091  1.00  0.00     0.132 C 
HETATM   27  C20 UNL     1      33.880  12.763  23.528  1.00  0.00     0.032 C 
HETATM   28  C21 UNL     1      32.599  12.320  24.211  1.00  0.00     0.002 C 
HETATM   29  C22 UNL     1      31.958  11.144  23.531  1.00  0.00     0.000 C 
HETATM   30  C23 UNL     1      31.768  11.368  22.046  1.00  0.00     0.002 C 
HETATM   31  C24 UNL     1      33.135  11.670  21.483  1.00  0.00     0.032 C 
ENDBRANCH  25  26
ENDBRANCH  23  25
ENDBRANCH  19  23
ENDBRANCH  18  19
ENDBRANCH   1  18
TORSDOF 6
ENDMDL
MODEL 5
REMARK VINA RESULT: -8.880330332      1.860      5.558
REMARK  6 active torsions:
REMARK  status: ('A' for Active; 'I' for Inactive)
REMARK    1  A    between atoms: C2_2  and  C3_4 
REMARK    2  A    between atoms: C3_4  and  C4_5 
REMARK    3  A    between atoms: C3_4  and  C18_23 
REMARK    4  A    between atoms: C4_5  and  C5_6 
REMARK    5  A    between atoms: C18_23  and  O6_25 
REMARK    6  A    between atoms: O6_25  and  C19_26 
ROOT
HETATM    1  C5  UNL     1      36.554  14.339  23.072  1.00  0.00     0.011 C 
HETATM    2  C6  UNL     1      36.163  15.825  22.973  1.00  0.00     0.017 C 
HETATM    3  C7  UNL     1      36.365  16.605  24.234  1.00  0.00     0.018 C 
HETATM    4  C8  UNL     1      37.572  16.197  25.026  1.00  0.00     0.115 C 
HETATM    5  C9  UNL     1      37.144  15.067  25.888  1.00  0.00     0.266 C 
HETATM    6  O1  UNL     1      37.222  15.251  27.112  1.00  0.00    -0.265 OA
HETATM    7  O2  UNL     1      36.681  13.869  25.429  1.00  0.00    -0.315 OA
HETATM    8  C10 UNL     1      35.900  13.677  24.226  1.00  0.00     0.140 C 
HETATM    9  C11 UNL     1      34.505  14.072  24.540  1.00  0.00     0.041 C 
HETATM   10  C12 UNL     1      38.547  15.620  24.029  1.00  0.00     0.144 C 
HETATM   11  O3  UNL     1      39.752  15.262  24.637  1.00  0.00    -0.354 OA
HETATM   12  C13 UNL     1      39.738  13.908  24.853  1.00  0.00     0.267 C 
HETATM   13  O4  UNL     1      40.789  13.191  24.291  1.00  0.00    -0.355 OA
HETATM   14  C14 UNL     1      40.048  12.954  23.160  1.00  0.00     0.130 C 
HETATM   15  C15 UNL     1      40.106  11.542  22.656  1.00  0.00     0.040 C 
HETATM   16  C16 UNL     1      38.739  13.299  23.887  1.00  0.00     0.077 C 
HETATM   17  C17 UNL     1      38.084  14.451  23.261  1.00  0.00     0.041 C 
ENDROOT
BRANCH   1  18
HETATM   18  C4  UNL     1      36.418  13.701  21.728  1.00  0.00     0.005 C 
BRANCH  18  19
HETATM   19  C3  UNL     1      35.578  14.222  20.671  1.00  0.00     0.053 C 
BRANCH  19  20
HETATM   20  C2  UNL     1      34.276  14.385  20.732  1.00  0.00     0.024 C 
HETATM   21  C1  UNL     1      33.383  13.258  21.043  1.00  0.00     0.063 C 
HETATM   22 CL1  UNL     1      33.530  15.924  20.435  1.00  0.00    -0.088 Cl
ENDBRANCH  19  20
BRANCH  19  23
HETATM   23  C18 UNL     1      36.186  14.727  19.434  1.00  0.00     0.294 C 
HETATM   24  O5  UNL     1      35.773  14.467  18.271  1.00  0.00    -0.259 OA
BRANCH  23  25
HETATM   25  O6  UNL     1      37.295  15.557  19.370  1.00  0.00    -0.312 OA
BRANCH  25  26
HETATM   26  C19 UNL     1      38.610  15.199  19.258  1.00  0.00     0.132 C 
HETATM   27  C20 UNL     1      38.982  13.804  19.596  1.00  0.00     0.032 C 
HETATM   28  C21 UNL     1      40.460  13.620  19.299  1.00  0.00     0.002 C 
HETATM   29  C22 UNL     1      41.317  14.658  19.965  1.00  0.00     0.000 C 
HETATM   30  C23 UNL     1      40.846  16.068  19.680  1.00  0.00     0.002 C 
HETATM   31  C24 UNL     1      39.411  16.138  20.143  1.00  0.00     0.032 C 
ENDBRANCH  25  26
ENDBRANCH  23  25
ENDBRANCH  19  23
ENDBRANCH  18  19
ENDBRANCH   1  18
TORSDOF 6
ENDMDL
