MODEL 1
REMARK VINA RESULT: -8.477015853      0.000      0.000
REMARK  4 active torsions:
REMARK  status: ('A' for Active; 'I' for Inactive)
REMARK    1  A    between atoms: C2_2  and  O1_3 
REMARK    2  A    between atoms: O1_3  and  C3_4 
REMARK    3  A    between atoms: C3_4  and  C4_6 
REMARK    4  A    between atoms: C11_14  and  O3_15 
ROOT
HETATM    1  C4  UNL     1      41.591  15.519  18.566  1.00  0.00     0.088 A 
HETATM    2  S1  UNL     1      40.983  15.476  16.976  1.00  0.00    -0.065 SA
HETATM    3  C5  UNL     1      41.926  16.707  16.291  1.00  0.00     0.082 A 
HETATM    4  C6  UNL     1      42.716  17.142  17.332  1.00  0.00    -0.012 A 
HETATM    5  C7  UNL     1      42.533  16.512  18.523  1.00  0.00    -0.029 A 
HETATM    6  C8  UNL     1      43.286  16.825  19.810  1.00  0.00     0.050 C 
HETATM    7  C9  UNL     1      43.747  18.231  17.242  1.00  0.00     0.037 C 
HETATM    8  C10 UNL     1      43.248  19.567  17.682  1.00  0.00     0.042 C 
HETATM    9  C11 UNL     1      44.335  20.485  17.170  1.00  0.00     0.126 C 
HETATM   10  C13 UNL     1      45.249  19.612  16.293  1.00  0.00     0.029 C 
HETATM   11  C14 UNL     1      45.784  20.332  15.114  1.00  0.00     0.040 C 
HETATM   12  C15 UNL     1      45.349  19.711  13.806  1.00  0.00     0.123 C 
HETATM   13  C16 UNL     1      46.105  18.411  13.498  1.00  0.00     0.038 C 
HETATM   14  C17 UNL     1      46.386  17.803  14.817  1.00  0.00     0.013 A 
HETATM   15  C18 UNL     1      46.134  16.556  15.436  1.00  0.00     0.092 A 
HETATM   16 CL1  UNL     1      46.475  15.087  14.460  1.00  0.00    -0.124 Cl
HETATM   17  C19 UNL     1      44.966  17.342  15.222  1.00  0.00     0.022 A 
HETATM   18  C20 UNL     1      44.315  18.445  15.886  1.00  0.00     0.011 C 
HETATM   19  C21 UNL     1      43.361  19.119  14.904  1.00  0.00     0.177 C 
HETATM   20  O4  UNL     1      44.012  19.621  13.798  1.00  0.00    -0.374 OA
HETATM   21  C22 UNL     1      42.407  18.101  14.311  1.00  0.00     0.013 C 
HETATM   22  C23 UNL     1      42.054  18.194  12.892  1.00  0.00     0.066 C 
HETATM   23  N1  UNL     1      41.839  17.122  14.926  1.00  0.00    -0.355 N 
ATOM     24  H1  UNL     1      41.227  16.550  14.344  1.00  0.00     0.166 HD
ENDROOT
BRANCH   1  25
HETATM   25  C3  UNL     1      41.196  14.678  19.726  1.00  0.00     0.300 C 
HETATM   26  O2  UNL     1      41.439  13.441  19.597  1.00  0.00    -0.259 OA
BRANCH  25  27
HETATM   27  O1  UNL     1      40.613  15.169  20.856  1.00  0.00    -0.317 OA
BRANCH  27  28
HETATM   28  C2  UNL     1      39.198  15.000  20.998  1.00  0.00     0.174 C 
HETATM   29  C1  UNL     1      38.547  16.076  20.177  1.00  0.00     0.034 C 
ENDBRANCH  27  28
ENDBRANCH  25  27
ENDBRANCH   1  25
BRANCH   9  30
HETATM   30  O3  UNL     1      43.895  21.602  16.524  1.00  0.00    -0.390 OA
HETATM   31  C12 UNL     1      43.591  22.586  17.451  1.00  0.00     0.202 C 
ENDBRANCH   9  30
TORSDOF 4
ENDMDL
MODEL 2
REMARK VINA RESULT: -8.436105719      9.505     12.400
REMARK  4 active torsions:
REMARK  status: ('A' for Active; 'I' for Inactive)
REMARK    1  A    between atoms: C2_2  and  O1_3 
REMARK    2  A    between atoms: O1_3  and  C3_4 
REMARK    3  A    between atoms: C3_4  and  C4_6 
REMARK    4  A    between atoms: C11_14  and  O3_15 
ROOT
HETATM    1  C4  UNL     1      32.223  10.962  23.418  1.00  0.00     0.088 A 
HETATM    2  S1  UNL     1      32.541  11.726  21.929  1.00  0.00    -0.065 SA
HETATM    3  C5  UNL     1      33.663  12.885  22.454  1.00  0.00     0.082 A 
HETATM    4  C6  UNL     1      33.774  12.655  23.807  1.00  0.00    -0.012 A 
HETATM    5  C7  UNL     1      33.014  11.643  24.305  1.00  0.00    -0.029 A 
HETATM    6  C8  UNL     1      32.969  11.211  25.764  1.00  0.00     0.050 C 
HETATM    7  C9  UNL     1      34.662  13.420  24.746  1.00  0.00     0.037 C 
HETATM    8  C10 UNL     1      33.962  14.524  25.468  1.00  0.00     0.042 C 
HETATM    9  C11 UNL     1      35.125  15.302  26.041  1.00  0.00     0.126 C 
HETATM   10  C13 UNL     1      36.392  14.696  25.411  1.00  0.00     0.029 C 
HETATM   11  C14 UNL     1      37.442  15.704  25.133  1.00  0.00     0.040 C 
HETATM   12  C15 UNL     1      37.778  15.802  23.662  1.00  0.00     0.123 C 
HETATM   13  C16 UNL     1      38.626  14.617  23.178  1.00  0.00     0.038 C 
HETATM   14  C17 UNL     1      38.193  13.467  24.001  1.00  0.00     0.013 A 
HETATM   15  C18 UNL     1      37.695  12.167  23.751  1.00  0.00     0.092 A 
HETATM   16 CL1  UNL     1      38.546  11.206  22.493  1.00  0.00    -0.124 Cl
HETATM   17  C19 UNL     1      36.788  13.210  23.408  1.00  0.00     0.022 A 
HETATM   18  C20 UNL     1      35.850  14.049  24.113  1.00  0.00     0.011 C 
HETATM   19  C21 UNL     1      35.531  15.266  23.250  1.00  0.00     0.177 C 
HETATM   20  O4  UNL     1      36.648  16.026  22.978  1.00  0.00    -0.374 OA
HETATM   21  C22 UNL     1      35.064  14.833  21.875  1.00  0.00     0.013 C 
HETATM   22  C23 UNL     1      35.506  15.588  20.699  1.00  0.00     0.066 C 
HETATM   23  N1  UNL     1      34.291  13.841  21.597  1.00  0.00    -0.355 N 
ATOM     24  H1  UNL     1      34.095  13.718  20.603  1.00  0.00     0.166 HD
ENDROOT
BRANCH   1  25
HETATM   25  C3  UNL     1      31.306   9.825  23.691  1.00  0.00     0.300 C 
HETATM   26  O2  UNL     1      30.092  10.148  23.867  1.00  0.00    -0.259 OA
BRANCH  25  27
HETATM   27  O1  UNL     1      31.706   8.524  23.755  1.00  0.00    -0.317 OA
BRANCH  27  28
HETATM   28  C2  UNL     1      30.697   7.514  23.640  1.00  0.00     0.174 C 
HETATM   29  C1  UNL     1      30.895   6.568  24.789  1.00  0.00     0.034 C 
ENDBRANCH  27  28
ENDBRANCH  25  27
ENDBRANCH   1  25
BRANCH   9  30
HETATM   30  O3  UNL     1      35.053  16.654  25.882  1.00  0.00    -0.390 OA
HETATM   31  C12 UNL     1      33.883  17.128  26.452  1.00  0.00     0.202 C 
ENDBRANCH   9  30
TORSDOF 4
ENDMDL
MODEL 3
REMARK VINA RESULT: -8.384391395      7.419     10.472
REMARK  4 active torsions:
REMARK  status: ('A' for Active; 'I' for Inactive)
REMARK    1  A    between atoms: C2_2  and  O1_3 
REMARK    2  A    between atoms: O1_3  and  C3_4 
REMARK    3  A    between atoms: C3_4  and  C4_6 
REMARK    4  A    between atoms: C11_14  and  O3_15 
ROOT
HETATM    1  C4  UNL     1      34.030  12.581  24.428  1.00  0.00     0.088 A 
HETATM    2  S1  UNL     1      34.310  14.253  24.595  1.00  0.00    -0.065 SA
HETATM    3  C5  UNL     1      35.866  14.336  23.928  1.00  0.00     0.082 A 
HETATM    4  C6  UNL     1      36.150  13.034  23.578  1.00  0.00    -0.012 A 
HETATM    5  C7  UNL     1      35.180  12.119  23.845  1.00  0.00    -0.029 A 
HETATM    6  C8  UNL     1      35.271  10.628  23.552  1.00  0.00     0.050 C 
HETATM    7  C9  UNL     1      37.423  12.569  22.930  1.00  0.00     0.037 C 
HETATM    8  C10 UNL     1      38.427  12.033  23.897  1.00  0.00     0.042 C 
HETATM    9  C11 UNL     1      39.675  11.977  23.044  1.00  0.00     0.126 C 
HETATM   10  C13 UNL     1      39.322  12.692  21.729  1.00  0.00     0.029 C 
HETATM   11  C14 UNL     1      40.452  13.468  21.167  1.00  0.00     0.040 C 
HETATM   12  C15 UNL     1      40.152  14.946  21.069  1.00  0.00     0.123 C 
HETATM   13  C16 UNL     1      39.202  15.272  19.908  1.00  0.00     0.038 C 
HETATM   14  C17 UNL     1      38.321  14.091  19.783  1.00  0.00     0.013 A 
HETATM   15  C18 UNL     1      36.925  13.858  19.791  1.00  0.00     0.092 A 
HETATM   16 CL1  UNL     1      35.916  14.968  18.803  1.00  0.00    -0.124 Cl
HETATM   17  C19 UNL     1      37.453  14.252  21.054  1.00  0.00     0.022 A 
HETATM   18  C20 UNL     1      38.141  13.605  22.144  1.00  0.00     0.011 C 
HETATM   19  C21 UNL     1      38.835  14.669  22.991  1.00  0.00     0.177 C 
HETATM   20  O4  UNL     1      39.768  15.386  22.275  1.00  0.00    -0.374 OA
HETATM   21  C22 UNL     1      37.842  15.728  23.426  1.00  0.00     0.013 C 
HETATM   22  C23 UNL     1      38.257  17.133  23.439  1.00  0.00     0.066 C 
HETATM   23  N1  UNL     1      36.625  15.541  23.805  1.00  0.00    -0.355 N 
ATOM     24  H1  UNL     1      36.122  16.390  24.059  1.00  0.00     0.166 HD
ENDROOT
BRANCH   1  25
HETATM   25  C3  UNL     1      32.825  11.806  24.820  1.00  0.00     0.300 C 
HETATM   26  O2  UNL     1      32.914  11.204  25.933  1.00  0.00    -0.259 OA
BRANCH  25  27
HETATM   27  O1  UNL     1      31.693  11.726  24.064  1.00  0.00    -0.317 OA
BRANCH  27  28
HETATM   28  C2  UNL     1      31.576  10.619  23.164  1.00  0.00     0.174 C 
HETATM   29  C1  UNL     1      31.713  11.172  21.774  1.00  0.00     0.034 C 
ENDBRANCH  27  28
ENDBRANCH  25  27
ENDBRANCH   1  25
BRANCH   9  30
HETATM   30  O3  UNL     1      40.800  12.476  23.630  1.00  0.00    -0.390 OA
HETATM   31  C12 UNL     1      40.564  12.701  24.976  1.00  0.00     0.202 C 
ENDBRANCH   9  30
TORSDOF 4
ENDMDL
MODEL 4
REMARK VINA RESULT: -8.180771288      4.662      9.997
REMARK  4 active torsions:
REMARK  status: ('A' for Active; 'I' for Inactive)
REMARK    1  A    between atoms: C2_2  and  O1_3 
REMARK    2  A    between atoms: O1_3  and  C3_4 
REMARK    3  A    between atoms: C3_4  and  C4_6 
REMARK    4  A    between atoms: C11_14  and  O3_15 
ROOT
HETATM    1  C4  UNL     1      40.345  14.440  18.922  1.00  0.00     0.088 A 
HETATM    2  S1  UNL     1      39.811  12.887  19.371  1.00  0.00    -0.065 SA
HETATM    3  C5  UNL     1      39.114  13.263  20.871  1.00  0.00     0.082 A 
HETATM    4  C6  UNL     1      39.312  14.619  21.001  1.00  0.00    -0.012 A 
HETATM    5  C7  UNL     1      39.960  15.229  19.973  1.00  0.00    -0.029 A 
HETATM    6  C8  UNL     1      40.294  16.713  19.898  1.00  0.00     0.050 C 
HETATM    7  C9  UNL     1      38.865  15.453  22.168  1.00  0.00     0.037 C 
HETATM    8  C10 UNL     1      39.931  15.674  23.191  1.00  0.00     0.042 C 
HETATM    9  C11 UNL     1      39.131  16.213  24.356  1.00  0.00     0.126 C 
HETATM   10  C13 UNL     1      37.652  16.046  23.969  1.00  0.00     0.029 C 
HETATM   11  C14 UNL     1      36.786  15.699  25.120  1.00  0.00     0.040 C 
HETATM   12  C15 UNL     1      36.107  14.358  24.954  1.00  0.00     0.123 C 
HETATM   13  C16 UNL     1      34.947  14.412  23.950  1.00  0.00     0.038 C 
HETATM   14  C17 UNL     1      35.342  15.431  22.953  1.00  0.00     0.013 A 
HETATM   15  C18 UNL     1      35.492  15.473  21.547  1.00  0.00     0.092 A 
HETATM   16 CL1  UNL     1      34.174  14.738  20.573  1.00  0.00    -0.124 Cl
HETATM   17  C19 UNL     1      36.468  14.674  22.209  1.00  0.00     0.022 A 
HETATM   18  C20 UNL     1      37.702  14.909  22.917  1.00  0.00     0.011 C 
HETATM   19  C21 UNL     1      38.021  13.687  23.773  1.00  0.00     0.177 C 
HETATM   20  O4  UNL     1      37.044  13.431  24.711  1.00  0.00    -0.374 OA
HETATM   21  C22 UNL     1      38.023  12.432  22.923  1.00  0.00     0.013 C 
HETATM   22  C23 UNL     1      37.451  11.199  23.470  1.00  0.00     0.066 C 
HETATM   23  N1  UNL     1      38.487  12.306  21.728  1.00  0.00    -0.355 N 
ATOM     24  H1  UNL     1      38.392  11.373  21.330  1.00  0.00     0.166 HD
ENDROOT
BRANCH   1  25
HETATM   25  C3  UNL     1      41.059  14.845  17.683  1.00  0.00     0.300 C 
HETATM   26  O2  UNL     1      40.328  15.372  16.792  1.00  0.00    -0.259 OA
BRANCH  25  27
HETATM   27  O1  UNL     1      42.398  14.676  17.488  1.00  0.00    -0.317 OA
BRANCH  27  28
HETATM   28  C2  UNL     1      43.081  15.660  16.703  1.00  0.00     0.174 C 
HETATM   29  C1  UNL     1      43.295  16.852  17.591  1.00  0.00     0.034 C 
ENDBRANCH  27  28
ENDBRANCH  25  27
ENDBRANCH   1  25
BRANCH   9  30
HETATM   30  O3  UNL     1      39.425  15.660  25.567  1.00  0.00    -0.390 OA
HETATM   31  C12 UNL     1      40.720  15.167  25.552  1.00  0.00     0.202 C 
ENDBRANCH   9  30
TORSDOF 4
ENDMDL
MODEL 5
REMARK VINA RESULT: -8.142228416      7.436     11.194
REMARK  4 active torsions:
REMARK  status: ('A' for Active; 'I' for Inactive)
REMARK    1  A    between atoms: C2_2  and  O1_3 
REMARK    2  A    between atoms: O1_3  and  C3_4 
REMARK    3  A    between atoms: C3_4  and  C4_6 
REMARK    4  A    between atoms: C11_14  and  O3_15 
ROOT
HETATM    1  C4  UNL     1      33.520  11.577  22.670  1.00  0.00     0.088 A 
HETATM    2  S1  UNL     1      34.692  10.828  23.652  1.00  0.00    -0.065 SA
HETATM    3  C5  UNL     1      35.966  11.927  23.440  1.00  0.00     0.082 A 
HETATM    4  C6  UNL     1      35.449  12.879  22.590  1.00  0.00    -0.012 A 
HETATM    5  C7  UNL     1      34.164  12.687  22.191  1.00  0.00    -0.029 A 
HETATM    6  C8  UNL     1      33.387  13.602  21.254  1.00  0.00     0.050 C 
HETATM    7  C9  UNL     1      36.186  14.090  22.094  1.00  0.00     0.037 C 
HETATM    8  C10 UNL     1      36.808  13.904  20.749  1.00  0.00     0.042 C 
HETATM    9  C11 UNL     1      37.733  15.098  20.671  1.00  0.00     0.126 C 
HETATM   10  C13 UNL     1      37.718  15.739  22.070  1.00  0.00     0.029 C 
HETATM   11  C14 UNL     1      39.033  16.293  22.470  1.00  0.00     0.040 C 
HETATM   12  C15 UNL     1      39.594  15.626  23.705  1.00  0.00     0.123 C 
HETATM   13  C16 UNL     1      38.883  16.081  24.987  1.00  0.00     0.038 C 
HETATM   14  C17 UNL     1      37.489  16.359  24.581  1.00  0.00     0.013 A 
HETATM   15  C18 UNL     1      36.205  15.927  24.991  1.00  0.00     0.092 A 
HETATM   16 CL1  UNL     1      35.895  15.882  26.760  1.00  0.00    -0.124 Cl
HETATM   17  C19 UNL     1      36.974  14.919  24.341  1.00  0.00     0.022 A 
HETATM   18  C20 UNL     1      37.284  14.561  22.978  1.00  0.00     0.011 C 
HETATM   19  C21 UNL     1      38.523  13.671  22.971  1.00  0.00     0.177 C 
HETATM   20  O4  UNL     1      39.628  14.302  23.499  1.00  0.00    -0.374 OA
HETATM   21  C22 UNL     1      38.327  12.485  23.895  1.00  0.00     0.013 C 
HETATM   22  C23 UNL     1      39.450  12.028  24.718  1.00  0.00     0.066 C 
HETATM   23  N1  UNL     1      37.251  11.796  24.054  1.00  0.00    -0.355 N 
ATOM     24  H1  UNL     1      37.328  11.033  24.726  1.00  0.00     0.166 HD
ENDROOT
BRANCH   1  25
HETATM   25  C3  UNL     1      32.128  11.134  22.397  1.00  0.00     0.300 C 
HETATM   26  O2  UNL     1      31.905  10.779  21.201  1.00  0.00    -0.259 OA
BRANCH  25  27
HETATM   27  O1  UNL     1      31.143  11.100  23.339  1.00  0.00    -0.317 OA
BRANCH  27  28
HETATM   28  C2  UNL     1      30.468   9.854  23.545  1.00  0.00     0.174 C 
HETATM   29  C1  UNL     1      31.453   8.929  24.199  1.00  0.00     0.034 C 
ENDBRANCH  27  28
ENDBRANCH  25  27
ENDBRANCH   1  25
BRANCH   9  30
HETATM   30  O3  UNL     1      38.994  14.828  20.229  1.00  0.00    -0.390 OA
HETATM   31  C12 UNL     1      39.173  15.374  18.969  1.00  0.00     0.202 C 
ENDBRANCH   9  30
TORSDOF 4
ENDMDL
