MODEL 1
REMARK VINA RESULT: -7.911728347      0.000      0.000
REMARK  6 active torsions:
REMARK  status: ('A' for Active; 'I' for Inactive)
REMARK    1  A    between atoms: C11_11  and  O1_12 
REMARK    2  A    between atoms: O1_12  and  C12_13 
REMARK    3  A    between atoms: C19_22  and  O4_23 
REMARK    4  A    between atoms: C21_25  and  O5_26 
REMARK    5  A    between atoms: O5_26  and  C22_27 
REMARK    6  A    between atoms: C22_27  and  C23_29 
ROOT
HETATM    1  C1  UNL     1      36.101  12.341  23.441  1.00  0.00     0.015 C 
HETATM    2  C2  UNL     1      35.392  13.403  23.128  1.00  0.00    -0.075 C 
HETATM    3  C3  UNL     1      33.931  13.099  23.131  1.00  0.00     0.039 C 
HETATM    4  C4  UNL     1      33.217  13.003  24.367  1.00  0.00    -0.004 C 
HETATM    5  C5  UNL     1      32.658  11.558  24.443  1.00  0.00     0.005 C 
HETATM    6  C6  UNL     1      31.554  11.428  25.413  1.00  0.00     0.001 C 
HETATM    7  C7  UNL     1      32.016  11.889  26.785  1.00  0.00     0.005 C 
HETATM    8  C8  UNL     1      32.483  13.326  26.552  1.00  0.00    -0.012 C 
HETATM    9  C9  UNL     1      32.449  14.033  27.824  1.00  0.00     0.010 C 
HETATM   10  C10 UNL     1      33.746  13.299  25.715  1.00  0.00     0.023 C 
HETATM   11  C11 UNL     1      34.636  14.431  25.917  1.00  0.00     0.139 C 
HETATM   12  C14 UNL     1      34.919  15.403  24.834  1.00  0.00     0.071 C 
HETATM   13  C15 UNL     1      36.198  15.416  24.118  1.00  0.00     0.074 C 
HETATM   14  C16 UNL     1      36.487  16.866  23.657  1.00  0.00     0.047 C 
HETATM   15  O3  UNL     1      37.289  15.022  24.798  1.00  0.00    -0.368 OA
HETATM   16  C17 UNL     1      38.490  15.050  24.195  1.00  0.00     0.177 C 
HETATM   17  C18 UNL     1      39.240  16.325  24.528  1.00  0.00     0.046 C 
HETATM   18  C19 UNL     1      38.506  14.699  22.785  1.00  0.00     0.104 C 
HETATM   19  C21 UNL     1      37.374  14.504  22.100  1.00  0.00     0.099 C 
HETATM   20  C24 UNL     1      36.109  14.655  22.821  1.00  0.00     0.108 C 
ENDROOT
BRANCH  19  21
HETATM   21  O5  UNL     1      37.539  14.180  20.779  1.00  0.00    -0.279 OA
BRANCH  21  22
HETATM   22  C22 UNL     1      37.355  14.939  19.676  1.00  0.00     0.277 C 
HETATM   23  O6  UNL     1      38.298  15.634  19.245  1.00  0.00    -0.264 OA
BRANCH  22  24
HETATM   24  C23 UNL     1      36.019  14.955  18.956  1.00  0.00     0.226 C 
HETATM   25 CL1  UNL     1      34.975  16.106  19.797  1.00  0.00    -0.120 Cl
ENDBRANCH  22  24
ENDBRANCH  21  22
ENDBRANCH  19  21
BRANCH  18  26
HETATM   26  O4  UNL     1      39.753  14.569  22.162  1.00  0.00    -0.355 OA
HETATM   27  C20 UNL     1      40.410  13.323  22.353  1.00  0.00     0.209 C 
ENDBRANCH  18  26
BRANCH  11  28
HETATM   28  O1  UNL     1      35.837  14.189  26.574  1.00  0.00    -0.316 OA
BRANCH  28  29
HETATM   29  C12 UNL     1      36.328  14.523  27.767  1.00  0.00     0.255 C 
HETATM   30  C13 UNL     1      35.875  15.673  28.587  1.00  0.00     0.126 C 
HETATM   31  O2  UNL     1      37.230  13.821  28.217  1.00  0.00    -0.266 OA
ENDBRANCH  28  29
ENDBRANCH  11  28
TORSDOF 6
ENDMDL
MODEL 2
REMARK VINA RESULT: -7.876470526      1.065      1.114
REMARK  6 active torsions:
REMARK  status: ('A' for Active; 'I' for Inactive)
REMARK    1  A    between atoms: C11_11  and  O1_12 
REMARK    2  A    between atoms: O1_12  and  C12_13 
REMARK    3  A    between atoms: C19_22  and  O4_23 
REMARK    4  A    between atoms: C21_25  and  O5_26 
REMARK    5  A    between atoms: O5_26  and  C22_27 
REMARK    6  A    between atoms: C22_27  and  C23_29 
ROOT
HETATM    1  C1  UNL     1      35.705  12.024  23.718  1.00  0.00     0.015 C 
HETATM    2  C2  UNL     1      34.988  13.069  23.372  1.00  0.00    -0.075 C 
HETATM    3  C3  UNL     1      33.529  12.758  23.398  1.00  0.00     0.039 C 
HETATM    4  C4  UNL     1      32.825  12.705  24.643  1.00  0.00    -0.004 C 
HETATM    5  C5  UNL     1      32.275  11.262  24.778  1.00  0.00     0.005 C 
HETATM    6  C6  UNL     1      31.179  11.164  25.761  1.00  0.00     0.001 C 
HETATM    7  C7  UNL     1      31.650  11.678  27.111  1.00  0.00     0.005 C 
HETATM    8  C8  UNL     1      32.108  13.107  26.820  1.00  0.00    -0.012 C 
HETATM    9  C9  UNL     1      32.080  13.863  28.065  1.00  0.00     0.010 C 
HETATM   10  C10 UNL     1      33.364  13.055  25.975  1.00  0.00     0.023 C 
HETATM   11  C11 UNL     1      34.249  14.198  26.126  1.00  0.00     0.139 C 
HETATM   12  C14 UNL     1      34.518  15.130  25.005  1.00  0.00     0.071 C 
HETATM   13  C15 UNL     1      35.791  15.122  24.278  1.00  0.00     0.074 C 
HETATM   14  C16 UNL     1      36.069  16.555  23.760  1.00  0.00     0.047 C 
HETATM   15  O3  UNL     1      36.891  14.760  24.963  1.00  0.00    -0.368 OA
HETATM   16  C17 UNL     1      38.086  14.770  24.350  1.00  0.00     0.177 C 
HETATM   17  C18 UNL     1      38.832  16.061  24.628  1.00  0.00     0.046 C 
HETATM   18  C19 UNL     1      38.092  14.366  22.954  1.00  0.00     0.104 C 
HETATM   19  C21 UNL     1      36.956  14.140  22.286  1.00  0.00     0.099 C 
HETATM   20  C24 UNL     1      35.696  14.312  23.011  1.00  0.00     0.108 C 
ENDROOT
BRANCH  19  21
HETATM   21  O5  UNL     1      37.112  13.767  20.977  1.00  0.00    -0.279 OA
BRANCH  21  22
HETATM   22  C22 UNL     1      36.604  14.324  19.855  1.00  0.00     0.277 C 
HETATM   23  O6  UNL     1      35.634  13.782  19.286  1.00  0.00    -0.264 OA
BRANCH  22  24
HETATM   24  C23 UNL     1      37.196  15.598  19.282  1.00  0.00     0.226 C 
HETATM   25 CL1  UNL     1      38.932  15.334  19.078  1.00  0.00    -0.120 Cl
ENDBRANCH  22  24
ENDBRANCH  21  22
ENDBRANCH  19  21
BRANCH  18  26
HETATM   26  O4  UNL     1      39.335  14.219  22.325  1.00  0.00    -0.355 OA
HETATM   27  C20 UNL     1      40.100  13.091  22.732  1.00  0.00     0.209 C 
ENDBRANCH  18  26
BRANCH  11  28
HETATM   28  O1  UNL     1      35.457  13.987  26.781  1.00  0.00    -0.316 OA
BRANCH  28  29
HETATM   29  C12 UNL     1      35.938  14.328  27.976  1.00  0.00     0.255 C 
HETATM   30  C13 UNL     1      35.919  15.697  28.547  1.00  0.00     0.126 C 
HETATM   31  O2  UNL     1      36.441  13.435  28.653  1.00  0.00    -0.266 OA
ENDBRANCH  28  29
ENDBRANCH  11  28
TORSDOF 6
ENDMDL
MODEL 3
REMARK VINA RESULT: -7.738438740      1.305      1.545
REMARK  6 active torsions:
REMARK  status: ('A' for Active; 'I' for Inactive)
REMARK    1  A    between atoms: C11_11  and  O1_12 
REMARK    2  A    between atoms: O1_12  and  C12_13 
REMARK    3  A    between atoms: C19_22  and  O4_23 
REMARK    4  A    between atoms: C21_25  and  O5_26 
REMARK    5  A    between atoms: O5_26  and  C22_27 
REMARK    6  A    between atoms: C22_27  and  C23_29 
ROOT
HETATM    1  C1  UNL     1      36.351  12.872  23.195  1.00  0.00     0.015 C 
HETATM    2  C2  UNL     1      35.818  14.073  23.159  1.00  0.00    -0.075 C 
HETATM    3  C3  UNL     1      34.381  14.040  23.562  1.00  0.00     0.039 C 
HETATM    4  C4  UNL     1      34.022  13.936  24.943  1.00  0.00    -0.004 C 
HETATM    5  C5  UNL     1      33.220  12.617  25.093  1.00  0.00     0.005 C 
HETATM    6  C6  UNL     1      32.415  12.582  26.329  1.00  0.00     0.001 C 
HETATM    7  C7  UNL     1      33.314  12.794  27.536  1.00  0.00     0.005 C 
HETATM    8  C8  UNL     1      33.986  14.140  27.261  1.00  0.00    -0.012 C 
HETATM    9  C9  UNL     1      34.441  14.694  28.528  1.00  0.00     0.010 C 
HETATM   10  C10 UNL     1      34.944  13.978  26.099  1.00  0.00     0.023 C 
HETATM   11  C11 UNL     1      36.068  14.901  26.101  1.00  0.00     0.139 C 
HETATM   12  C14 UNL     1      36.242  15.921  25.040  1.00  0.00     0.071 C 
HETATM   13  C15 UNL     1      37.256  15.782  23.990  1.00  0.00     0.074 C 
HETATM   14  C16 UNL     1      37.702  17.199  23.549  1.00  0.00     0.047 C 
HETATM   15  O3  UNL     1      38.385  15.123  24.306  1.00  0.00    -0.368 OA
HETATM   16  C17 UNL     1      39.358  15.001  23.388  1.00  0.00     0.177 C 
HETATM   17  C18 UNL     1      40.416  16.073  23.564  1.00  0.00     0.046 C 
HETATM   18  C19 UNL     1      38.922  14.813  22.014  1.00  0.00     0.104 C 
HETATM   19  C21 UNL     1      37.632  14.905  21.671  1.00  0.00     0.099 C 
HETATM   20  C24 UNL     1      36.667  15.200  22.731  1.00  0.00     0.108 C 
ENDROOT
BRANCH  19  21
HETATM   21  O5  UNL     1      37.366  14.706  20.342  1.00  0.00    -0.279 OA
BRANCH  21  22
HETATM   22  C22 UNL     1      36.183  14.725  19.688  1.00  0.00     0.277 C 
HETATM   23  O6  UNL     1      35.652  13.648  19.349  1.00  0.00    -0.264 OA
BRANCH  22  24
HETATM   24  C23 UNL     1      35.494  16.038  19.362  1.00  0.00     0.226 C 
HETATM   25 CL1  UNL     1      34.116  16.202  20.456  1.00  0.00    -0.120 Cl
ENDBRANCH  22  24
ENDBRANCH  21  22
ENDBRANCH  19  21
BRANCH  18  26
HETATM   26  O4  UNL     1      39.901  14.531  21.054  1.00  0.00    -0.355 OA
HETATM   27  C20 UNL     1      40.574  13.288  21.209  1.00  0.00     0.209 C 
ENDBRANCH  18  26
BRANCH  11  28
HETATM   28  O1  UNL     1      37.325  14.373  26.373  1.00  0.00    -0.316 OA
BRANCH  28  29
HETATM   29  C12 UNL     1      38.073  14.269  27.471  1.00  0.00     0.255 C 
HETATM   30  C13 UNL     1      39.344  14.994  27.712  1.00  0.00     0.126 C 
HETATM   31  O2  UNL     1      37.675  13.507  28.348  1.00  0.00    -0.266 OA
ENDBRANCH  28  29
ENDBRANCH  11  28
TORSDOF 6
ENDMDL
MODEL 4
REMARK VINA RESULT: -7.555708317      2.075      3.416
REMARK  6 active torsions:
REMARK  status: ('A' for Active; 'I' for Inactive)
REMARK    1  A    between atoms: C11_11  and  O1_12 
REMARK    2  A    between atoms: O1_12  and  C12_13 
REMARK    3  A    between atoms: C19_22  and  O4_23 
REMARK    4  A    between atoms: C21_25  and  O5_26 
REMARK    5  A    between atoms: O5_26  and  C22_27 
REMARK    6  A    between atoms: C22_27  and  C23_29 
ROOT
HETATM    1  C1  UNL     1      36.035  13.913  22.785  1.00  0.00     0.015 C 
HETATM    2  C2  UNL     1      36.541  15.112  22.974  1.00  0.00    -0.075 C 
HETATM    3  C3  UNL     1      35.677  15.930  23.873  1.00  0.00     0.039 C 
HETATM    4  C4  UNL     1      35.700  15.713  25.288  1.00  0.00    -0.004 C 
HETATM    5  C5  UNL     1      34.264  15.287  25.692  1.00  0.00     0.005 C 
HETATM    6  C6  UNL     1      34.010  15.454  27.136  1.00  0.00     0.001 C 
HETATM    7  C7  UNL     1      35.039  14.671  27.934  1.00  0.00     0.005 C 
HETATM    8  C8  UNL     1      36.378  15.237  27.462  1.00  0.00    -0.012 C 
HETATM    9  C9  UNL     1      37.378  14.969  28.486  1.00  0.00     0.010 C 
HETATM   10  C10 UNL     1      36.608  14.811  26.026  1.00  0.00     0.023 C 
HETATM   11  C11 UNL     1      38.006  14.706  25.637  1.00  0.00     0.139 C 
HETATM   12  C14 UNL     1      38.598  15.594  24.608  1.00  0.00     0.071 C 
HETATM   13  C15 UNL     1      38.908  15.116  23.257  1.00  0.00     0.074 C 
HETATM   14  C16 UNL     1      40.110  15.927  22.714  1.00  0.00     0.047 C 
HETATM   15  O3  UNL     1      39.247  13.821  23.124  1.00  0.00    -0.368 OA
HETATM   16  C17 UNL     1      39.573  13.345  21.910  1.00  0.00     0.177 C 
HETATM   17  C18 UNL     1      41.077  13.340  21.710  1.00  0.00     0.046 C 
HETATM   18  C19 UNL     1      38.824  13.885  20.788  1.00  0.00     0.104 C 
HETATM   19  C21 UNL     1      37.966  14.899  20.943  1.00  0.00     0.099 C 
HETATM   20  C24 UNL     1      37.803  15.451  22.289  1.00  0.00     0.108 C 
ENDROOT
BRANCH  19  21
HETATM   21  O5  UNL     1      37.330  15.306  19.800  1.00  0.00    -0.279 OA
BRANCH  21  22
HETATM   22  C22 UNL     1      36.047  15.127  19.417  1.00  0.00     0.277 C 
HETATM   23  O6  UNL     1      35.630  13.972  19.188  1.00  0.00    -0.264 OA
BRANCH  22  24
HETATM   24  C23 UNL     1      35.107  16.309  19.262  1.00  0.00     0.226 C 
HETATM   25 CL1  UNL     1      34.058  16.345  20.684  1.00  0.00    -0.120 Cl
ENDBRANCH  22  24
ENDBRANCH  21  22
ENDBRANCH  19  21
BRANCH  18  26
HETATM   26  O4  UNL     1      39.030  13.305  19.530  1.00  0.00    -0.355 OA
HETATM   27  C20 UNL     1      38.916  11.889  19.480  1.00  0.00     0.209 C 
ENDBRANCH  18  26
BRANCH  11  28
HETATM   28  O1  UNL     1      38.512  13.430  25.418  1.00  0.00    -0.316 OA
BRANCH  28  29
HETATM   29  C12 UNL     1      39.538  12.739  25.913  1.00  0.00     0.255 C 
HETATM   30  C13 UNL     1      40.671  13.318  26.677  1.00  0.00     0.126 C 
HETATM   31  O2  UNL     1      39.544  11.527  25.716  1.00  0.00    -0.266 OA
ENDBRANCH  28  29
ENDBRANCH  11  28
TORSDOF 6
ENDMDL
MODEL 5
REMARK VINA RESULT: -7.502012410      2.778      6.222
REMARK  6 active torsions:
REMARK  status: ('A' for Active; 'I' for Inactive)
REMARK    1  A    between atoms: C11_11  and  O1_12 
REMARK    2  A    between atoms: O1_12  and  C12_13 
REMARK    3  A    between atoms: C19_22  and  O4_23 
REMARK    4  A    between atoms: C21_25  and  O5_26 
REMARK    5  A    between atoms: O5_26  and  C22_27 
REMARK    6  A    between atoms: C22_27  and  C23_29 
ROOT
HETATM    1  C1  UNL     1      36.898  16.799  24.224  1.00  0.00     0.015 C 
HETATM    2  C2  UNL     1      36.393  15.586  24.248  1.00  0.00    -0.075 C 
HETATM    3  C3  UNL     1      35.079  15.532  23.543  1.00  0.00     0.039 C 
HETATM    4  C4  UNL     1      35.029  15.510  22.113  1.00  0.00    -0.004 C 
HETATM    5  C5  UNL     1      34.254  16.782  21.679  1.00  0.00     0.005 C 
HETATM    6  C6  UNL     1      33.738  16.687  20.299  1.00  0.00     0.001 C 
HETATM    7  C7  UNL     1      34.883  16.412  19.339  1.00  0.00     0.005 C 
HETATM    8  C8  UNL     1      35.504  15.119  19.869  1.00  0.00    -0.012 C 
HETATM    9  C9  UNL     1      36.235  14.481  18.783  1.00  0.00     0.010 C 
HETATM   10  C10 UNL     1      36.181  15.409  21.192  1.00  0.00     0.023 C 
HETATM   11  C11 UNL     1      37.296  14.533  21.513  1.00  0.00     0.139 C 
HETATM   12  C14 UNL     1      37.253  13.609  22.672  1.00  0.00     0.071 C 
HETATM   13  C15 UNL     1      38.010  13.870  23.900  1.00  0.00     0.074 C 
HETATM   14  C16 UNL     1      38.375  12.512  24.549  1.00  0.00     0.047 C 
HETATM   15  O3  UNL     1      39.168  14.543  23.779  1.00  0.00    -0.368 OA
HETATM   16  C17 UNL     1      39.914  14.776  24.872  1.00  0.00     0.177 C 
HETATM   17  C18 UNL     1      41.005  13.733  25.022  1.00  0.00     0.046 C 
HETATM   18  C19 UNL     1      39.185  15.058  26.097  1.00  0.00     0.104 C 
HETATM   19  C21 UNL     1      37.853  14.946  26.160  1.00  0.00     0.099 C 
HETATM   20  C24 UNL     1      37.149  14.530  24.946  1.00  0.00     0.108 C 
ENDROOT
BRANCH  19  21
HETATM   21  O5  UNL     1      37.299  15.241  27.377  1.00  0.00    -0.279 OA
BRANCH  21  22
HETATM   22  C22 UNL     1      36.113  14.858  27.900  1.00  0.00     0.277 C 
HETATM   23  O6  UNL     1      36.027  13.759  28.486  1.00  0.00    -0.264 OA
BRANCH  22  24
HETATM   24  C23 UNL     1      34.888  15.746  27.784  1.00  0.00     0.226 C 
HETATM   25 CL1  UNL     1      33.673  14.859  26.855  1.00  0.00    -0.120 Cl
ENDBRANCH  22  24
ENDBRANCH  21  22
ENDBRANCH  19  21
BRANCH  18  26
HETATM   26  O4  UNL     1      39.925  15.453  27.218  1.00  0.00    -0.355 OA
HETATM   27  C20 UNL     1      40.086  14.466  28.228  1.00  0.00     0.209 C 
ENDBRANCH  18  26
BRANCH  11  28
HETATM   28  O1  UNL     1      38.571  15.083  21.475  1.00  0.00    -0.316 OA
BRANCH  28  29
HETATM   29  C12 UNL     1      39.557  15.085  20.578  1.00  0.00     0.255 C 
HETATM   30  C13 UNL     1      39.594  15.916  19.350  1.00  0.00     0.126 C 
HETATM   31  O2  UNL     1      40.506  14.335  20.788  1.00  0.00    -0.266 OA
ENDBRANCH  28  29
ENDBRANCH  11  28
TORSDOF 6
ENDMDL
