MODEL 1
REMARK VINA RESULT: -4.812509230      0.000      0.000
REMARK  1 active torsions:
REMARK  status: ('A' for Active; 'I' for Inactive)
REMARK    1  A    between atoms: O1_1  and  C1_3 
ROOT
HETATM    1  C1  UNL     1      16.281   1.218  16.264  1.00  0.00     0.128 C 
HETATM    2  C2  UNL     1      15.080   0.975  17.110  1.00  0.00     0.033 C 
HETATM    3  C3  UNL     1      13.918   1.879  16.802  1.00  0.00     0.013 C 
HETATM    4  C4  UNL     1      14.242   3.261  17.311  1.00  0.00     0.086 C 
HETATM    5  S1  UNL     1      14.923   4.334  16.053  1.00  0.00    -0.098 SA
HETATM    6  S2  UNL     1      15.915   3.294  14.529  1.00  0.00    -0.095 SA
HETATM    7  C5  UNL     1      15.995   1.502  14.831  1.00  0.00     0.117 C 
ENDROOT
BRANCH   1   8
HETATM    8  O1  UNL     1      17.061   0.039  16.299  1.00  0.00    -0.395 OA
ATOM      9  H1  UNL     1      17.907   0.252  15.924  1.00  0.00     0.210 HD
ENDBRANCH   1   8
TORSDOF 1
ENDMDL
MODEL 2
REMARK VINA RESULT: -4.059490638      1.447      2.603
REMARK  1 active torsions:
REMARK  status: ('A' for Active; 'I' for Inactive)
REMARK    1  A    between atoms: O1_1  and  C1_3 
ROOT
HETATM    1  C1  UNL     1      14.765   1.189  16.714  1.00  0.00     0.128 C 
HETATM    2  C2  UNL     1      16.070   1.031  16.013  1.00  0.00     0.033 C 
HETATM    3  C3  UNL     1      16.781   2.329  15.740  1.00  0.00     0.013 C 
HETATM    4  C4  UNL     1      16.048   3.049  14.636  1.00  0.00     0.086 C 
HETATM    5  S1  UNL     1      14.873   4.255  15.239  1.00  0.00    -0.098 SA
HETATM    6  S2  UNL     1      14.139   3.810  17.149  1.00  0.00    -0.095 SA
HETATM    7  C5  UNL     1      14.747   2.219  17.788  1.00  0.00     0.117 C 
ENDROOT
BRANCH   1   8
HETATM    8  O1  UNL     1      14.473  -0.050  17.332  1.00  0.00    -0.395 OA
ATOM      9  H1  UNL     1      13.902  -0.529  16.741  1.00  0.00     0.210 HD
ENDBRANCH   1   8
TORSDOF 1
ENDMDL
MODEL 3
REMARK VINA RESULT: -3.963613767      4.671      6.128
REMARK  1 active torsions:
REMARK  status: ('A' for Active; 'I' for Inactive)
REMARK    1  A    between atoms: O1_1  and  C1_3 
ROOT
HETATM    1  C1  UNL     1      16.574   1.757  11.166  1.00  0.00     0.128 C 
HETATM    2  C2  UNL     1      17.108   0.396  10.880  1.00  0.00     0.033 C 
HETATM    3  C3  UNL     1      18.480   0.144  11.443  1.00  0.00     0.013 C 
HETATM    4  C4  UNL     1      19.480   0.924  10.627  1.00  0.00     0.086 C 
HETATM    5  S1  UNL     1      19.890   2.511  11.343  1.00  0.00    -0.098 SA
HETATM    6  S2  UNL     1      18.362   3.297  12.540  1.00  0.00    -0.095 SA
HETATM    7  C5  UNL     1      16.859   2.270  12.533  1.00  0.00     0.117 C 
ENDROOT
BRANCH   1   8
HETATM    8  O1  UNL     1      15.167   1.686  11.042  1.00  0.00    -0.395 OA
ATOM      9  H1  UNL     1      14.803   1.828  11.908  1.00  0.00     0.210 HD
ENDBRANCH   1   8
TORSDOF 1
ENDMDL
MODEL 4
REMARK VINA RESULT: -3.903478957      2.717      3.030
REMARK  1 active torsions:
REMARK  status: ('A' for Active; 'I' for Inactive)
REMARK    1  A    between atoms: O1_1  and  C1_3 
ROOT
HETATM    1  C1  UNL     1      14.821   3.122  15.305  1.00  0.00     0.128 C 
HETATM    2  C2  UNL     1      14.299   3.810  16.519  1.00  0.00     0.033 C 
HETATM    3  C3  UNL     1      14.747   3.191  17.815  1.00  0.00     0.013 C 
HETATM    4  C4  UNL     1      14.015   1.885  17.997  1.00  0.00     0.086 C 
HETATM    5  S1  UNL     1      14.950   0.468  17.435  1.00  0.00    -0.098 SA
HETATM    6  S2  UNL     1      16.329   0.934  15.929  1.00  0.00    -0.095 SA
HETATM    7  C5  UNL     1      16.236   2.671  15.397  1.00  0.00     0.117 C 
ENDROOT
BRANCH   1   8
HETATM    8  O1  UNL     1      14.757   4.051  14.240  1.00  0.00    -0.395 OA
ATOM      9  H1  UNL     1      15.359   3.750  13.570  1.00  0.00     0.210 HD
ENDBRANCH   1   8
TORSDOF 1
ENDMDL
MODEL 5
REMARK VINA RESULT: -3.813773911      1.878      2.511
REMARK  1 active torsions:
REMARK  status: ('A' for Active; 'I' for Inactive)
REMARK    1  A    between atoms: O1_1  and  C1_3 
ROOT
HETATM    1  C1  UNL     1      15.886   1.149  15.156  1.00  0.00     0.128 C 
HETATM    2  C2  UNL     1      16.435   2.392  14.548  1.00  0.00     0.033 C 
HETATM    3  C3  UNL     1      16.390   3.591  15.457  1.00  0.00     0.013 C 
HETATM    4  C4  UNL     1      14.957   4.045  15.575  1.00  0.00     0.086 C 
HETATM    5  S1  UNL     1      14.127   3.392  17.019  1.00  0.00    -0.098 SA
HETATM    6  S2  UNL     1      14.925   1.570  17.676  1.00  0.00    -0.095 SA
HETATM    7  C5  UNL     1      16.237   0.938  16.586  1.00  0.00     0.117 C 
ENDROOT
BRANCH   1   8
HETATM    8  O1  UNL     1      16.430   0.059  14.436  1.00  0.00    -0.395 OA
ATOM      9  H1  UNL     1      15.739  -0.281  13.879  1.00  0.00     0.210 HD
ENDBRANCH   1   8
TORSDOF 1
ENDMDL
