MODEL 1
REMARK VINA RESULT: -5.650877684      0.000      0.000
REMARK  0 active torsions:
REMARK  status: ('A' for Active; 'I' for Inactive)
ROOT
HETATM    1  C1  UNL     1      14.186   4.216  16.654  1.00  0.00     0.000 C 
HETATM    2  C2  UNL     1      14.564   3.031  17.463  1.00  0.00     0.000 C 
HETATM    3  C3  UNL     1      14.404   1.703  16.811  1.00  0.00     0.002 C 
HETATM    4  C4  UNL     1      15.590   0.787  17.134  1.00  0.00     0.021 C 
HETATM    5  C5  UNL     1      16.247   0.351  15.831  1.00  0.00     0.139 C 
HETATM    6  N1  UNL     1      16.253   1.476  14.897  1.00  0.00    -0.341 N 
ATOM      7  H1  UNL     1      15.785   1.440  13.992  1.00  0.00     0.179 HD
HETATM    8  N2  UNL     1      16.861   2.465  15.283  1.00  0.00    -0.341 N 
ATOM      9  H2  UNL     1      17.297   2.400  16.203  1.00  0.00     0.179 HD
HETATM   10  C6  UNL     1      17.028   3.686  14.592  1.00  0.00     0.139 C 
HETATM   11  C7  UNL     1      16.197   4.807  15.242  1.00  0.00     0.021 C 
HETATM   12  C8  UNL     1      14.767   4.332  15.297  1.00  0.00     0.002 C 
ENDROOT
TORSDOF 0
ENDMDL
MODEL 2
REMARK VINA RESULT: -5.619857287      0.682      3.099
REMARK  0 active torsions:
REMARK  status: ('A' for Active; 'I' for Inactive)
ROOT
HETATM    1  C1  UNL     1      14.134   3.599  17.263  1.00  0.00     0.000 C 
HETATM    2  C2  UNL     1      14.339   4.305  15.974  1.00  0.00     0.000 C 
HETATM    3  C3  UNL     1      15.717   4.793  15.696  1.00  0.00     0.002 C 
HETATM    4  C4  UNL     1      16.098   4.551  14.230  1.00  0.00     0.021 C 
HETATM    5  C5  UNL     1      17.353   3.689  14.181  1.00  0.00     0.139 C 
HETATM    6  N1  UNL     1      17.281   2.677  15.234  1.00  0.00    -0.341 N 
ATOM      7  H1  UNL     1      17.972   2.612  15.980  1.00  0.00     0.179 HD
HETATM    8  N2  UNL     1      16.328   1.913  15.153  1.00  0.00    -0.341 N 
ATOM      9  H2  UNL     1      15.694   2.061  14.368  1.00  0.00     0.179 HD
HETATM   10  C6  UNL     1      16.012   0.850  16.027  1.00  0.00     0.139 C 
HETATM   11  C7  UNL     1      14.775   1.184  16.881  1.00  0.00     0.021 C 
HETATM   12  C8  UNL     1      15.056   2.486  17.587  1.00  0.00     0.002 C 
ENDROOT
TORSDOF 0
ENDMDL
MODEL 3
REMARK VINA RESULT: -5.483929045      0.945      1.196
REMARK  0 active torsions:
REMARK  status: ('A' for Active; 'I' for Inactive)
ROOT
HETATM    1  C1  UNL     1      14.569   5.205  15.282  1.00  0.00     0.000 C 
HETATM    2  C2  UNL     1      14.636   4.337  16.484  1.00  0.00     0.000 C 
HETATM    3  C3  UNL     1      14.375   2.888  16.272  1.00  0.00     0.002 C 
HETATM    4  C4  UNL     1      15.346   2.031  17.094  1.00  0.00     0.021 C 
HETATM    5  C5  UNL     1      16.118   1.117  16.151  1.00  0.00     0.139 C 
HETATM    6  N1  UNL     1      16.436   1.850  14.926  1.00  0.00    -0.341 N 
ATOM      7  H1  UNL     1      16.110   1.551  14.008  1.00  0.00     0.179 HD
HETATM    8  N2  UNL     1      17.123   2.850  15.086  1.00  0.00    -0.341 N 
ATOM      9  H2  UNL     1      17.399   3.063  16.045  1.00  0.00     0.179 HD
HETATM   10  C6  UNL     1      17.575   3.741  14.087  1.00  0.00     0.139 C 
HETATM   11  C7  UNL     1      16.837   5.088  14.172  1.00  0.00     0.021 C 
HETATM   12  C8  UNL     1      15.359   4.796  14.099  1.00  0.00     0.002 C 
ENDROOT
TORSDOF 0
ENDMDL
MODEL 4
REMARK VINA RESULT: -5.017736217      1.525      3.481
REMARK  0 active torsions:
REMARK  status: ('A' for Active; 'I' for Inactive)
ROOT
HETATM    1  C1  UNL     1      15.343   0.649  17.015  1.00  0.00     0.000 C 
HETATM    2  C2  UNL     1      16.430   1.186  16.159  1.00  0.00     0.000 C 
HETATM    3  C3  UNL     1      16.035   1.666  14.808  1.00  0.00     0.002 C 
HETATM    4  C4  UNL     1      16.766   2.967  14.454  1.00  0.00     0.021 C 
HETATM    5  C5  UNL     1      15.735   4.049  14.161  1.00  0.00     0.139 C 
HETATM    6  N1  UNL     1      14.618   3.912  15.094  1.00  0.00    -0.341 N 
ATOM      7  H1  UNL     1      13.662   3.738  14.784  1.00  0.00     0.179 HD
HETATM    8  N2  UNL     1      14.915   4.022  16.276  1.00  0.00    -0.341 N 
ATOM      9  H2  UNL     1      15.899   4.196  16.482  1.00  0.00     0.179 HD
HETATM   10  C6  UNL     1      14.045   3.933  17.385  1.00  0.00     0.139 C 
HETATM   11  C7  UNL     1      14.278   2.629  18.169  1.00  0.00     0.021 C 
HETATM   12  C8  UNL     1      14.136   1.488  17.195  1.00  0.00     0.002 C 
ENDROOT
TORSDOF 0
ENDMDL
MODEL 5
REMARK VINA RESULT: -4.737723799      1.513      3.543
REMARK  0 active torsions:
REMARK  status: ('A' for Active; 'I' for Inactive)
ROOT
HETATM    1  C1  UNL     1      14.666   5.087  15.468  1.00  0.00     0.000 C 
HETATM    2  C2  UNL     1      15.080   5.267  14.054  1.00  0.00     0.000 C 
HETATM    3  C3  UNL     1      16.541   5.396  13.802  1.00  0.00     0.002 C 
HETATM    4  C4  UNL     1      16.952   4.609  12.552  1.00  0.00     0.021 C 
HETATM    5  C5  UNL     1      18.015   3.588  12.938  1.00  0.00     0.139 C 
HETATM    6  N1  UNL     1      17.684   3.023  14.246  1.00  0.00    -0.341 N 
ATOM      7  H1  UNL     1      18.305   3.104  15.050  1.00  0.00     0.179 HD
HETATM    8  N2  UNL     1      16.607   2.446  14.302  1.00  0.00    -0.341 N 
ATOM      9  H2  UNL     1      16.061   2.419  13.441  1.00  0.00     0.179 HD
HETATM   10  C6  UNL     1      16.038   1.813  15.429  1.00  0.00     0.139 C 
HETATM   11  C7  UNL     1      14.843   2.617  15.972  1.00  0.00     0.021 C 
HETATM   12  C8  UNL     1      15.331   4.017  16.245  1.00  0.00     0.002 C 
ENDROOT
TORSDOF 0
ENDMDL
