MODEL 1
REMARK VINA RESULT: -5.520369228      0.000      0.000
REMARK  0 active torsions:
REMARK  status: ('A' for Active; 'I' for Inactive)
ROOT
HETATM    1  N1  UNL     1      16.755   0.348  12.912  1.00  0.00    -0.195 NA
HETATM    2  C1  UNL     1      16.408   1.347  13.382  1.00  0.00     0.092 C 
HETATM    3  C2  UNL     1      15.984   2.628  13.996  1.00  0.00     0.291 C 
HETATM    4  C3  UNL     1      16.551   2.795  15.379  1.00  0.00     0.048 C 
HETATM    5  C4  UNL     1      15.509   2.764  16.459  1.00  0.00     0.003 C 
HETATM    6  C5  UNL     1      14.550   3.895  16.422  1.00  0.00     0.000 C 
HETATM    7  C6  UNL     1      15.049   5.137  15.773  1.00  0.00     0.002 C 
HETATM    8  C7  UNL     1      14.876   5.151  14.273  1.00  0.00     0.027 C 
HETATM    9  C8  UNL     1      16.195   4.991  13.563  1.00  0.00     0.234 C 
HETATM   10  N2  UNL     1      16.452   3.668  13.098  1.00  0.00    -0.059 N 
ATOM     11  H21 UNL     1      16.067   3.536  12.164  1.00  0.00     0.278 HD
ATOM     12  H22 UNL     1      17.444   3.547  12.893  1.00  0.00     0.278 HD
ENDROOT
TORSDOF 0
ENDMDL
MODEL 2
REMARK VINA RESULT: -5.497001537      1.316      1.376
REMARK  0 active torsions:
REMARK  status: ('A' for Active; 'I' for Inactive)
ROOT
HETATM    1  N1  UNL     1      16.648  -0.547  15.104  1.00  0.00    -0.195 NA
HETATM    2  C1  UNL     1      16.374   0.577  15.133  1.00  0.00     0.092 C 
HETATM    3  C2  UNL     1      16.039   2.020  15.189  1.00  0.00     0.291 C 
HETATM    4  C3  UNL     1      16.155   2.563  16.587  1.00  0.00     0.048 C 
HETATM    5  C4  UNL     1      14.837   2.972  17.180  1.00  0.00     0.003 C 
HETATM    6  C5  UNL     1      14.185   4.117  16.498  1.00  0.00     0.000 C 
HETATM    7  C6  UNL     1      15.101   5.038  15.773  1.00  0.00     0.002 C 
HETATM    8  C7  UNL     1      15.423   4.592  14.366  1.00  0.00     0.027 C 
HETATM    9  C8  UNL     1      16.840   4.094  14.256  1.00  0.00     0.234 C 
HETATM   10  N2  UNL     1      16.965   2.674  14.284  1.00  0.00    -0.059 N 
ATOM     11  H21 UNL     1      16.881   2.289  13.344  1.00  0.00     0.278 HD
ATOM     12  H22 UNL     1      17.925   2.403  14.495  1.00  0.00     0.278 HD
ENDROOT
TORSDOF 0
ENDMDL
MODEL 3
REMARK VINA RESULT: -5.456965066      1.684      3.477
REMARK  0 active torsions:
REMARK  status: ('A' for Active; 'I' for Inactive)
ROOT
HETATM    1  N1  UNL     1      16.981   5.630  14.173  1.00  0.00    -0.195 NA
HETATM    2  C1  UNL     1      16.619   4.687  14.739  1.00  0.00     0.092 C 
HETATM    3  C2  UNL     1      16.135   3.481  15.452  1.00  0.00     0.291 C 
HETATM    4  C3  UNL     1      14.644   3.512  15.646  1.00  0.00     0.048 C 
HETATM    5  C4  UNL     1      14.231   3.644  17.083  1.00  0.00     0.003 C 
HETATM    6  C5  UNL     1      14.591   2.485  17.936  1.00  0.00     0.000 C 
HETATM    7  C6  UNL     1      14.744   1.188  17.223  1.00  0.00     0.002 C 
HETATM    8  C7  UNL     1      16.119   0.977  16.635  1.00  0.00     0.027 C 
HETATM    9  C8  UNL     1      16.101   1.091  15.134  1.00  0.00     0.234 C 
HETATM   10  N2  UNL     1      16.544   2.351  14.637  1.00  0.00    -0.059 N 
ATOM     11  H21 UNL     1      17.555   2.350  14.508  1.00  0.00     0.278 HD
ATOM     12  H22 UNL     1      16.248   2.481  13.670  1.00  0.00     0.278 HD
ENDROOT
TORSDOF 0
ENDMDL
MODEL 4
REMARK VINA RESULT: -5.443929380      2.001      2.844
REMARK  0 active torsions:
REMARK  status: ('A' for Active; 'I' for Inactive)
ROOT
HETATM    1  N1  UNL     1      16.864  -0.408  15.820  1.00  0.00    -0.195 NA
HETATM    2  C1  UNL     1      16.423   0.660  15.884  1.00  0.00     0.092 C 
HETATM    3  C2  UNL     1      15.847   2.025  15.945  1.00  0.00     0.291 C 
HETATM    4  C3  UNL     1      15.624   2.594  14.571  1.00  0.00     0.048 C 
HETATM    5  C4  UNL     1      16.512   3.764  14.259  1.00  0.00     0.003 C 
HETATM    6  C5  UNL     1      16.264   4.965  15.094  1.00  0.00     0.000 C 
HETATM    7  C6  UNL     1      14.893   5.080  15.660  1.00  0.00     0.002 C 
HETATM    8  C7  UNL     1      14.709   4.335  16.961  1.00  0.00     0.027 C 
HETATM    9  C8  UNL     1      13.859   3.105  16.778  1.00  0.00     0.234 C 
HETATM   10  N2  UNL     1      14.600   1.892  16.677  1.00  0.00    -0.059 N 
ATOM     11  H21 UNL     1      14.767   1.496  17.601  1.00  0.00     0.278 HD
ATOM     12  H22 UNL     1      14.025   1.153  16.275  1.00  0.00     0.278 HD
ENDROOT
TORSDOF 0
ENDMDL
MODEL 5
REMARK VINA RESULT: -5.420142643      1.838      3.191
REMARK  0 active torsions:
REMARK  status: ('A' for Active; 'I' for Inactive)
ROOT
HETATM    1  N1  UNL     1      18.389   3.767  13.806  1.00  0.00    -0.195 NA
HETATM    2  C1  UNL     1      17.576   3.404  14.545  1.00  0.00     0.092 C 
HETATM    3  C2  UNL     1      16.519   2.938  15.475  1.00  0.00     0.291 C 
HETATM    4  C3  UNL     1      15.161   3.431  15.061  1.00  0.00     0.048 C 
HETATM    5  C4  UNL     1      14.564   4.417  16.023  1.00  0.00     0.003 C 
HETATM    6  C5  UNL     1      14.253   3.860  17.363  1.00  0.00     0.000 C 
HETATM    7  C6  UNL     1      14.008   2.393  17.404  1.00  0.00     0.002 C 
HETATM    8  C7  UNL     1      15.269   1.570  17.532  1.00  0.00     0.027 C 
HETATM    9  C8  UNL     1      15.591   0.852  16.248  1.00  0.00     0.234 C 
HETATM   10  N2  UNL     1      16.591   1.489  15.456  1.00  0.00    -0.059 N 
ATOM     11  H21 UNL     1      17.520   1.171  15.730  1.00  0.00     0.278 HD
ATOM     12  H22 UNL     1      16.566   1.140  14.498  1.00  0.00     0.278 HD
ENDROOT
TORSDOF 0
ENDMDL
