MODEL 1
REMARK VINA RESULT: -5.434325577      0.000      0.000
REMARK  0 active torsions:
REMARK  status: ('A' for Active; 'I' for Inactive)
ROOT
HETATM    1  N1  UNL     1      16.368   1.121  14.061  1.00  0.00    -0.195 NA
HETATM    2  C1  UNL     1      16.811   1.309  12.996  1.00  0.00     0.090 C 
HETATM    3  C2  UNL     1      17.358   1.555  11.661  1.00  0.00     0.174 C 
HETATM    4  C3  UNL     1      16.841   2.764  11.062  1.00  0.00     0.090 C 
HETATM    5  N2  UNL     1      16.438   3.729  10.593  1.00  0.00    -0.195 NA
HETATM    6  C4  UNL     1      18.870   1.598  11.674  1.00  0.00     0.047 C 
HETATM    7  C5  UNL     1      19.324   0.513  10.704  1.00  0.00     0.009 C 
HETATM    8  C6  UNL     1      18.222  -0.522  10.919  1.00  0.00     0.055 C 
HETATM    9  C7  UNL     1      17.009   0.344  10.840  1.00  0.00     0.017 C 
HETATM   10  N3  UNL     1      15.939   0.107  10.220  1.00  0.00    -0.403 N 
ATOM     11  H31 UNL     1      15.702  -0.713   9.664  1.00  0.00     0.155 HD
ATOM     12  H32 UNL     1      15.111   0.700  10.167  1.00  0.00     0.155 HD
ENDROOT
TORSDOF 0
ENDMDL
MODEL 2
REMARK VINA RESULT: -5.191323606      1.272      3.068
REMARK  0 active torsions:
REMARK  status: ('A' for Active; 'I' for Inactive)
ROOT
HETATM    1  N1  UNL     1      16.497   3.567  10.348  1.00  0.00    -0.195 NA
HETATM    2  C1  UNL     1      16.982   2.706  10.972  1.00  0.00     0.090 C 
HETATM    3  C2  UNL     1      17.581   1.631  11.764  1.00  0.00     0.174 C 
HETATM    4  C3  UNL     1      16.901   1.421  13.022  1.00  0.00     0.090 C 
HETATM    5  N2  UNL     1      16.354   1.249  14.015  1.00  0.00    -0.195 NA
HETATM    6  C4  UNL     1      17.638   0.331  10.992  1.00  0.00     0.047 C 
HETATM    7  C5  UNL     1      19.110  -0.065  10.954  1.00  0.00     0.009 C 
HETATM    8  C6  UNL     1      19.760   1.316  10.891  1.00  0.00     0.055 C 
HETATM    9  C7  UNL     1      19.018   2.022  11.976  1.00  0.00     0.017 C 
HETATM   10  N3  UNL     1      19.495   2.772  12.866  1.00  0.00    -0.403 N 
ATOM     11  H31 UNL     1      20.469   3.038  13.010  1.00  0.00     0.155 HD
ATOM     12  H32 UNL     1      18.987   3.255  13.608  1.00  0.00     0.155 HD
ENDROOT
TORSDOF 0
ENDMDL
MODEL 3
REMARK VINA RESULT: -5.083462326      3.069      4.956
REMARK  0 active torsions:
REMARK  status: ('A' for Active; 'I' for Inactive)
ROOT
HETATM    1  N1  UNL     1      15.738   1.630  12.261  1.00  0.00    -0.195 NA
HETATM    2  C1  UNL     1      16.064   2.332  13.136  1.00  0.00     0.090 C 
HETATM    3  C2  UNL     1      16.484   3.212  14.227  1.00  0.00     0.174 C 
HETATM    4  C3  UNL     1      17.905   3.476  14.213  1.00  0.00     0.090 C 
HETATM    5  N2  UNL     1      19.031   3.692  14.194  1.00  0.00    -0.195 NA
HETATM    6  C4  UNL     1      15.723   4.519  14.220  1.00  0.00     0.047 C 
HETATM    7  C5  UNL     1      15.040   4.609  15.580  1.00  0.00     0.009 C 
HETATM    8  C6  UNL     1      14.746   3.132  15.834  1.00  0.00     0.055 C 
HETATM    9  C7  UNL     1      16.067   2.525  15.498  1.00  0.00     0.017 C 
HETATM   10  N3  UNL     1      16.687   1.638  16.141  1.00  0.00    -0.403 N 
ATOM     11  H31 UNL     1      16.404   1.172  17.003  1.00  0.00     0.155 HD
ATOM     12  H32 UNL     1      17.590   1.223  15.912  1.00  0.00     0.155 HD
ENDROOT
TORSDOF 0
ENDMDL
MODEL 4
REMARK VINA RESULT: -5.017016885      2.875      4.586
REMARK  0 active torsions:
REMARK  status: ('A' for Active; 'I' for Inactive)
ROOT
HETATM    1  N1  UNL     1      16.547   1.019  16.331  1.00  0.00    -0.195 NA
HETATM    2  C1  UNL     1      16.355   1.752  15.441  1.00  0.00     0.090 C 
HETATM    3  C2  UNL     1      16.115   2.659  14.318  1.00  0.00     0.174 C 
HETATM    4  C3  UNL     1      15.943   1.960  13.065  1.00  0.00     0.090 C 
HETATM    5  N2  UNL     1      15.797   1.403  12.073  1.00  0.00    -0.195 NA
HETATM    6  C4  UNL     1      14.924   3.558  14.568  1.00  0.00     0.047 C 
HETATM    7  C5  UNL     1      15.453   4.984  14.471  1.00  0.00     0.009 C 
HETATM    8  C6  UNL     1      16.859   4.791  15.033  1.00  0.00     0.055 C 
HETATM    9  C7  UNL     1      17.299   3.585  14.271  1.00  0.00     0.017 C 
HETATM   10  N3  UNL     1      18.412   3.395  13.716  1.00  0.00    -0.403 N 
ATOM     11  H31 UNL     1      19.216   4.022  13.685  1.00  0.00     0.155 HD
ATOM     12  H32 UNL     1      18.713   2.571  13.196  1.00  0.00     0.155 HD
ENDROOT
TORSDOF 0
ENDMDL
MODEL 5
REMARK VINA RESULT: -4.902317337      1.264      1.289
REMARK  0 active torsions:
REMARK  status: ('A' for Active; 'I' for Inactive)
ROOT
HETATM    1  N1  UNL     1      17.608   3.174  14.021  1.00  0.00    -0.195 NA
HETATM    2  C1  UNL     1      17.749   2.819  12.917  1.00  0.00     0.090 C 
HETATM    3  C2  UNL     1      17.922   2.387  11.530  1.00  0.00     0.174 C 
HETATM    4  C3  UNL     1      17.547   3.408  10.578  1.00  0.00     0.090 C 
HETATM    5  N2  UNL     1      17.260   4.222   9.824  1.00  0.00    -0.195 NA
HETATM    6  C4  UNL     1      19.337   1.929  11.256  1.00  0.00     0.047 C 
HETATM    7  C5  UNL     1      19.221   0.488  10.771  1.00  0.00     0.009 C 
HETATM    8  C6  UNL     1      18.022   0.021  11.593  1.00  0.00     0.055 C 
HETATM    9  C7  UNL     1      17.075   1.153  11.371  1.00  0.00     0.017 C 
HETATM   10  N3  UNL     1      15.847   1.083  11.109  1.00  0.00    -0.403 N 
ATOM     11  H31 UNL     1      15.273   0.247  11.002  1.00  0.00     0.155 HD
ATOM     12  H32 UNL     1      15.200   1.857  10.957  1.00  0.00     0.155 HD
ENDROOT
TORSDOF 0
ENDMDL
