MODEL 1
REMARK VINA RESULT: -3.012571700      0.000      0.000
REMARK  0 active torsions:
REMARK  status: ('A' for Active; 'I' for Inactive)
ROOT
HETATM    1  S1  UNL     1      15.460   5.216  14.589  1.00  0.00    -0.080 SA
HETATM    2  C1  UNL     1      14.837   3.526  14.950  1.00  0.00     0.132 C 
HETATM    3  C2  UNL     1      14.549   3.458  16.383  1.00  0.00     0.038 C 
HETATM    4  C3  UNL     1      14.542   2.093  16.952  1.00  0.00     0.088 C 
HETATM    5  S2  UNL     1      15.950   1.166  16.289  1.00  0.00    -0.096 SA
HETATM    6  S3  UNL     1      16.220   2.423  14.555  1.00  0.00    -0.081 SA
ENDROOT
TORSDOF 0
ENDMDL
MODEL 2
REMARK VINA RESULT: -2.999573027      4.356      5.095
REMARK  0 active torsions:
REMARK  status: ('A' for Active; 'I' for Inactive)
ROOT
HETATM    1  S1  UNL     1      16.326   2.444  13.686  1.00  0.00    -0.080 SA
HETATM    2  C1  UNL     1      16.698   1.581  12.108  1.00  0.00     0.132 C 
HETATM    3  C2  UNL     1      16.807   0.152  12.400  1.00  0.00     0.038 C 
HETATM    4  C3  UNL     1      17.590  -0.628  11.417  1.00  0.00     0.088 C 
HETATM    5  S2  UNL     1      19.081   0.301  10.976  1.00  0.00    -0.096 SA
HETATM    6  S3  UNL     1      18.314   2.221  11.593  1.00  0.00    -0.081 SA
ENDROOT
TORSDOF 0
ENDMDL
MODEL 3
REMARK VINA RESULT: -2.989650368      5.736      6.691
REMARK  0 active torsions:
REMARK  status: ('A' for Active; 'I' for Inactive)
ROOT
HETATM    1  S1  UNL     1      17.993  -2.111  11.326  1.00  0.00    -0.080 SA
HETATM    2  C1  UNL     1      18.011  -0.414  10.623  1.00  0.00     0.132 C 
HETATM    3  C2  UNL     1      19.188   0.273  11.155  1.00  0.00     0.038 C 
HETATM    4  C3  UNL     1      19.108   1.750  11.138  1.00  0.00     0.088 C 
HETATM    5  S2  UNL     1      17.461   2.261  11.692  1.00  0.00    -0.096 SA
HETATM    6  S3  UNL     1      16.508   0.373  11.261  1.00  0.00    -0.081 SA
ENDROOT
TORSDOF 0
ENDMDL
MODEL 4
REMARK VINA RESULT: -2.988112094      5.678      6.192
REMARK  0 active torsions:
REMARK  status: ('A' for Active; 'I' for Inactive)
ROOT
HETATM    1  S1  UNL     1      20.233   2.655  10.515  1.00  0.00    -0.080 SA
HETATM    2  C1  UNL     1      19.139   1.587  11.534  1.00  0.00     0.132 C 
HETATM    3  C2  UNL     1      19.110   0.263  10.912  1.00  0.00     0.038 C 
HETATM    4  C3  UNL     1      17.928  -0.559  11.251  1.00  0.00     0.088 C 
HETATM    5  S2  UNL     1      16.446   0.479  11.188  1.00  0.00    -0.096 SA
HETATM    6  S3  UNL     1      17.498   2.350  11.415  1.00  0.00    -0.081 SA
ENDROOT
TORSDOF 0
ENDMDL
MODEL 5
REMARK VINA RESULT: -2.976799253      1.178      2.937
REMARK  0 active torsions:
REMARK  status: ('A' for Active; 'I' for Inactive)
ROOT
HETATM    1  S1  UNL     1      14.128   0.921  17.442  1.00  0.00    -0.080 SA
HETATM    2  C1  UNL     1      15.207   2.294  16.870  1.00  0.00     0.132 C 
HETATM    3  C2  UNL     1      14.338   3.387  16.435  1.00  0.00     0.038 C 
HETATM    4  C3  UNL     1      14.959   4.337  15.486  1.00  0.00     0.088 C 
HETATM    5  S2  UNL     1      15.898   3.409  14.247  1.00  0.00    -0.096 SA
HETATM    6  S3  UNL     1      16.100   1.623  15.442  1.00  0.00    -0.081 SA
ENDROOT
TORSDOF 0
ENDMDL
