MODEL 1
REMARK VINA RESULT: -5.067918186      0.000      0.000
REMARK  0 active torsions:
REMARK  status: ('A' for Active; 'I' for Inactive)
ROOT
HETATM    1  N1  UNL     1      16.718  -0.272  15.695  1.00  0.00    -0.374 N 
ATOM      2  H11 UNL     1      17.152  -0.147  14.781  1.00  0.00     0.158 HD
ATOM      3  H12 UNL     1      16.582  -1.039  16.353  1.00  0.00     0.158 HD
HETATM    4  C1  UNL     1      16.185   0.837  16.164  1.00  0.00     0.175 C 
HETATM    5  O1  UNL     1      15.585   0.664  17.427  1.00  0.00    -0.331 OA
HETATM    6  C2  UNL     1      14.640   1.514  18.170  1.00  0.00     0.178 C 
HETATM    7  C3  UNL     1      14.550   2.705  17.396  1.00  0.00     0.027 C 
HETATM    8  C4  UNL     1      14.006   3.940  17.092  1.00  0.00     0.003 C 
HETATM    9  C5  UNL     1      14.779   4.386  15.810  1.00  0.00     0.011 C 
HETATM   10  C6  UNL     1      15.030   3.308  14.825  1.00  0.00     0.083 C 
HETATM   11  S1  UNL     1      16.428   2.206  14.988  1.00  0.00    -0.087 SA
ENDROOT
TORSDOF 0
ENDMDL
MODEL 2
REMARK VINA RESULT: -4.800429318      1.490      1.582
REMARK  0 active torsions:
REMARK  status: ('A' for Active; 'I' for Inactive)
ROOT
HETATM    1  N1  UNL     1      16.843   0.566  13.266  1.00  0.00    -0.374 N 
ATOM      2  H11 UNL     1      17.007   1.128  12.431  1.00  0.00     0.158 HD
ATOM      3  H12 UNL     1      16.930  -0.416  13.528  1.00  0.00     0.158 HD
HETATM    4  C1  UNL     1      16.404   1.276  14.284  1.00  0.00     0.175 C 
HETATM    5  O1  UNL     1      16.179   0.498  15.438  1.00  0.00    -0.331 OA
HETATM    6  C2  UNL     1      15.429   0.795  16.670  1.00  0.00     0.178 C 
HETATM    7  C3  UNL     1      15.072   2.167  16.546  1.00  0.00     0.027 C 
HETATM    8  C4  UNL     1      14.405   3.309  16.950  1.00  0.00     0.003 C 
HETATM    9  C5  UNL     1      14.778   4.368  15.863  1.00  0.00     0.011 C 
HETATM   10  C6  UNL     1      14.806   3.853  14.474  1.00  0.00     0.083 C 
HETATM   11  S1  UNL     1      16.249   3.029  13.816  1.00  0.00    -0.087 SA
ENDROOT
TORSDOF 0
ENDMDL
MODEL 3
REMARK VINA RESULT: -4.607137624      1.521      2.533
REMARK  0 active torsions:
REMARK  status: ('A' for Active; 'I' for Inactive)
ROOT
HETATM    1  N1  UNL     1      16.793  -0.376  15.881  1.00  0.00    -0.374 N 
ATOM      2  H11 UNL     1      16.493  -0.917  16.693  1.00  0.00     0.158 HD
ATOM      3  H12 UNL     1      17.471  -0.485  15.127  1.00  0.00     0.158 HD
HETATM    4  C1  UNL     1      16.146   0.764  15.758  1.00  0.00     0.175 C 
HETATM    5  O1  UNL     1      16.559   1.510  14.636  1.00  0.00    -0.331 OA
HETATM    6  C2  UNL     1      16.344   2.923  14.285  1.00  0.00     0.178 C 
HETATM    7  C3  UNL     1      15.446   3.403  15.280  1.00  0.00     0.027 C 
HETATM    8  C4  UNL     1      14.741   4.402  15.926  1.00  0.00     0.003 C 
HETATM    9  C5  UNL     1      14.005   3.655  17.083  1.00  0.00     0.011 C 
HETATM   10  C6  UNL     1      14.809   2.613  17.765  1.00  0.00     0.083 C 
HETATM   11  S1  UNL     1      14.935   0.957  17.105  1.00  0.00    -0.087 SA
ENDROOT
TORSDOF 0
ENDMDL
MODEL 4
REMARK VINA RESULT: -4.486341406      4.777      5.991
REMARK  0 active torsions:
REMARK  status: ('A' for Active; 'I' for Inactive)
ROOT
HETATM    1  N1  UNL     1      15.935   2.530  13.986  1.00  0.00    -0.374 N 
ATOM      2  H11 UNL     1      16.196   3.495  14.189  1.00  0.00     0.158 HD
ATOM      3  H12 UNL     1      15.247   1.860  14.329  1.00  0.00     0.158 HD
HETATM    4  C1  UNL     1      16.670   1.990  13.036  1.00  0.00     0.175 C 
HETATM    5  O1  UNL     1      16.309   0.657  12.756  1.00  0.00    -0.331 OA
HETATM    6  C2  UNL     1      17.019  -0.400  12.018  1.00  0.00     0.178 C 
HETATM    7  C3  UNL     1      18.154   0.256  11.463  1.00  0.00     0.027 C 
HETATM    8  C4  UNL     1      19.364   0.273  10.793  1.00  0.00     0.003 C 
HETATM    9  C5  UNL     1      19.780   1.779  10.805  1.00  0.00     0.011 C 
HETATM   10  C6  UNL     1      19.508   2.493  12.075  1.00  0.00     0.083 C 
HETATM   11  S1  UNL     1      17.899   3.187  12.425  1.00  0.00    -0.087 SA
ENDROOT
TORSDOF 0
ENDMDL
MODEL 5
REMARK VINA RESULT: -4.469765998      4.923      6.011
REMARK  0 active torsions:
REMARK  status: ('A' for Active; 'I' for Inactive)
ROOT
HETATM    1  N1  UNL     1      19.743   3.458  13.213  1.00  0.00    -0.374 N 
ATOM      2  H11 UNL     1      20.666   3.405  12.781  1.00  0.00     0.158 HD
ATOM      3  H12 UNL     1      19.313   3.969  13.983  1.00  0.00     0.158 HD
HETATM    4  C1  UNL     1      18.863   2.666  12.637  1.00  0.00     0.175 C 
HETATM    5  O1  UNL     1      17.588   2.740  13.233  1.00  0.00    -0.331 OA
HETATM    6  C2  UNL     1      16.421   1.849  13.127  1.00  0.00     0.178 C 
HETATM    7  C3  UNL     1      16.782   0.909  12.121  1.00  0.00     0.027 C 
HETATM    8  C4  UNL     1      16.580  -0.238  11.375  1.00  0.00     0.003 C 
HETATM    9  C5  UNL     1      17.840  -0.316  10.456  1.00  0.00     0.011 C 
HETATM   10  C6  UNL     1      19.117   0.050  11.113  1.00  0.00     0.083 C 
HETATM   11  S1  UNL     1      19.632   1.754  11.261  1.00  0.00    -0.087 SA
ENDROOT
TORSDOF 0
ENDMDL
