MODEL 1
REMARK VINA RESULT: -5.631032658      0.000      0.000
REMARK  0 active torsions:
REMARK  status: ('A' for Active; 'I' for Inactive)
ROOT
HETATM    1  C1  UNL     1      14.126   2.372  17.011  1.00  0.00     0.000 C 
HETATM    2  C2  UNL     1      14.700   3.591  16.318  1.00  0.00     0.004 C 
HETATM    3  C3  UNL     1      15.020   3.117  14.894  1.00  0.00     0.063 C 
HETATM    4  C4  UNL     1      16.223   2.207  15.021  1.00  0.00     0.212 C 
HETATM    5  C5  UNL     1      15.986   1.062  15.957  1.00  0.00     0.063 C 
HETATM    6  C6  UNL     1      15.274   1.407  17.212  1.00  0.00     0.004 C 
HETATM    7  N1  UNL     1      17.364   2.983  15.356  1.00  0.00    -0.303 N 
ATOM      8  H1  UNL     1      17.680   3.191  16.303  1.00  0.00     0.182 HD
HETATM    9  N2  UNL     1      17.910   3.362  14.325  1.00  0.00    -0.313 N 
ATOM     10  H2  UNL     1      18.752   3.936  14.301  1.00  0.00     0.181 HD
HETATM   11  C7  UNL     1      17.214   2.894  13.147  1.00  0.00     0.374 C 
HETATM   12  N3  UNL     1      16.520   1.716  13.693  1.00  0.00    -0.030 N 
ATOM     13  H31 UNL     1      15.724   1.375  13.153  1.00  0.00     0.282 HD
ATOM     14  H32 UNL     1      17.030   0.834  13.646  1.00  0.00     0.282 HD
ENDROOT
TORSDOF 0
ENDMDL
MODEL 2
REMARK VINA RESULT: -5.215685635      1.544      2.170
REMARK  0 active torsions:
REMARK  status: ('A' for Active; 'I' for Inactive)
ROOT
HETATM    1  C1  UNL     1      14.981   4.573  15.228  1.00  0.00     0.000 C 
HETATM    2  C2  UNL     1      16.278   5.312  14.968  1.00  0.00     0.004 C 
HETATM    3  C3  UNL     1      16.831   4.689  13.679  1.00  0.00     0.063 C 
HETATM    4  C4  UNL     1      17.307   3.304  14.059  1.00  0.00     0.212 C 
HETATM    5  C5  UNL     1      16.224   2.468  14.670  1.00  0.00     0.063 C 
HETATM    6  C6  UNL     1      15.359   3.169  15.650  1.00  0.00     0.004 C 
HETATM    7  N1  UNL     1      18.464   3.413  14.874  1.00  0.00    -0.303 N 
ATOM      8  H1  UNL     1      18.466   3.469  15.893  1.00  0.00     0.182 HD
HETATM    9  N2  UNL     1      19.460   3.428  14.160  1.00  0.00    -0.313 N 
ATOM     10  H2  UNL     1      20.415   3.500  14.510  1.00  0.00     0.181 HD
HETATM   11  C7  UNL     1      19.116   3.331  12.759  1.00  0.00     0.374 C 
HETATM   12  N3  UNL     1      17.798   2.682  12.849  1.00  0.00    -0.030 N 
ATOM     13  H31 UNL     1      17.200   2.768  12.027  1.00  0.00     0.282 HD
ATOM     14  H32 UNL     1      17.799   1.662  12.838  1.00  0.00     0.282 HD
ENDROOT
TORSDOF 0
ENDMDL
MODEL 3
REMARK VINA RESULT: -4.972058795      4.434      5.374
REMARK  0 active torsions:
REMARK  status: ('A' for Active; 'I' for Inactive)
ROOT
HETATM    1  C1  UNL     1      19.293   3.287  10.939  1.00  0.00     0.000 C 
HETATM    2  C2  UNL     1      19.631   2.085  11.800  1.00  0.00     0.004 C 
HETATM    3  C3  UNL     1      18.867   0.918  11.158  1.00  0.00     0.063 C 
HETATM    4  C4  UNL     1      17.407   1.156  11.475  1.00  0.00     0.212 C 
HETATM    5  C5  UNL     1      16.918   2.485  10.987  1.00  0.00     0.063 C 
HETATM    6  C6  UNL     1      17.844   3.622  11.213  1.00  0.00     0.004 C 
HETATM    7  N1  UNL     1      17.187   0.948  12.862  1.00  0.00    -0.303 N 
ATOM      8  H1  UNL     1      17.248   1.666  13.584  1.00  0.00     0.182 HD
HETATM    9  N2  UNL     1      16.913  -0.232  13.054  1.00  0.00    -0.313 N 
ATOM     10  H2  UNL     1      16.713  -0.630  13.971  1.00  0.00     0.181 HD
HETATM   11  C7  UNL     1      16.908  -0.988  11.823  1.00  0.00     0.374 C 
HETATM   12  N3  UNL     1      16.662   0.086  10.846  1.00  0.00    -0.030 N 
ATOM     13  H31 UNL     1      16.909  -0.123   9.879  1.00  0.00     0.282 HD
ATOM     14  H32 UNL     1      15.684   0.286  10.636  1.00  0.00     0.282 HD
ENDROOT
TORSDOF 0
ENDMDL
MODEL 4
REMARK VINA RESULT: -4.968358058      3.756      5.137
REMARK  0 active torsions:
REMARK  status: ('A' for Active; 'I' for Inactive)
ROOT
HETATM    1  C1  UNL     1      18.216  -1.506  11.254  1.00  0.00     0.000 C 
HETATM    2  C2  UNL     1      18.501  -0.324  10.350  1.00  0.00     0.004 C 
HETATM    3  C3  UNL     1      18.792   0.840  11.308  1.00  0.00     0.063 C 
HETATM    4  C4  UNL     1      17.462   1.208  11.928  1.00  0.00     0.212 C 
HETATM    5  C5  UNL     1      16.809   0.053  12.625  1.00  0.00     0.063 C 
HETATM    6  C6  UNL     1      16.874  -1.241  11.902  1.00  0.00     0.004 C 
HETATM    7  N1  UNL     1      16.637   1.813  10.944  1.00  0.00    -0.303 N 
ATOM      8  H1  UNL     1      15.984   1.319  10.336  1.00  0.00     0.182 HD
HETATM    9  N2  UNL     1      16.834   3.023  10.942  1.00  0.00    -0.313 N 
ATOM     10  H2  UNL     1      16.360   3.678  10.321  1.00  0.00     0.181 HD
HETATM   11  C7  UNL     1      17.821   3.407  11.925  1.00  0.00     0.374 C 
HETATM   12  N3  UNL     1      17.718   2.279  12.866  1.00  0.00    -0.030 N 
ATOM     13  H31 UNL     1      18.512   2.145  13.493  1.00  0.00     0.282 HD
ATOM     14  H32 UNL     1      17.040   2.385  13.621  1.00  0.00     0.282 HD
ENDROOT
TORSDOF 0
ENDMDL
MODEL 5
REMARK VINA RESULT: -4.798011936      1.474      2.937
REMARK  0 active torsions:
REMARK  status: ('A' for Active; 'I' for Inactive)
ROOT
HETATM    1  C1  UNL     1      15.365   5.270  14.826  1.00  0.00     0.000 C 
HETATM    2  C2  UNL     1      14.604   3.984  14.568  1.00  0.00     0.004 C 
HETATM    3  C3  UNL     1      15.112   3.008  15.638  1.00  0.00     0.063 C 
HETATM    4  C4  UNL     1      16.524   2.647  15.231  1.00  0.00     0.212 C 
HETATM    5  C5  UNL     1      17.412   3.847  15.094  1.00  0.00     0.063 C 
HETATM    6  C6  UNL     1      16.798   5.014  14.415  1.00  0.00     0.004 C 
HETATM    7  N1  UNL     1      16.484   1.839  14.065  1.00  0.00    -0.303 N 
ATOM      8  H1  UNL     1      16.515   2.184  13.106  1.00  0.00     0.182 HD
HETATM    9  N2  UNL     1      16.406   0.660  14.394  1.00  0.00    -0.313 N 
ATOM     10  H2  UNL     1      16.362  -0.116  13.735  1.00  0.00     0.181 HD
HETATM   11  C7  UNL     1      16.383   0.506  15.831  1.00  0.00     0.374 C 
HETATM   12  N3  UNL     1      17.039   1.756  16.248  1.00  0.00    -0.030 N 
ATOM     13  H31 UNL     1      16.884   2.043  17.215  1.00  0.00     0.282 HD
ATOM     14  H32 UNL     1      18.054   1.720  16.339  1.00  0.00     0.282 HD
ENDROOT
TORSDOF 0
ENDMDL
