MODEL 1
REMARK VINA RESULT: -5.790701979      0.000      0.000
REMARK  1 active torsions:
REMARK  status: ('A' for Active; 'I' for Inactive)
REMARK    1  A    between atoms: O1_3  and  C2_4 
ROOT
HETATM    1  N1  UNL     1      16.125   2.287  11.683  1.00  0.00    -0.164 NA
HETATM    2  C1  UNL     1      16.390   2.199  12.807  1.00  0.00     0.229 C 
HETATM    3  O1  UNL     1      16.708   2.116  14.152  1.00  0.00    -0.272 OA
ENDROOT
BRANCH   3   4
HETATM    4  C2  UNL     1      15.716   1.853  15.094  1.00  0.00     0.186 C 
HETATM    5  C3  UNL     1      15.402   3.040  15.985  1.00  0.00     0.039 C 
HETATM    6  C4  UNL     1      14.044   2.726  16.624  1.00  0.00     0.003 C 
HETATM    7  C5  UNL     1      14.037   1.413  17.317  1.00  0.00     0.006 C 
HETATM    8  C6  UNL     1      15.374   0.709  17.317  1.00  0.00     0.054 C 
HETATM    9  C7  UNL     1      16.026   0.727  15.994  1.00  0.00     0.010 C 
HETATM   10  N2  UNL     1      16.813  -0.167  15.632  1.00  0.00    -0.403 N 
ATOM     11  H22 UNL     1      17.264  -0.154  14.718  1.00  0.00     0.155 HD
ATOM     12  H21 UNL     1      17.028  -0.946  16.255  1.00  0.00     0.155 HD
ENDBRANCH   3   4
TORSDOF 1
ENDMDL
MODEL 2
REMARK VINA RESULT: -5.780836789      1.884      2.612
REMARK  1 active torsions:
REMARK  status: ('A' for Active; 'I' for Inactive)
REMARK    1  A    between atoms: O1_3  and  C2_4 
ROOT
HETATM    1  N1  UNL     1      16.616  -0.596  13.910  1.00  0.00    -0.164 NA
HETATM    2  C1  UNL     1      16.726  -0.149  14.972  1.00  0.00     0.229 C 
HETATM    3  O1  UNL     1      16.876   0.397  16.236  1.00  0.00    -0.272 OA
ENDROOT
BRANCH   3   4
HETATM    4  C2  UNL     1      16.051   1.440  16.652  1.00  0.00     0.186 C 
HETATM    5  C3  UNL     1      14.615   1.013  16.889  1.00  0.00     0.039 C 
HETATM    6  C4  UNL     1      13.989   2.130  17.734  1.00  0.00     0.003 C 
HETATM    7  C5  UNL     1      14.141   3.465  17.104  1.00  0.00     0.006 C 
HETATM    8  C6  UNL     1      14.800   3.434  15.744  1.00  0.00     0.054 C 
HETATM    9  C7  UNL     1      15.998   2.575  15.713  1.00  0.00     0.010 C 
HETATM   10  N2  UNL     1      16.941   2.784  14.927  1.00  0.00    -0.403 N 
ATOM     11  H22 UNL     1      17.769   2.190  14.905  1.00  0.00     0.155 HD
ATOM     12  H21 UNL     1      16.904   3.569  14.277  1.00  0.00     0.155 HD
ENDBRANCH   3   4
TORSDOF 1
ENDMDL
MODEL 3
REMARK VINA RESULT: -5.699073183      1.438      1.438
REMARK  1 active torsions:
REMARK  status: ('A' for Active; 'I' for Inactive)
REMARK    1  A    between atoms: O1_3  and  C2_4 
ROOT
HETATM    1  N1  UNL     1      17.230   4.852  14.145  1.00  0.00    -0.164 NA
HETATM    2  C1  UNL     1      17.097   3.734  14.415  1.00  0.00     0.229 C 
HETATM    3  O1  UNL     1      16.953   2.399  14.755  1.00  0.00    -0.272 OA
ENDROOT
BRANCH   3   4
HETATM    4  C2  UNL     1      15.813   1.965  15.429  1.00  0.00     0.186 C 
HETATM    5  C3  UNL     1      15.319   2.952  16.471  1.00  0.00     0.039 C 
HETATM    6  C4  UNL     1      13.875   2.535  16.777  1.00  0.00     0.003 C 
HETATM    7  C5  UNL     1      13.773   1.110  17.178  1.00  0.00     0.006 C 
HETATM    8  C6  UNL     1      15.103   0.400  17.277  1.00  0.00     0.054 C 
HETATM    9  C7  UNL     1      15.981   0.676  16.125  1.00  0.00     0.010 C 
HETATM   10  N2  UNL     1      16.841  -0.138  15.738  1.00  0.00    -0.403 N 
ATOM     11  H22 UNL     1      17.448   0.053  14.942  1.00  0.00     0.155 HD
ATOM     12  H21 UNL     1      16.958  -1.029  16.220  1.00  0.00     0.155 HD
ENDBRANCH   3   4
TORSDOF 1
ENDMDL
MODEL 4
REMARK VINA RESULT: -5.624033500      1.806      2.054
REMARK  1 active torsions:
REMARK  status: ('A' for Active; 'I' for Inactive)
REMARK    1  A    between atoms: O1_3  and  C2_4 
ROOT
HETATM    1  N1  UNL     1      16.750  -0.530  13.082  1.00  0.00    -0.164 NA
HETATM    2  C1  UNL     1      16.714  -0.112  14.161  1.00  0.00     0.229 C 
HETATM    3  O1  UNL     1      16.687   0.402  15.447  1.00  0.00    -0.272 OA
ENDROOT
BRANCH   3   4
HETATM    4  C2  UNL     1      15.709   1.323  15.815  1.00  0.00     0.186 C 
HETATM    5  C3  UNL     1      16.199   2.759  15.799  1.00  0.00     0.039 C 
HETATM    6  C4  UNL     1      14.933   3.624  15.790  1.00  0.00     0.003 C 
HETATM    7  C5  UNL     1      14.018   3.296  16.912  1.00  0.00     0.006 C 
HETATM    8  C6  UNL     1      14.556   2.249  17.860  1.00  0.00     0.054 C 
HETATM    9  C7  UNL     1      15.142   1.093  17.157  1.00  0.00     0.010 C 
HETATM   10  N2  UNL     1      15.166  -0.045  17.661  1.00  0.00    -0.403 N 
ATOM     11  H22 UNL     1      15.572  -0.845  17.175  1.00  0.00     0.155 HD
ATOM     12  H21 UNL     1      14.774  -0.205  18.589  1.00  0.00     0.155 HD
ENDBRANCH   3   4
TORSDOF 1
ENDMDL
MODEL 5
REMARK VINA RESULT: -5.605309079      2.028      3.717
REMARK  1 active torsions:
REMARK  status: ('A' for Active; 'I' for Inactive)
REMARK    1  A    between atoms: O1_3  and  C2_4 
ROOT
HETATM    1  N1  UNL     1      15.396  -0.199  17.094  1.00  0.00    -0.164 NA
HETATM    2  C1  UNL     1      15.998   0.571  16.472  1.00  0.00     0.229 C 
HETATM    3  O1  UNL     1      16.707   1.484  15.710  1.00  0.00    -0.272 OA
ENDROOT
BRANCH   3   4
HETATM    4  C2  UNL     1      16.312   2.819  15.664  1.00  0.00     0.186 C 
HETATM    5  C3  UNL     1      14.820   2.997  15.452  1.00  0.00     0.039 C 
HETATM    6  C4  UNL     1      14.518   4.444  15.861  1.00  0.00     0.003 C 
HETATM    7  C5  UNL     1      15.367   5.424  15.138  1.00  0.00     0.006 C 
HETATM    8  C6  UNL     1      16.281   4.804  14.107  1.00  0.00     0.054 C 
HETATM    9  C7  UNL     1      16.979   3.607  14.612  1.00  0.00     0.010 C 
HETATM   10  N2  UNL     1      18.092   3.258  14.177  1.00  0.00    -0.403 N 
ATOM     11  H22 UNL     1      18.575   2.430  14.526  1.00  0.00     0.155 HD
ATOM     12  H21 UNL     1      18.554   3.803  13.449  1.00  0.00     0.155 HD
ENDBRANCH   3   4
TORSDOF 1
ENDMDL
