MODEL 1
REMARK VINA RESULT: -3.861469089      0.000      0.000
REMARK  0 active torsions:
REMARK  status: ('A' for Active; 'I' for Inactive)
ROOT
HETATM    1  N1  UNL     1      16.728   1.131  16.292  1.00  0.00    -0.195 NA
HETATM    2  C1  UNL     1      16.505   1.797  15.391  1.00  0.00     0.092 C 
HETATM    3  C2  UNL     1      16.240   2.626  14.240  1.00  0.00     0.154 C 
HETATM    4  S1  UNL     1      16.334   1.737  12.683  1.00  0.00    -0.058 SA
HETATM    5  C3  UNL     1      14.908   3.337  14.304  1.00  0.00     0.049 C 
HETATM    6  C4  UNL     1      15.048   4.443  15.323  1.00  0.00     0.014 C 
HETATM    7  C5  UNL     1      16.180   5.328  14.865  1.00  0.00     0.076 C 
HETATM    8  S2  UNL     1      17.369   4.073  14.248  1.00  0.00    -0.132 SA
ENDROOT
TORSDOF 0
ENDMDL
MODEL 2
REMARK VINA RESULT: -3.735499439      3.637      4.007
REMARK  0 active torsions:
REMARK  status: ('A' for Active; 'I' for Inactive)
ROOT
HETATM    1  N1  UNL     1      16.543  -0.162  14.274  1.00  0.00    -0.195 NA
HETATM    2  C1  UNL     1      16.837  -0.074  13.174  1.00  0.00     0.092 C 
HETATM    3  C2  UNL     1      17.225   0.021  11.787  1.00  0.00     0.154 C 
HETATM    4  S1  UNL     1      17.813  -1.532  11.103  1.00  0.00    -0.058 SA
HETATM    5  C3  UNL     1      16.131   0.553  10.889  1.00  0.00     0.049 C 
HETATM    6  C4  UNL     1      16.014   2.033  11.170  1.00  0.00     0.014 C 
HETATM    7  C5  UNL     1      17.366   2.644  10.897  1.00  0.00     0.076 C 
HETATM    8  S2  UNL     1      18.473   1.351  11.585  1.00  0.00    -0.132 SA
ENDROOT
TORSDOF 0
ENDMDL
MODEL 3
REMARK VINA RESULT: -3.630973277      1.743      2.475
REMARK  0 active torsions:
REMARK  status: ('A' for Active; 'I' for Inactive)
ROOT
HETATM    1  N1  UNL     1      17.102   0.951  16.218  1.00  0.00    -0.195 NA
HETATM    2  C1  UNL     1      16.704   1.830  15.605  1.00  0.00     0.092 C 
HETATM    3  C2  UNL     1      16.178   2.930  14.833  1.00  0.00     0.154 C 
HETATM    4  S1  UNL     1      14.552   3.467  15.373  1.00  0.00    -0.058 SA
HETATM    5  C3  UNL     1      17.091   4.134  14.800  1.00  0.00     0.049 C 
HETATM    6  C4  UNL     1      18.248   3.783  13.894  1.00  0.00     0.014 C 
HETATM    7  C5  UNL     1      17.666   3.434  12.547  1.00  0.00     0.076 C 
HETATM    8  S2  UNL     1      16.175   2.489  13.052  1.00  0.00    -0.132 SA
ENDROOT
TORSDOF 0
ENDMDL
MODEL 4
REMARK VINA RESULT: -3.597506912      2.279      2.576
REMARK  0 active torsions:
REMARK  status: ('A' for Active; 'I' for Inactive)
ROOT
HETATM    1  N1  UNL     1      15.949   2.022  11.981  1.00  0.00    -0.195 NA
HETATM    2  C1  UNL     1      16.028   2.307  13.084  1.00  0.00     0.092 C 
HETATM    3  C2  UNL     1      16.115   2.647  14.484  1.00  0.00     0.154 C 
HETATM    4  S1  UNL     1      16.208   1.214  15.562  1.00  0.00    -0.058 SA
HETATM    5  C3  UNL     1      17.271   3.564  14.811  1.00  0.00     0.049 C 
HETATM    6  C4  UNL     1      16.905   4.935  14.291  1.00  0.00     0.014 C 
HETATM    7  C5  UNL     1      15.614   5.332  14.961  1.00  0.00     0.076 C 
HETATM    8  S2  UNL     1      14.711   3.735  14.944  1.00  0.00    -0.132 SA
ENDROOT
TORSDOF 0
ENDMDL
MODEL 5
REMARK VINA RESULT: -3.543525809      3.561      4.978
REMARK  0 active torsions:
REMARK  status: ('A' for Active; 'I' for Inactive)
ROOT
HETATM    1  N1  UNL     1      16.522   0.798  14.083  1.00  0.00    -0.195 NA
HETATM    2  C1  UNL     1      16.788   1.055  13.002  1.00  0.00     0.092 C 
HETATM    3  C2  UNL     1      17.104   1.394  11.635  1.00  0.00     0.154 C 
HETATM    4  S1  UNL     1      16.628   3.066  11.186  1.00  0.00    -0.058 SA
HETATM    5  C3  UNL     1      18.563   1.205  11.290  1.00  0.00     0.049 C 
HETATM    6  C4  UNL     1      18.802  -0.283  11.191  1.00  0.00     0.014 C 
HETATM    7  C5  UNL     1      17.861  -0.814  10.139  1.00  0.00     0.076 C 
HETATM    8  S2  UNL     1      16.351   0.162  10.504  1.00  0.00    -0.132 SA
ENDROOT
TORSDOF 0
ENDMDL
