MODEL 1
REMARK VINA RESULT: -6.287018204      0.000      0.000
REMARK  0 active torsions:
REMARK  status: ('A' for Active; 'I' for Inactive)
ROOT
HETATM    1  N1  UNL     1      16.426  -0.525  15.019  1.00  0.00    -0.088 NA
HETATM    2  C1  UNL     1      16.312   0.731  15.679  1.00  0.00     0.088 C 
HETATM    3  N2  UNL     1      16.605   1.772  14.990  1.00  0.00    -0.382 N 
ATOM      4  H2  UNL     1      16.896   1.615  14.026  1.00  0.00     0.160 HD
HETATM    5  C2  UNL     1      16.566   3.126  15.432  1.00  0.00     0.120 C 
HETATM    6  C3  UNL     1      15.377   3.821  14.842  1.00  0.00     0.020 C 
HETATM    7  C4  UNL     1      14.488   4.352  15.931  1.00  0.00     0.002 C 
HETATM    8  C5  UNL     1      14.070   3.349  16.947  1.00  0.00     0.000 C 
HETATM    9  C6  UNL     1      13.774   1.985  16.415  1.00  0.00     0.000 C 
HETATM   10  C7  UNL     1      14.381   0.892  17.243  1.00  0.00     0.007 C 
HETATM   11  C8  UNL     1      15.872   0.779  17.096  1.00  0.00     0.073 C 
ENDROOT
TORSDOF 0
ENDMDL
MODEL 2
REMARK VINA RESULT: -5.618160292      0.939      3.008
REMARK  0 active torsions:
REMARK  status: ('A' for Active; 'I' for Inactive)
ROOT
HETATM    1  N1  UNL     1      17.899   3.497  14.954  1.00  0.00    -0.088 NA
HETATM    2  C1  UNL     1      16.749   2.667  15.074  1.00  0.00     0.088 C 
HETATM    3  N2  UNL     1      16.886   1.586  15.751  1.00  0.00    -0.382 N 
ATOM      4  H2  UNL     1      17.809   1.410  16.148  1.00  0.00     0.160 HD
HETATM    5  C2  UNL     1      15.883   0.607  16.007  1.00  0.00     0.120 C 
HETATM    6  C3  UNL     1      15.417   0.713  17.426  1.00  0.00     0.020 C 
HETATM    7  C4  UNL     1      13.939   0.977  17.472  1.00  0.00     0.002 C 
HETATM    8  C5  UNL     1      13.483   2.146  16.672  1.00  0.00     0.000 C 
HETATM    9  C6  UNL     1      14.398   3.327  16.685  1.00  0.00     0.000 C 
HETATM   10  C7  UNL     1      14.609   3.917  15.323  1.00  0.00     0.007 C 
HETATM   11  C8  UNL     1      15.477   3.077  14.428  1.00  0.00     0.073 C 
ENDROOT
TORSDOF 0
ENDMDL
MODEL 3
REMARK VINA RESULT: -5.536304678      1.199      1.651
REMARK  0 active torsions:
REMARK  status: ('A' for Active; 'I' for Inactive)
ROOT
HETATM    1  N1  UNL     1      15.258  -0.400  17.133  1.00  0.00    -0.088 NA
HETATM    2  C1  UNL     1      15.661   0.952  16.947  1.00  0.00     0.088 C 
HETATM    3  N2  UNL     1      16.544   1.170  16.042  1.00  0.00    -0.382 N 
ATOM      4  H2  UNL     1      16.884   0.357  15.531  1.00  0.00     0.160 HD
HETATM    5  C2  UNL     1      17.098   2.431  15.678  1.00  0.00     0.120 C 
HETATM    6  C3  UNL     1      16.529   2.878  14.366  1.00  0.00     0.020 C 
HETATM    7  C4  UNL     1      15.840   4.204  14.519  1.00  0.00     0.002 C 
HETATM    8  C5  UNL     1      14.811   4.259  15.592  1.00  0.00     0.000 C 
HETATM    9  C6  UNL     1      13.982   3.025  15.747  1.00  0.00     0.000 C 
HETATM   10  C7  UNL     1      13.817   2.610  17.178  1.00  0.00     0.007 C 
HETATM   11  C8  UNL     1      15.059   2.020  17.784  1.00  0.00     0.073 C 
ENDROOT
TORSDOF 0
ENDMDL
MODEL 4
REMARK VINA RESULT: -5.382086372      1.074      1.312
REMARK  0 active torsions:
REMARK  status: ('A' for Active; 'I' for Inactive)
ROOT
HETATM    1  N1  UNL     1      16.314  -0.077  14.727  1.00  0.00    -0.088 NA
HETATM    2  C1  UNL     1      16.470   1.289  15.094  1.00  0.00     0.088 C 
HETATM    3  N2  UNL     1      16.880   2.088  14.178  1.00  0.00    -0.382 N 
ATOM      4  H2  UNL     1      17.062   1.679  13.262  1.00  0.00     0.160 HD
HETATM    5  C2  UNL     1      17.109   3.489  14.308  1.00  0.00     0.120 C 
HETATM    6  C3  UNL     1      16.014   4.250  13.626  1.00  0.00     0.020 C 
HETATM    7  C4  UNL     1      15.319   5.154  14.604  1.00  0.00     0.002 C 
HETATM    8  C5  UNL     1      14.818   4.486  15.835  1.00  0.00     0.000 C 
HETATM    9  C6  UNL     1      14.251   3.118  15.634  1.00  0.00     0.000 C 
HETATM   10  C7  UNL     1      14.726   2.133  16.659  1.00  0.00     0.007 C 
HETATM   11  C8  UNL     1      16.159   1.717  16.481  1.00  0.00     0.073 C 
ENDROOT
TORSDOF 0
ENDMDL
MODEL 5
REMARK VINA RESULT: -5.254734979      1.178      2.645
REMARK  0 active torsions:
REMARK  status: ('A' for Active; 'I' for Inactive)
ROOT
HETATM    1  N1  UNL     1      17.120   0.248  16.170  1.00  0.00    -0.088 NA
HETATM    2  C1  UNL     1      16.105   1.133  15.708  1.00  0.00     0.088 C 
HETATM    3  N2  UNL     1      15.222   1.494  16.565  1.00  0.00    -0.382 N 
ATOM      4  H2  UNL     1      15.319   1.117  17.508  1.00  0.00     0.160 HD
HETATM    5  C2  UNL     1      14.119   2.367  16.338  1.00  0.00     0.120 C 
HETATM    6  C3  UNL     1      14.386   3.700  16.965  1.00  0.00     0.020 C 
HETATM    7  C4  UNL     1      14.339   4.785  15.926  1.00  0.00     0.002 C 
HETATM    8  C5  UNL     1      15.217   4.565  14.746  1.00  0.00     0.000 C 
HETATM    9  C6  UNL     1      16.545   3.947  15.042  1.00  0.00     0.000 C 
HETATM   10  C7  UNL     1      16.903   2.848  14.088  1.00  0.00     0.007 C 
HETATM   11  C8  UNL     1      16.113   1.586  14.294  1.00  0.00     0.073 C 
ENDROOT
TORSDOF 0
ENDMDL
