MODEL 1
REMARK VINA RESULT: -4.615716246      0.000      0.000
REMARK  1 active torsions:
REMARK  status: ('A' for Active; 'I' for Inactive)
REMARK    1  A    between atoms: O1_1  and  C1_3 
ROOT
HETATM    1  C1  UNL     1      16.285   1.485  16.340  1.00  0.00     0.128 C 
HETATM    2  C2  UNL     1      15.094   1.301  17.214  1.00  0.00     0.033 C 
HETATM    3  C3  UNL     1      13.904   2.131  16.813  1.00  0.00     0.013 C 
HETATM    4  C4  UNL     1      14.187   3.570  17.164  1.00  0.00     0.086 C 
HETATM    5  S1  UNL     1      14.834   4.517  15.792  1.00  0.00    -0.098 SA
HETATM    6  S2  UNL     1      15.854   3.345  14.388  1.00  0.00    -0.095 SA
HETATM    7  C5  UNL     1      15.989   1.600  14.886  1.00  0.00     0.117 C 
ENDROOT
BRANCH   1   8
HETATM    8  O1  UNL     1      17.100   0.341  16.501  1.00  0.00    -0.395 OA
ATOM      9  H1  UNL     1      17.879   0.616  16.971  1.00  0.00     0.210 HD
ENDBRANCH   1   8
TORSDOF 1
ENDMDL
MODEL 2
REMARK VINA RESULT: -3.902265206      1.499      2.599
REMARK  1 active torsions:
REMARK  status: ('A' for Active; 'I' for Inactive)
REMARK    1  A    between atoms: O1_1  and  C1_3 
ROOT
HETATM    1  C1  UNL     1      14.993   0.843  16.902  1.00  0.00     0.128 C 
HETATM    2  C2  UNL     1      16.285   0.804  16.163  1.00  0.00     0.033 C 
HETATM    3  C3  UNL     1      16.827   2.160  15.800  1.00  0.00     0.013 C 
HETATM    4  C4  UNL     1      15.980   2.728  14.689  1.00  0.00     0.086 C 
HETATM    5  S1  UNL     1      14.688   3.818  15.273  1.00  0.00    -0.098 SA
HETATM    6  S2  UNL     1      14.070   3.392  17.229  1.00  0.00    -0.095 SA
HETATM    7  C5  UNL     1      14.884   1.920  17.923  1.00  0.00     0.117 C 
ENDROOT
BRANCH   1   8
HETATM    8  O1  UNL     1      14.870  -0.386  17.591  1.00  0.00    -0.395 OA
ATOM      9  H1  UNL     1      14.063  -0.792  17.296  1.00  0.00     0.210 HD
ENDBRANCH   1   8
TORSDOF 1
ENDMDL
MODEL 3
REMARK VINA RESULT: -3.734994456      4.706      6.190
REMARK  1 active torsions:
REMARK  status: ('A' for Active; 'I' for Inactive)
REMARK    1  A    between atoms: O1_1  and  C1_3 
ROOT
HETATM    1  C1  UNL     1      16.548   1.721  11.095  1.00  0.00     0.128 C 
HETATM    2  C2  UNL     1      17.169   0.391  10.844  1.00  0.00     0.033 C 
HETATM    3  C3  UNL     1      18.553   0.242  11.414  1.00  0.00     0.013 C 
HETATM    4  C4  UNL     1      19.502   1.065  10.580  1.00  0.00     0.086 C 
HETATM    5  S1  UNL     1      19.807   2.692  11.256  1.00  0.00    -0.098 SA
HETATM    6  S2  UNL     1      18.229   3.407  12.431  1.00  0.00    -0.095 SA
HETATM    7  C5  UNL     1      16.796   2.286  12.450  1.00  0.00     0.117 C 
ENDROOT
BRANCH   1   8
HETATM    8  O1  UNL     1      15.148   1.557  10.971  1.00  0.00    -0.395 OA
ATOM      9  H1  UNL     1      14.939   1.637  10.048  1.00  0.00     0.210 HD
ENDBRANCH   1   8
TORSDOF 1
ENDMDL
MODEL 4
REMARK VINA RESULT: -3.713585609      1.551      1.761
REMARK  1 active torsions:
REMARK  status: ('A' for Active; 'I' for Inactive)
REMARK    1  A    between atoms: O1_1  and  C1_3 
ROOT
HETATM    1  C1  UNL     1      16.429   2.339  15.797  1.00  0.00     0.128 C 
HETATM    2  C2  UNL     1      15.273   2.952  16.509  1.00  0.00     0.033 C 
HETATM    3  C3  UNL     1      14.506   3.952  15.687  1.00  0.00     0.013 C 
HETATM    4  C4  UNL     1      15.342   5.200  15.555  1.00  0.00     0.086 C 
HETATM    5  S1  UNL     1      16.295   5.254  14.043  1.00  0.00    -0.098 SA
HETATM    6  S2  UNL     1      16.747   3.355  13.284  1.00  0.00    -0.095 SA
HETATM    7  C5  UNL     1      16.184   2.007  14.368  1.00  0.00     0.117 C 
ENDROOT
BRANCH   1   8
HETATM    8  O1  UNL     1      16.724   1.121  16.454  1.00  0.00    -0.395 OA
ATOM      9  H1  UNL     1      17.619   1.182  16.767  1.00  0.00     0.210 HD
ENDBRANCH   1   8
TORSDOF 1
ENDMDL
MODEL 5
REMARK VINA RESULT: -3.659559487      2.745      3.052
REMARK  1 active torsions:
REMARK  status: ('A' for Active; 'I' for Inactive)
REMARK    1  A    between atoms: O1_1  and  C1_3 
ROOT
HETATM    1  C1  UNL     1      14.796   3.139  15.532  1.00  0.00     0.128 C 
HETATM    2  C2  UNL     1      14.206   3.704  16.777  1.00  0.00     0.033 C 
HETATM    3  C3  UNL     1      14.637   3.000  18.035  1.00  0.00     0.013 C 
HETATM    4  C4  UNL     1      13.954   1.656  18.085  1.00  0.00     0.086 C 
HETATM    5  S1  UNL     1      14.965   0.327  17.444  1.00  0.00    -0.098 SA
HETATM    6  S2  UNL     1      16.372   0.967  16.032  1.00  0.00    -0.095 SA
HETATM    7  C5  UNL     1      16.225   2.737  15.638  1.00  0.00     0.117 C 
ENDROOT
BRANCH   1   8
HETATM    8  O1  UNL     1      14.728   4.149  14.544  1.00  0.00    -0.395 OA
ATOM      9  H1  UNL     1      15.456   4.740  14.699  1.00  0.00     0.210 HD
ENDBRANCH   1   8
TORSDOF 1
ENDMDL
