MODEL 1
REMARK VINA RESULT: -4.273086897      0.000      0.000
REMARK  0 active torsions:
REMARK  status: ('A' for Active; 'I' for Inactive)
ROOT
HETATM    1  C1  UNL     1      14.701   2.551  17.929  1.00  0.00     0.018 C 
HETATM    2  C2  UNL     1      14.020   3.422  16.919  1.00  0.00     0.012 C 
HETATM    3  C3  UNL     1      14.852   3.772  15.740  1.00  0.00     0.087 C 
HETATM    4  S1  UNL     1      16.333   2.778  15.554  1.00  0.00    -0.080 SA
HETATM    5  S2  UNL     1      16.080   0.775  16.132  1.00  0.00     0.008 SA
HETATM    6  N1  UNL     1      14.451   0.447  16.698  1.00  0.00    -0.169 NA
HETATM    7  C4  UNL     1      14.146   1.127  17.924  1.00  0.00     0.123 C 
ENDROOT
TORSDOF 0
ENDMDL
MODEL 2
REMARK VINA RESULT: -3.874242021      1.842      2.779
REMARK  0 active torsions:
REMARK  status: ('A' for Active; 'I' for Inactive)
ROOT
HETATM    1  C1  UNL     1      14.906   3.382  14.845  1.00  0.00     0.018 C 
HETATM    2  C2  UNL     1      14.654   4.276  16.020  1.00  0.00     0.012 C 
HETATM    3  C3  UNL     1      14.055   3.597  17.198  1.00  0.00     0.087 C 
HETATM    4  S1  UNL     1      14.128   1.806  17.139  1.00  0.00    -0.080 SA
HETATM    5  S2  UNL     1      15.877   1.062  16.246  1.00  0.00     0.008 SA
HETATM    6  N1  UNL     1      16.950   2.347  15.715  1.00  0.00    -0.169 NA
HETATM    7  C4  UNL     1      16.397   3.117  14.639  1.00  0.00     0.123 C 
ENDROOT
TORSDOF 0
ENDMDL
MODEL 3
REMARK VINA RESULT: -3.839106228      5.761      6.358
REMARK  0 active torsions:
REMARK  status: ('A' for Active; 'I' for Inactive)
ROOT
HETATM    1  C1  UNL     1      17.551  -0.046  10.720  1.00  0.00     0.018 C 
HETATM    2  C2  UNL     1      18.992   0.197  11.047  1.00  0.00     0.012 C 
HETATM    3  C3  UNL     1      19.364   1.630  11.182  1.00  0.00     0.087 C 
HETATM    4  S1  UNL     1      17.969   2.748  11.329  1.00  0.00    -0.080 SA
HETATM    5  S2  UNL     1      16.362   1.950  12.419  1.00  0.00     0.008 SA
HETATM    6  N1  UNL     1      16.685   0.319  12.983  1.00  0.00    -0.169 NA
HETATM    7  C4  UNL     1      16.785  -0.627  11.909  1.00  0.00     0.123 C 
ENDROOT
TORSDOF 0
ENDMDL
MODEL 4
REMARK VINA RESULT: -3.646361456      5.943      6.226
REMARK  0 active torsions:
REMARK  status: ('A' for Active; 'I' for Inactive)
ROOT
HETATM    1  C1  UNL     1      16.704   0.394  12.224  1.00  0.00     0.018 C 
HETATM    2  C2  UNL     1      15.988   1.518  11.541  1.00  0.00     0.012 C 
HETATM    3  C3  UNL     1      16.812   2.733  11.317  1.00  0.00     0.087 C 
HETATM    4  S1  UNL     1      18.575   2.484  11.529  1.00  0.00    -0.080 SA
HETATM    5  S2  UNL     1      19.244   0.601  10.885  1.00  0.00     0.008 SA
HETATM    6  N1  UNL     1      17.936  -0.389  10.256  1.00  0.00    -0.169 NA
HETATM    7  C4  UNL     1      16.993  -0.764  11.269  1.00  0.00     0.123 C 
ENDROOT
TORSDOF 0
ENDMDL
MODEL 5
REMARK VINA RESULT: -3.510554261      6.524      7.094
REMARK  0 active torsions:
REMARK  status: ('A' for Active; 'I' for Inactive)
ROOT
HETATM    1  C1  UNL     1      18.811   2.207  11.701  1.00  0.00     0.018 C 
HETATM    2  C2  UNL     1      19.422   1.147  10.838  1.00  0.00     0.012 C 
HETATM    3  C3  UNL     1      18.751  -0.177  10.912  1.00  0.00     0.087 C 
HETATM    4  S1  UNL     1      17.134  -0.147  11.686  1.00  0.00    -0.080 SA
HETATM    5  S2  UNL     1      16.032   1.591  11.269  1.00  0.00     0.008 SA
HETATM    6  N1  UNL     1      16.912   2.704  10.234  1.00  0.00    -0.169 NA
HETATM    7  C4  UNL     1      18.068   3.258  10.877  1.00  0.00     0.123 C 
ENDROOT
TORSDOF 0
ENDMDL
