MODEL 1
REMARK VINA RESULT: -5.098523897      0.000      0.000
REMARK  3 active torsions:
REMARK  status: ('A' for Active; 'I' for Inactive)
REMARK    1  A    between atoms: O1_2  and  C2_3 
REMARK    2  A    between atoms: N1_5  and  O2_7 
REMARK    3  A    between atoms: O2_7  and  C4_8 
ROOT
HETATM    1  C2  UNL     1      16.243   1.570  14.541  1.00  0.00     0.133 C 
HETATM    2  C3  UNL     1      16.028   2.968  14.069  1.00  0.00     0.099 C 
HETATM    3  N1  UNL     1      16.157   1.219  15.775  1.00  0.00    -0.248 N 
ATOM      4  H1  UNL     1      16.322   0.237  15.997  1.00  0.00     0.196 HD
ENDROOT
BRANCH   3   5
HETATM    5  O2  UNL     1      15.864   2.050  16.799  1.00  0.00    -0.269 OA
BRANCH   5   6
HETATM    6  C4  UNL     1      14.641   2.165  17.458  1.00  0.00     0.078 C 
HETATM    7  C5  UNL     1      14.062   3.543  17.109  1.00  0.00     0.048 C 
HETATM    8  C6  UNL     1      14.765   2.114  18.949  1.00  0.00     0.048 C 
HETATM    9  C7  UNL     1      13.613   1.154  17.008  1.00  0.00     0.048 C 
ENDBRANCH   5   6
ENDBRANCH   3   5
BRANCH   1  10
HETATM   10  O1  UNL     1      16.555   0.581  13.619  1.00  0.00    -0.343 OA
HETATM   11  C1  UNL     1      16.588   0.845  12.238  1.00  0.00     0.211 C 
ENDBRANCH   1  10
TORSDOF 3
ENDMDL
MODEL 2
REMARK VINA RESULT: -5.092539387      0.068      1.340
REMARK  3 active torsions:
REMARK  status: ('A' for Active; 'I' for Inactive)
REMARK    1  A    between atoms: O1_2  and  C2_3 
REMARK    2  A    between atoms: N1_5  and  O2_7 
REMARK    3  A    between atoms: O2_7  and  C4_8 
ROOT
HETATM    1  C2  UNL     1      16.262   1.536  14.562  1.00  0.00     0.133 C 
HETATM    2  C3  UNL     1      16.118   2.961  14.148  1.00  0.00     0.099 C 
HETATM    3  N1  UNL     1      16.140   1.136  15.778  1.00  0.00    -0.248 N 
ATOM      4  H1  UNL     1      16.257   0.140  15.960  1.00  0.00     0.196 HD
ENDROOT
BRANCH   3   5
HETATM    5  O2  UNL     1      15.867   1.935  16.833  1.00  0.00    -0.269 OA
BRANCH   5   6
HETATM    6  C4  UNL     1      14.617   2.168  17.404  1.00  0.00     0.078 C 
HETATM    7  C5  UNL     1      14.789   2.085  18.927  1.00  0.00     0.048 C 
HETATM    8  C6  UNL     1      13.595   1.141  17.029  1.00  0.00     0.048 C 
HETATM    9  C7  UNL     1      14.068   3.546  17.121  1.00  0.00     0.048 C 
ENDBRANCH   5   6
ENDBRANCH   3   5
BRANCH   1  10
HETATM   10  O1  UNL     1      16.545   0.574  13.602  1.00  0.00    -0.343 OA
HETATM   11  C1  UNL     1      16.581   0.888  12.232  1.00  0.00     0.211 C 
ENDBRANCH   1  10
TORSDOF 3
ENDMDL
MODEL 3
REMARK VINA RESULT: -5.062871026      0.131      1.351
REMARK  3 active torsions:
REMARK  status: ('A' for Active; 'I' for Inactive)
REMARK    1  A    between atoms: O1_2  and  C2_3 
REMARK    2  A    between atoms: N1_5  and  O2_7 
REMARK    3  A    between atoms: O2_7  and  C4_8 
ROOT
HETATM    1  C2  UNL     1      16.314   1.523  14.588  1.00  0.00     0.133 C 
HETATM    2  C3  UNL     1      16.339   2.961  14.195  1.00  0.00     0.099 C 
HETATM    3  N1  UNL     1      16.113   1.123  15.793  1.00  0.00    -0.248 N 
ATOM      4  H1  UNL     1      16.115   0.117  15.962  1.00  0.00     0.196 HD
ENDROOT
BRANCH   3   5
HETATM    5  O2  UNL     1      15.901   1.932  16.854  1.00  0.00    -0.269 OA
BRANCH   5   6
HETATM    6  C4  UNL     1      14.679   2.196  17.473  1.00  0.00     0.078 C 
HETATM    7  C5  UNL     1      13.696   1.106  17.024  1.00  0.00     0.048 C 
HETATM    8  C6  UNL     1      14.083   3.508  17.069  1.00  0.00     0.048 C 
HETATM    9  C7  UNL     1      14.733   2.114  18.980  1.00  0.00     0.048 C 
ENDBRANCH   5   6
ENDBRANCH   3   5
BRANCH   1  10
HETATM   10  O1  UNL     1      16.515   0.549  13.620  1.00  0.00    -0.343 OA
HETATM   11  C1  UNL     1      16.591   0.873  12.254  1.00  0.00     0.211 C 
ENDBRANCH   1  10
TORSDOF 3
ENDMDL
MODEL 4
REMARK VINA RESULT: -5.043973829      1.780      5.065
REMARK  3 active torsions:
REMARK  status: ('A' for Active; 'I' for Inactive)
REMARK    1  A    between atoms: O1_2  and  C2_3 
REMARK    2  A    between atoms: N1_5  and  O2_7 
REMARK    3  A    between atoms: O2_7  and  C4_8 
ROOT
HETATM    1  C2  UNL     1      16.220   0.920  15.659  1.00  0.00     0.133 C 
HETATM    2  C3  UNL     1      16.082   2.380  15.929  1.00  0.00     0.099 C 
HETATM    3  N1  UNL     1      16.547   0.441  14.513  1.00  0.00    -0.248 N 
ATOM      4  H1  UNL     1      16.615  -0.573  14.428  1.00  0.00     0.196 HD
ENDROOT
BRANCH   3   5
HETATM    5  O2  UNL     1      16.809   1.177  13.410  1.00  0.00    -0.269 OA
BRANCH   5   6
HETATM    6  C4  UNL     1      17.020   0.700  12.117  1.00  0.00     0.078 C 
HETATM    7  C5  UNL     1      15.963   1.349  11.213  1.00  0.00     0.048 C 
HETATM    8  C6  UNL     1      16.840  -0.781  11.996  1.00  0.00     0.048 C 
HETATM    9  C7  UNL     1      18.360   1.090  11.538  1.00  0.00     0.048 C 
ENDBRANCH   5   6
ENDBRANCH   3   5
BRANCH   1  10
HETATM   10  O1  UNL     1      15.986   0.013  16.684  1.00  0.00    -0.343 OA
HETATM   11  C1  UNL     1      15.043   0.271  17.695  1.00  0.00     0.211 C 
ENDBRANCH   1  10
TORSDOF 3
ENDMDL
MODEL 5
REMARK VINA RESULT: -5.019909289      1.783      5.058
REMARK  3 active torsions:
REMARK  status: ('A' for Active; 'I' for Inactive)
REMARK    1  A    between atoms: O1_2  and  C2_3 
REMARK    2  A    between atoms: N1_5  and  O2_7 
REMARK    3  A    between atoms: O2_7  and  C4_8 
ROOT
HETATM    1  C2  UNL     1      16.224   0.897  15.664  1.00  0.00     0.133 C 
HETATM    2  C3  UNL     1      16.128   2.358  15.947  1.00  0.00     0.099 C 
HETATM    3  N1  UNL     1      16.565   0.419  14.521  1.00  0.00    -0.248 N 
ATOM      4  H1  UNL     1      16.601  -0.596  14.427  1.00  0.00     0.196 HD
ENDROOT
BRANCH   3   5
HETATM    5  O2  UNL     1      16.880   1.157  13.434  1.00  0.00    -0.269 OA
BRANCH   5   6
HETATM    6  C4  UNL     1      16.944   0.715  12.113  1.00  0.00     0.078 C 
HETATM    7  C5  UNL     1      18.320   1.116  11.563  1.00  0.00     0.048 C 
HETATM    8  C6  UNL     1      15.922   1.353  11.225  1.00  0.00     0.048 C 
HETATM    9  C7  UNL     1      16.860  -0.787  11.973  1.00  0.00     0.048 C 
ENDBRANCH   5   6
ENDBRANCH   3   5
BRANCH   1  10
HETATM   10  O1  UNL     1      15.933  -0.011  16.672  1.00  0.00    -0.343 OA
HETATM   11  C1  UNL     1      15.019   0.292  17.697  1.00  0.00     0.211 C 
ENDBRANCH   1  10
TORSDOF 3
ENDMDL
