MODEL 1
REMARK VINA RESULT: -5.147176200      0.000      0.000
REMARK  1 active torsions:
REMARK  status: ('A' for Active; 'I' for Inactive)
REMARK    1  A    between atoms: O1_2  and  C2_3 
ROOT
HETATM    1  C2  UNL     1      16.629   1.656  12.019  1.00  0.00     0.148 C 
HETATM    2  C3  UNL     1      16.685   0.656  13.098  1.00  0.00     0.098 C 
HETATM    3  N1  UNL     1      16.723  -0.122  13.965  1.00  0.00    -0.194 NA
HETATM    4  C4  UNL     1      17.979   2.313  11.933  1.00  0.00     0.053 C 
HETATM    5  C5  UNL     1      19.096   1.341  11.666  1.00  0.00     0.004 C 
HETATM    6  C6  UNL     1      18.874   0.530  10.414  1.00  0.00     0.000 C 
HETATM    7  C7  UNL     1      18.068  -0.701  10.701  1.00  0.00     0.000 C 
HETATM    8  C8  UNL     1      16.596  -0.475  10.692  1.00  0.00     0.004 C 
HETATM    9  C9  UNL     1      16.205   0.985  10.761  1.00  0.00     0.053 C 
ENDROOT
BRANCH   1  10
HETATM   10  O1  UNL     1      15.694   2.604  12.395  1.00  0.00    -0.370 OA
HETATM   11  C1  UNL     1      16.106   3.394  13.442  1.00  0.00     0.204 C 
ENDBRANCH   1  10
TORSDOF 1
ENDMDL
MODEL 2
REMARK VINA RESULT: -5.146882683      3.151      4.715
REMARK  1 active torsions:
REMARK  status: ('A' for Active; 'I' for Inactive)
REMARK    1  A    between atoms: O1_2  and  C2_3 
ROOT
HETATM    1  C2  UNL     1      16.355   2.702  14.644  1.00  0.00     0.148 C 
HETATM    2  C3  UNL     1      16.093   2.519  13.207  1.00  0.00     0.098 C 
HETATM    3  N1  UNL     1      15.893   2.355  12.070  1.00  0.00    -0.194 NA
HETATM    4  C4  UNL     1      17.690   3.383  14.783  1.00  0.00     0.053 C 
HETATM    5  C5  UNL     1      17.751   4.713  14.081  1.00  0.00     0.004 C 
HETATM    6  C6  UNL     1      16.674   5.663  14.541  1.00  0.00     0.000 C 
HETATM    7  C7  UNL     1      15.412   5.474  13.756  1.00  0.00     0.000 C 
HETATM    8  C8  UNL     1      14.534   4.389  14.276  1.00  0.00     0.004 C 
HETATM    9  C9  UNL     1      15.227   3.460  15.247  1.00  0.00     0.053 C 
ENDROOT
BRANCH   1  10
HETATM   10  O1  UNL     1      16.439   1.439  15.204  1.00  0.00    -0.370 OA
HETATM   11  C1  UNL     1      15.919   1.367  16.474  1.00  0.00     0.204 C 
ENDBRANCH   1  10
TORSDOF 1
ENDMDL
MODEL 3
REMARK VINA RESULT: -5.000715182      3.073      4.828
REMARK  1 active torsions:
REMARK  status: ('A' for Active; 'I' for Inactive)
REMARK    1  A    between atoms: O1_2  and  C2_3 
ROOT
HETATM    1  C2  UNL     1      17.039   4.015  13.407  1.00  0.00     0.148 C 
HETATM    2  C3  UNL     1      16.293   2.932  12.747  1.00  0.00     0.098 C 
HETATM    3  N1  UNL     1      15.712   2.077  12.207  1.00  0.00    -0.194 NA
HETATM    4  C4  UNL     1      16.218   5.272  13.294  1.00  0.00     0.053 C 
HETATM    5  C5  UNL     1      14.853   5.145  13.913  1.00  0.00     0.004 C 
HETATM    6  C6  UNL     1      14.907   4.733  15.363  1.00  0.00     0.000 C 
HETATM    7  C7  UNL     1      14.947   3.242  15.503  1.00  0.00     0.000 C 
HETATM    8  C8  UNL     1      16.314   2.661  15.393  1.00  0.00     0.004 C 
HETATM    9  C9  UNL     1      17.334   3.614  14.808  1.00  0.00     0.053 C 
ENDROOT
BRANCH   1  10
HETATM   10  O1  UNL     1      18.215   4.186  12.699  1.00  0.00    -0.370 OA
HETATM   11  C1  UNL     1      19.307   4.424  13.500  1.00  0.00     0.204 C 
ENDBRANCH   1  10
TORSDOF 1
ENDMDL
MODEL 4
REMARK VINA RESULT: -4.892917806      1.238      1.340
REMARK  1 active torsions:
REMARK  status: ('A' for Active; 'I' for Inactive)
REMARK    1  A    between atoms: O1_2  and  C2_3 
ROOT
HETATM    1  C2  UNL     1      16.966   2.091  11.181  1.00  0.00     0.148 C 
HETATM    2  C3  UNL     1      16.789   1.830  12.618  1.00  0.00     0.098 C 
HETATM    3  N1  UNL     1      16.645   1.642  13.760  1.00  0.00    -0.194 NA
HETATM    4  C4  UNL     1      18.414   2.428  10.950  1.00  0.00     0.053 C 
HETATM    5  C5  UNL     1      19.353   1.337  11.387  1.00  0.00     0.004 C 
HETATM    6  C6  UNL     1      19.055   0.014  10.727  1.00  0.00     0.000 C 
HETATM    7  C7  UNL     1      18.031  -0.760  11.500  1.00  0.00     0.000 C 
HETATM    8  C8  UNL     1      16.624  -0.396  11.172  1.00  0.00     0.004 C 
HETATM    9  C9  UNL     1      16.495   0.907  10.414  1.00  0.00     0.053 C 
ENDROOT
BRANCH   1  10
HETATM   10  O1  UNL     1      16.196   3.199  10.873  1.00  0.00    -0.370 OA
HETATM   11  C1  UNL     1      16.907   4.375  10.864  1.00  0.00     0.204 C 
ENDBRANCH   1  10
TORSDOF 1
ENDMDL
MODEL 5
REMARK VINA RESULT: -4.818471654      2.048      2.930
REMARK  1 active torsions:
REMARK  status: ('A' for Active; 'I' for Inactive)
REMARK    1  A    between atoms: O1_2  and  C2_3 
ROOT
HETATM    1  C2  UNL     1      16.938   2.641  11.770  1.00  0.00     0.148 C 
HETATM    2  C3  UNL     1      17.254   3.256  10.471  1.00  0.00     0.098 C 
HETATM    3  N1  UNL     1      17.488   3.753   9.442  1.00  0.00    -0.194 NA
HETATM    4  C4  UNL     1      16.169   1.375  11.504  1.00  0.00     0.053 C 
HETATM    5  C5  UNL     1      16.922   0.394  10.648  1.00  0.00     0.004 C 
HETATM    6  C6  UNL     1      18.266   0.029  11.226  1.00  0.00     0.000 C 
HETATM    7  C7  UNL     1      19.325   0.995  10.791  1.00  0.00     0.000 C 
HETATM    8  C8  UNL     1      19.409   2.219  11.636  1.00  0.00     0.004 C 
HETATM    9  C9  UNL     1      18.202   2.429  12.524  1.00  0.00     0.053 C 
ENDROOT
BRANCH   1  10
HETATM   10  O1  UNL     1      16.118   3.527  12.447  1.00  0.00    -0.370 OA
HETATM   11  C1  UNL     1      15.817   3.125  13.727  1.00  0.00     0.204 C 
ENDBRANCH   1  10
TORSDOF 1
ENDMDL
