MODEL 1
REMARK VINA RESULT: -5.524660891      0.000      0.000
REMARK  0 active torsions:
REMARK  status: ('A' for Active; 'I' for Inactive)
ROOT
HETATM    1  C1  UNL     1      14.796   3.343  15.953  1.00  0.00     0.000 C 
HETATM    2  C2  UNL     1      13.987   3.594  17.168  1.00  0.00     0.000 C 
HETATM    3  C3  UNL     1      13.924   2.219  17.858  1.00  0.00     0.002 C 
HETATM    4  C4  UNL     1      15.214   1.472  17.852  1.00  0.00     0.021 C 
HETATM    5  C5  UNL     1      15.304   0.336  16.864  1.00  0.00     0.141 C 
HETATM    6  N1  UNL     1      16.499   0.370  16.032  1.00  0.00    -0.322 N 
ATOM      7  H1  UNL     1      17.386   0.208  16.509  1.00  0.00     0.181 HD
HETATM    8  N2  UNL     1      16.566   0.590  14.707  1.00  0.00    -0.252 N 
ATOM      9  H2  UNL     1      16.538  -0.300  14.209  1.00  0.00     0.207 HD
HETATM   10  N3  UNL     1      16.649   1.496  13.916  1.00  0.00    -0.322 N 
ATOM     11  H3  UNL     1      16.668   1.164  12.952  1.00  0.00     0.181 HD
HETATM   12  C6  UNL     1      16.727   2.911  13.998  1.00  0.00     0.141 C 
HETATM   13  C7  UNL     1      15.505   3.686  13.689  1.00  0.00     0.021 C 
HETATM   14  C8  UNL     1      14.812   4.363  14.861  1.00  0.00     0.002 C 
ENDROOT
TORSDOF 0
ENDMDL
MODEL 2
REMARK VINA RESULT: -5.457102902      0.740      3.396
REMARK  0 active torsions:
REMARK  status: ('A' for Active; 'I' for Inactive)
ROOT
HETATM    1  C1  UNL     1      14.631   3.732  16.259  1.00  0.00     0.000 C 
HETATM    2  C2  UNL     1      14.518   5.090  15.678  1.00  0.00     0.000 C 
HETATM    3  C3  UNL     1      15.628   5.128  14.611  1.00  0.00     0.002 C 
HETATM    4  C4  UNL     1      15.743   3.879  13.804  1.00  0.00     0.021 C 
HETATM    5  C5  UNL     1      16.900   2.979  14.158  1.00  0.00     0.141 C 
HETATM    6  N1  UNL     1      16.525   1.589  14.370  1.00  0.00    -0.322 N 
ATOM      7  H1  UNL     1      16.200   1.078  13.549  1.00  0.00     0.181 HD
HETATM    8  N2  UNL     1      16.557   0.900  15.525  1.00  0.00    -0.252 N 
ATOM      9  H2  UNL     1      17.453   0.420  15.614  1.00  0.00     0.207 HD
HETATM   10  N3  UNL     1      15.873   0.666  16.490  1.00  0.00    -0.322 N 
ATOM     11  H3  UNL     1      16.344   0.055  17.156  1.00  0.00     0.181 HD
HETATM   12  C6  UNL     1      14.572   1.032  16.924  1.00  0.00     0.141 C 
HETATM   13  C7  UNL     1      14.464   2.068  17.976  1.00  0.00     0.021 C 
HETATM   14  C8  UNL     1      13.933   3.426  17.543  1.00  0.00     0.002 C 
ENDROOT
TORSDOF 0
ENDMDL
MODEL 3
REMARK VINA RESULT: -5.375615310      3.702      4.750
REMARK  0 active torsions:
REMARK  status: ('A' for Active; 'I' for Inactive)
ROOT
HETATM    1  C1  UNL     1      16.836   2.339  12.880  1.00  0.00     0.000 C 
HETATM    2  C2  UNL     1      15.827   3.021  13.721  1.00  0.00     0.000 C 
HETATM    3  C3  UNL     1      16.661   3.972  14.600  1.00  0.00     0.002 C 
HETATM    4  C4  UNL     1      17.756   4.675  13.872  1.00  0.00     0.021 C 
HETATM    5  C5  UNL     1      19.146   4.145  14.118  1.00  0.00     0.141 C 
HETATM    6  N1  UNL     1      19.900   3.875  12.902  1.00  0.00    -0.322 N 
ATOM      7  H1  UNL     1      20.160   4.688  12.342  1.00  0.00     0.181 HD
HETATM    8  N2  UNL     1      20.294   2.678  12.432  1.00  0.00    -0.252 N 
ATOM      9  H2  UNL     1      21.232   2.467  12.773  1.00  0.00     0.207 HD
HETATM   10  N3  UNL     1      19.899   1.773  11.741  1.00  0.00    -0.322 N 
ATOM     11  H3  UNL     1      20.584   1.021  11.663  1.00  0.00     0.181 HD
HETATM   12  C6  UNL     1      18.714   1.497  11.008  1.00  0.00     0.141 C 
HETATM   13  C7  UNL     1      17.752   0.536  11.593  1.00  0.00     0.021 C 
HETATM   14  C8  UNL     1      16.448   1.113  12.120  1.00  0.00     0.002 C 
ENDROOT
TORSDOF 0
ENDMDL
MODEL 4
REMARK VINA RESULT: -5.219333583      4.413      6.363
REMARK  0 active torsions:
REMARK  status: ('A' for Active; 'I' for Inactive)
ROOT
HETATM    1  C1  UNL     1      18.804   0.930  10.838  1.00  0.00     0.000 C 
HETATM    2  C2  UNL     1      19.979   1.342  10.037  1.00  0.00     0.000 C 
HETATM    3  C3  UNL     1      20.249   2.787  10.495  1.00  0.00     0.002 C 
HETATM    4  C4  UNL     1      20.125   2.995  11.967  1.00  0.00     0.021 C 
HETATM    5  C5  UNL     1      18.866   3.690  12.422  1.00  0.00     0.141 C 
HETATM    6  N1  UNL     1      18.164   3.000  13.495  1.00  0.00    -0.322 N 
ATOM      7  H1  UNL     1      18.638   2.968  14.397  1.00  0.00     0.181 HD
HETATM    8  N2  UNL     1      16.963   2.399  13.431  1.00  0.00    -0.252 N 
ATOM      9  H2  UNL     1      16.234   3.058  13.705  1.00  0.00     0.207 HD
HETATM   10  N3  UNL     1      16.466   1.335  13.156  1.00  0.00    -0.322 N 
ATOM     11  H3  UNL     1      15.451   1.346  13.257  1.00  0.00     0.181 HD
HETATM   12  C6  UNL     1      16.948   0.071  12.725  1.00  0.00     0.141 C 
HETATM   13  C7  UNL     1      16.784  -0.277  11.295  1.00  0.00     0.021 C 
HETATM   14  C8  UNL     1      18.047  -0.298  10.449  1.00  0.00     0.002 C 
ENDROOT
TORSDOF 0
ENDMDL
MODEL 5
REMARK VINA RESULT: -5.215958127      3.761      5.341
REMARK  0 active torsions:
REMARK  status: ('A' for Active; 'I' for Inactive)
ROOT
HETATM    1  C1  UNL     1      16.850   2.035  12.557  1.00  0.00     0.000 C 
HETATM    2  C2  UNL     1      16.249   1.026  11.655  1.00  0.00     0.000 C 
HETATM    3  C3  UNL     1      17.383   0.694  10.666  1.00  0.00     0.002 C 
HETATM    4  C4  UNL     1      18.725   0.555  11.300  1.00  0.00     0.021 C 
HETATM    5  C5  UNL     1      19.663   1.719  11.101  1.00  0.00     0.141 C 
HETATM    6  N1  UNL     1      20.266   2.210  12.331  1.00  0.00    -0.322 N 
ATOM      7  H1  UNL     1      20.923   1.582  12.794  1.00  0.00     0.181 HD
HETATM    8  N2  UNL     1      20.056   3.397  12.928  1.00  0.00    -0.252 N 
ATOM      9  H2  UNL     1      20.749   4.072  12.603  1.00  0.00     0.207 HD
HETATM   10  N3  UNL     1      19.316   3.924  13.721  1.00  0.00    -0.322 N 
ATOM     11  H3  UNL     1      19.551   4.904  13.875  1.00  0.00     0.181 HD
HETATM   12  C6  UNL     1      18.196   3.513  14.491  1.00  0.00     0.141 C 
HETATM   13  C7  UNL     1      16.852   3.927  14.028  1.00  0.00     0.021 C 
HETATM   14  C8  UNL     1      15.963   2.836  13.453  1.00  0.00     0.002 C 
ENDROOT
TORSDOF 0
ENDMDL
