MODEL 1
REMARK VINA RESULT: -5.809084242      0.000      0.000
REMARK  0 active torsions:
REMARK  status: ('A' for Active; 'I' for Inactive)
ROOT
HETATM    1  N1  UNL     1      16.721  -0.457  14.868  1.00  0.00    -0.190 NA
HETATM    2  C1  UNL     1      16.592   0.458  14.151  1.00  0.00     0.114 C 
HETATM    3  C2  UNL     1      16.450   1.617  13.224  1.00  0.00     0.105 C 
HETATM    4  C3  UNL     1      16.215   1.162  11.822  1.00  0.00     0.070 C 
HETATM    5  C4  UNL     1      16.755  -0.146  11.390  1.00  0.00     0.007 C 
HETATM    6  C5  UNL     1      17.979  -0.105  10.437  1.00  0.00     0.000 C 
HETATM    7  C6  UNL     1      18.797   0.921  11.032  1.00  0.00     0.000 C 
HETATM    8  C7  UNL     1      20.106   1.445  10.687  1.00  0.00     0.005 C 
HETATM    9  C8  UNL     1      20.278   2.558  11.757  1.00  0.00     0.046 C 
HETATM   10  C9  UNL     1      19.098   3.427  11.992  1.00  0.00     0.080 C 
HETATM   11  N2  UNL     1      18.243   3.226  13.052  1.00  0.00    -0.315 N 
ATOM     12  H2  UNL     1      18.523   3.902  13.762  1.00  0.00     0.185 HD
HETATM   13  N3  UNL     1      17.353   2.642  13.509  1.00  0.00    -0.295 N 
ATOM     14  H3  UNL     1      17.163   3.002  14.444  1.00  0.00     0.187 HD
ENDROOT
TORSDOF 0
ENDMDL
MODEL 2
REMARK VINA RESULT: -5.594123205      1.573      3.641
REMARK  0 active torsions:
REMARK  status: ('A' for Active; 'I' for Inactive)
ROOT
HETATM    1  N1  UNL     1      16.545   4.529  10.504  1.00  0.00    -0.190 NA
HETATM    2  C1  UNL     1      17.019   3.899  11.367  1.00  0.00     0.114 C 
HETATM    3  C2  UNL     1      17.628   3.075  12.451  1.00  0.00     0.105 C 
HETATM    4  C3  UNL     1      19.048   2.737  12.142  1.00  0.00     0.070 C 
HETATM    5  C4  UNL     1      19.472   2.638  10.728  1.00  0.00     0.007 C 
HETATM    6  C5  UNL     1      19.741   1.207  10.189  1.00  0.00     0.000 C 
HETATM    7  C6  UNL     1      18.630   0.463  10.727  1.00  0.00     0.000 C 
HETATM    8  C7  UNL     1      18.227  -0.923  10.583  1.00  0.00     0.005 C 
HETATM    9  C8  UNL     1      16.974  -0.970  11.501  1.00  0.00     0.046 C 
HETATM   10  C9  UNL     1      17.105  -0.301  12.820  1.00  0.00     0.080 C 
HETATM   11  N2  UNL     1      16.615   0.965  13.047  1.00  0.00    -0.315 N 
ATOM     12  H2  UNL     1      15.724   0.832  13.526  1.00  0.00     0.185 HD
HETATM   13  N3  UNL     1      16.748   2.112  12.946  1.00  0.00    -0.295 N 
ATOM     14  H3  UNL     1      15.943   2.578  13.363  1.00  0.00     0.187 HD
ENDROOT
TORSDOF 0
ENDMDL
MODEL 3
REMARK VINA RESULT: -5.500304967      2.211      3.726
REMARK  0 active torsions:
REMARK  status: ('A' for Active; 'I' for Inactive)
ROOT
HETATM    1  N1  UNL     1      19.430   0.399  11.081  1.00  0.00    -0.190 NA
HETATM    2  C1  UNL     1      18.332   0.527  11.459  1.00  0.00     0.114 C 
HETATM    3  C2  UNL     1      16.937   0.716  11.950  1.00  0.00     0.105 C 
HETATM    4  C3  UNL     1      16.248   1.817  11.215  1.00  0.00     0.070 C 
HETATM    5  C4  UNL     1      17.056   2.924  10.657  1.00  0.00     0.007 C 
HETATM    6  C5  UNL     1      16.956   4.288  11.391  1.00  0.00     0.000 C 
HETATM    7  C6  UNL     1      17.017   3.895  12.776  1.00  0.00     0.000 C 
HETATM    8  C7  UNL     1      17.023   4.665  14.006  1.00  0.00     0.005 C 
HETATM    9  C8  UNL     1      17.050   3.533  15.071  1.00  0.00     0.046 C 
HETATM   10  C9  UNL     1      16.128   2.394  14.837  1.00  0.00     0.080 C 
HETATM   11  N2  UNL     1      16.557   1.210  14.284  1.00  0.00    -0.315 N 
ATOM     12  H2  UNL     1      16.685   0.571  15.069  1.00  0.00     0.185 HD
HETATM   13  N3  UNL     1      16.840   0.603  13.338  1.00  0.00    -0.295 N 
ATOM     14  H3  UNL     1      17.113  -0.339  13.615  1.00  0.00     0.187 HD
ENDROOT
TORSDOF 0
ENDMDL
MODEL 4
REMARK VINA RESULT: -5.263378795      1.230      1.273
REMARK  0 active torsions:
REMARK  status: ('A' for Active; 'I' for Inactive)
ROOT
HETATM    1  N1  UNL     1      16.457   1.705  15.028  1.00  0.00    -0.190 NA
HETATM    2  C1  UNL     1      16.306   2.059  13.925  1.00  0.00     0.114 C 
HETATM    3  C2  UNL     1      16.139   2.502  12.511  1.00  0.00     0.105 C 
HETATM    4  C3  UNL     1      16.115   1.337  11.578  1.00  0.00     0.070 C 
HETATM    5  C4  UNL     1      16.844   0.104  11.950  1.00  0.00     0.007 C 
HETATM    6  C5  UNL     1      18.155  -0.182  11.169  1.00  0.00     0.000 C 
HETATM    7  C6  UNL     1      18.780   1.116  11.132  1.00  0.00     0.000 C 
HETATM    8  C7  UNL     1      20.051   1.569  10.599  1.00  0.00     0.005 C 
HETATM    9  C8  UNL     1      19.975   3.093  10.892  1.00  0.00     0.046 C 
HETATM   10  C9  UNL     1      18.685   3.756  10.576  1.00  0.00     0.080 C 
HETATM   11  N2  UNL     1      17.746   4.024  11.545  1.00  0.00    -0.315 N 
ATOM     12  H2  UNL     1      17.866   5.010  11.778  1.00  0.00     0.185 HD
HETATM   13  N3  UNL     1      16.881   3.646  12.218  1.00  0.00    -0.295 N 
ATOM     14  H3  UNL     1      16.549   4.416  12.797  1.00  0.00     0.187 HD
ENDROOT
TORSDOF 0
ENDMDL
MODEL 5
REMARK VINA RESULT: -5.200752876      1.651      2.160
REMARK  0 active torsions:
REMARK  status: ('A' for Active; 'I' for Inactive)
ROOT
HETATM    1  N1  UNL     1      16.660   1.997  16.054  1.00  0.00    -0.190 NA
HETATM    2  C1  UNL     1      16.989   2.772  15.243  1.00  0.00     0.114 C 
HETATM    3  C2  UNL     1      17.414   3.739  14.191  1.00  0.00     0.105 C 
HETATM    4  C3  UNL     1      16.498   3.696  13.014  1.00  0.00     0.070 C 
HETATM    5  C4  UNL     1      15.788   2.437  12.702  1.00  0.00     0.007 C 
HETATM    6  C5  UNL     1      16.292   1.651  11.462  1.00  0.00     0.000 C 
HETATM    7  C6  UNL     1      17.723   1.725  11.614  1.00  0.00     0.000 C 
HETATM    8  C7  UNL     1      18.814   1.167  10.837  1.00  0.00     0.005 C 
HETATM    9  C8  UNL     1      20.046   1.733  11.596  1.00  0.00     0.046 C 
HETATM   10  C9  UNL     1      19.977   3.166  11.977  1.00  0.00     0.080 C 
HETATM   11  N2  UNL     1      19.630   3.567  13.246  1.00  0.00    -0.315 N 
ATOM     12  H2  UNL     1      20.510   3.781  13.717  1.00  0.00     0.185 HD
HETATM   13  N3  UNL     1      18.799   3.774  14.027  1.00  0.00    -0.295 N 
ATOM     14  H3  UNL     1      19.230   4.093  14.895  1.00  0.00     0.187 HD
ENDROOT
TORSDOF 0
ENDMDL
