MODEL 1
REMARK VINA RESULT: -4.540984375      0.000      0.000
REMARK  0 active torsions:
REMARK  status: ('A' for Active; 'I' for Inactive)
ROOT
HETATM    1  C1  UNL     1      17.839  -0.540  10.276  1.00  0.00     0.002 C 
HETATM    2  C2  UNL     1      19.008  -0.146  11.107  1.00  0.00     0.001 C 
HETATM    3  C3  UNL     1      19.647   1.091  10.551  1.00  0.00     0.010 C 
HETATM    4  C4  UNL     1      19.692   2.238  11.510  1.00  0.00     0.075 C 
HETATM    5  S1  UNL     1      18.695   3.652  10.948  1.00  0.00    -0.142 SA
HETATM    6  C5  UNL     1      16.936   3.406  11.311  1.00  0.00     0.305 C 
HETATM    7  N1  UNL     1      16.517   2.179  10.704  1.00  0.00    -0.067 N 
ATOM      8  H11 UNL     1      17.103   1.953   9.900  1.00  0.00     0.278 HD
ATOM      9  H12 UNL     1      15.620   2.296  10.231  1.00  0.00     0.278 HD
HETATM   10  C6  UNL     1      16.467   1.067  11.634  1.00  0.00     0.233 C 
HETATM   11  C7  UNL     1      16.508  -0.198  10.834  1.00  0.00     0.027 C 
ENDROOT
TORSDOF 0
ENDMDL
MODEL 2
REMARK VINA RESULT: -4.385116875      1.394      2.746
REMARK  0 active torsions:
REMARK  status: ('A' for Active; 'I' for Inactive)
ROOT
HETATM    1  C1  UNL     1      17.131  -0.406  11.705  1.00  0.00     0.002 C 
HETATM    2  C2  UNL     1      16.298   0.743  11.259  1.00  0.00     0.001 C 
HETATM    3  C3  UNL     1      16.412   1.876  12.235  1.00  0.00     0.010 C 
HETATM    4  C4  UNL     1      16.923   3.148  11.637  1.00  0.00     0.075 C 
HETATM    5  S1  UNL     1      18.528   3.646  12.331  1.00  0.00    -0.142 SA
HETATM    6  C5  UNL     1      19.892   2.728  11.568  1.00  0.00     0.305 C 
HETATM    7  N1  UNL     1      19.645   1.328  11.738  1.00  0.00    -0.067 N 
ATOM      8  H11 UNL     1      19.061   1.159  12.557  1.00  0.00     0.278 HD
ATOM      9  H12 UNL     1      20.494   0.844  12.033  1.00  0.00     0.278 HD
HETATM   10  C6  UNL     1      19.077   0.700  10.561  1.00  0.00     0.233 C 
HETATM   11  C7  UNL     1      18.423  -0.576  10.997  1.00  0.00     0.027 C 
ENDROOT
TORSDOF 0
ENDMDL
MODEL 3
REMARK VINA RESULT: -4.357342870      1.751      2.908
REMARK  0 active torsions:
REMARK  status: ('A' for Active; 'I' for Inactive)
ROOT
HETATM    1  C1  UNL     1      18.904  -0.011  10.987  1.00  0.00     0.002 C 
HETATM    2  C2  UNL     1      17.451   0.214  10.761  1.00  0.00     0.001 C 
HETATM    3  C3  UNL     1      16.759   0.481  12.064  1.00  0.00     0.010 C 
HETATM    4  C4  UNL     1      16.058   1.800  12.124  1.00  0.00     0.075 C 
HETATM    5  S1  UNL     1      16.775   2.912  13.371  1.00  0.00    -0.142 SA
HETATM    6  C5  UNL     1      18.271   3.725  12.750  1.00  0.00     0.305 C 
HETATM    7  N1  UNL     1      19.197   2.713  12.336  1.00  0.00    -0.067 N 
ATOM      8  H11 UNL     1      19.034   1.844  12.843  1.00  0.00     0.278 HD
ATOM      9  H12 UNL     1      20.139   2.927  12.667  1.00  0.00     0.278 HD
HETATM   10  C6  UNL     1      19.193   2.484  10.904  1.00  0.00     0.233 C 
HETATM   11  C7  UNL     1      19.790   1.132  10.658  1.00  0.00     0.027 C 
ENDROOT
TORSDOF 0
ENDMDL
MODEL 4
REMARK VINA RESULT: -4.271461938      1.860      3.201
REMARK  0 active torsions:
REMARK  status: ('A' for Active; 'I' for Inactive)
ROOT
HETATM    1  C1  UNL     1      20.315   2.591  11.518  1.00  0.00     0.002 C 
HETATM    2  C2  UNL     1      19.862   1.707  10.411  1.00  0.00     0.001 C 
HETATM    3  C3  UNL     1      19.408   0.386  10.954  1.00  0.00     0.010 C 
HETATM    4  C4  UNL     1      17.987   0.047  10.630  1.00  0.00     0.075 C 
HETATM    5  S1  UNL     1      16.943  -0.061  12.115  1.00  0.00    -0.142 SA
HETATM    6  C5  UNL     1      16.432   1.581  12.685  1.00  0.00     0.305 C 
HETATM    7  N1  UNL     1      17.607   2.368  12.912  1.00  0.00    -0.067 N 
ATOM      8  H11 UNL     1      18.406   1.771  13.126  1.00  0.00     0.278 HD
ATOM      9  H12 UNL     1      17.538   2.878  13.793  1.00  0.00     0.278 HD
HETATM   10  C6  UNL     1      17.914   3.268  11.818  1.00  0.00     0.233 C 
HETATM   11  C7  UNL     1      19.359   3.647  11.931  1.00  0.00     0.027 C 
ENDROOT
TORSDOF 0
ENDMDL
MODEL 5
REMARK VINA RESULT: -4.201838389      2.242      3.385
REMARK  0 active torsions:
REMARK  status: ('A' for Active; 'I' for Inactive)
ROOT
HETATM    1  C1  UNL     1      18.688   0.775  11.339  1.00  0.00     0.002 C 
HETATM    2  C2  UNL     1      17.343   1.396  11.205  1.00  0.00     0.001 C 
HETATM    3  C3  UNL     1      16.738   1.620  12.559  1.00  0.00     0.010 C 
HETATM    4  C4  UNL     1      16.401   3.048  12.849  1.00  0.00     0.075 C 
HETATM    5  S1  UNL     1      17.377   3.726  14.225  1.00  0.00    -0.142 SA
HETATM    6  C5  UNL     1      19.034   4.218  13.681  1.00  0.00     0.305 C 
HETATM    7  N1  UNL     1      19.669   3.083  13.081  1.00  0.00    -0.067 N 
ATOM      8  H11 UNL     1      19.285   2.215  13.454  1.00  0.00     0.278 HD
ATOM      9  H12 UNL     1      20.633   2.993  13.406  1.00  0.00     0.278 HD
HETATM   10  C6  UNL     1      19.612   3.093  11.633  1.00  0.00     0.233 C 
HETATM   11  C7  UNL     1      19.840   1.691  11.158  1.00  0.00     0.027 C 
ENDROOT
TORSDOF 0
ENDMDL
