MODEL 1
REMARK VINA RESULT: -4.956088606      0.000      0.000
REMARK  1 active torsions:
REMARK  status: ('A' for Active; 'I' for Inactive)
REMARK    1  A    between atoms: O1_2  and  C1_3 
ROOT
HETATM    1  C1  UNL     1      16.598   0.929  15.433  1.00  0.00     0.193 A 
HETATM    2  N1  UNL     1      16.867   0.162  14.423  1.00  0.00    -0.319 N 
ATOM      3  H1  UNL     1      17.103  -0.819  14.575  1.00  0.00     0.169 HD
HETATM    4  C2  UNL     1      16.834   0.652  13.195  1.00  0.00     0.149 A 
HETATM    5 CL2  UNL     1      17.164  -0.203  11.676  1.00  0.00    -0.056 Cl
HETATM    6  S1  UNL     1      16.403   2.282  13.461  1.00  0.00    -0.043 SA
HETATM    7  C3  UNL     1      16.288   2.242  15.164  1.00  0.00     0.130 A 
HETATM    8 CL3  UNL     1      15.883   3.514  16.324  1.00  0.00    -0.071 Cl
ENDROOT
BRANCH   1   9
HETATM    9  O1  UNL     1      16.617   0.461  16.779  1.00  0.00    -0.220 OA
HETATM   10 CL1  UNL     1      15.126   0.304  17.591  1.00  0.00     0.069 Cl
ENDBRANCH   1   9
TORSDOF 1
ENDMDL
MODEL 2
REMARK VINA RESULT: -4.673054056      2.596      3.940
REMARK  1 active torsions:
REMARK  status: ('A' for Active; 'I' for Inactive)
REMARK    1  A    between atoms: O1_2  and  C1_3 
ROOT
HETATM    1  C1  UNL     1      16.501   1.931  16.299  1.00  0.00     0.193 A 
HETATM    2  N1  UNL     1      16.613   3.152  15.880  1.00  0.00    -0.319 N 
ATOM      3  H1  UNL     1      17.402   3.420  15.291  1.00  0.00     0.169 HD
HETATM    4  C2  UNL     1      15.703   4.051  16.216  1.00  0.00     0.149 A 
HETATM    5 CL2  UNL     1      15.652   5.766  15.764  1.00  0.00    -0.056 Cl
HETATM    6  S1  UNL     1      14.625   3.141  17.177  1.00  0.00    -0.043 SA
HETATM    7  C3  UNL     1      15.417   1.631  17.091  1.00  0.00     0.130 A 
HETATM    8 CL3  UNL     1      15.003   0.067  17.807  1.00  0.00    -0.071 Cl
ENDROOT
BRANCH   1   9
HETATM    9  O1  UNL     1      17.448   0.916  15.972  1.00  0.00    -0.220 OA
HETATM   10 CL1  UNL     1      16.979  -0.283  14.854  1.00  0.00     0.069 Cl
ENDBRANCH   1   9
TORSDOF 1
ENDMDL
MODEL 3
REMARK VINA RESULT: -4.625325277      2.635      3.433
REMARK  1 active torsions:
REMARK  status: ('A' for Active; 'I' for Inactive)
REMARK    1  A    between atoms: O1_2  and  C1_3 
ROOT
HETATM    1  C1  UNL     1      16.655   2.339  16.071  1.00  0.00     0.193 A 
HETATM    2  N1  UNL     1      16.944   3.239  15.184  1.00  0.00    -0.319 N 
ATOM      3  H1  UNL     1      17.734   3.100  14.553  1.00  0.00     0.169 HD
HETATM    4  C2  UNL     1      16.214   4.339  15.099  1.00  0.00     0.149 A 
HETATM    5 CL2  UNL     1      16.422   5.695  13.975  1.00  0.00    -0.056 Cl
HETATM    6  S1  UNL     1      15.053   4.106  16.328  1.00  0.00    -0.043 SA
HETATM    7  C3  UNL     1      15.580   2.584  16.894  1.00  0.00     0.130 A 
HETATM    8 CL3  UNL     1      14.952   1.551  18.185  1.00  0.00    -0.071 Cl
ENDROOT
BRANCH   1   9
HETATM    9  O1  UNL     1      17.402   1.133  16.213  1.00  0.00    -0.220 OA
HETATM   10 CL1  UNL     1      16.930  -0.214  15.282  1.00  0.00     0.069 Cl
ENDBRANCH   1   9
TORSDOF 1
ENDMDL
MODEL 4
REMARK VINA RESULT: -4.555430302      1.707      3.416
REMARK  1 active torsions:
REMARK  status: ('A' for Active; 'I' for Inactive)
REMARK    1  A    between atoms: O1_2  and  C1_3 
ROOT
HETATM    1  C1  UNL     1      16.389   1.693  15.920  1.00  0.00     0.193 A 
HETATM    2  N1  UNL     1      16.161   2.886  16.373  1.00  0.00    -0.319 N 
ATOM      3  H1  UNL     1      16.060   3.040  17.377  1.00  0.00     0.169 HD
HETATM    4  C2  UNL     1      16.059   3.903  15.534  1.00  0.00     0.149 A 
HETATM    5 CL2  UNL     1      15.751   5.606  15.924  1.00  0.00    -0.056 Cl
HETATM    6  S1  UNL     1      16.295   3.154  14.019  1.00  0.00    -0.043 SA
HETATM    7  C3  UNL     1      16.514   1.549  14.557  1.00  0.00     0.130 A 
HETATM    8 CL3  UNL     1      16.824   0.059  13.654  1.00  0.00    -0.071 Cl
ENDROOT
BRANCH   1   9
HETATM    9  O1  UNL     1      16.510   0.557  16.772  1.00  0.00    -0.220 OA
HETATM   10 CL1  UNL     1      15.150   0.103  17.694  1.00  0.00     0.069 Cl
ENDBRANCH   1   9
TORSDOF 1
ENDMDL
MODEL 5
REMARK VINA RESULT: -4.551550921      2.067      2.108
REMARK  1 active torsions:
REMARK  status: ('A' for Active; 'I' for Inactive)
REMARK    1  A    between atoms: O1_2  and  C1_3 
ROOT
HETATM    1  C1  UNL     1      16.485   1.849  16.204  1.00  0.00     0.193 A 
HETATM    2  N1  UNL     1      17.129   1.907  15.080  1.00  0.00    -0.319 N 
ATOM      3  H1  UNL     1      17.662   1.100  14.754  1.00  0.00     0.169 HD
HETATM    4  C2  UNL     1      17.095   3.013  14.357  1.00  0.00     0.149 A 
HETATM    5 CL2  UNL     1      17.894   3.319  12.803  1.00  0.00    -0.056 Cl
HETATM    6  S1  UNL     1      16.106   4.038  15.297  1.00  0.00    -0.043 SA
HETATM    7  C3  UNL     1      15.786   2.969  16.590  1.00  0.00     0.130 A 
HETATM    8 CL3  UNL     1      14.823   3.187  18.058  1.00  0.00    -0.071 Cl
ENDROOT
BRANCH   1   9
HETATM    9  O1  UNL     1      16.482   0.686  17.028  1.00  0.00    -0.220 OA
HETATM   10 CL1  UNL     1      14.976   0.084  17.555  1.00  0.00     0.069 Cl
ENDBRANCH   1   9
TORSDOF 1
ENDMDL
