MODEL 1
REMARK VINA RESULT: -5.570814982      0.000      0.000
REMARK  0 active torsions:
REMARK  status: ('A' for Active; 'I' for Inactive)
ROOT
HETATM    1  N1  UNL     1      15.519  -0.001  17.267  1.00  0.00    -0.096 NA
HETATM    2  C1  UNL     1      15.713   1.280  16.708  1.00  0.00     0.123 A 
HETATM    3  C2  UNL     1      16.301   1.429  15.457  1.00  0.00     0.133 A 
HETATM    4 CL1  UNL     1      16.777  -0.026  14.627  1.00  0.00    -0.062 Cl
HETATM    5  N2  UNL     1      16.471   2.652  14.956  1.00  0.00    -0.321 N 
ATOM      6  H2  UNL     1      16.903   2.748  14.037  1.00  0.00     0.169 HD
HETATM    7  C3  UNL     1      16.095   3.770  15.611  1.00  0.00     0.181 A 
HETATM    8 CL2  UNL     1      16.339   5.360  14.911  1.00  0.00    -0.045 Cl
HETATM    9  N3  UNL     1      15.528   3.611  16.822  1.00  0.00    -0.321 N 
ATOM     10  H3  UNL     1      15.236   4.443  17.335  1.00  0.00     0.169 HD
HETATM   11  C4  UNL     1      15.329   2.420  17.381  1.00  0.00     0.133 A 
HETATM   12 CL3  UNL     1      14.585   2.221  18.966  1.00  0.00    -0.062 Cl
ENDROOT
TORSDOF 0
ENDMDL
MODEL 2
REMARK VINA RESULT: -5.566815601      0.135      2.817
REMARK  0 active torsions:
REMARK  status: ('A' for Active; 'I' for Inactive)
ROOT
HETATM    1  N1  UNL     1      15.636  -0.014  17.163  1.00  0.00    -0.096 NA
HETATM    2  C1  UNL     1      15.770   1.275  16.604  1.00  0.00     0.123 A 
HETATM    3  C2  UNL     1      15.373   2.404  17.312  1.00  0.00     0.133 A 
HETATM    4 CL1  UNL     1      14.715   2.149  18.904  1.00  0.00    -0.062 Cl
HETATM    5  N2  UNL     1      15.513   3.607  16.756  1.00  0.00    -0.321 N 
ATOM      6  H2  UNL     1      15.218   4.426  17.287  1.00  0.00     0.169 HD
HETATM    7  C3  UNL     1      16.026   3.788  15.522  1.00  0.00     0.181 A 
HETATM    8 CL2  UNL     1      16.190   5.392  14.831  1.00  0.00    -0.045 Cl
HETATM    9  N3  UNL     1      16.405   2.686  14.847  1.00  0.00    -0.321 N 
ATOM     10  H3  UNL     1      16.796   2.800  13.912  1.00  0.00     0.169 HD
HETATM   11  C4  UNL     1      16.295   1.456  15.342  1.00  0.00     0.133 A 
HETATM   12 CL3  UNL     1      16.794   0.019  14.451  1.00  0.00    -0.062 Cl
ENDROOT
TORSDOF 0
ENDMDL
MODEL 3
REMARK VINA RESULT: -5.496066394      1.377      1.488
REMARK  0 active torsions:
REMARK  status: ('A' for Active; 'I' for Inactive)
ROOT
HETATM    1  N1  UNL     1      16.467  -0.327  15.275  1.00  0.00    -0.096 NA
HETATM    2  C1  UNL     1      16.257   1.060  15.427  1.00  0.00     0.123 A 
HETATM    3  C2  UNL     1      16.564   1.944  14.399  1.00  0.00     0.133 A 
HETATM    4 CL1  UNL     1      17.211   1.260  12.934  1.00  0.00    -0.062 Cl
HETATM    5  N2  UNL     1      16.354   3.248  14.574  1.00  0.00    -0.321 N 
ATOM      6  H2  UNL     1      16.584   3.886  13.812  1.00  0.00     0.169 HD
HETATM    7  C3  UNL     1      15.851   3.763  15.715  1.00  0.00     0.181 A 
HETATM    8 CL2  UNL     1      15.592   5.488  15.899  1.00  0.00    -0.045 Cl
HETATM    9  N3  UNL     1      15.559   2.895  16.703  1.00  0.00    -0.321 N 
ATOM     10  H3  UNL     1      15.177   3.262  17.574  1.00  0.00     0.169 HD
HETATM   11  C4  UNL     1      15.743   1.582  16.595  1.00  0.00     0.133 A 
HETATM   12 CL3  UNL     1      15.357   0.454  17.893  1.00  0.00    -0.062 Cl
ENDROOT
TORSDOF 0
ENDMDL
MODEL 4
REMARK VINA RESULT: -5.491449412      1.373      2.964
REMARK  0 active torsions:
REMARK  status: ('A' for Active; 'I' for Inactive)
ROOT
HETATM    1  N1  UNL     1      16.469  -0.325  15.289  1.00  0.00    -0.096 NA
HETATM    2  C1  UNL     1      16.264   1.064  15.428  1.00  0.00     0.123 A 
HETATM    3  C2  UNL     1      15.752   1.594  16.608  1.00  0.00     0.133 A 
HETATM    4 CL1  UNL     1      15.383   0.470  17.886  1.00  0.00    -0.062 Cl
HETATM    5  N2  UNL     1      15.570   2.910  16.708  1.00  0.00    -0.321 N 
ATOM      6  H2  UNL     1      15.194   3.286  17.578  1.00  0.00     0.169 HD
HETATM    7  C3  UNL     1      15.863   3.768  15.709  1.00  0.00     0.181 A 
HETATM    8 CL2  UNL     1      15.606   5.494  15.887  1.00  0.00    -0.045 Cl
HETATM    9  N3  UNL     1      16.357   3.241  14.573  1.00  0.00    -0.321 N 
ATOM     10  H3  UNL     1      16.585   3.871  13.804  1.00  0.00     0.169 HD
HETATM   11  C4  UNL     1      16.564   1.937  14.405  1.00  0.00     0.133 A 
HETATM   12 CL3  UNL     1      17.212   1.257  12.914  1.00  0.00    -0.062 Cl
ENDROOT
TORSDOF 0
ENDMDL
MODEL 5
REMARK VINA RESULT: -4.979058600      1.334      3.343
REMARK  0 active torsions:
REMARK  status: ('A' for Active; 'I' for Inactive)
ROOT
HETATM    1  N1  UNL     1      15.906   3.025  12.958  1.00  0.00    -0.096 NA
HETATM    2  C1  UNL     1      15.637   2.921  14.339  1.00  0.00     0.123 A 
HETATM    3  C2  UNL     1      15.985   1.775  15.048  1.00  0.00     0.133 A 
HETATM    4 CL1  UNL     1      16.760   0.497  14.155  1.00  0.00    -0.062 Cl
HETATM    5  N2  UNL     1      15.719   1.707  16.351  1.00  0.00    -0.321 N 
ATOM      6  H2  UNL     1      15.979   0.862  16.859  1.00  0.00     0.169 HD
HETATM    7  C3  UNL     1      15.119   2.708  17.030  1.00  0.00     0.181 A 
HETATM    8 CL2  UNL     1      14.788   2.572  18.747  1.00  0.00    -0.045 Cl
HETATM    9  N3  UNL     1      14.787   3.810  16.331  1.00  0.00    -0.321 N 
ATOM     10  H3  UNL     1      14.332   4.578  16.824  1.00  0.00     0.169 HD
HETATM   11  C4  UNL     1      15.024   3.945  15.029  1.00  0.00     0.133 A 
HETATM   12 CL3  UNL     1      14.586   5.392  14.123  1.00  0.00    -0.062 Cl
ENDROOT
TORSDOF 0
ENDMDL
