MODEL 1
REMARK VINA RESULT: -5.232807441      0.000      0.000
REMARK  1 active torsions:
REMARK  status: ('A' for Active; 'I' for Inactive)
REMARK    1  A    between atoms: C1_4  and  C2_6 
ROOT
HETATM    1  C2  UNL     1      16.722   0.727  12.647  1.00  0.00     0.161 A 
HETATM    2  O1  UNL     1      16.628   0.190  13.837  1.00  0.00    -0.232 OA
HETATM    3  N2  UNL     1      16.552   1.044  14.781  1.00  0.00    -0.247 N 
ATOM      4  H2  UNL     1      16.473   0.835  15.776  1.00  0.00     0.196 HD
HETATM    5  C3  UNL     1      16.595   2.262  14.232  1.00  0.00     0.148 A 
HETATM    6 CL2  UNL     1      16.523   3.770  15.134  1.00  0.00    -0.061 Cl
HETATM    7  C4  UNL     1      16.703   2.088  12.873  1.00  0.00     0.113 A 
HETATM    8 CL3  UNL     1      16.795   3.394  11.720  1.00  0.00    -0.078 Cl
ENDROOT
BRANCH   1   9
HETATM    9  C1  UNL     1      16.825   0.055  11.358  1.00  0.00     0.135 C 
HETATM   10  N1  UNL     1      15.991   0.306  10.416  1.00  0.00    -0.387 N 
ATOM     11  H12 UNL     1      16.062  -0.164   9.513  1.00  0.00     0.157 HD
ATOM     12  H11 UNL     1      15.253   0.989  10.593  1.00  0.00     0.157 HD
HETATM   13 CL1  UNL     1      18.086  -1.111  11.054  1.00  0.00    -0.062 Cl
ENDBRANCH   1   9
TORSDOF 1
ENDMDL
MODEL 2
REMARK VINA RESULT: -5.223452936      2.159      2.955
REMARK  1 active torsions:
REMARK  status: ('A' for Active; 'I' for Inactive)
REMARK    1  A    between atoms: C1_4  and  C2_6 
ROOT
HETATM    1  C2  UNL     1      16.386   1.455  14.507  1.00  0.00     0.161 A 
HETATM    2  O1  UNL     1      16.583   0.292  15.075  1.00  0.00    -0.232 OA
HETATM    3  N2  UNL     1      16.140   0.223  16.268  1.00  0.00    -0.247 N 
ATOM      4  H2  UNL     1      16.191  -0.589  16.882  1.00  0.00     0.196 HD
HETATM    5  C3  UNL     1      15.595   1.406  16.570  1.00  0.00     0.148 A 
HETATM    6 CL2  UNL     1      14.848   1.801  18.112  1.00  0.00    -0.061 Cl
HETATM    7  C4  UNL     1      15.739   2.209  15.464  1.00  0.00     0.113 A 
HETATM    8 CL3  UNL     1      15.181   3.860  15.369  1.00  0.00    -0.078 Cl
ENDROOT
BRANCH   1   9
HETATM    9  C1  UNL     1      16.760   1.880  13.164  1.00  0.00     0.135 C 
HETATM   10  N1  UNL     1      17.647   2.790  12.984  1.00  0.00    -0.387 N 
ATOM     11  H12 UNL     1      17.909   3.088  12.044  1.00  0.00     0.157 HD
ATOM     12  H11 UNL     1      18.083   3.208  13.806  1.00  0.00     0.157 HD
HETATM   13 CL1  UNL     1      16.015   1.165  11.758  1.00  0.00    -0.062 Cl
ENDBRANCH   1   9
TORSDOF 1
ENDMDL
MODEL 3
REMARK VINA RESULT: -5.146534266      2.443      4.608
REMARK  1 active torsions:
REMARK  status: ('A' for Active; 'I' for Inactive)
REMARK    1  A    between atoms: C1_4  and  C2_6 
ROOT
HETATM    1  C2  UNL     1      15.818   1.232  15.894  1.00  0.00     0.161 A 
HETATM    2  O1  UNL     1      16.454   0.388  15.122  1.00  0.00    -0.232 OA
HETATM    3  N2  UNL     1      16.787   0.878  13.993  1.00  0.00    -0.247 N 
ATOM      4  H2  UNL     1      17.288   0.390  13.250  1.00  0.00     0.196 HD
HETATM    5  C3  UNL     1      16.364   2.145  13.956  1.00  0.00     0.148 A 
HETATM    6 CL2  UNL     1      16.590   3.239  12.598  1.00  0.00    -0.061 Cl
HETATM    7  C4  UNL     1      15.743   2.396  15.157  1.00  0.00     0.113 A 
HETATM    8 CL3  UNL     1      15.021   3.924  15.588  1.00  0.00    -0.078 Cl
ENDROOT
BRANCH   1   9
HETATM    9  C1  UNL     1      15.296   1.012  17.237  1.00  0.00     0.135 C 
HETATM   10  N1  UNL     1      15.289  -0.161  17.757  1.00  0.00    -0.387 N 
ATOM     11  H12 UNL     1      14.924  -0.316  18.697  1.00  0.00     0.157 HD
ATOM     12  H11 UNL     1      15.660  -0.935  17.205  1.00  0.00     0.157 HD
HETATM   13 CL1  UNL     1      14.663   2.336  18.180  1.00  0.00    -0.062 Cl
ENDBRANCH   1   9
TORSDOF 1
ENDMDL
MODEL 4
REMARK VINA RESULT: -5.047923465      2.318      3.173
REMARK  1 active torsions:
REMARK  status: ('A' for Active; 'I' for Inactive)
REMARK    1  A    between atoms: C1_4  and  C2_6 
ROOT
HETATM    1  C2  UNL     1      16.348   1.751  14.563  1.00  0.00     0.161 A 
HETATM    2  O1  UNL     1      16.727   0.609  15.079  1.00  0.00    -0.232 OA
HETATM    3  N2  UNL     1      16.336   0.433  16.280  1.00  0.00    -0.247 N 
ATOM      4  H2  UNL     1      16.523  -0.385  16.859  1.00  0.00     0.196 HD
HETATM    5  C3  UNL     1      15.637   1.513  16.643  1.00  0.00     0.148 A 
HETATM    6 CL2  UNL     1      14.890   1.740  18.218  1.00  0.00    -0.061 Cl
HETATM    7  C4  UNL     1      15.630   2.368  15.567  1.00  0.00     0.113 A 
HETATM    8 CL3  UNL     1      14.839   3.923  15.553  1.00  0.00    -0.078 Cl
ENDROOT
BRANCH   1   9
HETATM    9  C1  UNL     1      16.615   2.273  13.229  1.00  0.00     0.135 C 
HETATM   10  N1  UNL     1      16.111   1.715  12.190  1.00  0.00    -0.387 N 
ATOM     11  H12 UNL     1      16.297   2.080  11.256  1.00  0.00     0.157 HD
ATOM     12  H11 UNL     1      15.518   0.895  12.323  1.00  0.00     0.157 HD
HETATM   13 CL1  UNL     1      17.628   3.675  13.003  1.00  0.00    -0.062 Cl
ENDBRANCH   1   9
TORSDOF 1
ENDMDL
MODEL 5
REMARK VINA RESULT: -4.998243522      1.600      2.089
REMARK  1 active torsions:
REMARK  status: ('A' for Active; 'I' for Inactive)
REMARK    1  A    between atoms: C1_4  and  C2_6 
ROOT
HETATM    1  C2  UNL     1      16.553   1.288  13.477  1.00  0.00     0.161 A 
HETATM    2  O1  UNL     1      16.866   0.175  14.091  1.00  0.00    -0.232 OA
HETATM    3  N2  UNL     1      16.609   0.188  15.339  1.00  0.00    -0.247 N 
ATOM      4  H2  UNL     1      16.776  -0.574  15.996  1.00  0.00     0.196 HD
HETATM    5  C3  UNL     1      16.083   1.381  15.635  1.00  0.00     0.148 A 
HETATM    6 CL2  UNL     1      15.565   1.879  17.240  1.00  0.00    -0.061 Cl
HETATM    7  C4  UNL     1      16.036   2.101  14.464  1.00  0.00     0.113 A 
HETATM    8 CL3  UNL     1      15.424   3.730  14.337  1.00  0.00    -0.078 Cl
ENDROOT
BRANCH   1   9
HETATM    9  C1  UNL     1      16.709   1.616  12.065  1.00  0.00     0.135 C 
HETATM   10  N1  UNL     1      15.819   1.272  11.207  1.00  0.00    -0.387 N 
ATOM     11  H12 UNL     1      15.928   1.502  10.219  1.00  0.00     0.157 HD
ATOM     12  H11 UNL     1      15.000   0.763  11.539  1.00  0.00     0.157 HD
HETATM   13 CL1  UNL     1      18.109   2.488  11.498  1.00  0.00    -0.062 Cl
ENDBRANCH   1   9
TORSDOF 1
ENDMDL
