MODEL 1
REMARK VINA RESULT: -5.275915877      0.000      0.000
REMARK  0 active torsions:
REMARK  status: ('A' for Active; 'I' for Inactive)
ROOT
HETATM    1  N1  UNL     1      17.005  -0.116  15.499  1.00  0.00    -0.378 N 
ATOM      2  H11 UNL     1      17.334  -0.188  14.537  1.00  0.00     0.158 HD
ATOM      3  H12 UNL     1      17.239  -0.838  16.181  1.00  0.00     0.158 HD
HETATM    4  C1  UNL     1      16.288   0.876  15.900  1.00  0.00     0.169 A 
HETATM    5  O1  UNL     1      15.857   0.970  17.162  1.00  0.00    -0.265 OA
HETATM    6  C2  UNL     1      15.126   1.978  17.573  1.00  0.00     0.225 A 
HETATM    7 CL1  UNL     1      14.555   2.113  19.226  1.00  0.00    -0.037 Cl
HETATM    8  N2  UNL     1      14.805   2.942  16.692  1.00  0.00    -0.316 N 
ATOM      9  H2  UNL     1      14.236   3.727  17.010  1.00  0.00     0.170 HD
HETATM   10  C3  UNL     1      15.204   2.912  15.406  1.00  0.00     0.132 A 
HETATM   11 CL2  UNL     1      14.792   4.155  14.267  1.00  0.00    -0.062 Cl
HETATM   12  C4  UNL     1      15.973   1.851  14.980  1.00  0.00     0.123 A 
HETATM   13 CL3  UNL     1      16.560   1.681  13.344  1.00  0.00    -0.076 Cl
ENDROOT
TORSDOF 0
ENDMDL
MODEL 2
REMARK VINA RESULT: -5.211151542      1.873      3.411
REMARK  0 active torsions:
REMARK  status: ('A' for Active; 'I' for Inactive)
ROOT
HETATM    1  N1  UNL     1      16.869  -0.141  15.630  1.00  0.00    -0.378 N 
ATOM      2  H11 UNL     1      16.618  -0.614  16.498  1.00  0.00     0.158 HD
ATOM      3  H12 UNL     1      17.488  -0.590  14.956  1.00  0.00     0.158 HD
HETATM    4  C1  UNL     1      16.423   1.034  15.345  1.00  0.00     0.169 A 
HETATM    5  O1  UNL     1      16.752   1.654  14.207  1.00  0.00    -0.265 OA
HETATM    6  C2  UNL     1      16.301   2.850  13.913  1.00  0.00     0.225 A 
HETATM    7 CL1  UNL     1      16.726   3.675  12.424  1.00  0.00    -0.037 Cl
HETATM    8  N2  UNL     1      15.484   3.464  14.787  1.00  0.00    -0.316 N 
ATOM      9  H2  UNL     1      15.133   4.394  14.560  1.00  0.00     0.170 HD
HETATM   10  C3  UNL     1      15.111   2.898  15.951  1.00  0.00     0.132 A 
HETATM   11 CL2  UNL     1      14.056   3.687  17.082  1.00  0.00    -0.062 Cl
HETATM   12  C4  UNL     1      15.588   1.641  16.255  1.00  0.00     0.123 A 
HETATM   13 CL3  UNL     1      15.189   0.788  17.725  1.00  0.00    -0.076 Cl
ENDROOT
TORSDOF 0
ENDMDL
MODEL 3
REMARK VINA RESULT: -5.192083028      2.013      3.686
REMARK  0 active torsions:
REMARK  status: ('A' for Active; 'I' for Inactive)
ROOT
HETATM    1  N1  UNL     1      16.821  -0.015  15.770  1.00  0.00    -0.378 N 
ATOM      2  H11 UNL     1      16.592  -0.054  16.763  1.00  0.00     0.158 HD
ATOM      3  H12 UNL     1      17.311  -0.787  15.320  1.00  0.00     0.158 HD
HETATM    4  C1  UNL     1      16.506   1.000  15.040  1.00  0.00     0.169 A 
HETATM    5  O1  UNL     1      16.805   1.051  13.739  1.00  0.00    -0.265 OA
HETATM    6  C2  UNL     1      16.487   2.082  12.993  1.00  0.00     0.225 A 
HETATM    7 CL1  UNL     1      16.874   2.161  11.284  1.00  0.00    -0.037 Cl
HETATM    8  N2  UNL     1      15.840   3.114  13.563  1.00  0.00    -0.316 N 
ATOM      9  H2  UNL     1      15.592   3.917  12.984  1.00  0.00     0.170 HD
HETATM   10  C3  UNL     1      15.507   3.130  14.868  1.00  0.00     0.132 A 
HETATM   11 CL2  UNL     1      14.671   4.460  15.606  1.00  0.00    -0.062 Cl
HETATM   12  C4  UNL     1      15.844   2.043  15.646  1.00  0.00     0.123 A 
HETATM   13 CL3  UNL     1      15.476   1.927  17.349  1.00  0.00    -0.076 Cl
ENDROOT
TORSDOF 0
ENDMDL
MODEL 4
REMARK VINA RESULT: -5.159543628      1.622      3.385
REMARK  0 active torsions:
REMARK  status: ('A' for Active; 'I' for Inactive)
ROOT
HETATM    1  N1  UNL     1      15.549   0.217  17.354  1.00  0.00    -0.378 N 
ATOM      2  H11 UNL     1      15.135   0.559  18.221  1.00  0.00     0.158 HD
ATOM      3  H12 UNL     1      15.871  -0.747  17.278  1.00  0.00     0.158 HD
HETATM    4  C1  UNL     1      15.684   0.976  16.321  1.00  0.00     0.169 A 
HETATM    5  O1  UNL     1      16.226   0.528  15.184  1.00  0.00    -0.265 OA
HETATM    6  C2  UNL     1      16.367   1.298  14.132  1.00  0.00     0.225 A 
HETATM    7 CL1  UNL     1      17.076   0.722  12.634  1.00  0.00    -0.037 Cl
HETATM    8  N2  UNL     1      15.950   2.574  14.207  1.00  0.00    -0.316 N 
ATOM      9  H2  UNL     1      16.058   3.174  13.389  1.00  0.00     0.170 HD
HETATM   10  C3  UNL     1      15.395   3.092  15.319  1.00  0.00     0.132 A 
HETATM   11 CL2  UNL     1      14.856   4.739  15.419  1.00  0.00    -0.062 Cl
HETATM   12  C4  UNL     1      15.250   2.279  16.422  1.00  0.00     0.123 A 
HETATM   13 CL3  UNL     1      14.550   2.814  17.930  1.00  0.00    -0.076 Cl
ENDROOT
TORSDOF 0
ENDMDL
MODEL 5
REMARK VINA RESULT: -5.089097155      1.638      1.722
REMARK  0 active torsions:
REMARK  status: ('A' for Active; 'I' for Inactive)
ROOT
HETATM    1  N1  UNL     1      16.958   0.908  13.183  1.00  0.00    -0.378 N 
ATOM      2  H11 UNL     1      17.208   1.461  12.363  1.00  0.00     0.158 HD
ATOM      3  H12 UNL     1      17.160  -0.090  13.216  1.00  0.00     0.158 HD
HETATM    4  C1  UNL     1      16.380   1.436  14.207  1.00  0.00     0.169 A 
HETATM    5  O1  UNL     1      16.053   0.712  15.282  1.00  0.00    -0.265 OA
HETATM    6  C2  UNL     1      15.464   1.245  16.326  1.00  0.00     0.225 A 
HETATM    7 CL1  UNL     1      15.029   0.306  17.742  1.00  0.00    -0.037 Cl
HETATM    8  N2  UNL     1      15.187   2.561  16.306  1.00  0.00    -0.316 N 
ATOM      9  H2  UNL     1      14.729   2.978  17.117  1.00  0.00     0.170 HD
HETATM   10  C3  UNL     1      15.488   3.351  15.257  1.00  0.00     0.132 A 
HETATM   11 CL2  UNL     1      15.132   5.049  15.229  1.00  0.00    -0.062 Cl
HETATM   12  C4  UNL     1      16.107   2.785  14.163  1.00  0.00     0.123 A 
HETATM   13 CL3  UNL     1      16.555   3.685  12.736  1.00  0.00    -0.076 Cl
ENDROOT
TORSDOF 0
ENDMDL
