MODEL 1
REMARK VINA RESULT: -4.371951937      0.000      0.000
REMARK  1 active torsions:
REMARK  status: ('A' for Active; 'I' for Inactive)
REMARK    1  A    between atoms: S1_3  and  C2_4 
ROOT
HETATM    1  N1  UNL     1      15.314  -0.238  17.618  1.00  0.00    -0.184 NA
HETATM    2  C1  UNL     1      15.097   0.819  17.209  1.00  0.00     0.139 C 
HETATM    3  S1  UNL     1      14.746   2.414  16.624  1.00  0.00     0.004 SA
ENDROOT
BRANCH   3   4
HETATM    4  C2  UNL     1      15.569   2.907  15.161  1.00  0.00     0.118 C 
HETATM    5 CL1  UNL     1      16.361   1.627  14.209  1.00  0.00    -0.073 Cl
HETATM    6  C3  UNL     1      15.656   4.120  14.702  1.00  0.00     0.132 C 
HETATM    7 CL2  UNL     1      16.515   4.500  13.209  1.00  0.00    -0.069 Cl
HETATM    8 CL3  UNL     1      14.932   5.487  15.522  1.00  0.00    -0.069 Cl
ENDBRANCH   3   4
TORSDOF 1
ENDMDL
MODEL 2
REMARK VINA RESULT: -4.319949835      1.266      2.193
REMARK  1 active torsions:
REMARK  status: ('A' for Active; 'I' for Inactive)
REMARK    1  A    between atoms: S1_3  and  C2_4 
ROOT
HETATM    1  N1  UNL     1      15.187  -0.083  17.561  1.00  0.00    -0.184 NA
HETATM    2  C1  UNL     1      15.651   0.726  16.881  1.00  0.00     0.139 C 
HETATM    3  S1  UNL     1      16.381   1.921  15.858  1.00  0.00     0.004 SA
ENDROOT
BRANCH   3   4
HETATM    4  C2  UNL     1      15.408   3.324  15.479  1.00  0.00     0.118 C 
HETATM    5 CL1  UNL     1      14.262   3.874  16.727  1.00  0.00    -0.073 Cl
HETATM    6  C3  UNL     1      15.442   4.005  14.373  1.00  0.00     0.132 C 
HETATM    7 CL2  UNL     1      14.410   5.410  14.101  1.00  0.00    -0.069 Cl
HETATM    8 CL3  UNL     1      16.514   3.593  13.050  1.00  0.00    -0.069 Cl
ENDBRANCH   3   4
TORSDOF 1
ENDMDL
MODEL 3
REMARK VINA RESULT: -4.301488294      1.439      1.458
REMARK  1 active torsions:
REMARK  status: ('A' for Active; 'I' for Inactive)
REMARK    1  A    between atoms: S1_3  and  C2_4 
ROOT
HETATM    1  N1  UNL     1      17.161   0.440  16.316  1.00  0.00    -0.184 NA
HETATM    2  C1  UNL     1      16.418   1.300  16.116  1.00  0.00     0.139 C 
HETATM    3  S1  UNL     1      15.281   2.581  15.846  1.00  0.00     0.004 SA
ENDROOT
BRANCH   3   4
HETATM    4  C2  UNL     1      15.577   3.609  14.462  1.00  0.00     0.118 C 
HETATM    5 CL1  UNL     1      16.178   2.819  12.983  1.00  0.00    -0.073 Cl
HETATM    6  C3  UNL     1      15.399   4.896  14.410  1.00  0.00     0.132 C 
HETATM    7 CL2  UNL     1      15.732   5.833  12.953  1.00  0.00    -0.069 Cl
HETATM    8 CL3  UNL     1      14.815   5.817  15.780  1.00  0.00    -0.069 Cl
ENDBRANCH   3   4
TORSDOF 1
ENDMDL
MODEL 4
REMARK VINA RESULT: -4.224274698      3.179      4.322
REMARK  1 active torsions:
REMARK  status: ('A' for Active; 'I' for Inactive)
REMARK    1  A    between atoms: S1_3  and  C2_4 
ROOT
HETATM    1  N1  UNL     1      15.733   1.511  11.601  1.00  0.00    -0.184 NA
HETATM    2  C1  UNL     1      16.114   2.134  12.495  1.00  0.00     0.139 C 
HETATM    3  S1  UNL     1      16.716   3.080  13.817  1.00  0.00     0.004 SA
ENDROOT
BRANCH   3   4
HETATM    4  C2  UNL     1      15.738   3.105  15.268  1.00  0.00     0.118 C 
HETATM    5 CL1  UNL     1      14.774   4.573  15.566  1.00  0.00    -0.073 Cl
HETATM    6  C3  UNL     1      15.647   2.154  16.149  1.00  0.00     0.132 C 
HETATM    7 CL2  UNL     1      14.623   2.292  17.579  1.00  0.00    -0.069 Cl
HETATM    8 CL3  UNL     1      16.531   0.650  15.999  1.00  0.00    -0.069 Cl
ENDBRANCH   3   4
TORSDOF 1
ENDMDL
MODEL 5
REMARK VINA RESULT: -4.209313575      1.321      2.471
REMARK  1 active torsions:
REMARK  status: ('A' for Active; 'I' for Inactive)
REMARK    1  A    between atoms: S1_3  and  C2_4 
ROOT
HETATM    1  N1  UNL     1      17.198   0.603  16.316  1.00  0.00    -0.184 NA
HETATM    2  C1  UNL     1      16.337   1.364  16.202  1.00  0.00     0.139 C 
HETATM    3  S1  UNL     1      15.023   2.485  16.055  1.00  0.00     0.004 SA
ENDROOT
BRANCH   3   4
HETATM    4  C2  UNL     1      15.309   3.897  15.061  1.00  0.00     0.118 C 
HETATM    5 CL1  UNL     1      14.966   5.484  15.794  1.00  0.00    -0.073 Cl
HETATM    6  C3  UNL     1      15.750   3.898  13.839  1.00  0.00     0.132 C 
HETATM    7 CL2  UNL     1      16.002   5.389  12.932  1.00  0.00    -0.069 Cl
HETATM    8 CL3  UNL     1      16.134   2.421  12.979  1.00  0.00    -0.069 Cl
ENDBRANCH   3   4
TORSDOF 1
ENDMDL
