MODEL 1
REMARK VINA RESULT: -4.850791718      0.000      0.000
REMARK  0 active torsions:
REMARK  status: ('A' for Active; 'I' for Inactive)
ROOT
HETATM    1  C1  UNL     1      17.499  -1.880  11.559  1.00  0.00     0.072 C 
HETATM    2  C2  UNL     1      16.998  -0.466  11.518  1.00  0.00     0.051 A 
HETATM    3  N1  UNL     1      16.787   0.201  10.397  1.00  0.00    -0.302 N 
ATOM      4  H1  UNL     1      16.940  -0.166   9.458  1.00  0.00     0.186 HD
HETATM    5  N2  UNL     1      16.353   1.406  10.673  1.00  0.00    -0.292 N 
ATOM      6  H2  UNL     1      16.112   2.128   9.993  1.00  0.00     0.187 HD
HETATM    7  C3  UNL     1      16.278   1.527  12.026  1.00  0.00     0.120 A 
HETATM    8  S1  UNL     1      15.903   2.491  13.395  1.00  0.00    -0.039 SA
HETATM    9  C4  UNL     1      16.277   1.358  14.610  1.00  0.00     0.145 A 
HETATM   10  S2  UNL     1      16.183   1.511  16.258  1.00  0.00    -0.052 SA
HETATM   11  N3  UNL     1      16.672   0.292  13.915  1.00  0.00    -0.338 N 
ATOM     12  H3  UNL     1      16.963  -0.561  14.392  1.00  0.00     0.167 HD
HETATM   13  C5  UNL     1      16.678   0.362  12.604  1.00  0.00     0.093 A 
ENDROOT
TORSDOF 0
ENDMDL
MODEL 2
REMARK VINA RESULT: -4.841823689      3.452      5.378
REMARK  0 active torsions:
REMARK  status: ('A' for Active; 'I' for Inactive)
ROOT
HETATM    1  C1  UNL     1      14.388   1.457  17.653  1.00  0.00     0.072 C 
HETATM    2  C2  UNL     1      14.647   2.748  16.931  1.00  0.00     0.051 A 
HETATM    3  N1  UNL     1      14.344   3.934  17.427  1.00  0.00    -0.302 N 
ATOM      4  H1  UNL     1      13.910   4.097  18.335  1.00  0.00     0.186 HD
HETATM    5  N2  UNL     1      14.685   4.870  16.576  1.00  0.00    -0.292 N 
ATOM      6  H2  UNL     1      14.563   5.875  16.708  1.00  0.00     0.187 HD
HETATM    7  C3  UNL     1      15.231   4.268  15.485  1.00  0.00     0.120 A 
HETATM    8  S1  UNL     1      15.947   4.416  13.932  1.00  0.00    -0.039 SA
HETATM    9  C4  UNL     1      16.196   2.761  13.613  1.00  0.00     0.145 A 
HETATM   10  S2  UNL     1      16.863   2.034  12.281  1.00  0.00    -0.052 SA
HETATM   11  N3  UNL     1      15.721   2.170  14.708  1.00  0.00    -0.338 N 
ATOM     12  H3  UNL     1      15.740   1.154  14.800  1.00  0.00     0.167 HD
HETATM   13  C5  UNL     1      15.228   2.920  15.666  1.00  0.00     0.093 A 
ENDROOT
TORSDOF 0
ENDMDL
MODEL 3
REMARK VINA RESULT: -4.791003926      3.372      4.773
REMARK  0 active torsions:
REMARK  status: ('A' for Active; 'I' for Inactive)
ROOT
HETATM    1  C1  UNL     1      14.738   1.407  18.204  1.00  0.00     0.072 C 
HETATM    2  C2  UNL     1      15.421   1.285  16.873  1.00  0.00     0.051 A 
HETATM    3  N1  UNL     1      16.110   0.221  16.501  1.00  0.00    -0.302 N 
ATOM      4  H1  UNL     1      16.250  -0.615  17.068  1.00  0.00     0.186 HD
HETATM    5  N2  UNL     1      16.588   0.401  15.295  1.00  0.00    -0.292 N 
ATOM      6  H2  UNL     1      17.157  -0.263  14.769  1.00  0.00     0.187 HD
HETATM    7  C3  UNL     1      16.194   1.631  14.866  1.00  0.00     0.120 A 
HETATM    8  S1  UNL     1      16.194   2.824  13.632  1.00  0.00    -0.039 SA
HETATM    9  C4  UNL     1      15.252   4.002  14.424  1.00  0.00     0.145 A 
HETATM   10  S2  UNL     1      14.774   5.499  13.895  1.00  0.00    -0.052 SA
HETATM   11  N3  UNL     1      14.980   3.430  15.596  1.00  0.00    -0.338 N 
ATOM     12  H3  UNL     1      14.417   3.917  16.294  1.00  0.00     0.167 HD
HETATM   13  C5  UNL     1      15.450   2.228  15.835  1.00  0.00     0.093 A 
ENDROOT
TORSDOF 0
ENDMDL
MODEL 4
REMARK VINA RESULT: -4.662257031      2.347      3.295
REMARK  0 active torsions:
REMARK  status: ('A' for Active; 'I' for Inactive)
ROOT
HETATM    1  C1  UNL     1      16.638   2.613  11.856  1.00  0.00     0.072 C 
HETATM    2  C2  UNL     1      16.525   1.757  13.084  1.00  0.00     0.051 A 
HETATM    3  N1  UNL     1      16.934   0.502  13.139  1.00  0.00    -0.302 N 
ATOM      4  H1  UNL     1      17.361  -0.010  12.367  1.00  0.00     0.186 HD
HETATM    5  N2  UNL     1      16.707   0.014  14.333  1.00  0.00    -0.292 N 
ATOM      6  H2  UNL     1      16.926  -0.933  14.646  1.00  0.00     0.187 HD
HETATM    7  C3  UNL     1      16.128   0.990  15.083  1.00  0.00     0.120 A 
HETATM    8  S1  UNL     1      15.465   1.486  16.587  1.00  0.00    -0.039 SA
HETATM    9  C4  UNL     1      15.060   3.086  16.165  1.00  0.00     0.145 A 
HETATM   10  S2  UNL     1      14.355   4.271  17.086  1.00  0.00    -0.052 SA
HETATM   11  N3  UNL     1      15.450   3.169  14.894  1.00  0.00    -0.338 N 
ATOM     12  H3  UNL     1      15.328   4.035  14.369  1.00  0.00     0.167 HD
HETATM   13  C5  UNL     1      15.993   2.115  14.331  1.00  0.00     0.093 A 
ENDROOT
TORSDOF 0
ENDMDL
MODEL 5
REMARK VINA RESULT: -4.631048477      2.381      4.027
REMARK  0 active torsions:
REMARK  status: ('A' for Active; 'I' for Inactive)
ROOT
HETATM    1  C1  UNL     1      15.781   1.390  16.551  1.00  0.00     0.072 C 
HETATM    2  C2  UNL     1      15.891   2.168  15.271  1.00  0.00     0.051 A 
HETATM    3  N1  UNL     1      15.610   3.455  15.174  1.00  0.00    -0.302 N 
ATOM      4  H1  UNL     1      15.295   4.046  15.942  1.00  0.00     0.186 HD
HETATM    5  N2  UNL     1      15.798   3.857  13.941  1.00  0.00    -0.292 N 
ATOM      6  H2  UNL     1      15.655   4.805  13.591  1.00  0.00     0.187 HD
HETATM    7  C3  UNL     1      16.217   2.789  13.210  1.00  0.00     0.120 A 
HETATM    8  S1  UNL     1      16.715   2.152  11.695  1.00  0.00    -0.039 SA
HETATM    9  C4  UNL     1      16.984   0.541  12.178  1.00  0.00     0.145 A 
HETATM   10  S2  UNL     1      17.495  -0.756  11.281  1.00  0.00    -0.052 SA
HETATM   11  N3  UNL     1      16.681   0.562  13.475  1.00  0.00    -0.338 N 
ATOM     12  H3  UNL     1      16.752  -0.285  14.039  1.00  0.00     0.167 HD
HETATM   13  C5  UNL     1      16.291   1.694  14.013  1.00  0.00     0.093 A 
ENDROOT
TORSDOF 0
ENDMDL
