MODEL 1
REMARK VINA RESULT: -5.308238929      0.000      0.000
REMARK  0 active torsions:
REMARK  status: ('A' for Active; 'I' for Inactive)
ROOT
HETATM    1  C1  UNL     1      15.045   5.356  14.338  1.00  0.00     0.070 C 
HETATM    2  C2  UNL     1      15.503   3.964  14.308  1.00  0.00     0.031 A 
HETATM    3  N1  UNL     1      16.093   3.370  13.254  1.00  0.00    -0.336 N 
ATOM      4  H1  UNL     1      16.246   3.907  12.400  1.00  0.00     0.168 HD
HETATM    5  C3  UNL     1      16.487   2.085  13.300  1.00  0.00     0.177 A 
HETATM    6  S1  UNL     1      17.192   1.448  11.984  1.00  0.00    -0.040 SA
HETATM    7  N2  UNL     1      16.330   1.298  14.381  1.00  0.00    -0.323 N 
ATOM      8  H2  UNL     1      16.640   0.326  14.385  1.00  0.00     0.169 HD
HETATM    9  C4  UNL     1      15.741   1.856  15.459  1.00  0.00     0.125 A 
HETATM   10  S2  UNL     1      15.526   0.936  16.803  1.00  0.00    -0.059 SA
HETATM   11  C5  UNL     1      15.327   3.173  15.440  1.00  0.00     0.104 A 
HETATM   12  C6  UNL     1      14.710   3.738  16.585  1.00  0.00     0.104 C 
HETATM   13  N3  UNL     1      14.226   4.193  17.512  1.00  0.00    -0.191 NA
ENDROOT
TORSDOF 0
ENDMDL
MODEL 2
REMARK VINA RESULT: -5.269287419      1.617      2.619
REMARK  0 active torsions:
REMARK  status: ('A' for Active; 'I' for Inactive)
ROOT
HETATM    1  C1  UNL     1      15.571   0.895  16.968  1.00  0.00     0.070 C 
HETATM    2  C2  UNL     1      15.733   1.600  15.694  1.00  0.00     0.031 A 
HETATM    3  N1  UNL     1      16.276   1.069  14.583  1.00  0.00    -0.336 N 
ATOM      4  H1  UNL     1      16.608   0.104  14.603  1.00  0.00     0.168 HD
HETATM    5  C3  UNL     1      16.393   1.779  13.447  1.00  0.00     0.177 A 
HETATM    6  S1  UNL     1      17.060   1.060  12.154  1.00  0.00    -0.040 SA
HETATM    7  N2  UNL     1      15.983   3.055  13.323  1.00  0.00    -0.323 N 
ATOM      8  H2  UNL     1      16.084   3.568  12.447  1.00  0.00     0.169 HD
HETATM    9  C4  UNL     1      15.432   3.624  14.416  1.00  0.00     0.125 A 
HETATM   10  S2  UNL     1      14.917   5.182  14.316  1.00  0.00    -0.059 SA
HETATM   11  C5  UNL     1      15.300   2.919  15.595  1.00  0.00     0.104 A 
HETATM   12  C6  UNL     1      14.718   3.539  16.730  1.00  0.00     0.104 C 
HETATM   13  N3  UNL     1      14.238   4.037  17.637  1.00  0.00    -0.191 NA
ENDROOT
TORSDOF 0
ENDMDL
MODEL 3
REMARK VINA RESULT: -5.179253053      2.170      3.062
REMARK  0 active torsions:
REMARK  status: ('A' for Active; 'I' for Inactive)
ROOT
HETATM    1  C1  UNL     1      14.385   3.113  17.907  1.00  0.00     0.070 C 
HETATM    2  C2  UNL     1      14.982   3.104  16.569  1.00  0.00     0.031 A 
HETATM    3  N1  UNL     1      15.112   4.184  15.776  1.00  0.00    -0.336 N 
ATOM      4  H1  UNL     1      14.778   5.089  16.108  1.00  0.00     0.168 HD
HETATM    5  C3  UNL     1      15.672   4.099  14.556  1.00  0.00     0.177 A 
HETATM    6  S1  UNL     1      15.790   5.451  13.666  1.00  0.00    -0.040 SA
HETATM    7  N2  UNL     1      16.143   2.951  14.033  1.00  0.00    -0.323 N 
ATOM      8  H2  UNL     1      16.563   2.919  13.105  1.00  0.00     0.169 HD
HETATM    9  C4  UNL     1      16.031   1.845  14.798  1.00  0.00     0.125 A 
HETATM   10  S2  UNL     1      16.590   0.418  14.203  1.00  0.00    -0.059 SA
HETATM   11  C5  UNL     1      15.460   1.903  16.054  1.00  0.00     0.104 A 
HETATM   12  C6  UNL     1      15.353   0.727  16.837  1.00  0.00     0.104 C 
HETATM   13  N3  UNL     1      15.281  -0.219  17.471  1.00  0.00    -0.191 NA
ENDROOT
TORSDOF 0
ENDMDL
MODEL 4
REMARK VINA RESULT: -5.105846261      2.104      4.207
REMARK  0 active torsions:
REMARK  status: ('A' for Active; 'I' for Inactive)
ROOT
HETATM    1  C1  UNL     1      14.985   0.885  17.686  1.00  0.00     0.070 C 
HETATM    2  C2  UNL     1      15.189   1.988  16.743  1.00  0.00     0.031 A 
HETATM    3  N1  UNL     1      14.788   3.257  16.944  1.00  0.00    -0.336 N 
ATOM      4  H1  UNL     1      14.304   3.496  17.809  1.00  0.00     0.168 HD
HETATM    5  C3  UNL     1      15.011   4.219  16.030  1.00  0.00     0.177 A 
HETATM    6  S1  UNL     1      14.494   5.723  16.353  1.00  0.00    -0.040 SA
HETATM    7  N2  UNL     1      15.642   4.001  14.861  1.00  0.00    -0.323 N 
ATOM      8  H2  UNL     1      15.797   4.752  14.188  1.00  0.00     0.169 HD
HETATM    9  C4  UNL     1      16.060   2.740  14.622  1.00  0.00     0.125 A 
HETATM   10  S2  UNL     1      16.835   2.423  13.208  1.00  0.00    -0.059 SA
HETATM   11  C5  UNL     1      15.845   1.733  15.542  1.00  0.00     0.104 A 
HETATM   12  C6  UNL     1      16.292   0.417  15.268  1.00  0.00     0.104 C 
HETATM   13  N3  UNL     1      16.665  -0.639  15.050  1.00  0.00    -0.191 NA
ENDROOT
TORSDOF 0
ENDMDL
MODEL 5
REMARK VINA RESULT: -5.017916916      2.212      4.664
REMARK  0 active torsions:
REMARK  status: ('A' for Active; 'I' for Inactive)
ROOT
HETATM    1  C1  UNL     1      16.933   0.183  11.549  1.00  0.00     0.070 C 
HETATM    2  C2  UNL     1      16.673   1.142  12.627  1.00  0.00     0.031 A 
HETATM    3  N1  UNL     1      16.451   0.814  13.913  1.00  0.00    -0.336 N 
ATOM      4  H1  UNL     1      16.460  -0.170  14.185  1.00  0.00     0.168 HD
HETATM    5  C3  UNL     1      16.219   1.751  14.849  1.00  0.00     0.177 A 
HETATM    6  S1  UNL     1      15.962   1.267  16.377  1.00  0.00    -0.040 SA
HETATM    7  N2  UNL     1      16.189   3.071  14.587  1.00  0.00    -0.323 N 
ATOM      8  H2  UNL     1      16.011   3.758  15.319  1.00  0.00     0.169 HD
HETATM    9  C4  UNL     1      16.407   3.441  13.308  1.00  0.00     0.125 A 
HETATM   10  S2  UNL     1      16.380   5.042  12.937  1.00  0.00    -0.059 SA
HETATM   11  C5  UNL     1      16.648   2.501  12.326  1.00  0.00     0.104 A 
HETATM   12  C6  UNL     1      16.874   2.914  10.990  1.00  0.00     0.104 C 
HETATM   13  N3  UNL     1      17.067   3.251   9.917  1.00  0.00    -0.191 NA
ENDROOT
TORSDOF 0
ENDMDL
