MODEL 1
REMARK VINA RESULT: -4.970706075      0.000      0.000
REMARK  0 active torsions:
REMARK  status: ('A' for Active; 'I' for Inactive)
ROOT
HETATM    1  C1  UNL     1      14.310   4.201  17.266  1.00  0.00     0.076 C 
HETATM    2  C2  UNL     1      14.946   3.285  16.247  1.00  0.00     0.050 A 
HETATM    3  N1  UNL     1      15.150   3.509  14.959  1.00  0.00    -0.338 N 
ATOM      4  H1  UNL     1      14.863   4.396  14.544  1.00  0.00     0.168 HD
HETATM    5  C3  UNL     1      15.715   2.602  14.222  1.00  0.00     0.142 A 
HETATM    6  N2  UNL     1      16.081   2.469  12.906  1.00  0.00    -0.317 N 
ATOM      7  H2  UNL     1      15.950   3.168  12.174  1.00  0.00     0.170 HD
HETATM    8  C4  UNL     1      16.641   1.260  12.748  1.00  0.00     0.178 A 
HETATM    9  S1  UNL     1      17.231   0.667  11.320  1.00  0.00    -0.040 SA
HETATM   10  N3  UNL     1      16.661   0.586  13.910  1.00  0.00    -0.324 N 
ATOM     11  H3  UNL     1      17.027  -0.351  14.077  1.00  0.00     0.169 HD
HETATM   12  C5  UNL     1      16.083   1.429  14.822  1.00  0.00     0.122 A 
HETATM   13  S2  UNL     1      15.583   1.711  16.434  1.00  0.00    -0.056 SA
ENDROOT
TORSDOF 0
ENDMDL
MODEL 2
REMARK VINA RESULT: -4.855208122      1.171      1.636
REMARK  0 active torsions:
REMARK  status: ('A' for Active; 'I' for Inactive)
ROOT
HETATM    1  C1  UNL     1      14.527   3.411  17.472  1.00  0.00     0.076 C 
HETATM    2  C2  UNL     1      15.063   2.997  16.122  1.00  0.00     0.050 A 
HETATM    3  N1  UNL     1      15.614   1.844  15.778  1.00  0.00    -0.338 N 
ATOM      4  H1  UNL     1      15.716   1.101  16.470  1.00  0.00     0.168 HD
HETATM    5  C3  UNL     1      16.025   1.656  14.561  1.00  0.00     0.142 A 
HETATM    6  N2  UNL     1      16.621   0.643  13.853  1.00  0.00    -0.317 N 
ATOM      7  H2  UNL     1      16.881  -0.273  14.220  1.00  0.00     0.170 HD
HETATM    8  C4  UNL     1      16.803   1.066  12.592  1.00  0.00     0.178 A 
HETATM    9  S1  UNL     1      17.492   0.171  11.382  1.00  0.00    -0.040 SA
HETATM   10  N3  UNL     1      16.351   2.321  12.438  1.00  0.00    -0.324 N 
ATOM     11  H3  UNL     1      16.364   2.885  11.588  1.00  0.00     0.169 HD
HETATM   12  C5  UNL     1      15.868   2.681  13.668  1.00  0.00     0.122 A 
HETATM   13  S2  UNL     1      15.127   3.867  14.653  1.00  0.00    -0.056 SA
ENDROOT
TORSDOF 0
ENDMDL
MODEL 3
REMARK VINA RESULT: -4.771548658      1.037      1.037
REMARK  0 active torsions:
REMARK  status: ('A' for Active; 'I' for Inactive)
ROOT
HETATM    1  C1  UNL     1      14.592   2.753  18.393  1.00  0.00     0.076 C 
HETATM    2  C2  UNL     1      15.121   2.358  17.034  1.00  0.00     0.050 A 
HETATM    3  N1  UNL     1      15.121   3.067  15.917  1.00  0.00    -0.338 N 
ATOM      4  H1  UNL     1      14.727   4.008  15.911  1.00  0.00     0.168 HD
HETATM    5  C3  UNL     1      15.621   2.567  14.828  1.00  0.00     0.142 A 
HETATM    6  N2  UNL     1      15.796   2.975  13.530  1.00  0.00    -0.317 N 
ATOM      7  H2  UNL     1      15.521   3.878  13.144  1.00  0.00     0.170 HD
HETATM    8  C4  UNL     1      16.394   1.980  12.856  1.00  0.00     0.178 A 
HETATM    9  S1  UNL     1      16.799   2.031  11.253  1.00  0.00    -0.040 SA
HETATM   10  N3  UNL     1      16.621   0.927  13.659  1.00  0.00    -0.324 N 
ATOM     11  H3  UNL     1      17.059   0.040  13.410  1.00  0.00     0.169 HD
HETATM   12  C5  UNL     1      16.137   1.302  14.885  1.00  0.00     0.122 A 
HETATM   13  S2  UNL     1      15.865   0.906  16.527  1.00  0.00    -0.056 SA
ENDROOT
TORSDOF 0
ENDMDL
MODEL 4
REMARK VINA RESULT: -4.553816929      1.552      4.808
REMARK  0 active torsions:
REMARK  status: ('A' for Active; 'I' for Inactive)
ROOT
HETATM    1  C1  UNL     1      17.974  -0.578  10.470  1.00  0.00     0.076 C 
HETATM    2  C2  UNL     1      17.342   0.356  11.476  1.00  0.00     0.050 A 
HETATM    3  N1  UNL     1      17.132   0.149  12.766  1.00  0.00    -0.338 N 
ATOM      4  H1  UNL     1      17.412  -0.734  13.192  1.00  0.00     0.168 HD
HETATM    5  C3  UNL     1      16.570   1.068  13.489  1.00  0.00     0.142 A 
HETATM    6  N2  UNL     1      16.202   1.221  14.802  1.00  0.00    -0.317 N 
ATOM      7  H2  UNL     1      16.327   0.531  15.543  1.00  0.00     0.170 HD
HETATM    8  C4  UNL     1      15.648   2.436  14.943  1.00  0.00     0.178 A 
HETATM    9  S1  UNL     1      15.056   3.050  16.361  1.00  0.00    -0.040 SA
HETATM   10  N3  UNL     1      15.635   3.095  13.772  1.00  0.00    -0.324 N 
ATOM     11  H3  UNL     1      15.274   4.031  13.591  1.00  0.00     0.169 HD
HETATM   12  C5  UNL     1      16.212   2.236  12.873  1.00  0.00     0.122 A 
HETATM   13  S2  UNL     1      16.714   1.931  11.266  1.00  0.00    -0.056 SA
ENDROOT
TORSDOF 0
ENDMDL
MODEL 5
REMARK VINA RESULT: -4.553086825      1.642      2.033
REMARK  0 active torsions:
REMARK  status: ('A' for Active; 'I' for Inactive)
ROOT
HETATM    1  C1  UNL     1      14.640   1.680  18.014  1.00  0.00     0.076 C 
HETATM    2  C2  UNL     1      15.127   2.141  16.660  1.00  0.00     0.050 A 
HETATM    3  N1  UNL     1      15.784   1.446  15.746  1.00  0.00    -0.338 N 
ATOM      4  H1  UNL     1      16.019   0.469  15.921  1.00  0.00     0.168 HD
HETATM    5  C3  UNL     1      16.129   2.006  14.627  1.00  0.00     0.142 A 
HETATM    6  N2  UNL     1      16.789   1.631  13.483  1.00  0.00    -0.317 N 
ATOM      7  H2  UNL     1      17.178   0.707  13.293  1.00  0.00     0.170 HD
HETATM    8  C4  UNL     1      16.833   2.689  12.659  1.00  0.00     0.178 A 
HETATM    9  S1  UNL     1      17.536   2.696  11.162  1.00  0.00    -0.040 SA
HETATM   10  N3  UNL     1      16.226   3.752  13.213  1.00  0.00    -0.324 N 
ATOM     11  H3  UNL     1      16.115   4.683  12.810  1.00  0.00     0.169 HD
HETATM   12  C5  UNL     1      15.791   3.318  14.438  1.00  0.00     0.122 A 
HETATM   13  S2  UNL     1      14.986   3.668  15.906  1.00  0.00    -0.056 SA
ENDROOT
TORSDOF 0
ENDMDL
