MODEL 1
REMARK VINA RESULT: -5.578694926      0.000      0.000
REMARK  1 active torsions:
REMARK  status: ('A' for Active; 'I' for Inactive)
REMARK    1  A    between atoms: O1_1  and  C1_3 
ROOT
HETATM    1  C1  UNL     1      16.172   0.716  15.972  1.00  0.00     0.118 C 
HETATM    2  C2  UNL     1      15.362   0.590  17.237  1.00  0.00     0.032 C 
HETATM    3  C3  UNL     1      13.972   1.171  17.089  1.00  0.00     0.002 C 
HETATM    4  C4  UNL     1      14.033   2.603  17.529  1.00  0.00     0.000 C 
HETATM    5  C5  UNL     1      14.484   3.556  16.486  1.00  0.00     0.000 C 
HETATM    6  C6  UNL     1      15.232   2.928  15.346  1.00  0.00     0.002 C 
HETATM    7  C7  UNL     1      16.461   2.184  15.761  1.00  0.00     0.032 C 
ENDROOT
BRANCH   1   8
HETATM    8  O1  UNL     1      17.382   0.062  16.186  1.00  0.00    -0.396 OA
ATOM      9  H1  UNL     1      18.006   0.408  15.560  1.00  0.00     0.210 HD
ENDBRANCH   1   8
TORSDOF 1
ENDMDL
MODEL 2
REMARK VINA RESULT: -5.402019562      1.116      2.362
REMARK  1 active torsions:
REMARK  status: ('A' for Active; 'I' for Inactive)
REMARK    1  A    between atoms: O1_1  and  C1_3 
ROOT
HETATM    1  C1  UNL     1      15.354   0.640  17.375  1.00  0.00     0.118 C 
HETATM    2  C2  UNL     1      16.244   0.715  16.161  1.00  0.00     0.032 C 
HETATM    3  C3  UNL     1      16.766   2.114  15.917  1.00  0.00     0.002 C 
HETATM    4  C4  UNL     1      15.808   2.798  14.988  1.00  0.00     0.000 C 
HETATM    5  C5  UNL     1      14.630   3.411  15.648  1.00  0.00     0.000 C 
HETATM    6  C6  UNL     1      14.334   2.877  17.020  1.00  0.00     0.002 C 
HETATM    7  C7  UNL     1      14.087   1.403  17.059  1.00  0.00     0.032 C 
ENDROOT
BRANCH   1   8
HETATM    8  O1  UNL     1      15.019  -0.697  17.564  1.00  0.00    -0.396 OA
ATOM      9  H1  UNL     1      14.072  -0.748  17.621  1.00  0.00     0.210 HD
ENDBRANCH   1   8
TORSDOF 1
ENDMDL
MODEL 3
REMARK VINA RESULT: -5.049404103      0.872      2.164
REMARK  1 active torsions:
REMARK  status: ('A' for Active; 'I' for Inactive)
REMARK    1  A    between atoms: O1_1  and  C1_3 
ROOT
HETATM    1  C1  UNL     1      16.232   0.661  16.172  1.00  0.00     0.118 C 
HETATM    2  C2  UNL     1      16.231   1.655  15.038  1.00  0.00     0.032 C 
HETATM    3  C3  UNL     1      16.249   3.086  15.529  1.00  0.00     0.002 C 
HETATM    4  C4  UNL     1      14.825   3.543  15.641  1.00  0.00     0.000 C 
HETATM    5  C5  UNL     1      14.152   3.173  16.910  1.00  0.00     0.000 C 
HETATM    6  C6  UNL     1      14.802   2.045  17.657  1.00  0.00     0.002 C 
HETATM    7  C7  UNL     1      14.900   0.774  16.876  1.00  0.00     0.032 C 
ENDROOT
BRANCH   1   8
HETATM    8  O1  UNL     1      16.321  -0.609  15.611  1.00  0.00    -0.396 OA
ATOM      9  H1  UNL     1      16.387  -1.231  16.326  1.00  0.00     0.210 HD
ENDBRANCH   1   8
TORSDOF 1
ENDMDL
MODEL 4
REMARK VINA RESULT: -4.493115082      1.393      1.962
REMARK  1 active torsions:
REMARK  status: ('A' for Active; 'I' for Inactive)
REMARK    1  A    between atoms: O1_1  and  C1_3 
ROOT
HETATM    1  C1  UNL     1      16.707   1.821  15.553  1.00  0.00     0.118 C 
HETATM    2  C2  UNL     1      15.534   2.188  16.425  1.00  0.00     0.032 C 
HETATM    3  C3  UNL     1      14.487   2.982  15.673  1.00  0.00     0.002 C 
HETATM    4  C4  UNL     1      14.802   4.436  15.861  1.00  0.00     0.000 C 
HETATM    5  C5  UNL     1      15.812   4.980  14.921  1.00  0.00     0.000 C 
HETATM    6  C6  UNL     1      16.678   3.943  14.265  1.00  0.00     0.002 C 
HETATM    7  C7  UNL     1      17.448   3.097  15.226  1.00  0.00     0.032 C 
ENDROOT
BRANCH   1   8
HETATM    8  O1  UNL     1      17.550   1.011  16.310  1.00  0.00    -0.396 OA
ATOM      9  H1  UNL     1      17.689   1.446  17.142  1.00  0.00     0.210 HD
ENDBRANCH   1   8
TORSDOF 1
ENDMDL
MODEL 5
REMARK VINA RESULT: -4.492244016      1.048      2.358
REMARK  1 active torsions:
REMARK  status: ('A' for Active; 'I' for Inactive)
REMARK    1  A    between atoms: O1_1  and  C1_3 
ROOT
HETATM    1  C1  UNL     1      16.554   2.179  15.825  1.00  0.00     0.118 C 
HETATM    2  C2  UNL     1      15.277   2.940  15.576  1.00  0.00     0.032 C 
HETATM    3  C3  UNL     1      14.426   3.058  16.822  1.00  0.00     0.002 C 
HETATM    4  C4  UNL     1      13.476   1.898  16.830  1.00  0.00     0.000 C 
HETATM    5  C5  UNL     1      14.031   0.643  17.393  1.00  0.00     0.000 C 
HETATM    6  C6  UNL     1      15.531   0.585  17.431  1.00  0.00     0.002 C 
HETATM    7  C7  UNL     1      16.180   0.739  16.093  1.00  0.00     0.032 C 
ENDROOT
BRANCH   1   8
HETATM    8  O1  UNL     1      17.300   2.223  14.651  1.00  0.00    -0.396 OA
ATOM      9  H1  UNL     1      16.724   2.528  13.960  1.00  0.00     0.210 HD
ENDBRANCH   1   8
TORSDOF 1
ENDMDL
