MODEL 1
REMARK VINA RESULT: -5.250783409      0.000      0.000
REMARK  1 active torsions:
REMARK  status: ('A' for Active; 'I' for Inactive)
REMARK    1  A    between atoms: N1_1  and  C1_5 
ROOT
HETATM    1  C1  UNL     1      16.054   0.833  15.873  1.00  0.00     0.184 C 
HETATM    2  C2  UNL     1      15.612   0.551  17.239  1.00  0.00     0.044 C 
HETATM    3  C3  UNL     1      14.281   1.235  17.704  1.00  0.00     0.082 C 
HETATM    4  C4  UNL     1      14.328   2.509  17.114  1.00  0.00    -0.183 C 
HETATM    5  C5  UNL     1      13.981   3.794  16.671  1.00  0.00     0.080 C 
HETATM    6  C6  UNL     1      15.177   4.225  15.756  1.00  0.00     0.011 C 
HETATM    7  C7  UNL     1      15.785   3.162  14.945  1.00  0.00     0.003 C 
HETATM    8  C8  UNL     1      16.738   2.146  15.517  1.00  0.00     0.033 C 
ENDROOT
BRANCH   1   9
HETATM    9  N1  UNL     1      17.029  -0.250  15.576  1.00  0.00    -0.075 N 
ATOM     10  H13 UNL     1      17.534  -0.595  16.393  1.00  0.00     0.274 HD
ATOM     11  H12 UNL     1      16.601  -1.141  15.326  1.00  0.00     0.274 HD
ATOM     12  H11 UNL     1      17.627   0.144  14.850  1.00  0.00     0.274 HD
ENDBRANCH   1   9
TORSDOF 1
ENDMDL
MODEL 2
REMARK VINA RESULT: -5.200695477      0.797      1.075
REMARK  1 active torsions:
REMARK  status: ('A' for Active; 'I' for Inactive)
REMARK    1  A    between atoms: N1_1  and  C1_5 
ROOT
HETATM    1  C1  UNL     1      16.218   1.282  15.701  1.00  0.00     0.184 C 
HETATM    2  C2  UNL     1      15.406   1.318  16.917  1.00  0.00     0.044 C 
HETATM    3  C3  UNL     1      14.182   2.297  16.917  1.00  0.00     0.082 C 
HETATM    4  C4  UNL     1      14.646   3.423  16.219  1.00  0.00    -0.183 C 
HETATM    5  C5  UNL     1      14.704   4.657  15.551  1.00  0.00     0.080 C 
HETATM    6  C6  UNL     1      16.151   4.706  14.954  1.00  0.00     0.011 C 
HETATM    7  C7  UNL     1      16.693   3.430  14.469  1.00  0.00     0.003 C 
HETATM    8  C8  UNL     1      17.235   2.373  15.394  1.00  0.00     0.033 C 
ENDROOT
BRANCH   1   9
HETATM    9  N1  UNL     1      16.978   0.008  15.809  1.00  0.00    -0.075 N 
ATOM     10  H13 UNL     1      17.926   0.053  15.436  1.00  0.00     0.274 HD
ATOM     11  H12 UNL     1      17.245  -0.240  16.762  1.00  0.00     0.274 HD
ATOM     12  H11 UNL     1      16.380  -0.679  15.350  1.00  0.00     0.274 HD
ENDBRANCH   1   9
TORSDOF 1
ENDMDL
MODEL 3
REMARK VINA RESULT: -5.004544542      1.198      1.934
REMARK  1 active torsions:
REMARK  status: ('A' for Active; 'I' for Inactive)
REMARK    1  A    between atoms: N1_1  and  C1_5 
ROOT
HETATM    1  C1  UNL     1      15.175   0.975  16.867  1.00  0.00     0.184 C 
HETATM    2  C2  UNL     1      14.613   1.981  17.768  1.00  0.00     0.044 C 
HETATM    3  C3  UNL     1      13.975   3.247  17.102  1.00  0.00     0.082 C 
HETATM    4  C4  UNL     1      14.816   3.518  16.010  1.00  0.00    -0.183 C 
HETATM    5  C5  UNL     1      15.349   4.063  14.831  1.00  0.00     0.080 C 
HETATM    6  C6  UNL     1      16.581   3.153  14.507  1.00  0.00     0.011 C 
HETATM    7  C7  UNL     1      16.427   1.724  14.810  1.00  0.00     0.003 C 
HETATM    8  C8  UNL     1      16.534   1.173  16.207  1.00  0.00     0.033 C 
ENDROOT
BRANCH   1   9
HETATM    9  N1  UNL     1      15.282  -0.247  17.707  1.00  0.00    -0.075 N 
ATOM     10  H13 UNL     1      15.537  -1.089  17.190  1.00  0.00     0.274 HD
ATOM     11  H12 UNL     1      16.085  -0.254  18.335  1.00  0.00     0.274 HD
ATOM     12  H11 UNL     1      14.381  -0.304  18.181  1.00  0.00     0.274 HD
ENDBRANCH   1   9
TORSDOF 1
ENDMDL
MODEL 4
REMARK VINA RESULT: -4.993775878      0.762      2.432
REMARK  1 active torsions:
REMARK  status: ('A' for Active; 'I' for Inactive)
REMARK    1  A    between atoms: N1_1  and  C1_5 
ROOT
HETATM    1  C1  UNL     1      16.481   0.934  15.822  1.00  0.00     0.184 C 
HETATM    2  C2  UNL     1      16.406   1.470  14.463  1.00  0.00     0.044 C 
HETATM    3  C3  UNL     1      16.190   3.015  14.325  1.00  0.00     0.082 C 
HETATM    4  C4  UNL     1      15.305   3.330  15.369  1.00  0.00    -0.183 C 
HETATM    5  C5  UNL     1      14.514   4.036  16.289  1.00  0.00     0.080 C 
HETATM    6  C6  UNL     1      14.002   2.939  17.282  1.00  0.00     0.011 C 
HETATM    7  C7  UNL     1      14.950   1.862  17.599  1.00  0.00     0.003 C 
HETATM    8  C8  UNL     1      15.226   0.719  16.658  1.00  0.00     0.033 C 
ENDROOT
BRANCH   1   9
HETATM    9  N1  UNL     1      17.116  -0.399  15.653  1.00  0.00    -0.075 N 
ATOM     10  H13 UNL     1      18.044  -0.371  15.230  1.00  0.00     0.274 HD
ATOM     11  H12 UNL     1      17.405  -0.839  16.527  1.00  0.00     0.274 HD
ATOM     12  H11 UNL     1      16.431  -0.937  15.122  1.00  0.00     0.274 HD
ENDBRANCH   1   9
TORSDOF 1
ENDMDL
MODEL 5
REMARK VINA RESULT: -4.956452620      1.358      2.860
REMARK  1 active torsions:
REMARK  status: ('A' for Active; 'I' for Inactive)
REMARK    1  A    between atoms: N1_1  and  C1_5 
ROOT
HETATM    1  C1  UNL     1      16.733   2.649  14.987  1.00  0.00     0.184 C 
HETATM    2  C2  UNL     1      15.709   3.615  14.590  1.00  0.00     0.044 C 
HETATM    3  C3  UNL     1      14.737   4.112  15.714  1.00  0.00     0.082 C 
HETATM    4  C4  UNL     1      14.513   2.971  16.501  1.00  0.00    -0.183 C 
HETATM    5  C5  UNL     1      14.100   2.114  17.534  1.00  0.00     0.080 C 
HETATM    6  C6  UNL     1      14.794   0.750  17.205  1.00  0.00     0.011 C 
HETATM    7  C7  UNL     1      16.146   0.833  16.635  1.00  0.00     0.003 C 
HETATM    8  C8  UNL     1      16.398   1.177  15.191  1.00  0.00     0.033 C 
ENDROOT
BRANCH   1   9
HETATM    9  N1  UNL     1      17.735   2.710  13.890  1.00  0.00    -0.075 N 
ATOM     10  H13 UNL     1      17.353   2.522  12.962  1.00  0.00     0.274 HD
ATOM     11  H12 UNL     1      18.072   3.650  13.683  1.00  0.00     0.274 HD
ATOM     12  H11 UNL     1      18.465   2.060  14.181  1.00  0.00     0.274 HD
ENDBRANCH   1   9
TORSDOF 1
ENDMDL
