MODEL 1
REMARK VINA RESULT: -5.707626165      0.000      0.000
REMARK  1 active torsions:
REMARK  status: ('A' for Active; 'I' for Inactive)
REMARK    1  A    between atoms: O1_1  and  N1_3 
ROOT
HETATM    1  N1  UNL     1      16.967   0.638  16.451  1.00  0.00    -0.200 NA
HETATM    2  C1  UNL     1      15.694   0.275  16.955  1.00  0.00     0.120 C 
HETATM    3  C2  UNL     1      15.084   1.334  17.846  1.00  0.00     0.017 C 
HETATM    4  C3  UNL     1      13.871   1.868  17.151  1.00  0.00     0.001 C 
HETATM    5  C4  UNL     1      14.024   3.264  16.682  1.00  0.00     0.000 C 
HETATM    6  C5  UNL     1      15.231   3.554  15.876  1.00  0.00     0.001 C 
HETATM    7  C6  UNL     1      15.801   2.370  15.144  1.00  0.00     0.017 C 
HETATM    8  C7  UNL     1      17.063   1.874  15.779  1.00  0.00     0.120 C 
ENDROOT
BRANCH   1   9
HETATM    9  O1  UNL     1      17.489  -0.416  15.785  1.00  0.00    -0.313 OA
ATOM     10  H1  UNL     1      17.566  -1.149  16.385  1.00  0.00     0.237 HD
ENDBRANCH   1   9
TORSDOF 1
ENDMDL
MODEL 2
REMARK VINA RESULT: -5.697636012      1.482      2.529
REMARK  1 active torsions:
REMARK  status: ('A' for Active; 'I' for Inactive)
REMARK    1  A    between atoms: O1_1  and  N1_3 
ROOT
HETATM    1  N1  UNL     1      15.016   0.172  16.719  1.00  0.00    -0.200 NA
HETATM    2  C1  UNL     1      16.277   0.609  16.242  1.00  0.00     0.120 C 
HETATM    3  C2  UNL     1      16.177   1.463  14.998  1.00  0.00     0.017 C 
HETATM    4  C3  UNL     1      16.629   2.844  15.359  1.00  0.00     0.001 C 
HETATM    5  C4  UNL     1      15.537   3.844  15.354  1.00  0.00     0.000 C 
HETATM    6  C5  UNL     1      14.328   3.493  16.132  1.00  0.00     0.001 C 
HETATM    7  C6  UNL     1      14.562   2.531  17.265  1.00  0.00     0.017 C 
HETATM    8  C7  UNL     1      14.040   1.162  16.954  1.00  0.00     0.120 C 
ENDROOT
BRANCH   1   9
HETATM    9  O1  UNL     1      15.213  -0.690  17.742  1.00  0.00    -0.313 OA
ATOM     10  H1  UNL     1      14.388  -0.819  18.195  1.00  0.00     0.237 HD
ENDBRANCH   1   9
TORSDOF 1
ENDMDL
MODEL 3
REMARK VINA RESULT: -5.158294668      1.378      1.852
REMARK  1 active torsions:
REMARK  status: ('A' for Active; 'I' for Inactive)
REMARK    1  A    between atoms: O1_1  and  N1_3 
ROOT
HETATM    1  N1  UNL     1      15.567   0.506  17.311  1.00  0.00    -0.200 NA
HETATM    2  C1  UNL     1      14.393   1.283  17.152  1.00  0.00     0.120 C 
HETATM    3  C2  UNL     1      14.647   2.770  17.249  1.00  0.00     0.017 C 
HETATM    4  C3  UNL     1      14.371   3.366  15.904  1.00  0.00     0.001 C 
HETATM    5  C4  UNL     1      15.585   3.854  15.212  1.00  0.00     0.000 C 
HETATM    6  C5  UNL     1      16.710   2.897  15.114  1.00  0.00     0.001 C 
HETATM    7  C6  UNL     1      16.312   1.448  15.160  1.00  0.00     0.017 C 
HETATM    8  C7  UNL     1      16.658   0.812  16.471  1.00  0.00     0.120 C 
ENDROOT
BRANCH   1   9
HETATM    9  O1  UNL     1      15.224  -0.801  17.348  1.00  0.00    -0.313 OA
ATOM     10  H1  UNL     1      15.697  -1.221  18.056  1.00  0.00     0.237 HD
ENDBRANCH   1   9
TORSDOF 1
ENDMDL
MODEL 4
REMARK VINA RESULT: -5.087856942      0.743      2.245
REMARK  1 active torsions:
REMARK  status: ('A' for Active; 'I' for Inactive)
REMARK    1  A    between atoms: O1_1  and  N1_3 
ROOT
HETATM    1  N1  UNL     1      16.217   0.370  15.593  1.00  0.00    -0.200 NA
HETATM    2  C1  UNL     1      16.643   1.579  14.988  1.00  0.00     0.120 C 
HETATM    3  C2  UNL     1      15.495   2.455  14.541  1.00  0.00     0.017 C 
HETATM    4  C3  UNL     1      15.517   3.695  15.379  1.00  0.00     0.001 C 
HETATM    5  C4  UNL     1      14.379   3.792  16.322  1.00  0.00     0.000 C 
HETATM    6  C5  UNL     1      14.141   2.611  17.181  1.00  0.00     0.001 C 
HETATM    7  C6  UNL     1      15.355   1.760  17.436  1.00  0.00     0.017 C 
HETATM    8  C7  UNL     1      15.310   0.475  16.667  1.00  0.00     0.120 C 
ENDROOT
BRANCH   1   9
HETATM    9  O1  UNL     1      17.300  -0.402  15.832  1.00  0.00    -0.313 OA
ATOM     10  H1  UNL     1      18.049   0.161  15.986  1.00  0.00     0.237 HD
ENDBRANCH   1   9
TORSDOF 1
ENDMDL
MODEL 5
REMARK VINA RESULT: -4.778699617      1.444      1.663
REMARK  1 active torsions:
REMARK  status: ('A' for Active; 'I' for Inactive)
REMARK    1  A    between atoms: O1_1  and  N1_3 
ROOT
HETATM    1  N1  UNL     1      17.026   1.834  14.846  1.00  0.00    -0.200 NA
HETATM    2  C1  UNL     1      16.323   0.731  15.390  1.00  0.00     0.120 C 
HETATM    3  C2  UNL     1      15.985   0.907  16.853  1.00  0.00     0.017 C 
HETATM    4  C3  UNL     1      14.496   1.005  16.967  1.00  0.00     0.001 C 
HETATM    5  C4  UNL     1      14.020   2.352  17.357  1.00  0.00     0.000 C 
HETATM    6  C5  UNL     1      14.537   3.484  16.558  1.00  0.00     0.001 C 
HETATM    7  C6  UNL     1      14.955   3.130  15.157  1.00  0.00     0.017 C 
HETATM    8  C7  UNL     1      16.444   3.109  15.004  1.00  0.00     0.120 C 
ENDROOT
BRANCH   1   9
HETATM    9  O1  UNL     1      17.402   1.531  13.583  1.00  0.00    -0.313 OA
ATOM     10  H1  UNL     1      18.344   1.635  13.511  1.00  0.00     0.237 HD
ENDBRANCH   1   9
TORSDOF 1
ENDMDL
