MODEL 1
REMARK VINA RESULT: -4.303167728      0.000      0.000
REMARK  0 active torsions:
REMARK  status: ('A' for Active; 'I' for Inactive)
ROOT
HETATM    1  C1  UNL     1      14.065   2.900  16.995  1.00  0.00     0.002 C 
HETATM    2  C2  UNL     1      14.638   1.905  17.990  1.00  0.00     0.017 C 
HETATM    3  C3  UNL     1      14.546   0.488  17.470  1.00  0.00     0.122 C 
HETATM    4  N1  UNL     1      15.800  -0.020  16.994  1.00  0.00    -0.179 NA
HETATM    5  S1  UNL     1      16.609   1.020  15.864  1.00  0.00    -0.066 SA
HETATM    6  C4  UNL     1      15.459   2.200  15.120  1.00  0.00     0.092 C 
HETATM    7  C5  UNL     1      15.154   3.355  16.042  1.00  0.00     0.012 C 
ENDROOT
TORSDOF 0
ENDMDL
MODEL 2
REMARK VINA RESULT: -4.220815660      1.353      1.353
REMARK  0 active torsions:
REMARK  status: ('A' for Active; 'I' for Inactive)
ROOT
HETATM    1  C1  UNL     1      14.056   1.958  16.912  1.00  0.00     0.002 C 
HETATM    2  C2  UNL     1      15.257   1.291  17.559  1.00  0.00     0.017 C 
HETATM    3  C3  UNL     1      16.005   0.423  16.572  1.00  0.00     0.122 C 
HETATM    4  N1  UNL     1      17.217   1.025  16.098  1.00  0.00    -0.179 NA
HETATM    5  S1  UNL     1      17.027   2.644  15.502  1.00  0.00    -0.066 SA
HETATM    6  C4  UNL     1      15.301   2.989  15.086  1.00  0.00     0.092 C 
HETATM    7  C5  UNL     1      14.470   3.287  16.310  1.00  0.00     0.012 C 
ENDROOT
TORSDOF 0
ENDMDL
MODEL 3
REMARK VINA RESULT: -4.116892815      0.870      1.045
REMARK  0 active torsions:
REMARK  status: ('A' for Active; 'I' for Inactive)
ROOT
HETATM    1  C1  UNL     1      14.732   3.371  15.935  1.00  0.00     0.002 C 
HETATM    2  C2  UNL     1      14.470   2.514  17.162  1.00  0.00     0.017 C 
HETATM    3  C3  UNL     1      13.920   1.158  16.781  1.00  0.00     0.122 C 
HETATM    4  N1  UNL     1      14.895   0.110  16.867  1.00  0.00    -0.179 NA
HETATM    5  S1  UNL     1      16.383   0.447  16.038  1.00  0.00    -0.066 SA
HETATM    6  C4  UNL     1      16.163   1.752  14.806  1.00  0.00     0.092 C 
HETATM    7  C5  UNL     1      16.141   3.126  15.431  1.00  0.00     0.012 C 
ENDROOT
TORSDOF 0
ENDMDL
MODEL 4
REMARK VINA RESULT: -4.110169918      1.496      2.310
REMARK  0 active torsions:
REMARK  status: ('A' for Active; 'I' for Inactive)
ROOT
HETATM    1  C1  UNL     1      16.058   3.008  15.382  1.00  0.00     0.002 C 
HETATM    2  C2  UNL     1      16.276   1.528  15.112  1.00  0.00     0.017 C 
HETATM    3  C3  UNL     1      16.700   0.795  16.364  1.00  0.00     0.122 C 
HETATM    4  N1  UNL     1      15.643   0.026  16.953  1.00  0.00    -0.179 NA
HETATM    5  S1  UNL     1      14.170   0.909  17.203  1.00  0.00    -0.066 SA
HETATM    6  C4  UNL     1      14.469   2.693  17.204  1.00  0.00     0.092 C 
HETATM    7  C5  UNL     1      14.622   3.244  15.808  1.00  0.00     0.012 C 
ENDROOT
TORSDOF 0
ENDMDL
MODEL 5
REMARK VINA RESULT: -3.900122228      1.443      2.527
REMARK  0 active torsions:
REMARK  status: ('A' for Active; 'I' for Inactive)
ROOT
HETATM    1  C1  UNL     1      14.292   2.954  16.704  1.00  0.00     0.002 C 
HETATM    2  C2  UNL     1      14.967   3.138  15.356  1.00  0.00     0.017 C 
HETATM    3  C3  UNL     1      16.474   3.137  15.488  1.00  0.00     0.122 C 
HETATM    4  N1  UNL     1      17.076   1.906  15.067  1.00  0.00    -0.179 NA
HETATM    5  S1  UNL     1      16.376   0.487  15.781  1.00  0.00    -0.066 SA
HETATM    6  C4  UNL     1      15.462   0.895  17.286  1.00  0.00     0.092 C 
HETATM    7  C5  UNL     1      14.101   1.476  16.985  1.00  0.00     0.012 C 
ENDROOT
TORSDOF 0
ENDMDL
