MODEL 1
REMARK VINA RESULT: -6.613765238      0.000      0.000
REMARK  5 active torsions:
REMARK  status: ('A' for Active; 'I' for Inactive)
REMARK    1  A    between atoms: C2_2  and  N1_4 
REMARK       I    between atoms: N1_4  and  C4_6 
REMARK       I    between atoms: C4_6  and  N3_10 
REMARK    2  A    between atoms: N4_12  and  C5_14 
REMARK    3  A    between atoms: C5_14  and  C6_19 
REMARK    4  A    between atoms: N5_15  and  O1_17 
REMARK    5  A    between atoms: C6_19  and  C8_21 
ROOT
HETATM    1  N1  UNL     1     -12.883  17.843  -8.395  1.00  0.00    -0.221 N 
ATOM      2  H1  UNL     1     -12.507  18.729  -8.056  1.00  0.00     0.178 HD
HETATM    3  C4  UNL     1     -12.079  16.693  -8.266  1.00  0.00     0.686 C 
HETATM    4  N2  UNL     1     -12.168  15.976  -7.211  1.00  0.00    -0.234 N 
ATOM      5  H21 UNL     1     -11.586  15.143  -7.118  1.00  0.00     0.174 HD
ATOM      6  H22 UNL     1     -12.818  16.237  -6.470  1.00  0.00     0.174 HD
HETATM    7  N3  UNL     1     -11.183  16.334  -9.288  1.00  0.00    -0.131 N 
ATOM      8  H3  UNL     1     -11.019  17.007 -10.036  1.00  0.00     0.205 HD
HETATM    9  N4  UNL     1     -10.568  15.231  -9.342  1.00  0.00    -0.273 N 
ATOM     10  H4  UNL     1     -10.680  14.507  -8.632  1.00  0.00     0.189 HD
ENDROOT
BRANCH   9  11
HETATM   11  C5  UNL     1      -9.684  15.070 -10.496  1.00  0.00     0.120 C 
HETATM   12  N5  UNL     1      -8.983  16.071 -10.757  1.00  0.00    -0.255 N 
ATOM     13  H5  UNL     1      -9.098  16.883 -10.149  1.00  0.00     0.195 HD
BRANCH  12  14
HETATM   14  O1  UNL     1      -8.096  16.186 -11.754  1.00  0.00    -0.288 OA
ATOM     15  H1  UNL     1      -7.184  15.921 -11.733  1.00  0.00     0.244 HD
ENDBRANCH  12  14
BRANCH  11  16
HETATM   16  C6  UNL     1      -9.672  13.814 -11.240  1.00  0.00     0.056 C 
HETATM   17  C7  UNL     1     -10.950  13.062 -11.272  1.00  0.00     0.018 C 
BRANCH  16  18
HETATM   18  C8  UNL     1      -8.490  12.932 -10.863  1.00  0.00    -0.012 C 
HETATM   19  C9  UNL     1      -8.853  11.854  -9.898  1.00  0.00     0.010 C 
HETATM   20  C10 UNL     1      -7.923  12.384 -12.161  1.00  0.00     0.010 C 
ENDBRANCH  16  18
ENDBRANCH  11  16
ENDBRANCH   9  11
BRANCH   1  21
HETATM   21  C2  UNL     1     -14.203  17.846  -8.975  1.00  0.00     0.091 C 
HETATM   22  C1  UNL     1     -14.509  16.472  -9.583  1.00  0.00     0.032 C 
HETATM   23  C3  UNL     1     -15.256  18.081  -7.916  1.00  0.00     0.032 C 
ENDBRANCH   1  21
TORSDOF 5
ENDMDL
MODEL 2
REMARK VINA RESULT: -6.524328553      1.958      2.446
REMARK  5 active torsions:
REMARK  status: ('A' for Active; 'I' for Inactive)
REMARK    1  A    between atoms: C2_2  and  N1_4 
REMARK       I    between atoms: N1_4  and  C4_6 
REMARK       I    between atoms: C4_6  and  N3_10 
REMARK    2  A    between atoms: N4_12  and  C5_14 
REMARK    3  A    between atoms: C5_14  and  C6_19 
REMARK    4  A    between atoms: N5_15  and  O1_17 
REMARK    5  A    between atoms: C6_19  and  C8_21 
ROOT
HETATM    1  N1  UNL     1     -13.092  17.049  -7.750  1.00  0.00    -0.221 N 
ATOM      2  H1  UNL     1     -14.039  16.888  -8.094  1.00  0.00     0.178 HD
HETATM    3  C4  UNL     1     -12.038  17.034  -8.684  1.00  0.00     0.686 C 
HETATM    4  N2  UNL     1     -11.686  18.124  -9.255  1.00  0.00    -0.234 N 
ATOM      5  H21 UNL     1     -10.923  18.114  -9.932  1.00  0.00     0.174 HD
ATOM      6  H22 UNL     1     -12.167  18.995  -9.033  1.00  0.00     0.174 HD
HETATM    7  N3  UNL     1     -11.375  15.833  -8.991  1.00  0.00    -0.131 N 
ATOM      8  H3  UNL     1     -11.781  14.964  -8.645  1.00  0.00     0.205 HD
HETATM    9  N4  UNL     1     -10.309  15.759  -9.666  1.00  0.00    -0.273 N 
ATOM     10  H4  UNL     1      -9.843  16.584 -10.045  1.00  0.00     0.189 HD
ENDROOT
BRANCH   9  11
HETATM   11  C5  UNL     1      -9.793  14.405  -9.863  1.00  0.00     0.120 C 
HETATM   12  N5  UNL     1      -9.429  13.830  -8.814  1.00  0.00    -0.255 N 
ATOM     13  H5  UNL     1      -9.528  14.355  -7.945  1.00  0.00     0.195 HD
BRANCH  12  14
HETATM   14  O1  UNL     1      -8.923  12.594  -8.717  1.00  0.00    -0.288 OA
ATOM     15  H1  UNL     1      -8.012  12.346  -8.821  1.00  0.00     0.244 HD
ENDBRANCH  12  14
BRANCH  11  16
HETATM   16  C6  UNL     1      -9.735  13.830 -11.204  1.00  0.00     0.056 C 
HETATM   17  C7  UNL     1     -10.715  12.756 -11.497  1.00  0.00     0.018 C 
BRANCH  16  18
HETATM   18  C8  UNL     1      -8.318  13.446 -11.605  1.00  0.00    -0.012 C 
HETATM   19  C9  UNL     1      -8.268  12.239 -12.480  1.00  0.00     0.010 C 
HETATM   20  C10 UNL     1      -7.704  14.668 -12.264  1.00  0.00     0.010 C 
ENDBRANCH  16  18
ENDBRANCH  11  16
ENDBRANCH   9  11
BRANCH   1  21
HETATM   21  C2  UNL     1     -12.916  17.277  -6.337  1.00  0.00     0.091 C 
HETATM   22  C1  UNL     1     -12.969  18.781  -6.040  1.00  0.00     0.032 C 
HETATM   23  C3  UNL     1     -14.044  16.653  -5.546  1.00  0.00     0.032 C 
ENDBRANCH   1  21
TORSDOF 5
ENDMDL
MODEL 3
REMARK VINA RESULT: -6.447368784      0.827      1.012
REMARK  5 active torsions:
REMARK  status: ('A' for Active; 'I' for Inactive)
REMARK    1  A    between atoms: C2_2  and  N1_4 
REMARK       I    between atoms: N1_4  and  C4_6 
REMARK       I    between atoms: C4_6  and  N3_10 
REMARK    2  A    between atoms: N4_12  and  C5_14 
REMARK    3  A    between atoms: C5_14  and  C6_19 
REMARK    4  A    between atoms: N5_15  and  O1_17 
REMARK    5  A    between atoms: C6_19  and  C8_21 
ROOT
HETATM    1  N1  UNL     1     -13.392  16.683  -8.245  1.00  0.00    -0.221 N 
ATOM      2  H1  UNL     1     -13.347  17.683  -8.047  1.00  0.00     0.178 HD
HETATM    3  C4  UNL     1     -12.209  15.930  -8.112  1.00  0.00     0.686 C 
HETATM    4  N2  UNL     1     -11.932  15.383  -6.990  1.00  0.00    -0.234 N 
ATOM      5  H21 UNL     1     -11.075  14.838  -6.893  1.00  0.00     0.174 HD
ATOM      6  H22 UNL     1     -12.565  15.493  -6.198  1.00  0.00     0.174 HD
HETATM    7  N3  UNL     1     -11.335  15.778  -9.203  1.00  0.00    -0.131 N 
ATOM      8  H3  UNL     1     -11.500  16.355 -10.028  1.00  0.00     0.205 HD
HETATM    9  N4  UNL     1     -10.360  14.976  -9.230  1.00  0.00    -0.273 N 
ATOM     10  H4  UNL     1     -10.131  14.366  -8.444  1.00  0.00     0.189 HD
ENDROOT
BRANCH   9  11
HETATM   11  C5  UNL     1      -9.583  14.984 -10.469  1.00  0.00     0.120 C 
HETATM   12  N5  UNL     1      -8.957  16.045 -10.682  1.00  0.00    -0.255 N 
ATOM     13  H5  UNL     1      -9.051  16.782  -9.983  1.00  0.00     0.195 HD
BRANCH  12  14
HETATM   14  O1  UNL     1      -8.176  16.312 -11.736  1.00  0.00    -0.288 OA
ATOM     15  H1  UNL     1      -7.233  16.199 -11.785  1.00  0.00     0.244 HD
ENDBRANCH  12  14
BRANCH  11  16
HETATM   16  C6  UNL     1      -9.583  13.815 -11.343  1.00  0.00     0.056 C 
HETATM   17  C7  UNL     1     -10.863  13.071 -11.437  1.00  0.00     0.018 C 
BRANCH  16  18
HETATM   18  C8  UNL     1      -8.398  12.897 -11.078  1.00  0.00    -0.012 C 
HETATM   19  C9  UNL     1      -8.671  11.886 -10.015  1.00  0.00     0.010 C 
HETATM   20  C10 UNL     1      -8.034  12.260 -12.407  1.00  0.00     0.010 C 
ENDBRANCH  16  18
ENDBRANCH  11  16
ENDBRANCH   9  11
BRANCH   1  21
HETATM   21  C2  UNL     1     -14.662  16.129  -8.644  1.00  0.00     0.091 C 
HETATM   22  C1  UNL     1     -15.533  15.877  -7.407  1.00  0.00     0.032 C 
HETATM   23  C3  UNL     1     -15.429  17.106  -9.506  1.00  0.00     0.032 C 
ENDBRANCH   1  21
TORSDOF 5
ENDMDL
MODEL 4
REMARK VINA RESULT: -6.214795261      3.559      5.565
REMARK  5 active torsions:
REMARK  status: ('A' for Active; 'I' for Inactive)
REMARK    1  A    between atoms: C2_2  and  N1_4 
REMARK       I    between atoms: N1_4  and  C4_6 
REMARK       I    between atoms: C4_6  and  N3_10 
REMARK    2  A    between atoms: N4_12  and  C5_14 
REMARK    3  A    between atoms: C5_14  and  C6_19 
REMARK    4  A    between atoms: N5_15  and  O1_17 
REMARK    5  A    between atoms: C6_19  and  C8_21 
ROOT
HETATM    1  N1  UNL     1     -10.457  10.010  -6.884  1.00  0.00    -0.221 N 
ATOM      2  H1  UNL     1     -10.797  10.261  -5.955  1.00  0.00     0.178 HD
HETATM    3  C4  UNL     1      -9.457  10.818  -7.462  1.00  0.00     0.686 C 
HETATM    4  N2  UNL     1      -8.226  10.531  -7.270  1.00  0.00    -0.234 N 
ATOM      5  H21 UNL     1      -7.501  11.115  -7.688  1.00  0.00     0.174 HD
ATOM      6  H22 UNL     1      -7.972   9.722  -6.702  1.00  0.00     0.174 HD
HETATM    7  N3  UNL     1      -9.807  11.933  -8.244  1.00  0.00    -0.131 N 
ATOM      8  H3  UNL     1     -10.783  12.226  -8.243  1.00  0.00     0.205 HD
HETATM    9  N4  UNL     1      -8.991  12.594  -8.947  1.00  0.00    -0.273 N 
ATOM     10  H4  UNL     1      -7.999  12.361  -8.999  1.00  0.00     0.189 HD
ENDROOT
BRANCH   9  11
HETATM   11  C5  UNL     1      -9.574  13.717  -9.680  1.00  0.00     0.120 C 
HETATM   12  N5  UNL     1     -10.096  14.593  -8.958  1.00  0.00    -0.255 N 
ATOM     13  H5  UNL     1     -10.063  14.438  -7.950  1.00  0.00     0.195 HD
BRANCH  12  14
HETATM   14  O1  UNL     1     -10.696  15.717  -9.375  1.00  0.00    -0.288 OA
ATOM     15  H1  UNL     1     -10.819  16.513  -8.870  1.00  0.00     0.244 HD
ENDBRANCH  12  14
BRANCH  11  16
HETATM   16  C6  UNL     1      -9.518  13.749 -11.138  1.00  0.00     0.056 C 
HETATM   17  C7  UNL     1     -10.606  13.036 -11.850  1.00  0.00     0.018 C 
BRANCH  16  18
HETATM   18  C8  UNL     1      -8.140  13.381 -11.671  1.00  0.00    -0.012 C 
HETATM   19  C9  UNL     1      -8.159  12.176 -12.550  1.00  0.00     0.010 C 
HETATM   20  C10 UNL     1      -7.602  14.610 -12.380  1.00  0.00     0.010 C 
ENDBRANCH  16  18
ENDBRANCH  11  16
ENDBRANCH   9  11
BRANCH   1  21
HETATM   21  C2  UNL     1     -11.030   8.852  -7.524  1.00  0.00     0.091 C 
HETATM   22  C1  UNL     1     -11.737   7.976  -6.482  1.00  0.00     0.032 C 
HETATM   23  C3  UNL     1     -12.092   9.258  -8.521  1.00  0.00     0.032 C 
ENDBRANCH   1  21
TORSDOF 5
ENDMDL
MODEL 5
REMARK VINA RESULT: -6.162242476      2.183      6.430
REMARK  5 active torsions:
REMARK  status: ('A' for Active; 'I' for Inactive)
REMARK    1  A    between atoms: C2_2  and  N1_4 
REMARK       I    between atoms: N1_4  and  C4_6 
REMARK       I    between atoms: C4_6  and  N3_10 
REMARK    2  A    between atoms: N4_12  and  C5_14 
REMARK    3  A    between atoms: C5_14  and  C6_19 
REMARK    4  A    between atoms: N5_15  and  O1_17 
REMARK    5  A    between atoms: C6_19  and  C8_21 
ROOT
HETATM    1  N1  UNL     1      -9.117  14.410 -10.533  1.00  0.00    -0.221 N 
ATOM      2  H1  UNL     1      -8.372  14.007  -9.963  1.00  0.00     0.178 HD
HETATM    3  C4  UNL     1      -9.648  15.655 -10.141  1.00  0.00     0.686 C 
HETATM    4  N2  UNL     1      -9.133  16.733 -10.599  1.00  0.00    -0.234 N 
ATOM      5  H21 UNL     1      -9.517  17.635 -10.316  1.00  0.00     0.174 HD
ATOM      6  H22 UNL     1      -8.343  16.688 -11.243  1.00  0.00     0.174 HD
HETATM    7  N3  UNL     1     -10.735  15.717  -9.253  1.00  0.00    -0.131 N 
ATOM      8  H3  UNL     1     -11.016  14.856  -8.784  1.00  0.00     0.205 HD
HETATM    9  N4  UNL     1     -11.389  16.768  -8.998  1.00  0.00    -0.273 N 
ATOM     10  H4  UNL     1     -11.169  17.667  -9.427  1.00  0.00     0.189 HD
ENDROOT
BRANCH   9  11
HETATM   11  C5  UNL     1     -12.483  16.601  -8.042  1.00  0.00     0.120 C 
HETATM   12  N5  UNL     1     -12.241  15.803  -7.111  1.00  0.00    -0.255 N 
ATOM     13  H5  UNL     1     -11.323  15.359  -7.113  1.00  0.00     0.195 HD
BRANCH  12  14
HETATM   14  O1  UNL     1     -13.067  15.473  -6.109  1.00  0.00    -0.288 OA
ATOM     15  H1  UNL     1     -13.450  16.066  -5.473  1.00  0.00     0.244 HD
ENDBRANCH  12  14
BRANCH  11  16
HETATM   16  C6  UNL     1     -13.731  17.337  -8.220  1.00  0.00     0.056 C 
HETATM   17  C7  UNL     1     -14.531  16.983  -9.418  1.00  0.00     0.018 C 
BRANCH  16  18
HETATM   18  C8  UNL     1     -13.541  18.840  -8.074  1.00  0.00    -0.012 C 
HETATM   19  C9  UNL     1     -14.776  19.615  -8.387  1.00  0.00     0.010 C 
HETATM   20  C10 UNL     1     -13.045  19.082  -6.659  1.00  0.00     0.010 C 
ENDBRANCH  16  18
ENDBRANCH  11  16
ENDBRANCH   9  11
BRANCH   1  21
HETATM   21  C2  UNL     1      -9.559  13.671 -11.689  1.00  0.00     0.091 C 
HETATM   22  C1  UNL     1      -8.520  12.605 -12.057  1.00  0.00     0.032 C 
HETATM   23  C3  UNL     1     -10.840  12.923 -11.392  1.00  0.00     0.032 C 
ENDBRANCH   1  21
TORSDOF 5
ENDMDL
