MODEL 1
REMARK VINA RESULT: -6.376226496      0.000      0.000
REMARK  4 active torsions:
REMARK  status: ('A' for Active; 'I' for Inactive)
REMARK    1  A    between atoms: C10_10  and  C12_12 
REMARK    2  A    between atoms: C12_12  and  C13_13 
REMARK    3  A    between atoms: C13_13  and  O1_14 
REMARK    4  A    between atoms: N1_16  and  O2_18 
ROOT
HETATM    1  C1  UNL     1      -8.648  10.290  -6.941  1.00  0.00     0.014 C 
HETATM    2  C2  UNL     1      -9.658  10.912  -7.514  1.00  0.00    -0.085 C 
HETATM    3  C3  UNL     1     -10.829  10.077  -7.867  1.00  0.00     0.034 C 
HETATM    4  C4  UNL     1     -11.354  10.365  -9.245  1.00  0.00     0.009 C 
HETATM    5  C5  UNL     1     -11.538  11.830  -9.551  1.00  0.00    -0.006 C 
HETATM    6  C6  UNL     1     -11.982  12.553  -8.316  1.00  0.00     0.006 C 
HETATM    7  C7  UNL     1     -10.871  13.050  -7.442  1.00  0.00     0.009 C 
HETATM    8  C8  UNL     1      -9.573  12.379  -7.770  1.00  0.00     0.014 C 
HETATM    9  C9  UNL     1      -9.194  12.626  -9.187  1.00  0.00     0.019 C 
HETATM   10  C10 UNL     1     -10.356  12.473 -10.175  1.00  0.00    -0.033 C 
HETATM   11  C11 UNL     1      -9.820  11.625 -11.314  1.00  0.00     0.016 C 
ENDROOT
BRANCH  10  12
HETATM   12  C12 UNL     1     -10.641  13.832 -10.694  1.00  0.00     0.095 C 
BRANCH  12  13
HETATM   13  C13 UNL     1      -9.578  14.823 -10.666  1.00  0.00     0.135 C 
HETATM   14  N1  UNL     1      -9.739  15.899  -9.976  1.00  0.00    -0.251 N 
ATOM     15  H1  UNL     1     -10.608  16.036  -9.461  1.00  0.00     0.196 HD
BRANCH  13  16
HETATM   16  O1  UNL     1      -8.382  14.688 -11.345  1.00  0.00    -0.348 OA
ATOM     17  H1  UNL     1      -7.828  15.420 -11.591  1.00  0.00     0.219 HD
ENDBRANCH  13  16
BRANCH  14  18
HETATM   18  O2  UNL     1      -8.780  16.847  -9.920  1.00  0.00    -0.288 OA
ATOM     19  H2  UNL     1      -8.952  17.703  -9.543  1.00  0.00     0.244 HD
ENDBRANCH  14  18
ENDBRANCH  12  13
ENDBRANCH  10  12
TORSDOF 4
ENDMDL
MODEL 2
REMARK VINA RESULT: -6.269792322      0.784      1.071
REMARK  4 active torsions:
REMARK  status: ('A' for Active; 'I' for Inactive)
REMARK    1  A    between atoms: C10_10  and  C12_12 
REMARK    2  A    between atoms: C12_12  and  C13_13 
REMARK    3  A    between atoms: C13_13  and  O1_14 
REMARK    4  A    between atoms: N1_16  and  O2_18 
ROOT
HETATM    1  C1  UNL     1      -8.808  10.176  -6.963  1.00  0.00     0.014 C 
HETATM    2  C2  UNL     1      -9.763  10.864  -7.553  1.00  0.00    -0.085 C 
HETATM    3  C3  UNL     1     -10.978  10.110  -7.936  1.00  0.00     0.034 C 
HETATM    4  C4  UNL     1     -11.454  10.438  -9.323  1.00  0.00     0.009 C 
HETATM    5  C5  UNL     1     -11.535  11.913  -9.624  1.00  0.00    -0.006 C 
HETATM    6  C6  UNL     1     -11.957  12.657  -8.395  1.00  0.00     0.006 C 
HETATM    7  C7  UNL     1     -10.835  13.077  -7.494  1.00  0.00     0.009 C 
HETATM    8  C8  UNL     1      -9.577  12.324  -7.799  1.00  0.00     0.014 C 
HETATM    9  C9  UNL     1      -9.152  12.552  -9.207  1.00  0.00     0.019 C 
HETATM   10  C10 UNL     1     -10.301  12.479 -10.219  1.00  0.00    -0.033 C 
HETATM   11  C11 UNL     1      -9.797  11.604 -11.352  1.00  0.00     0.016 C 
ENDROOT
BRANCH  10  12
HETATM   12  C12 UNL     1     -10.485  13.857 -10.737  1.00  0.00     0.095 C 
BRANCH  12  13
HETATM   13  C13 UNL     1      -9.327  14.733 -10.807  1.00  0.00     0.135 C 
HETATM   14  N1  UNL     1      -8.487  14.590 -11.773  1.00  0.00    -0.251 N 
ATOM     15  H1  UNL     1      -8.649  13.864 -12.471  1.00  0.00     0.196 HD
BRANCH  13  16
HETATM   16  O1  UNL     1      -9.060  15.731  -9.889  1.00  0.00    -0.348 OA
ATOM     17  H1  UNL     1      -8.378  16.382  -9.999  1.00  0.00     0.219 HD
ENDBRANCH  13  16
BRANCH  14  18
HETATM   18  O2  UNL     1      -7.398  15.380 -11.880  1.00  0.00    -0.288 OA
ATOM     19  H2  UNL     1      -7.085  15.893 -11.144  1.00  0.00     0.244 HD
ENDBRANCH  14  18
ENDBRANCH  12  13
ENDBRANCH  10  12
TORSDOF 4
ENDMDL
MODEL 3
REMARK VINA RESULT: -6.014168194      1.795      3.193
REMARK  4 active torsions:
REMARK  status: ('A' for Active; 'I' for Inactive)
REMARK    1  A    between atoms: C10_10  and  C12_12 
REMARK    2  A    between atoms: C12_12  and  C13_13 
REMARK    3  A    between atoms: C13_13  and  O1_14 
REMARK    4  A    between atoms: N1_16  and  O2_18 
ROOT
HETATM    1  C1  UNL     1     -13.069  12.439  -7.747  1.00  0.00     0.014 C 
HETATM    2  C2  UNL     1     -11.906  12.320  -8.355  1.00  0.00    -0.085 C 
HETATM    3  C3  UNL     1     -10.709  12.294  -7.484  1.00  0.00     0.034 C 
HETATM    4  C4  UNL     1      -9.598  13.166  -7.997  1.00  0.00     0.009 C 
HETATM    5  C5  UNL     1      -9.287  12.988  -9.462  1.00  0.00    -0.006 C 
HETATM    6  C6  UNL     1      -9.472  11.552  -9.846  1.00  0.00     0.006 C 
HETATM    7  C7  UNL     1     -10.862  11.186 -10.271  1.00  0.00     0.009 C 
HETATM    8  C8  UNL     1     -11.857  12.220  -9.843  1.00  0.00     0.014 C 
HETATM    9  C9  UNL     1     -11.526  13.547 -10.430  1.00  0.00     0.019 C 
HETATM   10  C10 UNL     1     -10.037  13.902 -10.357  1.00  0.00    -0.033 C 
HETATM   11  C11 UNL     1      -9.979  15.329  -9.842  1.00  0.00     0.016 C 
ENDROOT
BRANCH  10  12
HETATM   12  C12 UNL     1      -9.538  13.887 -11.753  1.00  0.00     0.095 C 
BRANCH  12  13
HETATM   13  C13 UNL     1      -8.179  14.332 -12.011  1.00  0.00     0.135 C 
HETATM   14  N1  UNL     1      -7.319  13.492 -12.471  1.00  0.00    -0.251 N 
ATOM     15  H1  UNL     1      -7.605  12.530 -12.647  1.00  0.00     0.196 HD
BRANCH  13  16
HETATM   16  O1  UNL     1      -7.737  15.623 -11.789  1.00  0.00    -0.348 OA
ATOM     17  H1  UNL     1      -7.058  16.044 -12.302  1.00  0.00     0.219 HD
ENDBRANCH  13  16
BRANCH  14  18
HETATM   18  O2  UNL     1      -6.045  13.859 -12.726  1.00  0.00    -0.288 OA
ATOM     19  H2  UNL     1      -5.407  13.952 -12.027  1.00  0.00     0.244 HD
ENDBRANCH  14  18
ENDBRANCH  12  13
ENDBRANCH  10  12
TORSDOF 4
ENDMDL
MODEL 4
REMARK VINA RESULT: -5.975102322      1.683      2.953
REMARK  4 active torsions:
REMARK  status: ('A' for Active; 'I' for Inactive)
REMARK    1  A    between atoms: C10_10  and  C12_12 
REMARK    2  A    between atoms: C12_12  and  C13_13 
REMARK    3  A    between atoms: C13_13  and  O1_14 
REMARK    4  A    between atoms: N1_16  and  O2_18 
ROOT
HETATM    1  C1  UNL     1     -13.303  10.840  -7.630  1.00  0.00     0.014 C 
HETATM    2  C2  UNL     1     -12.104  11.358  -7.803  1.00  0.00    -0.085 C 
HETATM    3  C3  UNL     1     -11.870  12.689  -7.199  1.00  0.00     0.034 C 
HETATM    4  C4  UNL     1     -11.161  13.633  -8.129  1.00  0.00     0.009 C 
HETATM    5  C5  UNL     1      -9.946  13.051  -8.806  1.00  0.00    -0.006 C 
HETATM    6  C6  UNL     1      -9.247  12.113  -7.869  1.00  0.00     0.006 C 
HETATM    7  C7  UNL     1      -9.738  10.697  -7.911  1.00  0.00     0.009 C 
HETATM    8  C8  UNL     1     -11.076  10.600  -8.575  1.00  0.00     0.014 C 
HETATM    9  C9  UNL     1     -11.012  11.110  -9.971  1.00  0.00     0.019 C 
HETATM   10  C10 UNL     1     -10.227  12.418 -10.117  1.00  0.00    -0.033 C 
HETATM   11  C11 UNL     1     -11.089  13.322 -10.979  1.00  0.00     0.016 C 
ENDROOT
BRANCH  10  12
HETATM   12  C12 UNL     1      -8.997  12.081 -10.874  1.00  0.00     0.095 C 
BRANCH  12  13
HETATM   13  C13 UNL     1      -8.212  13.163 -11.442  1.00  0.00     0.135 C 
HETATM   14  N1  UNL     1      -7.274  12.888 -12.281  1.00  0.00    -0.251 N 
ATOM     15  H1  UNL     1      -7.099  11.915 -12.532  1.00  0.00     0.196 HD
BRANCH  13  16
HETATM   16  O1  UNL     1      -8.406  14.497 -11.137  1.00  0.00    -0.348 OA
ATOM     17  H1  UNL     1      -8.040  15.214 -11.642  1.00  0.00     0.219 HD
ENDBRANCH  13  16
BRANCH  14  18
HETATM   18  O2  UNL     1      -6.518  13.859 -12.835  1.00  0.00    -0.288 OA
ATOM     19  H2  UNL     1      -6.578  14.066 -13.760  1.00  0.00     0.244 HD
ENDBRANCH  14  18
ENDBRANCH  12  13
ENDBRANCH  10  12
TORSDOF 4
ENDMDL
MODEL 5
REMARK VINA RESULT: -5.965895450      1.153      2.732
REMARK  4 active torsions:
REMARK  status: ('A' for Active; 'I' for Inactive)
REMARK    1  A    between atoms: C10_10  and  C12_12 
REMARK    2  A    between atoms: C12_12  and  C13_13 
REMARK    3  A    between atoms: C13_13  and  O1_14 
REMARK    4  A    between atoms: N1_16  and  O2_18 
ROOT
HETATM    1  C1  UNL     1     -11.370   9.093  -7.536  1.00  0.00     0.014 C 
HETATM    2  C2  UNL     1     -10.793  10.092  -8.171  1.00  0.00    -0.085 C 
HETATM    3  C3  UNL     1      -9.411  10.424  -7.757  1.00  0.00     0.034 C 
HETATM    4  C4  UNL     1      -9.191  11.901  -7.594  1.00  0.00     0.009 C 
HETATM    5  C5  UNL     1      -9.701  12.740  -8.739  1.00  0.00    -0.006 C 
HETATM    6  C6  UNL     1      -9.513  12.002 -10.029  1.00  0.00     0.006 C 
HETATM    7  C7  UNL     1     -10.647  11.098 -10.410  1.00  0.00     0.009 C 
HETATM    8  C8  UNL     1     -11.539  10.815  -9.241  1.00  0.00     0.014 C 
HETATM    9  C9  UNL     1     -12.113  12.076  -8.697  1.00  0.00     0.019 C 
HETATM   10  C10 UNL     1     -11.095  13.215  -8.570  1.00  0.00    -0.033 C 
HETATM   11  C11 UNL     1     -11.302  13.799  -7.184  1.00  0.00     0.016 C 
ENDROOT
BRANCH  10  12
HETATM   12  C12 UNL     1     -11.487  14.235  -9.573  1.00  0.00     0.095 C 
BRANCH  12  13
HETATM   13  C13 UNL     1     -10.816  15.523  -9.552  1.00  0.00     0.135 C 
HETATM   14  N1  UNL     1      -9.657  15.638 -10.101  1.00  0.00    -0.251 N 
ATOM     15  H1  UNL     1      -9.230  14.823 -10.540  1.00  0.00     0.196 HD
BRANCH  13  16
HETATM   16  O1  UNL     1     -11.348  16.659  -8.970  1.00  0.00    -0.348 OA
ATOM     17  H1  UNL     1     -10.946  17.518  -9.023  1.00  0.00     0.219 HD
ENDBRANCH  13  16
BRANCH  14  18
HETATM   18  O2  UNL     1      -8.995  16.815 -10.106  1.00  0.00    -0.288 OA
ATOM     19  H2  UNL     1      -8.432  17.069  -9.385  1.00  0.00     0.244 HD
ENDBRANCH  14  18
ENDBRANCH  12  13
ENDBRANCH  10  12
TORSDOF 4
ENDMDL
