MODEL 1
REMARK VINA RESULT: -6.465663903      0.000      0.000
REMARK  2 active torsions:
REMARK  status: ('A' for Active; 'I' for Inactive)
REMARK    1  A    between atoms: C8_11  and  N2_12 
REMARK    2  A    between atoms: N2_12  and  C9_14 
ROOT
HETATM    1  N1  UNL     1      -6.707  14.083 -12.720  1.00  0.00    -0.406 N 
ATOM      2  H11 UNL     1      -6.441  15.051 -12.538  1.00  0.00     0.155 HD
ATOM      3  H12 UNL     1      -6.209  13.434 -13.330  1.00  0.00     0.155 HD
HETATM    4  C1  UNL     1      -7.767  13.645 -12.124  1.00  0.00    -0.020 C 
HETATM    5  C2  UNL     1      -8.153  12.243 -12.388  1.00  0.00     0.056 C 
HETATM    6  C3  UNL     1      -9.378  11.937 -11.517  1.00  0.00    -0.007 C 
HETATM    7  C4  UNL     1     -10.355  13.045 -11.821  1.00  0.00     0.010 C 
HETATM    8  C5  UNL     1      -9.921  14.257 -11.031  1.00  0.00    -0.007 C 
HETATM    9  C6  UNL     1      -8.483  14.577 -11.249  1.00  0.00     0.056 C 
HETATM   10  C7  UNL     1     -10.249  13.969  -9.572  1.00  0.00     0.030 C 
HETATM   11  C8  UNL     1      -9.836  12.607  -9.140  1.00  0.00     0.100 C 
HETATM   12  C13 UNL     1      -8.913  11.914 -10.101  1.00  0.00     0.030 C 
ENDROOT
BRANCH  11  13
HETATM   13  N2  UNL     1     -10.952  11.725  -8.887  1.00  0.00    -0.222 N 
ATOM     14  H2  UNL     1     -11.863  11.985  -9.266  1.00  0.00     0.178 HD
BRANCH  13  15
HETATM   15  C9  UNL     1     -10.861  10.521  -8.147  1.00  0.00     0.670 C 
HETATM   16  N3  UNL     1     -11.593   9.494  -8.474  1.00  0.00    -0.227 N 
HETATM   17  C10 UNL     1     -11.537   8.239  -7.747  1.00  0.00     0.139 C 
ATOM     18  H3  UNL     1     -12.229   9.576  -9.268  1.00  0.00     0.177 HD
HETATM   19  C11 UNL     1     -11.273   8.614  -6.286  1.00  0.00     0.040 C 
HETATM   20  C12 UNL     1      -9.908   9.270  -6.263  1.00  0.00     0.139 C 
HETATM   21  N4  UNL     1      -9.973  10.462  -7.067  1.00  0.00    -0.227 N 
ATOM     22  H4  UNL     1      -9.374  11.259  -6.850  1.00  0.00     0.177 HD
ENDBRANCH  13  15
ENDBRANCH  11  13
TORSDOF 2
ENDMDL
MODEL 2
REMARK VINA RESULT: -6.348368466      0.876      1.339
REMARK  2 active torsions:
REMARK  status: ('A' for Active; 'I' for Inactive)
REMARK    1  A    between atoms: C8_11  and  N2_12 
REMARK    2  A    between atoms: N2_12  and  C9_14 
ROOT
HETATM    1  N1  UNL     1      -7.486  15.205 -12.258  1.00  0.00    -0.406 N 
ATOM      2  H11 UNL     1      -7.498  16.152 -11.881  1.00  0.00     0.155 HD
ATOM      3  H12 UNL     1      -6.875  14.869 -13.003  1.00  0.00     0.155 HD
HETATM    4  C1  UNL     1      -8.317  14.359 -11.745  1.00  0.00    -0.020 C 
HETATM    5  C2  UNL     1      -8.300  12.986 -12.291  1.00  0.00     0.056 C 
HETATM    6  C3  UNL     1      -9.304  12.159 -11.477  1.00  0.00    -0.007 C 
HETATM    7  C4  UNL     1     -10.582  12.957 -11.516  1.00  0.00     0.010 C 
HETATM    8  C5  UNL     1     -10.455  14.065 -10.497  1.00  0.00    -0.007 C 
HETATM    9  C6  UNL     1      -9.195  14.841 -10.675  1.00  0.00     0.056 C 
HETATM   10  C7  UNL     1     -10.558  13.412  -9.125  1.00  0.00     0.030 C 
HETATM   11  C8  UNL     1      -9.732  12.182  -9.002  1.00  0.00     0.100 C 
HETATM   12  C13 UNL     1      -8.732  12.002 -10.109  1.00  0.00     0.030 C 
ENDROOT
BRANCH  11  13
HETATM   13  N2  UNL     1     -10.516  10.972  -8.916  1.00  0.00    -0.222 N 
ATOM     14  H2  UNL     1     -10.894  10.585  -9.781  1.00  0.00     0.178 HD
BRANCH  13  15
HETATM   15  C9  UNL     1     -10.793  10.288  -7.707  1.00  0.00     0.670 C 
HETATM   16  N3  UNL     1      -9.826   9.738  -7.030  1.00  0.00    -0.227 N 
HETATM   17  C10 UNL     1     -10.058   9.027  -5.786  1.00  0.00     0.139 C 
ATOM     18  H3  UNL     1      -8.873   9.809  -7.386  1.00  0.00     0.177 HD
HETATM   19  C11 UNL     1     -11.426   8.354  -5.938  1.00  0.00     0.040 C 
HETATM   20  C12 UNL     1     -12.432   9.479  -6.069  1.00  0.00     0.139 C 
HETATM   21  N4  UNL     1     -12.119  10.220  -7.262  1.00  0.00    -0.227 N 
ATOM     22  H4  UNL     1     -12.859  10.693  -7.780  1.00  0.00     0.177 HD
ENDBRANCH  13  15
ENDBRANCH  11  13
TORSDOF 2
ENDMDL
MODEL 3
REMARK VINA RESULT: -6.247630373      1.747      6.374
REMARK  2 active torsions:
REMARK  status: ('A' for Active; 'I' for Inactive)
REMARK    1  A    between atoms: C8_11  and  N2_12 
REMARK    2  A    between atoms: N2_12  and  C9_14 
ROOT
HETATM    1  N1  UNL     1     -14.139   7.379  -7.001  1.00  0.00    -0.406 N 
ATOM      2  H11 UNL     1     -15.022   7.702  -6.606  1.00  0.00     0.155 HD
ATOM      3  H12 UNL     1     -13.945   6.433  -7.329  1.00  0.00     0.155 HD
HETATM    4  C1  UNL     1     -13.187   8.248  -7.095  1.00  0.00    -0.020 C 
HETATM    5  C2  UNL     1     -11.907   7.781  -7.669  1.00  0.00     0.056 C 
HETATM    6  C3  UNL     1     -10.974   8.996  -7.749  1.00  0.00    -0.007 C 
HETATM    7  C4  UNL     1     -10.993   9.590  -6.363  1.00  0.00     0.010 C 
HETATM    8  C5  UNL     1     -12.264  10.397  -6.235  1.00  0.00    -0.007 C 
HETATM    9  C6  UNL     1     -13.465   9.607  -6.623  1.00  0.00     0.056 C 
HETATM   10  C7  UNL     1     -12.076  11.646  -7.086  1.00  0.00     0.030 C 
HETATM   11  C8  UNL     1     -11.505  11.356  -8.428  1.00  0.00     0.100 C 
HETATM   12  C13 UNL     1     -11.523   9.900  -8.800  1.00  0.00     0.030 C 
ENDROOT
BRANCH  11  13
HETATM   13  N2  UNL     1     -10.152  11.835  -8.591  1.00  0.00    -0.222 N 
ATOM     14  H2  UNL     1      -9.570  11.913  -7.756  1.00  0.00     0.178 HD
BRANCH  13  15
HETATM   15  C9  UNL     1      -9.582  12.201  -9.834  1.00  0.00     0.670 C 
HETATM   16  N3  UNL     1      -8.340  11.907 -10.097  1.00  0.00    -0.227 N 
HETATM   17  C10 UNL     1      -7.710  12.260 -11.356  1.00  0.00     0.139 C 
ATOM     18  H3  UNL     1      -7.792  11.410  -9.394  1.00  0.00     0.177 HD
HETATM   19  C11 UNL     1      -8.333  13.596 -11.774  1.00  0.00     0.040 C 
HETATM   20  C12 UNL     1      -9.802  13.316 -12.009  1.00  0.00     0.139 C 
HETATM   21  N4  UNL     1     -10.377  12.880 -10.764  1.00  0.00    -0.227 N 
ATOM     22  H4  UNL     1     -11.360  13.064 -10.561  1.00  0.00     0.177 HD
ENDBRANCH  13  15
ENDBRANCH  11  13
TORSDOF 2
ENDMDL
MODEL 4
REMARK VINA RESULT: -6.212087441      1.940      6.131
REMARK  2 active torsions:
REMARK  status: ('A' for Active; 'I' for Inactive)
REMARK    1  A    between atoms: C8_11  and  N2_12 
REMARK    2  A    between atoms: N2_12  and  C9_14 
ROOT
HETATM    1  N1  UNL     1     -14.452   8.117  -7.826  1.00  0.00    -0.406 N 
ATOM      2  H11 UNL     1     -15.361   8.484  -7.544  1.00  0.00     0.155 HD
ATOM      3  H12 UNL     1     -14.272   7.173  -8.167  1.00  0.00     0.155 HD
HETATM    4  C1  UNL     1     -13.444   8.922  -7.743  1.00  0.00    -0.020 C 
HETATM    5  C2  UNL     1     -12.127   8.391  -8.152  1.00  0.00     0.056 C 
HETATM    6  C3  UNL     1     -11.119   9.542  -8.043  1.00  0.00    -0.007 C 
HETATM    7  C4  UNL     1     -11.300  10.083  -6.647  1.00  0.00     0.010 C 
HETATM    8  C5  UNL     1     -12.523  10.969  -6.662  1.00  0.00    -0.007 C 
HETATM    9  C6  UNL     1     -13.703  10.278  -7.252  1.00  0.00     0.056 C 
HETATM   10  C7  UNL     1     -12.138  12.234  -7.419  1.00  0.00     0.030 C 
HETATM   11  C8  UNL     1     -11.399  11.956  -8.679  1.00  0.00     0.100 C 
HETATM   12  C13 UNL     1     -11.454  10.519  -9.117  1.00  0.00     0.030 C 
ENDROOT
BRANCH  11  13
HETATM   13  N2  UNL     1     -10.010  12.347  -8.626  1.00  0.00    -0.222 N 
ATOM     14  H2  UNL     1      -9.545  12.338  -7.718  1.00  0.00     0.178 HD
BRANCH  13  15
HETATM   15  C9  UNL     1      -9.251  12.742  -9.755  1.00  0.00     0.670 C 
HETATM   16  N3  UNL     1      -9.483  13.888 -10.331  1.00  0.00    -0.227 N 
HETATM   17  C10 UNL     1      -8.734  14.339 -11.490  1.00  0.00     0.139 C 
ATOM     18  H3  UNL     1     -10.216  14.489  -9.953  1.00  0.00     0.177 HD
HETATM   19  C11 UNL     1      -8.415  13.077 -12.296  1.00  0.00     0.040 C 
HETATM   20  C12 UNL     1      -7.517  12.234 -11.415  1.00  0.00     0.139 C 
HETATM   21  N4  UNL     1      -8.257  11.881 -10.233  1.00  0.00    -0.227 N 
ATOM     22  H4  UNL     1      -8.058  11.007  -9.745  1.00  0.00     0.177 HD
ENDBRANCH  13  15
ENDBRANCH  11  13
TORSDOF 2
ENDMDL
MODEL 5
REMARK VINA RESULT: -6.136307498      3.140      5.430
REMARK  2 active torsions:
REMARK  status: ('A' for Active; 'I' for Inactive)
REMARK    1  A    between atoms: C8_11  and  N2_12 
REMARK    2  A    between atoms: N2_12  and  C9_14 
ROOT
HETATM    1  N1  UNL     1      -7.358  10.754  -8.503  1.00  0.00    -0.406 N 
ATOM      2  H11 UNL     1      -6.574  10.810  -9.154  1.00  0.00     0.155 HD
ATOM      3  H12 UNL     1      -7.331  10.329  -7.576  1.00  0.00     0.155 HD
HETATM    4  C1  UNL     1      -8.479  11.269  -8.889  1.00  0.00    -0.020 C 
HETATM    5  C2  UNL     1      -9.613  11.189  -7.946  1.00  0.00     0.056 C 
HETATM    6  C3  UNL     1     -10.793  11.929  -8.589  1.00  0.00    -0.007 C 
HETATM    7  C4  UNL     1     -10.926  11.324  -9.963  1.00  0.00     0.010 C 
HETATM    8  C5  UNL     1      -9.870  11.955 -10.839  1.00  0.00    -0.007 C 
HETATM    9  C6  UNL     1      -8.517  11.879 -10.221  1.00  0.00     0.056 C 
HETATM   10  C7  UNL     1     -10.319  13.386 -11.105  1.00  0.00     0.030 C 
HETATM   11  C8  UNL     1     -10.792  14.084  -9.880  1.00  0.00     0.100 C 
HETATM   12  C13 UNL     1     -10.445  13.379  -8.600  1.00  0.00     0.030 C 
ENDROOT
BRANCH  11  13
HETATM   13  N2  UNL     1     -12.216  14.330  -9.875  1.00  0.00    -0.222 N 
ATOM     14  H2  UNL     1     -12.819  13.653 -10.344  1.00  0.00     0.178 HD
BRANCH  13  15
HETATM   15  C9  UNL     1     -12.828  15.450  -9.260  1.00  0.00     0.670 C 
HETATM   16  N3  UNL     1     -14.114  15.461  -9.052  1.00  0.00    -0.227 N 
HETATM   17  C10 UNL     1     -14.787  16.584  -8.426  1.00  0.00     0.139 C 
ATOM     18  H3  UNL     1     -14.666  14.652  -9.339  1.00  0.00     0.177 HD
HETATM   19  C11 UNL     1     -14.029  17.833  -8.884  1.00  0.00     0.040 C 
HETATM   20  C12 UNL     1     -12.632  17.706  -8.316  1.00  0.00     0.139 C 
HETATM   21  N4  UNL     1     -12.024  16.532  -8.885  1.00  0.00    -0.227 N 
ATOM     22  H4  UNL     1     -11.013  16.490  -9.015  1.00  0.00     0.177 HD
ENDBRANCH  13  15
ENDBRANCH  11  13
TORSDOF 2
ENDMDL
