MODEL 1
REMARK VINA RESULT: -6.126896109      0.000      0.000
REMARK  2 active torsions:
REMARK  status: ('A' for Active; 'I' for Inactive)
REMARK    1  A    between atoms: C2_2  and  C3_3 
REMARK    2  A    between atoms: C6_8  and  C7_9 
ROOT
HETATM    1  C7  UNL     1      -9.824  14.793 -10.091  1.00  0.00     0.091 A 
HETATM    2  N2  UNL     1      -9.948  16.069  -9.735  1.00  0.00    -0.189 N 
ATOM      3  H2  UNL     1     -10.555  16.407  -8.988  1.00  0.00     0.184 HD
HETATM    4  C8  UNL     1      -9.154  16.857 -10.506  1.00  0.00     0.676 A 
HETATM    5  N3  UNL     1      -9.025  18.146 -10.437  1.00  0.00    -0.234 N 
ATOM      6  H31 UNL     1      -8.430  18.738 -11.016  1.00  0.00     0.174 HD
ATOM      7  H32 UNL     1      -9.514  18.750  -9.777  1.00  0.00     0.174 HD
HETATM    8  N4  UNL     1      -8.511  16.062 -11.375  1.00  0.00    -0.194 N 
ATOM      9  H4  UNL     1      -7.844  16.364 -12.085  1.00  0.00     0.184 HD
HETATM   10  C9  UNL     1      -8.905  14.782 -11.139  1.00  0.00     0.051 A 
HETATM   11  C10 UNL     1      -8.433  13.590 -11.879  1.00  0.00     0.071 C 
ENDROOT
BRANCH   1  12
HETATM   12  C6  UNL     1     -10.464  13.592  -9.563  1.00  0.00     0.058 A 
HETATM   13  C4  UNL     1     -11.763  13.276  -9.294  1.00  0.00     0.025 A 
HETATM   14  N1  UNL     1     -12.018  12.093  -8.818  1.00  0.00    -0.356 N 
HETATM   15  C5  UNL     1     -12.884  14.267  -9.539  1.00  0.00     0.070 C 
HETATM   16  C3  UNL     1     -11.039  11.236  -8.606  1.00  0.00     0.051 A 
ATOM     17  H1  UNL     1     -12.980  11.828  -8.607  1.00  0.00     0.166 HD
HETATM   18  S1  UNL     1      -9.669  12.119  -9.097  1.00  0.00    -0.073 SA
BRANCH  16  19
HETATM   19  C2  UNL     1     -11.095   9.834  -8.072  1.00  0.00     0.060 C 
HETATM   20  C1  UNL     1      -9.830   9.622  -7.267  1.00  0.00     0.012 C 
ENDBRANCH  16  19
ENDBRANCH   1  12
TORSDOF 2
ENDMDL
MODEL 2
REMARK VINA RESULT: -6.043058818      1.104      1.255
REMARK  2 active torsions:
REMARK  status: ('A' for Active; 'I' for Inactive)
REMARK    1  A    between atoms: C2_2  and  C3_3 
REMARK    2  A    between atoms: C6_8  and  C7_9 
ROOT
HETATM    1  C7  UNL     1      -9.826  13.811  -9.765  1.00  0.00     0.091 A 
HETATM    2  N2  UNL     1      -9.887  15.102  -9.447  1.00  0.00    -0.189 N 
ATOM      3  H2  UNL     1     -10.332  15.473  -8.608  1.00  0.00     0.184 HD
HETATM    4  C8  UNL     1      -9.274  15.855 -10.398  1.00  0.00     0.676 A 
HETATM    5  N3  UNL     1      -9.146  17.145 -10.414  1.00  0.00    -0.234 N 
ATOM      6  H31 UNL     1      -8.687  17.711 -11.127  1.00  0.00     0.174 HD
ATOM      7  H32 UNL     1      -9.496  17.778  -9.695  1.00  0.00     0.174 HD
HETATM    8  N4  UNL     1      -8.814  15.022 -11.344  1.00  0.00    -0.194 N 
ATOM      9  H4  UNL     1      -8.308  15.292 -12.188  1.00  0.00     0.184 HD
HETATM   10  C9  UNL     1      -9.140  13.754 -10.977  1.00  0.00     0.051 A 
HETATM   11  C10 UNL     1      -8.816  12.530 -11.745  1.00  0.00     0.071 C 
ENDROOT
BRANCH   1  12
HETATM   12  C6  UNL     1     -10.334  12.635  -9.065  1.00  0.00     0.058 A 
HETATM   13  C4  UNL     1     -11.593  12.214  -8.754  1.00  0.00     0.025 A 
HETATM   14  N1  UNL     1     -11.720  11.093  -8.108  1.00  0.00    -0.356 N 
HETATM   15  C5  UNL     1     -12.815  13.022  -9.143  1.00  0.00     0.070 C 
HETATM   16  C3  UNL     1     -10.652  10.394  -7.771  1.00  0.00     0.051 A 
ATOM     17  H1  UNL     1     -12.648  10.752  -7.861  1.00  0.00     0.166 HD
HETATM   18  S1  UNL     1      -9.384  11.348  -8.387  1.00  0.00    -0.073 SA
BRANCH  16  19
HETATM   19  C2  UNL     1     -10.557   9.090  -7.035  1.00  0.00     0.060 C 
HETATM   20  C1  UNL     1     -11.540   8.144  -7.692  1.00  0.00     0.012 C 
ENDBRANCH  16  19
ENDBRANCH   1  12
TORSDOF 2
ENDMDL
MODEL 3
REMARK VINA RESULT: -5.995986714      3.013      6.307
REMARK  2 active torsions:
REMARK  status: ('A' for Active; 'I' for Inactive)
REMARK    1  A    between atoms: C2_2  and  C3_3 
REMARK    2  A    between atoms: C6_8  and  C7_9 
ROOT
HETATM    1  C7  UNL     1     -11.538  10.483  -8.621  1.00  0.00     0.091 A 
HETATM    2  N2  UNL     1     -12.044   9.255  -8.701  1.00  0.00    -0.189 N 
ATOM      3  H2  UNL     1     -11.627   8.488  -9.227  1.00  0.00     0.184 HD
HETATM    4  C8  UNL     1     -13.194   9.167  -7.982  1.00  0.00     0.676 A 
HETATM    5  N3  UNL     1     -13.950   8.123  -7.837  1.00  0.00    -0.234 N 
ATOM      6  H31 UNL     1     -14.813   8.057  -7.298  1.00  0.00     0.174 HD
ATOM      7  H32 UNL     1     -13.774   7.209  -8.254  1.00  0.00     0.174 HD
HETATM    8  N4  UNL     1     -13.425  10.370  -7.433  1.00  0.00    -0.194 N 
ATOM      9  H4  UNL     1     -14.216  10.617  -6.838  1.00  0.00     0.184 HD
HETATM   10  C9  UNL     1     -12.417  11.200  -7.812  1.00  0.00     0.051 A 
HETATM   11  C10 UNL     1     -12.289  12.624  -7.423  1.00  0.00     0.071 C 
ENDROOT
BRANCH   1  12
HETATM   12  C6  UNL     1     -10.334  11.054  -9.215  1.00  0.00     0.058 A 
HETATM   13  C4  UNL     1      -9.058  11.210  -8.756  1.00  0.00     0.025 A 
HETATM   14  N1  UNL     1      -8.190  11.770  -9.545  1.00  0.00    -0.356 N 
HETATM   15  C5  UNL     1      -8.655  10.748  -7.370  1.00  0.00     0.070 C 
HETATM   16  C3  UNL     1      -8.547  12.172 -10.750  1.00  0.00     0.051 A 
ATOM     17  H1  UNL     1      -7.229  11.901  -9.231  1.00  0.00     0.166 HD
HETATM   18  S1  UNL     1     -10.194  11.747 -10.802  1.00  0.00    -0.073 SA
BRANCH  16  19
HETATM   19  C2  UNL     1      -7.726  12.833 -11.819  1.00  0.00     0.060 C 
HETATM   20  C1  UNL     1      -8.200  14.269 -11.908  1.00  0.00     0.012 C 
ENDBRANCH  16  19
ENDBRANCH   1  12
TORSDOF 2
ENDMDL
MODEL 4
REMARK VINA RESULT: -5.920296938      2.900      4.991
REMARK  2 active torsions:
REMARK  status: ('A' for Active; 'I' for Inactive)
REMARK    1  A    between atoms: C2_2  and  C3_3 
REMARK    2  A    between atoms: C6_8  and  C7_9 
ROOT
HETATM    1  C7  UNL     1     -10.978  13.411  -7.611  1.00  0.00     0.091 A 
HETATM    2  N2  UNL     1     -10.875  14.397  -6.723  1.00  0.00    -0.189 N 
ATOM      3  H2  UNL     1     -10.057  14.996  -6.613  1.00  0.00     0.184 HD
HETATM    4  C8  UNL     1     -12.012  14.493  -5.986  1.00  0.00     0.676 A 
HETATM    5  N3  UNL     1     -12.259  15.338  -5.033  1.00  0.00    -0.234 N 
ATOM      6  H31 UNL     1     -13.113  15.411  -4.479  1.00  0.00     0.174 HD
ATOM      7  H32 UNL     1     -11.617  16.060  -4.708  1.00  0.00     0.174 HD
HETATM    8  N4  UNL     1     -12.858  13.544  -6.414  1.00  0.00    -0.194 N 
ATOM      9  H4  UNL     1     -13.795  13.366  -6.052  1.00  0.00     0.184 HD
HETATM   10  C9  UNL     1     -12.244  12.862  -7.418  1.00  0.00     0.051 A 
HETATM   11  C10 UNL     1     -12.833  11.730  -8.169  1.00  0.00     0.071 C 
ENDROOT
BRANCH   1  12
HETATM   12  C6  UNL     1     -10.030  12.930  -8.611  1.00  0.00     0.058 A 
HETATM   13  C4  UNL     1      -9.176  11.868  -8.643  1.00  0.00     0.025 A 
HETATM   14  N1  UNL     1      -8.444  11.704  -9.706  1.00  0.00    -0.356 N 
HETATM   15  C5  UNL     1      -9.074  10.901  -7.481  1.00  0.00     0.070 C 
HETATM   16  C3  UNL     1      -8.536  12.550 -10.714  1.00  0.00     0.051 A 
ATOM     17  H1  UNL     1      -7.795  10.920  -9.759  1.00  0.00     0.166 HD
HETATM   18  S1  UNL     1      -9.714  13.647 -10.162  1.00  0.00    -0.073 SA
BRANCH  16  19
HETATM   19  C2  UNL     1      -7.802  12.559 -12.023  1.00  0.00     0.060 C 
HETATM   20  C1  UNL     1      -7.567  14.011 -12.382  1.00  0.00     0.012 C 
ENDBRANCH  16  19
ENDBRANCH   1  12
TORSDOF 2
ENDMDL
MODEL 5
REMARK VINA RESULT: -5.903991538      1.860      2.831
REMARK  2 active torsions:
REMARK  status: ('A' for Active; 'I' for Inactive)
REMARK    1  A    between atoms: C2_2  and  C3_3 
REMARK    2  A    between atoms: C6_8  and  C7_9 
ROOT
HETATM    1  C7  UNL     1      -9.866  12.896  -9.418  1.00  0.00     0.091 A 
HETATM    2  N2  UNL     1     -10.171  14.135  -9.042  1.00  0.00    -0.189 N 
ATOM      3  H2  UNL     1     -10.673  14.375  -8.187  1.00  0.00     0.184 HD
HETATM    4  C8  UNL     1      -9.722  15.034  -9.956  1.00  0.00     0.676 A 
HETATM    5  N3  UNL     1      -9.844  16.324  -9.912  1.00  0.00    -0.234 N 
ATOM      6  H31 UNL     1      -9.507  16.999 -10.598  1.00  0.00     0.174 HD
ATOM      7  H32 UNL     1     -10.303  16.845  -9.165  1.00  0.00     0.174 HD
HETATM    8  N4  UNL     1      -9.117  14.349 -10.939  1.00  0.00    -0.194 N 
ATOM      9  H4  UNL     1      -8.680  14.749 -11.769  1.00  0.00     0.184 HD
HETATM   10  C9  UNL     1      -9.191  13.027 -10.631  1.00  0.00     0.051 A 
HETATM   11  C10 UNL     1      -8.645  11.923 -11.454  1.00  0.00     0.071 C 
ENDROOT
BRANCH   1  12
HETATM   12  C6  UNL     1     -10.133  11.614  -8.774  1.00  0.00     0.058 A 
HETATM   13  C4  UNL     1      -9.455  10.884  -7.843  1.00  0.00     0.025 A 
HETATM   14  N1  UNL     1      -9.968   9.752  -7.461  1.00  0.00    -0.356 N 
HETATM   15  C5  UNL     1      -8.141  11.370  -7.264  1.00  0.00     0.070 C 
HETATM   16  C3  UNL     1     -11.111   9.335  -7.969  1.00  0.00     0.051 A 
ATOM     17  H1  UNL     1      -9.483   9.184  -6.766  1.00  0.00     0.166 HD
HETATM   18  S1  UNL     1     -11.509  10.589  -9.048  1.00  0.00    -0.073 SA
BRANCH  16  19
HETATM   19  C2  UNL     1     -11.882   8.079  -7.682  1.00  0.00     0.060 C 
HETATM   20  C1  UNL     1     -13.158   8.154  -8.495  1.00  0.00     0.012 C 
ENDBRANCH  16  19
ENDBRANCH   1  12
TORSDOF 2
ENDMDL
