MODEL 1
REMARK VINA RESULT: -5.486389844      0.000      0.000
REMARK  2 active torsions:
REMARK  status: ('A' for Active; 'I' for Inactive)
REMARK    1  A    between atoms: C1_4  and  C2_5 
REMARK    2  A    between atoms: C8_11  and  N2_12 
ROOT
HETATM    1  C2  UNL     1      16.762   2.741  14.767  1.00  0.00     0.021 C 
HETATM    2  C3  UNL     1      15.699   2.442  15.415  1.00  0.00    -0.049 C 
HETATM    3  C4  UNL     1      14.476   3.244  15.575  1.00  0.00     0.036 C 
HETATM    4  C5  UNL     1      14.321   3.637  17.025  1.00  0.00     0.004 C 
HETATM    5  C6  UNL     1      14.486   2.504  17.976  1.00  0.00     0.003 C 
HETATM    6  C7  UNL     1      15.417   1.425  17.613  1.00  0.00     0.037 C 
HETATM    7  C8  UNL     1      15.583   1.116  16.166  1.00  0.00     0.212 C 
ENDROOT
BRANCH   1   8
HETATM    8  C1  UNL     1      17.054   3.930  14.028  1.00  0.00     0.080 C 
HETATM    9  N1  UNL     1      18.057   4.421  13.527  1.00  0.00    -0.408 N 
ATOM     10  H12 UNL     1      18.870   3.825  13.684  1.00  0.00     0.155 HD
ATOM     11  H11 UNL     1      18.265   5.269  13.001  1.00  0.00     0.155 HD
ENDBRANCH   1   8
BRANCH   7  12
HETATM   12  N2  UNL     1      16.700   0.275  15.917  1.00  0.00    -0.071 N 
ATOM     13  H23 UNL     1      16.438  -0.710  15.945  1.00  0.00     0.275 HD
ATOM     14  H22 UNL     1      17.001   0.332  14.944  1.00  0.00     0.275 HD
ATOM     15  H21 UNL     1      17.470   0.476  16.557  1.00  0.00     0.275 HD
ENDBRANCH   7  12
TORSDOF 2
ENDMDL
MODEL 2
REMARK VINA RESULT: -5.184371529      1.894      3.771
REMARK  2 active torsions:
REMARK  status: ('A' for Active; 'I' for Inactive)
REMARK    1  A    between atoms: C1_4  and  C2_5 
REMARK    2  A    between atoms: C8_11  and  N2_12 
ROOT
HETATM    1  C2  UNL     1      15.614   1.953  16.492  1.00  0.00     0.021 C 
HETATM    2  C3  UNL     1      15.419   2.807  15.559  1.00  0.00    -0.049 C 
HETATM    3  C4  UNL     1      15.943   2.789  14.184  1.00  0.00     0.036 C 
HETATM    4  C5  UNL     1      16.889   3.949  13.992  1.00  0.00     0.004 C 
HETATM    5  C6  UNL     1      16.346   5.252  14.464  1.00  0.00     0.003 C 
HETATM    6  C7  UNL     1      15.430   5.244  15.616  1.00  0.00     0.037 C 
HETATM    7  C8  UNL     1      14.561   4.049  15.797  1.00  0.00     0.212 C 
ENDROOT
BRANCH   1   8
HETATM    8  C1  UNL     1      16.393   0.753  16.457  1.00  0.00     0.080 C 
HETATM    9  N1  UNL     1      16.748  -0.031  15.588  1.00  0.00    -0.408 N 
ATOM     10  H12 UNL     1      16.396   0.255  14.674  1.00  0.00     0.155 HD
ATOM     11  H11 UNL     1      17.304  -0.886  15.564  1.00  0.00     0.155 HD
ENDBRANCH   1   8
BRANCH   7  12
HETATM   12  N2  UNL     1      13.943   4.020  17.076  1.00  0.00    -0.071 N 
ATOM     13  H23 UNL     1      14.280   4.778  17.670  1.00  0.00     0.275 HD
ATOM     14  H22 UNL     1      12.960   4.286  17.021  1.00  0.00     0.275 HD
ATOM     15  H21 UNL     1      14.059   3.112  17.527  1.00  0.00     0.275 HD
ENDBRANCH   7  12
TORSDOF 2
ENDMDL
MODEL 3
REMARK VINA RESULT: -5.103453517      1.786      2.644
REMARK  2 active torsions:
REMARK  status: ('A' for Active; 'I' for Inactive)
REMARK    1  A    between atoms: C1_4  and  C2_5 
REMARK    2  A    between atoms: C8_11  and  N2_12 
ROOT
HETATM    1  C2  UNL     1      15.925   2.788  13.944  1.00  0.00     0.021 C 
HETATM    2  C3  UNL     1      15.874   2.689  15.219  1.00  0.00    -0.049 C 
HETATM    3  C4  UNL     1      16.388   1.602  16.068  1.00  0.00     0.036 C 
HETATM    4  C5  UNL     1      15.233   0.901  16.740  1.00  0.00     0.004 C 
HETATM    5  C6  UNL     1      14.260   1.826  17.384  1.00  0.00     0.003 C 
HETATM    6  C7  UNL     1      14.050   3.147  16.771  1.00  0.00     0.037 C 
HETATM    7  C8  UNL     1      15.204   3.770  16.065  1.00  0.00     0.212 C 
ENDROOT
BRANCH   1   8
HETATM    8  C1  UNL     1      16.490   1.875  12.998  1.00  0.00     0.080 C 
HETATM    9  N1  UNL     1      17.621   1.597  12.624  1.00  0.00    -0.408 N 
ATOM     10  H12 UNL     1      18.316   2.159  13.116  1.00  0.00     0.155 HD
ATOM     11  H11 UNL     1      18.023   0.946  11.949  1.00  0.00     0.155 HD
ENDBRANCH   1   8
BRANCH   7  12
HETATM   12  N2  UNL     1      14.816   4.886  15.276  1.00  0.00    -0.071 N 
ATOM     13  H23 UNL     1      15.477   5.657  15.370  1.00  0.00     0.275 HD
ATOM     14  H22 UNL     1      14.934   4.697  14.280  1.00  0.00     0.275 HD
ATOM     15  H21 UNL     1      13.863   5.182  15.489  1.00  0.00     0.275 HD
ENDBRANCH   7  12
TORSDOF 2
ENDMDL
MODEL 4
REMARK VINA RESULT: -5.021373902      1.815      3.184
REMARK  2 active torsions:
REMARK  status: ('A' for Active; 'I' for Inactive)
REMARK    1  A    between atoms: C1_4  and  C2_5 
REMARK    2  A    between atoms: C8_11  and  N2_12 
ROOT
HETATM    1  C2  UNL     1      16.446   2.720  13.173  1.00  0.00     0.021 C 
HETATM    2  C3  UNL     1      16.338   3.075  14.398  1.00  0.00    -0.049 C 
HETATM    3  C4  UNL     1      16.306   2.218  15.594  1.00  0.00     0.036 C 
HETATM    4  C5  UNL     1      14.949   2.322  16.249  1.00  0.00     0.004 C 
HETATM    5  C6  UNL     1      14.479   3.721  16.438  1.00  0.00     0.003 C 
HETATM    6  C7  UNL     1      14.884   4.729  15.446  1.00  0.00     0.037 C 
HETATM    7  C8  UNL     1      16.204   4.548  14.781  1.00  0.00     0.212 C 
ENDROOT
BRANCH   1   8
HETATM    8  C1  UNL     1      16.561   1.401  12.631  1.00  0.00     0.080 C 
HETATM    9  N1  UNL     1      17.487   0.655  12.344  1.00  0.00    -0.408 N 
ATOM     10  H12 UNL     1      18.385   1.095  12.547  1.00  0.00     0.155 HD
ATOM     11  H11 UNL     1      17.569  -0.285  11.957  1.00  0.00     0.155 HD
ENDBRANCH   1   8
BRANCH   7  12
HETATM   12  N2  UNL     1      16.362   5.398  13.653  1.00  0.00    -0.071 N 
ATOM     13  H23 UNL     1      17.272   5.267  13.213  1.00  0.00     0.275 HD
ATOM     14  H22 UNL     1      15.767   5.102  12.878  1.00  0.00     0.275 HD
ATOM     15  H21 UNL     1      16.200   6.375  13.895  1.00  0.00     0.275 HD
ENDBRANCH   7  12
TORSDOF 2
ENDMDL
MODEL 5
REMARK VINA RESULT: -4.935267030      5.057      6.631
REMARK  2 active torsions:
REMARK  status: ('A' for Active; 'I' for Inactive)
REMARK    1  A    between atoms: C1_4  and  C2_5 
REMARK    2  A    between atoms: C8_11  and  N2_12 
ROOT
HETATM    1  C2  UNL     1      17.777  -0.742  11.134  1.00  0.00     0.021 C 
HETATM    2  C3  UNL     1      18.158   0.443  10.836  1.00  0.00    -0.049 C 
HETATM    3  C4  UNL     1      19.518   0.908  10.519  1.00  0.00     0.036 C 
HETATM    4  C5  UNL     1      19.985   1.860  11.594  1.00  0.00     0.004 C 
HETATM    5  C6  UNL     1      18.995   2.921  11.928  1.00  0.00     0.003 C 
HETATM    6  C7  UNL     1      17.565   2.592  11.821  1.00  0.00     0.037 C 
HETATM    7  C8  UNL     1      17.162   1.600  10.786  1.00  0.00     0.212 C 
ENDROOT
BRANCH   1   8
HETATM    8  C1  UNL     1      18.562  -1.933  11.245  1.00  0.00     0.080 C 
HETATM    9  N1  UNL     1      18.327  -3.134  11.250  1.00  0.00    -0.408 N 
ATOM     10  H12 UNL     1      17.327  -3.310  11.149  1.00  0.00     0.155 HD
ATOM     11  H11 UNL     1      18.887  -3.983  11.329  1.00  0.00     0.155 HD
ENDBRANCH   1   8
BRANCH   7  12
HETATM   12  N2  UNL     1      15.827   1.148  10.963  1.00  0.00    -0.071 N 
ATOM     13  H23 UNL     1      15.242   1.395  10.165  1.00  0.00     0.275 HD
ATOM     14  H22 UNL     1      15.765   0.132  10.897  1.00  0.00     0.275 HD
ATOM     15  H21 UNL     1      15.428   1.489  11.838  1.00  0.00     0.275 HD
ENDBRANCH   7  12
TORSDOF 2
ENDMDL
