MODEL 1
REMARK VINA RESULT: -6.229895653      0.000      0.000
REMARK  0 active torsions:
REMARK  status: ('A' for Active; 'I' for Inactive)
ROOT
HETATM    1  C1  UNL     1      13.821   3.335  17.032  1.00  0.00     0.000 C 
HETATM    2  C2  UNL     1      14.496   4.566  16.587  1.00  0.00     0.000 C 
HETATM    3  C3  UNL     1      14.984   4.664  15.208  1.00  0.00     0.001 C 
HETATM    4  C4  UNL     1      15.181   3.423  14.426  1.00  0.00     0.018 C 
HETATM    5  C5  UNL     1      16.643   2.966  14.473  1.00  0.00     0.134 C 
HETATM    6  N1  UNL     1      16.708   1.543  14.747  1.00  0.00    -0.146 NA
HETATM    7  N2  UNL     1      16.623   1.378  16.116  1.00  0.00    -0.340 N 
ATOM      8  H2  UNL     1      17.183   1.927  16.768  1.00  0.00     0.175 HD
HETATM    9  C6  UNL     1      15.700   0.388  16.552  1.00  0.00     0.135 C 
HETATM   10  C7  UNL     1      14.607   0.985  17.404  1.00  0.00     0.021 C 
HETATM   11  C8  UNL     1      14.819   2.422  17.742  1.00  0.00     0.002 C 
ENDROOT
TORSDOF 0
ENDMDL
MODEL 2
REMARK VINA RESULT: -5.667345732      1.135      3.069
REMARK  0 active torsions:
REMARK  status: ('A' for Active; 'I' for Inactive)
ROOT
HETATM    1  C1  UNL     1      14.461   3.038  17.614  1.00  0.00     0.000 C 
HETATM    2  C2  UNL     1      14.134   1.606  17.512  1.00  0.00     0.000 C 
HETATM    3  C3  UNL     1      15.183   0.650  17.143  1.00  0.00     0.001 C 
HETATM    4  C4  UNL     1      16.408   1.149  16.478  1.00  0.00     0.018 C 
HETATM    5  C5  UNL     1      16.311   0.998  14.956  1.00  0.00     0.134 C 
HETATM    6  N1  UNL     1      16.739   2.225  14.310  1.00  0.00    -0.146 NA
HETATM    7  N2  UNL     1      15.655   3.082  14.284  1.00  0.00    -0.340 N 
ATOM      8  H2  UNL     1      14.729   2.782  13.979  1.00  0.00     0.175 HD
HETATM    9  C6  UNL     1      15.922   4.411  14.712  1.00  0.00     0.135 C 
HETATM   10  C7  UNL     1      15.110   4.776  15.930  1.00  0.00     0.021 C 
HETATM   11  C8  UNL     1      14.098   3.750  16.313  1.00  0.00     0.002 C 
ENDROOT
TORSDOF 0
ENDMDL
MODEL 3
REMARK VINA RESULT: -5.208064568      1.308      2.139
REMARK  0 active torsions:
REMARK  status: ('A' for Active; 'I' for Inactive)
ROOT
HETATM    1  C1  UNL     1      14.521   3.820  15.374  1.00  0.00     0.000 C 
HETATM    2  C2  UNL     1      15.945   4.060  15.087  1.00  0.00     0.000 C 
HETATM    3  C3  UNL     1      16.764   2.977  14.534  1.00  0.00     0.001 C 
HETATM    4  C4  UNL     1      16.292   1.580  14.668  1.00  0.00     0.018 C 
HETATM    5  C5  UNL     1      16.935   0.893  15.878  1.00  0.00     0.134 C 
HETATM    6  N1  UNL     1      15.924   0.188  16.642  1.00  0.00    -0.146 NA
HETATM    7  N2  UNL     1      15.329   1.102  17.490  1.00  0.00    -0.340 N 
ATOM      8  H2  UNL     1      15.872   1.747  18.063  1.00  0.00     0.175 HD
HETATM    9  C6  UNL     1      13.907   1.078  17.508  1.00  0.00     0.135 C 
HETATM   10  C7  UNL     1      13.325   2.393  17.052  1.00  0.00     0.021 C 
HETATM   11  C8  UNL     1      14.340   3.468  16.850  1.00  0.00     0.002 C 
ENDROOT
TORSDOF 0
ENDMDL
MODEL 4
REMARK VINA RESULT: -5.175371974      0.766      2.988
REMARK  0 active torsions:
REMARK  status: ('A' for Active; 'I' for Inactive)
ROOT
HETATM    1  C1  UNL     1      14.492   4.200  16.524  1.00  0.00     0.000 C 
HETATM    2  C2  UNL     1      13.580   3.146  16.999  1.00  0.00     0.000 C 
HETATM    3  C3  UNL     1      14.131   1.952  17.648  1.00  0.00     0.001 C 
HETATM    4  C4  UNL     1      15.558   1.618  17.443  1.00  0.00     0.018 C 
HETATM    5  C5  UNL     1      15.728   0.584  16.324  1.00  0.00     0.134 C 
HETATM    6  N1  UNL     1      16.792   0.995  15.428  1.00  0.00    -0.146 NA
HETATM    7  N2  UNL     1      16.250   1.879  14.515  1.00  0.00    -0.340 N 
ATOM      8  H2  UNL     1      15.378   1.688  14.023  1.00  0.00     0.175 HD
HETATM    9  C6  UNL     1      16.995   3.073  14.309  1.00  0.00     0.135 C 
HETATM   10  C7  UNL     1      16.200   4.296  14.693  1.00  0.00     0.021 C 
HETATM   11  C8  UNL     1      14.776   4.011  15.036  1.00  0.00     0.002 C 
ENDROOT
TORSDOF 0
ENDMDL
MODEL 5
REMARK VINA RESULT: -5.119150956      1.317      3.230
REMARK  0 active torsions:
REMARK  status: ('A' for Active; 'I' for Inactive)
ROOT
HETATM    1  C1  UNL     1      14.745   4.304  16.283  1.00  0.00     0.000 C 
HETATM    2  C2  UNL     1      14.108   3.040  16.687  1.00  0.00     0.000 C 
HETATM    3  C3  UNL     1      14.930   1.837  16.853  1.00  0.00     0.001 C 
HETATM    4  C4  UNL     1      16.267   1.788  16.219  1.00  0.00     0.018 C 
HETATM    5  C5  UNL     1      16.212   1.064  14.869  1.00  0.00     0.134 C 
HETATM    6  N1  UNL     1      16.937   1.826  13.870  1.00  0.00    -0.146 NA
HETATM    7  N2  UNL     1      16.078   2.789  13.376  1.00  0.00    -0.340 N 
ATOM      8  H2  UNL     1      15.125   2.573  13.087  1.00  0.00     0.175 HD
HETATM    9  C6  UNL     1      16.618   4.102  13.300  1.00  0.00     0.135 C 
HETATM   10  C7  UNL     1      15.852   5.069  14.168  1.00  0.00     0.021 C 
HETATM   11  C8  UNL     1      14.616   4.492  14.772  1.00  0.00     0.002 C 
ENDROOT
TORSDOF 0
ENDMDL
