MODEL 1
REMARK VINA RESULT: -6.550643378      0.000      0.000
REMARK  2 active torsions:
REMARK  status: ('A' for Active; 'I' for Inactive)
REMARK    1  A    between atoms: N1_1  and  N2_4 
REMARK    2  A    between atoms: N2_4  and  C1_5 
ROOT
HETATM    1  C1  UNL     1      16.333   1.472  16.351  1.00  0.00     0.121 C 
HETATM    2  C2  UNL     1      15.231   1.503  17.309  1.00  0.00    -0.008 C 
HETATM    3  C3  UNL     1      14.459   2.482  17.981  1.00  0.00    -0.029 C 
HETATM    4  C4  UNL     1      13.991   3.797  17.311  1.00  0.00     0.027 C 
HETATM    5  C5  UNL     1      14.786   3.900  16.159  1.00  0.00     0.004 C 
HETATM    6  C6  UNL     1      15.281   4.385  14.940  1.00  0.00     0.000 C 
HETATM    7  C7  UNL     1      16.425   3.376  14.593  1.00  0.00     0.002 C 
HETATM    8  C8  UNL     1      16.152   1.959  14.953  1.00  0.00     0.027 C 
ENDROOT
BRANCH   1   9
HETATM    9  N2  UNL     1      16.764   0.052  16.238  1.00  0.00    -0.140 NA
BRANCH   9  10
HETATM   10  N1  UNL     1      16.867  -0.361  14.934  1.00  0.00    -0.348 N 
ATOM     11  H12 UNL     1      16.414   0.125  14.161  1.00  0.00     0.172 HD
ATOM     12  H11 UNL     1      17.441  -1.199  14.836  1.00  0.00     0.172 HD
ENDBRANCH   9  10
ENDBRANCH   1   9
TORSDOF 2
ENDMDL
MODEL 2
REMARK VINA RESULT: -6.399166454      1.263      2.202
REMARK  2 active torsions:
REMARK  status: ('A' for Active; 'I' for Inactive)
REMARK    1  A    between atoms: N1_1  and  N2_4 
REMARK    2  A    between atoms: N2_4  and  C1_5 
ROOT
HETATM    1  C1  UNL     1      16.312   2.409  15.113  1.00  0.00     0.121 C 
HETATM    2  C2  UNL     1      16.050   1.133  15.772  1.00  0.00    -0.008 C 
HETATM    3  C3  UNL     1      15.664   0.682  17.059  1.00  0.00    -0.029 C 
HETATM    4  C4  UNL     1      14.619   1.417  17.935  1.00  0.00     0.027 C 
HETATM    5  C5  UNL     1      14.501   2.682  17.342  1.00  0.00     0.004 C 
HETATM    6  C6  UNL     1      14.031   3.980  17.091  1.00  0.00     0.000 C 
HETATM    7  C7  UNL     1      14.906   4.448  15.881  1.00  0.00     0.002 C 
HETATM    8  C8  UNL     1      15.217   3.393  14.879  1.00  0.00     0.027 C 
ENDROOT
BRANCH   1   9
HETATM    9  N2  UNL     1      16.872   2.091  13.771  1.00  0.00    -0.140 NA
BRANCH   9  10
HETATM   10  N1  UNL     1      16.853   0.746  13.502  1.00  0.00    -0.348 N 
ATOM     11  H12 UNL     1      17.081   0.037  14.200  1.00  0.00     0.172 HD
ATOM     12  H11 UNL     1      16.588   0.546  12.538  1.00  0.00     0.172 HD
ENDBRANCH   9  10
ENDBRANCH   1   9
TORSDOF 2
ENDMDL
MODEL 3
REMARK VINA RESULT: -6.322375223      0.740      2.604
REMARK  2 active torsions:
REMARK  status: ('A' for Active; 'I' for Inactive)
REMARK    1  A    between atoms: N1_1  and  N2_4 
REMARK    2  A    between atoms: N2_4  and  C1_5 
ROOT
HETATM    1  C1  UNL     1      15.738   1.876  15.109  1.00  0.00     0.121 C 
HETATM    2  C2  UNL     1      16.390   3.064  14.564  1.00  0.00    -0.008 C 
HETATM    3  C3  UNL     1      16.081   4.434  14.383  1.00  0.00    -0.029 C 
HETATM    4  C4  UNL     1      15.298   5.270  15.425  1.00  0.00     0.027 C 
HETATM    5  C5  UNL     1      14.721   4.312  16.272  1.00  0.00     0.004 C 
HETATM    6  C6  UNL     1      14.016   3.766  17.355  1.00  0.00     0.000 C 
HETATM    7  C7  UNL     1      14.131   2.224  17.114  1.00  0.00     0.002 C 
HETATM    8  C8  UNL     1      15.435   1.765  16.564  1.00  0.00     0.027 C 
ENDROOT
BRANCH   1   9
HETATM    9  N2  UNL     1      16.614   0.718  14.782  1.00  0.00    -0.140 NA
BRANCH   9  10
HETATM   10  N1  UNL     1      16.810  -0.110  15.858  1.00  0.00    -0.348 N 
ATOM     11  H12 UNL     1      16.999   0.238  16.798  1.00  0.00     0.172 HD
ATOM     12  H11 UNL     1      16.745  -1.096  15.607  1.00  0.00     0.172 HD
ENDBRANCH   9  10
ENDBRANCH   1   9
TORSDOF 2
ENDMDL
MODEL 4
REMARK VINA RESULT: -6.306282332      1.322      2.682
REMARK  2 active torsions:
REMARK  status: ('A' for Active; 'I' for Inactive)
REMARK    1  A    between atoms: N1_1  and  N2_4 
REMARK    2  A    between atoms: N2_4  and  C1_5 
ROOT
HETATM    1  C1  UNL     1      15.933   2.163  14.983  1.00  0.00     0.121 C 
HETATM    2  C2  UNL     1      15.658   3.590  15.126  1.00  0.00    -0.008 C 
HETATM    3  C3  UNL     1      14.701   4.409  15.775  1.00  0.00    -0.029 C 
HETATM    4  C4  UNL     1      14.136   4.098  17.183  1.00  0.00     0.027 C 
HETATM    5  C5  UNL     1      14.487   2.759  17.407  1.00  0.00     0.004 C 
HETATM    6  C6  UNL     1      14.646   1.533  18.069  1.00  0.00     0.000 C 
HETATM    7  C7  UNL     1      15.355   0.639  16.999  1.00  0.00     0.002 C 
HETATM    8  C8  UNL     1      16.356   1.340  16.151  1.00  0.00     0.027 C 
ENDROOT
BRANCH   1   9
HETATM    9  N2  UNL     1      17.021   2.035  13.974  1.00  0.00    -0.140 NA
BRANCH   9  10
HETATM   10  N1  UNL     1      16.879   0.917  13.193  1.00  0.00    -0.348 N 
ATOM     11  H12 UNL     1      17.207   0.869  12.228  1.00  0.00     0.172 HD
ATOM     12  H11 UNL     1      16.415   0.155  13.686  1.00  0.00     0.172 HD
ENDBRANCH   9  10
ENDBRANCH   1   9
TORSDOF 2
ENDMDL
MODEL 5
REMARK VINA RESULT: -6.162209507      0.586      2.512
REMARK  2 active torsions:
REMARK  status: ('A' for Active; 'I' for Inactive)
REMARK    1  A    between atoms: N1_1  and  N2_4 
REMARK    2  A    between atoms: N2_4  and  C1_5 
ROOT
HETATM    1  C1  UNL     1      15.435   1.304  16.281  1.00  0.00     0.121 C 
HETATM    2  C2  UNL     1      16.305   1.988  15.328  1.00  0.00    -0.008 C 
HETATM    3  C3  UNL     1      16.245   3.134  14.496  1.00  0.00    -0.029 C 
HETATM    4  C4  UNL     1      15.577   4.462  14.931  1.00  0.00     0.027 C 
HETATM    5  C5  UNL     1      14.809   4.111  16.051  1.00  0.00     0.004 C 
HETATM    6  C6  UNL     1      13.977   4.247  17.172  1.00  0.00     0.000 C 
HETATM    7  C7  UNL     1      13.833   2.777  17.690  1.00  0.00     0.002 C 
HETATM    8  C8  UNL     1      15.059   1.942  17.575  1.00  0.00     0.027 C 
ENDROOT
BRANCH   1   9
HETATM    9  N2  UNL     1      16.110   0.025  16.635  1.00  0.00    -0.140 NA
BRANCH   9  10
HETATM   10  N1  UNL     1      16.955  -0.411  15.646  1.00  0.00    -0.348 N 
ATOM     11  H12 UNL     1      17.065  -1.396  15.404  1.00  0.00     0.172 HD
ATOM     12  H11 UNL     1      17.450   0.357  15.192  1.00  0.00     0.172 HD
ENDBRANCH   9  10
ENDBRANCH   1   9
TORSDOF 2
ENDMDL
