MODEL 1
REMARK VINA RESULT: -5.001197554      0.000      0.000
REMARK  0 active torsions:
REMARK  status: ('A' for Active; 'I' for Inactive)
ROOT
HETATM    1  C1  UNL     1      19.168   0.495  11.227  1.00  0.00     0.004 C 
HETATM    2  C2  UNL     1      19.282   1.962  11.216  1.00  0.00     0.025 C 
HETATM    3  C3  UNL     1      18.044   2.718  11.652  1.00  0.00     0.082 C 
HETATM    4  C4  UNL     1      16.899   2.590  10.724  1.00  0.00     0.027 C 
HETATM    5  C5  UNL     1      16.008   1.429  10.913  1.00  0.00     0.027 C 
HETATM    6  C6  UNL     1      16.688   0.214  11.498  1.00  0.00     0.082 C 
HETATM    7  C7  UNL     1      17.901  -0.061  10.645  1.00  0.00     0.025 C 
HETATM    8  N1  UNL     1      16.974   0.319  12.884  1.00  0.00    -0.382 N 
ATOM      9  H1  UNL     1      17.271  -0.480  13.444  1.00  0.00     0.160 HD
HETATM   10  C8  UNL     1      16.812   1.637  13.440  1.00  0.00     0.172 C 
HETATM   11  N2  UNL     1      17.803   2.537  13.023  1.00  0.00    -0.382 N 
ATOM     12  H2  UNL     1      18.345   3.058  13.713  1.00  0.00     0.160 HD
ENDROOT
TORSDOF 0
ENDMDL
MODEL 2
REMARK VINA RESULT: -4.454811319      1.424      2.401
REMARK  0 active torsions:
REMARK  status: ('A' for Active; 'I' for Inactive)
ROOT
HETATM    1  C1  UNL     1      18.059   0.598  11.530  1.00  0.00     0.004 C 
HETATM    2  C2  UNL     1      19.429   0.783  11.026  1.00  0.00     0.025 C 
HETATM    3  C3  UNL     1      19.945   2.206  11.040  1.00  0.00     0.082 C 
HETATM    4  C4  UNL     1      19.251   3.111  10.097  1.00  0.00     0.027 C 
HETATM    5  C5  UNL     1      18.020   3.768  10.579  1.00  0.00     0.027 C 
HETATM    6  C6  UNL     1      17.260   2.976  11.616  1.00  0.00     0.082 C 
HETATM    7  C7  UNL     1      17.049   1.596  11.044  1.00  0.00     0.025 C 
HETATM    8  N1  UNL     1      17.858   2.978  12.902  1.00  0.00    -0.382 N 
ATOM      9  H1  UNL     1      17.375   2.633  13.732  1.00  0.00     0.160 HD
HETATM   10  C8  UNL     1      19.198   3.502  12.949  1.00  0.00     0.172 C 
HETATM   11  N2  UNL     1      20.144   2.655  12.355  1.00  0.00    -0.382 N 
ATOM     12  H2  UNL     1      20.972   2.366  12.876  1.00  0.00     0.160 HD
ENDROOT
TORSDOF 0
ENDMDL
MODEL 3
REMARK VINA RESULT: -4.425555196      1.121      1.476
REMARK  0 active torsions:
REMARK  status: ('A' for Active; 'I' for Inactive)
ROOT
HETATM    1  C1  UNL     1      18.252   0.261  11.452  1.00  0.00     0.004 C 
HETATM    2  C2  UNL     1      19.394   1.129  11.124  1.00  0.00     0.025 C 
HETATM    3  C3  UNL     1      19.179   2.609  11.353  1.00  0.00     0.082 C 
HETATM    4  C4  UNL     1      18.182   3.224  10.449  1.00  0.00     0.027 C 
HETATM    5  C5  UNL     1      16.768   3.161  10.866  1.00  0.00     0.027 C 
HETATM    6  C6  UNL     1      16.426   1.963  11.718  1.00  0.00     0.082 C 
HETATM    7  C7  UNL     1      16.913   0.744  10.976  1.00  0.00     0.025 C 
HETATM    8  N1  UNL     1      16.897   2.046  13.054  1.00  0.00    -0.382 N 
ATOM      9  H1  UNL     1      16.597   1.399  13.783  1.00  0.00     0.160 HD
HETATM   10  C8  UNL     1      17.829   3.114  13.304  1.00  0.00     0.172 C 
HETATM   11  N2  UNL     1      19.087   2.896  12.724  1.00  0.00    -0.382 N 
ATOM     12  H2  UNL     1      19.930   2.946  13.296  1.00  0.00     0.160 HD
ENDROOT
TORSDOF 0
ENDMDL
MODEL 4
REMARK VINA RESULT: -4.135261743      1.307      2.785
REMARK  0 active torsions:
REMARK  status: ('A' for Active; 'I' for Inactive)
ROOT
HETATM    1  C1  UNL     1      19.050   0.631  10.658  1.00  0.00     0.004 C 
HETATM    2  C2  UNL     1      17.875  -0.181  11.012  1.00  0.00     0.025 C 
HETATM    3  C3  UNL     1      16.701   0.582  11.586  1.00  0.00     0.082 C 
HETATM    4  C4  UNL     1      16.956   1.172  12.919  1.00  0.00     0.027 C 
HETATM    5  C5  UNL     1      17.581   2.509  12.953  1.00  0.00     0.027 C 
HETATM    6  C6  UNL     1      18.478   2.805  11.775  1.00  0.00     0.082 C 
HETATM    7  C7  UNL     1      19.455   1.661  11.672  1.00  0.00     0.025 C 
HETATM    8  N1  UNL     1      17.783   3.075  10.568  1.00  0.00    -0.382 N 
ATOM      9  H1  UNL     1      18.245   3.454   9.742  1.00  0.00     0.160 HD
HETATM   10  C8  UNL     1      16.375   2.772  10.596  1.00  0.00     0.172 C 
HETATM   11  N2  UNL     1      16.106   1.397  10.610  1.00  0.00    -0.382 N 
ATOM     12  H2  UNL     1      15.481   0.990   9.914  1.00  0.00     0.160 HD
ENDROOT
TORSDOF 0
ENDMDL
MODEL 5
REMARK VINA RESULT: -4.028412239      1.415      3.289
REMARK  0 active torsions:
REMARK  status: ('A' for Active; 'I' for Inactive)
ROOT
HETATM    1  C1  UNL     1      17.443   3.372  13.839  1.00  0.00     0.004 C 
HETATM    2  C2  UNL     1      16.470   2.378  13.361  1.00  0.00     0.025 C 
HETATM    3  C3  UNL     1      16.762   1.778  12.002  1.00  0.00     0.082 C 
HETATM    4  C4  UNL     1      16.651   2.736  10.880  1.00  0.00     0.027 C 
HETATM    5  C5  UNL     1      17.850   3.535  10.559  1.00  0.00     0.027 C 
HETATM    6  C6  UNL     1      18.750   3.805  11.740  1.00  0.00     0.082 C 
HETATM    7  C7  UNL     1      17.883   4.389  12.827  1.00  0.00     0.025 C 
HETATM    8  N1  UNL     1      19.514   2.684  12.158  1.00  0.00    -0.382 N 
ATOM      9  H1  UNL     1      20.282   2.761  12.824  1.00  0.00     0.160 HD
HETATM   10  C8  UNL     1      19.123   1.430  11.569  1.00  0.00     0.172 C 
HETATM   11  N2  UNL     1      17.896   0.952  12.051  1.00  0.00    -0.382 N 
ATOM     12  H2  UNL     1      17.828   0.010  12.436  1.00  0.00     0.160 HD
ENDROOT
TORSDOF 0
ENDMDL
