MODEL 1
REMARK VINA RESULT: -8.709614274      0.000      0.000
REMARK  20 active torsions:
REMARK  status: ('A' for Active; 'I' for Inactive)
REMARK    1  A    between atoms: O1_2  and  C2_3 
REMARK    2  A    between atoms: C2_3  and  C5_6 
REMARK    3  A    between atoms: C5_6  and  O3_8 
REMARK    4  A    between atoms: O3_8  and  C6_9 
REMARK    5  A    between atoms: C6_9  and  C7_10 
REMARK    6  A    between atoms: C6_9  and  C8_15 
REMARK    7  A    between atoms: C7_10  and  O4_11 
REMARK    8  A    between atoms: C7_10  and  O5_13 
REMARK    9  A    between atoms: C10_17  and  N1_18 
REMARK   10  A    between atoms: C12_20  and  O6_21 
REMARK   11  A    between atoms: C15_26  and  C16_27 
REMARK       I    between atoms: C16_27  and  N2_29 
REMARK   12  A    between atoms: N2_29  and  C17_31 
REMARK   13  A    between atoms: C17_31  and  O9_32 
REMARK   14  A    between atoms: C17_31  and  C18_34 
REMARK   15  A    between atoms: C18_34  and  N3_35 
REMARK   16  A    between atoms: C18_34  and  O10_39 
REMARK   17  A    between atoms: C19_41  and  O11_42 
REMARK   18  A    between atoms: C22_50  and  O13_51 
REMARK   19  A    between atoms: O13_51  and  C23_52 
REMARK   20  A    between atoms: C23_52  and  C24_54 
ROOT
HETATM    1  C8  UNL     1      51.884  23.998  23.682  1.00  0.00     0.086 C 
HETATM    2  C9  UNL     1      50.882  23.473  24.600  1.00  0.00    -0.010 C 
HETATM    3  C10 UNL     1      50.219  22.343  24.512  1.00  0.00     0.104 C 
HETATM    4  C19 UNL     1      50.646  24.450  25.668  1.00  0.00     0.176 C 
HETATM    5  C20 UNL     1      51.553  24.645  26.774  1.00  0.00     0.154 C 
HETATM    6  N4  UNL     1      52.254  24.095  27.720  1.00  0.00    -0.381 N 
ATOM      7  H41 UNL     1      52.895  24.232  28.502  1.00  0.00     0.158 HD
ATOM      8  H42 UNL     1      52.284  23.087  27.877  1.00  0.00     0.158 HD
HETATM    9  O12 UNL     1      51.511  26.068  26.552  1.00  0.00    -0.325 OA
HETATM   10  C21 UNL     1      51.368  25.715  25.188  1.00  0.00     0.207 C 
HETATM   11  C22 UNL     1      52.571  25.064  24.554  1.00  0.00     0.176 C 
ENDROOT
BRANCH   1  12
HETATM   12  C6  UNL     1      51.491  24.543  22.384  1.00  0.00     0.197 C 
BRANCH  12  13
HETATM   13  O3  UNL     1      50.209  24.900  22.069  1.00  0.00    -0.308 OA
BRANCH  13  14
HETATM   14  C5  UNL     1      49.786  25.842  21.173  1.00  0.00     0.293 C 
HETATM   15  O2  UNL     1      50.250  26.997  21.404  1.00  0.00    -0.262 OA
BRANCH  14  16
HETATM   16  C2  UNL     1      48.887  25.642  20.017  1.00  0.00     0.140 C 
HETATM   17  C3  UNL     1      48.751  27.001  19.321  1.00  0.00     0.057 C 
HETATM   18  C4  UNL     1      49.399  24.672  18.993  1.00  0.00     0.057 C 
BRANCH  16  19
HETATM   19  O1  UNL     1      47.657  25.195  20.471  1.00  0.00    -0.376 OA
HETATM   20  C1  UNL     1      46.879  24.533  19.568  1.00  0.00     0.203 C 
ENDBRANCH  16  19
ENDBRANCH  14  16
ENDBRANCH  13  14
ENDBRANCH  12  13
BRANCH  12  21
HETATM   21  C7  UNL     1      52.187  23.830  21.215  1.00  0.00     0.284 C 
BRANCH  21  22
HETATM   22  O4  UNL     1      53.211  22.995  21.723  1.00  0.00    -0.369 OA
ATOM     23  H4  UNL     1      52.825  22.343  22.297  1.00  0.00     0.212 HD
ENDBRANCH  21  22
BRANCH  21  24
HETATM   24  O5  UNL     1      52.739  24.714  20.293  1.00  0.00    -0.369 OA
ATOM     25  H5  UNL     1      53.441  24.327  19.783  1.00  0.00     0.212 HD
ENDBRANCH  21  24
ENDBRANCH  12  21
ENDBRANCH   1  12
BRANCH   3  26
HETATM   26  N1  UNL     1      49.274  21.733  25.275  1.00  0.00    -0.325 N 
HETATM   27  C11 UNL     1      49.720  21.065  26.390  1.00  0.00     0.137 A 
HETATM   28  C12 UNL     1      48.916  20.425  27.291  1.00  0.00     0.132 A 
HETATM   29  C13 UNL     1      47.573  20.439  27.078  1.00  0.00     0.208 A 
HETATM   30  O7  UNL     1      46.819  19.856  27.893  1.00  0.00    -0.285 OA
HETATM   31  C14 UNL     1      47.086  21.098  25.967  1.00  0.00     0.093 A 
HETATM   32  C15 UNL     1      47.973  21.728  25.097  1.00  0.00     0.110 A 
BRANCH  28  33
HETATM   33  O6  UNL     1      49.476  19.767  28.413  1.00  0.00    -0.356 OA
ATOM     34  H6  UNL     1      48.956  19.619  29.194  1.00  0.00     0.218 HD
ENDBRANCH  28  33
BRANCH  32  35
HETATM   35  C16 UNL     1      47.351  22.457  23.973  1.00  0.00     0.270 C 
HETATM   36  O8  UNL     1      47.645  23.694  23.793  1.00  0.00    -0.266 OA
HETATM   37  N2  UNL     1      46.465  21.772  23.132  1.00  0.00    -0.326 N 
ATOM     38  H2  UNL     1      46.300  20.793  23.362  1.00  0.00     0.165 HD
BRANCH  37  39
HETATM   39  C17 UNL     1      45.751  22.280  21.972  1.00  0.00     0.277 C 
BRANCH  39  40
HETATM   40  O9  UNL     1      45.318  21.085  21.317  1.00  0.00    -0.372 OA
ATOM     41  H9  UNL     1      46.111  20.563  21.283  1.00  0.00     0.212 HD
ENDBRANCH  39  40
BRANCH  39  42
HETATM   42  C18 UNL     1      44.469  22.991  22.409  1.00  0.00     0.365 C 
BRANCH  42  43
HETATM   43  N3  UNL     1      44.740  24.407  22.610  1.00  0.00    -0.049 N 
ATOM     44  H33 UNL     1      45.734  24.594  22.748  1.00  0.00     0.277 HD
ATOM     45  H32 UNL     1      44.608  24.950  21.757  1.00  0.00     0.277 HD
ATOM     46  H31 UNL     1      44.172  24.758  23.382  1.00  0.00     0.277 HD
ENDBRANCH  42  43
BRANCH  42  47
HETATM   47  O10 UNL     1      43.937  22.440  23.578  1.00  0.00    -0.367 OA
ATOM     48  H10 UNL     1      43.651  23.109  24.189  1.00  0.00     0.212 HD
ENDBRANCH  42  47
ENDBRANCH  39  42
ENDBRANCH  37  39
ENDBRANCH  32  35
ENDBRANCH   3  26
BRANCH   4  49
HETATM   49  O11 UNL     1      49.320  24.678  26.007  1.00  0.00    -0.374 OA
ATOM     50  H11 UNL     1      49.046  25.587  26.041  1.00  0.00     0.211 HD
ENDBRANCH   4  49
BRANCH  11  51
HETATM   51  O13 UNL     1      53.341  25.971  23.855  1.00  0.00    -0.307 OA
BRANCH  51  52
HETATM   52  C23 UNL     1      54.720  25.949  23.832  1.00  0.00     0.313 C 
HETATM   53  O14 UNL     1      55.368  26.472  24.775  1.00  0.00    -0.258 OA
BRANCH  52  54
HETATM   54  C24 UNL     1      55.477  25.336  22.749  1.00  0.00     0.139 A 
HETATM   55  N5  UNL     1      55.316  25.517  21.429  1.00  0.00    -0.334 N 
HETATM   56  C25 UNL     1      56.249  24.731  20.835  1.00  0.00     0.120 A 
ATOM     57  H5  UNL     1      54.634  26.119  20.969  1.00  0.00     0.168 HD
HETATM   58  C26 UNL     1      56.379  24.666  19.339  1.00  0.00     0.098 C 
HETATM   59  O15 UNL     1      56.943  24.105  21.756  1.00  0.00    -0.300 OA
HETATM   60  C27 UNL     1      56.507  24.442  22.935  1.00  0.00     0.084 A 
HETATM   61  C28 UNL     1      57.059  23.928  24.239  1.00  0.00     0.079 C 
ENDBRANCH  52  54
ENDBRANCH  51  52
ENDBRANCH  11  51
TORSDOF 20
ENDMDL
MODEL 2
REMARK VINA RESULT: -8.656496960      5.034      8.792
REMARK  20 active torsions:
REMARK  status: ('A' for Active; 'I' for Inactive)
REMARK    1  A    between atoms: O1_2  and  C2_3 
REMARK    2  A    between atoms: C2_3  and  C5_6 
REMARK    3  A    between atoms: C5_6  and  O3_8 
REMARK    4  A    between atoms: O3_8  and  C6_9 
REMARK    5  A    between atoms: C6_9  and  C7_10 
REMARK    6  A    between atoms: C6_9  and  C8_15 
REMARK    7  A    between atoms: C7_10  and  O4_11 
REMARK    8  A    between atoms: C7_10  and  O5_13 
REMARK    9  A    between atoms: C10_17  and  N1_18 
REMARK   10  A    between atoms: C12_20  and  O6_21 
REMARK   11  A    between atoms: C15_26  and  C16_27 
REMARK       I    between atoms: C16_27  and  N2_29 
REMARK   12  A    between atoms: N2_29  and  C17_31 
REMARK   13  A    between atoms: C17_31  and  O9_32 
REMARK   14  A    between atoms: C17_31  and  C18_34 
REMARK   15  A    between atoms: C18_34  and  N3_35 
REMARK   16  A    between atoms: C18_34  and  O10_39 
REMARK   17  A    between atoms: C19_41  and  O11_42 
REMARK   18  A    between atoms: C22_50  and  O13_51 
REMARK   19  A    between atoms: O13_51  and  C23_52 
REMARK   20  A    between atoms: C23_52  and  C24_54 
ROOT
HETATM    1  C8  UNL     1      45.876  23.688  24.691  1.00  0.00     0.086 C 
HETATM    2  C9  UNL     1      44.715  24.134  25.450  1.00  0.00    -0.010 C 
HETATM    3  C10 UNL     1      44.689  24.931  26.492  1.00  0.00     0.104 C 
HETATM    4  C19 UNL     1      43.511  23.494  24.909  1.00  0.00     0.176 C 
HETATM    5  C20 UNL     1      42.872  23.920  23.687  1.00  0.00     0.154 C 
HETATM    6  N4  UNL     1      42.405  24.911  22.987  1.00  0.00    -0.381 N 
ATOM      7  H41 UNL     1      41.953  25.212  22.124  1.00  0.00     0.158 HD
ATOM      8  H42 UNL     1      42.431  25.880  23.307  1.00  0.00     0.158 HD
HETATM    9  O12 UNL     1      42.835  22.553  23.235  1.00  0.00    -0.325 OA
HETATM   10  C21 UNL     1      44.049  22.424  23.953  1.00  0.00     0.207 C 
HETATM   11  C22 UNL     1      45.222  23.188  23.391  1.00  0.00     0.176 C 
ENDROOT
BRANCH   1  12
HETATM   12  C6  UNL     1      46.789  22.690  25.247  1.00  0.00     0.197 C 
BRANCH  12  13
HETATM   13  O3  UNL     1      46.574  22.043  26.432  1.00  0.00    -0.308 OA
BRANCH  13  14
HETATM   14  C5  UNL     1      45.932  20.855  26.647  1.00  0.00     0.293 C 
HETATM   15  O2  UNL     1      44.772  20.995  27.133  1.00  0.00    -0.262 OA
BRANCH  14  16
HETATM   16  C2  UNL     1      46.442  19.496  26.372  1.00  0.00     0.140 C 
HETATM   17  C3  UNL     1      45.360  18.772  25.562  1.00  0.00     0.057 C 
HETATM   18  C4  UNL     1      47.701  19.458  25.556  1.00  0.00     0.057 C 
BRANCH  16  19
HETATM   19  O1  UNL     1      46.676  18.848  27.573  1.00  0.00    -0.376 OA
HETATM   20  C1  UNL     1      47.914  19.011  28.121  1.00  0.00     0.203 C 
ENDBRANCH  16  19
ENDBRANCH  14  16
ENDBRANCH  13  14
ENDBRANCH  12  13
BRANCH  12  21
HETATM   21  C7  UNL     1      48.264  23.084  25.072  1.00  0.00     0.284 C 
BRANCH  21  22
HETATM   22  O4  UNL     1      48.945  22.890  26.298  1.00  0.00    -0.369 OA
ATOM     23  H4  UNL     1      49.693  23.474  26.335  1.00  0.00     0.212 HD
ENDBRANCH  21  22
BRANCH  21  24
HETATM   24  O5  UNL     1      48.427  24.405  24.667  1.00  0.00    -0.369 OA
ATOM     25  H5  UNL     1      48.392  24.510  23.723  1.00  0.00     0.212 HD
ENDBRANCH  21  24
ENDBRANCH  12  21
ENDBRANCH   1  12
BRANCH   3  26
HETATM   26  N1  UNL     1      43.703  25.426  27.287  1.00  0.00    -0.325 N 
HETATM   27  C11 UNL     1      43.597  24.884  28.545  1.00  0.00     0.137 A 
HETATM   28  C12 UNL     1      42.693  25.278  29.491  1.00  0.00     0.132 A 
HETATM   29  C13 UNL     1      41.826  26.277  29.176  1.00  0.00     0.208 A 
HETATM   30  O7  UNL     1      40.988  26.651  30.031  1.00  0.00    -0.285 OA
HETATM   31  C14 UNL     1      41.900  26.845  27.920  1.00  0.00     0.093 A 
HETATM   32  C15 UNL     1      42.852  26.387  27.012  1.00  0.00     0.110 A 
BRANCH  28  33
HETATM   33  O6  UNL     1      42.667  24.657  30.764  1.00  0.00    -0.356 OA
ATOM     34  H6  UNL     1      42.961  25.126  31.535  1.00  0.00     0.218 HD
ENDBRANCH  28  33
BRANCH  32  35
HETATM   35  C16 UNL     1      42.893  27.100  25.719  1.00  0.00     0.270 C 
HETATM   36  O8  UNL     1      43.967  27.055  25.016  1.00  0.00    -0.266 OA
HETATM   37  N2  UNL     1      41.754  27.796  25.296  1.00  0.00    -0.326 N 
ATOM     38  H2  UNL     1      40.955  27.768  25.929  1.00  0.00     0.165 HD
BRANCH  37  39
HETATM   39  C17 UNL     1      41.566  28.552  24.069  1.00  0.00     0.277 C 
BRANCH  39  40
HETATM   40  O9  UNL     1      41.586  27.536  23.063  1.00  0.00    -0.372 OA
ATOM     41  H9  UNL     1      41.575  28.038  22.257  1.00  0.00     0.212 HD
ENDBRANCH  39  40
BRANCH  39  42
HETATM   42  C18 UNL     1      40.155  29.142  24.022  1.00  0.00     0.365 C 
BRANCH  42  43
HETATM   43  N3  UNL     1      40.190  30.436  23.353  1.00  0.00    -0.049 N 
ATOM     44  H33 UNL     1      39.330  30.966  23.494  1.00  0.00     0.277 HD
ATOM     45  H32 UNL     1      40.836  31.084  23.803  1.00  0.00     0.277 HD
ATOM     46  H31 UNL     1      40.403  30.304  22.365  1.00  0.00     0.277 HD
ENDBRANCH  42  43
BRANCH  42  47
HETATM   47  O10 UNL     1      39.603  29.283  25.296  1.00  0.00    -0.367 OA
ATOM     48  H10 UNL     1      40.026  28.719  25.933  1.00  0.00     0.212 HD
ENDBRANCH  42  47
ENDBRANCH  39  42
ENDBRANCH  37  39
ENDBRANCH  32  35
ENDBRANCH   3  26
BRANCH   4  49
HETATM   49  O11 UNL     1      42.616  22.989  25.842  1.00  0.00    -0.374 OA
ATOM     50  H11 UNL     1      42.836  23.135  26.754  1.00  0.00     0.211 HD
ENDBRANCH   4  49
BRANCH  11  51
HETATM   51  O13 UNL     1      46.031  22.391  22.608  1.00  0.00    -0.307 OA
BRANCH  51  52
HETATM   52  C23 UNL     1      45.647  21.869  21.391  1.00  0.00     0.313 C 
HETATM   53  O14 UNL     1      45.421  20.637  21.283  1.00  0.00    -0.258 OA
BRANCH  52  54
HETATM   54  C24 UNL     1      45.484  22.693  20.201  1.00  0.00     0.139 A 
HETATM   55  N5  UNL     1      46.433  23.364  19.529  1.00  0.00    -0.334 N 
HETATM   56  C25 UNL     1      45.790  23.979  18.504  1.00  0.00     0.120 A 
ATOM     57  H5  UNL     1      47.429  23.402  19.744  1.00  0.00     0.168 HD
HETATM   58  C26 UNL     1      46.534  24.838  17.519  1.00  0.00     0.098 C 
HETATM   59  O15 UNL     1      44.511  23.693  18.555  1.00  0.00    -0.300 OA
HETATM   60  C27 UNL     1      44.279  22.914  19.571  1.00  0.00     0.084 A 
HETATM   61  C28 UNL     1      42.926  22.371  19.952  1.00  0.00     0.079 C 
ENDBRANCH  52  54
ENDBRANCH  51  52
ENDBRANCH  11  51
TORSDOF 20
ENDMDL
MODEL 3
REMARK VINA RESULT: -8.614392349      2.292      8.276
REMARK  20 active torsions:
REMARK  status: ('A' for Active; 'I' for Inactive)
REMARK    1  A    between atoms: O1_2  and  C2_3 
REMARK    2  A    between atoms: C2_3  and  C5_6 
REMARK    3  A    between atoms: C5_6  and  O3_8 
REMARK    4  A    between atoms: O3_8  and  C6_9 
REMARK    5  A    between atoms: C6_9  and  C7_10 
REMARK    6  A    between atoms: C6_9  and  C8_15 
REMARK    7  A    between atoms: C7_10  and  O4_11 
REMARK    8  A    between atoms: C7_10  and  O5_13 
REMARK    9  A    between atoms: C10_17  and  N1_18 
REMARK   10  A    between atoms: C12_20  and  O6_21 
REMARK   11  A    between atoms: C15_26  and  C16_27 
REMARK       I    between atoms: C16_27  and  N2_29 
REMARK   12  A    between atoms: N2_29  and  C17_31 
REMARK   13  A    between atoms: C17_31  and  O9_32 
REMARK   14  A    between atoms: C17_31  and  C18_34 
REMARK   15  A    between atoms: C18_34  and  N3_35 
REMARK   16  A    between atoms: C18_34  and  O10_39 
REMARK   17  A    between atoms: C19_41  and  O11_42 
REMARK   18  A    between atoms: C22_50  and  O13_51 
REMARK   19  A    between atoms: O13_51  and  C23_52 
REMARK   20  A    between atoms: C23_52  and  C24_54 
ROOT
HETATM    1  C8  UNL     1      51.260  22.478  23.992  1.00  0.00     0.086 C 
HETATM    2  C9  UNL     1      50.710  23.599  23.243  1.00  0.00    -0.010 C 
HETATM    3  C10 UNL     1      50.987  23.963  22.013  1.00  0.00     0.104 C 
HETATM    4  C19 UNL     1      49.797  24.355  24.108  1.00  0.00     0.176 C 
HETATM    5  C20 UNL     1      48.459  23.913  24.421  1.00  0.00     0.154 C 
HETATM    6  N4  UNL     1      47.325  23.462  23.973  1.00  0.00    -0.381 N 
ATOM      7  H41 UNL     1      46.380  23.149  24.196  1.00  0.00     0.158 HD
ATOM      8  H42 UNL     1      47.147  23.287  22.984  1.00  0.00     0.158 HD
HETATM    9  O12 UNL     1      48.711  24.159  25.818  1.00  0.00    -0.325 OA
HETATM   10  C21 UNL     1      50.040  23.781  25.508  1.00  0.00     0.207 C 
HETATM   11  C22 UNL     1      50.233  22.334  25.130  1.00  0.00     0.176 C 
ENDROOT
BRANCH   1  12
HETATM   12  C6  UNL     1      52.626  22.529  24.511  1.00  0.00     0.197 C 
BRANCH  12  13
HETATM   13  O3  UNL     1      53.411  23.647  24.469  1.00  0.00    -0.308 OA
BRANCH  13  14
HETATM   14  C5  UNL     1      54.253  24.130  25.432  1.00  0.00     0.293 C 
HETATM   15  O2  UNL     1      53.803  23.988  26.607  1.00  0.00    -0.262 OA
BRANCH  14  16
HETATM   16  C2  UNL     1      55.573  24.765  25.235  1.00  0.00     0.140 C 
HETATM   17  C3  UNL     1      55.327  26.274  25.124  1.00  0.00     0.057 C 
HETATM   18  C4  UNL     1      56.537  24.558  26.367  1.00  0.00     0.057 C 
BRANCH  16  19
HETATM   19  O1  UNL     1      56.145  24.271  24.075  1.00  0.00    -0.376 OA
HETATM   20  C1  UNL     1      57.451  23.887  24.156  1.00  0.00     0.203 C 
ENDBRANCH  16  19
ENDBRANCH  14  16
ENDBRANCH  13  14
ENDBRANCH  12  13
BRANCH  12  21
HETATM   21  C7  UNL     1      53.426  21.259  24.180  1.00  0.00     0.284 C 
BRANCH  21  22
HETATM   22  O4  UNL     1      53.382  21.034  22.782  1.00  0.00    -0.369 OA
ATOM     23  H4  UNL     1      54.115  21.479  22.372  1.00  0.00     0.212 HD
ENDBRANCH  21  22
BRANCH  21  24
HETATM   24  O5  UNL     1      52.945  20.130  24.835  1.00  0.00    -0.369 OA
ATOM     25  H5  UNL     1      52.073  19.881  24.552  1.00  0.00     0.212 HD
ENDBRANCH  21  24
ENDBRANCH  12  21
ENDBRANCH   1  12
BRANCH   3  26
HETATM   26  N1  UNL     1      50.562  24.965  21.198  1.00  0.00    -0.325 N 
HETATM   27  C11 UNL     1      49.231  24.959  20.857  1.00  0.00     0.137 A 
HETATM   28  C12 UNL     1      48.620  25.901  20.079  1.00  0.00     0.132 A 
HETATM   29  C13 UNL     1      49.373  26.925  19.597  1.00  0.00     0.208 A 
HETATM   30  O7  UNL     1      48.830  27.799  18.881  1.00  0.00    -0.285 OA
HETATM   31  C14 UNL     1      50.717  26.965  19.916  1.00  0.00     0.093 A 
HETATM   32  C15 UNL     1      51.264  25.965  20.717  1.00  0.00     0.110 A 
BRANCH  28  33
HETATM   33  O6  UNL     1      47.237  25.806  19.788  1.00  0.00    -0.356 OA
ATOM     34  H6  UNL     1      46.943  25.536  18.926  1.00  0.00     0.218 HD
ENDBRANCH  28  33
BRANCH  32  35
HETATM   35  C16 UNL     1      52.693  26.130  21.052  1.00  0.00     0.270 C 
HETATM   36  O8  UNL     1      53.023  26.944  21.990  1.00  0.00    -0.266 OA
HETATM   37  N2  UNL     1      53.643  25.386  20.342  1.00  0.00    -0.326 N 
ATOM     38  H2  UNL     1      53.275  24.769  19.618  1.00  0.00     0.165 HD
BRANCH  37  39
HETATM   39  C17 UNL     1      55.087  25.381  20.506  1.00  0.00     0.277 C 
BRANCH  39  40
HETATM   40  O9  UNL     1      55.261  25.943  21.809  1.00  0.00    -0.372 OA
ATOM     41  H9  UNL     1      54.881  25.283  22.377  1.00  0.00     0.212 HD
ENDBRANCH  39  40
BRANCH  39  42
HETATM   42  C18 UNL     1      55.603  23.944  20.613  1.00  0.00     0.365 C 
BRANCH  42  43
HETATM   43  N3  UNL     1      54.855  23.233  21.640  1.00  0.00    -0.049 N 
ATOM     44  H33 UNL     1      55.282  22.337  21.877  1.00  0.00     0.277 HD
ATOM     45  H32 UNL     1      54.936  23.679  22.554  1.00  0.00     0.277 HD
ATOM     46  H31 UNL     1      53.884  23.130  21.347  1.00  0.00     0.277 HD
ENDBRANCH  42  43
BRANCH  42  47
HETATM   47  O10 UNL     1      56.968  23.898  20.903  1.00  0.00    -0.367 OA
ATOM     48  H10 UNL     1      57.132  23.658  21.807  1.00  0.00     0.212 HD
ENDBRANCH  42  47
ENDBRANCH  39  42
ENDBRANCH  37  39
ENDBRANCH  32  35
ENDBRANCH   3  26
BRANCH   4  49
HETATM   49  O11 UNL     1      49.914  25.737  24.060  1.00  0.00    -0.374 OA
ATOM     50  H11 UNL     1      50.060  26.174  24.891  1.00  0.00     0.211 HD
ENDBRANCH   4  49
BRANCH  11  51
HETATM   51  O13 UNL     1      50.661  21.573  26.198  1.00  0.00    -0.307 OA
BRANCH  51  52
HETATM   52  C23 UNL     1      49.817  21.067  27.166  1.00  0.00     0.313 C 
HETATM   53  O14 UNL     1      50.292  20.660  28.257  1.00  0.00    -0.258 OA
BRANCH  52  54
HETATM   54  C24 UNL     1      48.375  20.983  26.981  1.00  0.00     0.139 A 
HETATM   55  N5  UNL     1      47.435  21.812  27.462  1.00  0.00    -0.334 N 
HETATM   56  C25 UNL     1      46.250  21.315  27.025  1.00  0.00     0.120 A 
ATOM     57  H5  UNL     1      47.582  22.642  28.036  1.00  0.00     0.168 HD
HETATM   58  C26 UNL     1      44.948  21.984  27.367  1.00  0.00     0.098 C 
HETATM   59  O15 UNL     1      46.466  20.235  26.312  1.00  0.00    -0.300 OA
HETATM   60  C27 UNL     1      47.743  19.995  26.259  1.00  0.00     0.084 A 
HETATM   61  C28 UNL     1      48.376  18.839  25.529  1.00  0.00     0.079 C 
ENDBRANCH  52  54
ENDBRANCH  51  52
ENDBRANCH  11  51
TORSDOF 20
ENDMDL
MODEL 4
REMARK VINA RESULT: -8.536426168      2.043      3.714
REMARK  20 active torsions:
REMARK  status: ('A' for Active; 'I' for Inactive)
REMARK    1  A    between atoms: O1_2  and  C2_3 
REMARK    2  A    between atoms: C2_3  and  C5_6 
REMARK    3  A    between atoms: C5_6  and  O3_8 
REMARK    4  A    between atoms: O3_8  and  C6_9 
REMARK    5  A    between atoms: C6_9  and  C7_10 
REMARK    6  A    between atoms: C6_9  and  C8_15 
REMARK    7  A    between atoms: C7_10  and  O4_11 
REMARK    8  A    between atoms: C7_10  and  O5_13 
REMARK    9  A    between atoms: C10_17  and  N1_18 
REMARK   10  A    between atoms: C12_20  and  O6_21 
REMARK   11  A    between atoms: C15_26  and  C16_27 
REMARK       I    between atoms: C16_27  and  N2_29 
REMARK   12  A    between atoms: N2_29  and  C17_31 
REMARK   13  A    between atoms: C17_31  and  O9_32 
REMARK   14  A    between atoms: C17_31  and  C18_34 
REMARK   15  A    between atoms: C18_34  and  N3_35 
REMARK   16  A    between atoms: C18_34  and  O10_39 
REMARK   17  A    between atoms: C19_41  and  O11_42 
REMARK   18  A    between atoms: C22_50  and  O13_51 
REMARK   19  A    between atoms: O13_51  and  C23_52 
REMARK   20  A    between atoms: C23_52  and  C24_54 
ROOT
HETATM    1  C8  UNL     1      51.434  23.246  23.538  1.00  0.00     0.086 C 
HETATM    2  C9  UNL     1      50.284  23.367  24.423  1.00  0.00    -0.010 C 
HETATM    3  C10 UNL     1      49.022  23.132  24.145  1.00  0.00     0.104 C 
HETATM    4  C19 UNL     1      50.728  23.874  25.726  1.00  0.00     0.176 C 
HETATM    5  C20 UNL     1      51.392  23.052  26.708  1.00  0.00     0.154 C 
HETATM    6  N4  UNL     1      51.395  21.938  27.378  1.00  0.00    -0.381 N 
ATOM      7  H41 UNL     1      51.865  21.357  28.072  1.00  0.00     0.158 HD
ATOM      8  H42 UNL     1      50.677  21.222  27.269  1.00  0.00     0.158 HD
HETATM    9  O12 UNL     1      52.407  24.064  26.861  1.00  0.00    -0.325 OA
HETATM   10  C21 UNL     1      52.178  24.311  25.486  1.00  0.00     0.207 C 
HETATM   11  C22 UNL     1      52.596  23.208  24.547  1.00  0.00     0.176 C 
ENDROOT
BRANCH   1  12
HETATM   12  C6  UNL     1      51.672  24.234  22.488  1.00  0.00     0.197 C 
BRANCH  12  13
HETATM   13  O3  UNL     1      50.859  25.309  22.260  1.00  0.00    -0.308 OA
BRANCH  13  14
HETATM   14  C5  UNL     1      50.639  25.975  21.086  1.00  0.00     0.293 C 
HETATM   15  O2  UNL     1      51.583  26.757  20.772  1.00  0.00    -0.262 OA
BRANCH  14  16
HETATM   16  C2  UNL     1      49.464  25.864  20.198  1.00  0.00     0.140 C 
HETATM   17  C3  UNL     1      49.194  27.268  19.643  1.00  0.00     0.057 C 
HETATM   18  C4  UNL     1      49.660  24.956  19.019  1.00  0.00     0.057 C 
BRANCH  16  19
HETATM   19  O1  UNL     1      48.382  25.407  20.931  1.00  0.00    -0.376 OA
HETATM   20  C1  UNL     1      47.307  24.964  20.218  1.00  0.00     0.203 C 
ENDBRANCH  16  19
ENDBRANCH  14  16
ENDBRANCH  13  14
ENDBRANCH  12  13
BRANCH  12  21
HETATM   21  C7  UNL     1      52.147  23.591  21.176  1.00  0.00     0.284 C 
BRANCH  21  22
HETATM   22  O4  UNL     1      52.444  22.226  21.408  1.00  0.00    -0.369 OA
ATOM     23  H4  UNL     1      52.332  21.741  20.599  1.00  0.00     0.212 HD
ENDBRANCH  21  22
BRANCH  21  24
HETATM   24  O5  UNL     1      53.271  24.215  20.642  1.00  0.00    -0.369 OA
ATOM     25  H5  UNL     1      53.667  23.721  19.934  1.00  0.00     0.212 HD
ENDBRANCH  21  24
ENDBRANCH  12  21
ENDBRANCH   1  12
BRANCH   3  26
HETATM   26  N1  UNL     1      47.863  23.200  24.852  1.00  0.00    -0.325 N 
HETATM   27  C11 UNL     1      47.072  24.302  24.634  1.00  0.00     0.137 A 
HETATM   28  C12 UNL     1      45.861  24.523  25.227  1.00  0.00     0.132 A 
HETATM   29  C13 UNL     1      45.393  23.594  26.101  1.00  0.00     0.208 A 
HETATM   30  O7  UNL     1      44.284  23.780  26.655  1.00  0.00    -0.285 OA
HETATM   31  C14 UNL     1      46.161  22.472  26.348  1.00  0.00     0.093 A 
HETATM   32  C15 UNL     1      47.385  22.321  25.702  1.00  0.00     0.110 A 
BRANCH  28  33
HETATM   33  O6  UNL     1      45.120  25.693  24.931  1.00  0.00    -0.356 OA
ATOM     34  H6  UNL     1      44.986  26.360  25.594  1.00  0.00     0.218 HD
ENDBRANCH  28  33
BRANCH  32  35
HETATM   35  C16 UNL     1      48.101  21.060  25.986  1.00  0.00     0.270 C 
HETATM   36  O8  UNL     1      48.747  20.483  25.037  1.00  0.00    -0.266 OA
HETATM   37  N2  UNL     1      48.061  20.538  27.284  1.00  0.00    -0.326 N 
ATOM     38  H2  UNL     1      47.520  21.074  27.963  1.00  0.00     0.165 HD
BRANCH  37  39
HETATM   39  C17 UNL     1      48.692  19.330  27.788  1.00  0.00     0.277 C 
BRANCH  39  40
HETATM   40  O9  UNL     1      49.580  19.829  28.791  1.00  0.00    -0.372 OA
ATOM     41  H9  UNL     1      49.166  19.547  29.598  1.00  0.00     0.212 HD
ENDBRANCH  39  40
BRANCH  39  42
HETATM   42  C18 UNL     1      47.671  18.473  28.539  1.00  0.00     0.365 C 
BRANCH  42  43
HETATM   43  N3  UNL     1      48.362  17.614  29.491  1.00  0.00    -0.049 N 
ATOM     44  H33 UNL     1      48.534  16.682  29.115  1.00  0.00     0.277 HD
ATOM     45  H32 UNL     1      49.332  17.896  29.630  1.00  0.00     0.277 HD
ATOM     46  H31 UNL     1      47.840  17.586  30.367  1.00  0.00     0.277 HD
ENDBRANCH  42  43
BRANCH  42  47
HETATM   47  O10 UNL     1      46.900  17.695  27.673  1.00  0.00    -0.367 OA
ATOM     48  H10 UNL     1      46.144  17.320  28.108  1.00  0.00     0.212 HD
ENDBRANCH  42  47
ENDBRANCH  39  42
ENDBRANCH  37  39
ENDBRANCH  32  35
ENDBRANCH   3  26
BRANCH   4  49
HETATM   49  O11 UNL     1      49.947  24.872  26.292  1.00  0.00    -0.374 OA
ATOM     50  H11 UNL     1      49.314  24.590  26.941  1.00  0.00     0.211 HD
ENDBRANCH   4  49
BRANCH  11  51
HETATM   51  O13 UNL     1      53.842  23.439  24.000  1.00  0.00    -0.307 OA
BRANCH  51  52
HETATM   52  C23 UNL     1      54.616  22.458  23.416  1.00  0.00     0.313 C 
HETATM   53  O14 UNL     1      54.365  21.247  23.642  1.00  0.00    -0.258 OA
BRANCH  52  54
HETATM   54  C24 UNL     1      55.731  22.765  22.531  1.00  0.00     0.139 A 
HETATM   55  N5  UNL     1      55.831  22.512  21.217  1.00  0.00    -0.334 N 
HETATM   56  C25 UNL     1      57.050  22.977  20.845  1.00  0.00     0.120 A 
ATOM     57  H5  UNL     1      55.135  22.062  20.622  1.00  0.00     0.168 HD
HETATM   58  C26 UNL     1      57.528  22.870  19.424  1.00  0.00     0.098 C 
HETATM   59  O15 UNL     1      57.659  23.489  21.888  1.00  0.00    -0.300 OA
HETATM   60  C27 UNL     1      56.894  23.381  22.936  1.00  0.00     0.084 A 
HETATM   61  C28 UNL     1      57.251  23.859  24.319  1.00  0.00     0.079 C 
ENDBRANCH  52  54
ENDBRANCH  51  52
ENDBRANCH  11  51
TORSDOF 20
ENDMDL
MODEL 5
REMARK VINA RESULT: -8.360753086      2.577      8.211
REMARK  20 active torsions:
REMARK  status: ('A' for Active; 'I' for Inactive)
REMARK    1  A    between atoms: O1_2  and  C2_3 
REMARK    2  A    between atoms: C2_3  and  C5_6 
REMARK    3  A    between atoms: C5_6  and  O3_8 
REMARK    4  A    between atoms: O3_8  and  C6_9 
REMARK    5  A    between atoms: C6_9  and  C7_10 
REMARK    6  A    between atoms: C6_9  and  C8_15 
REMARK    7  A    between atoms: C7_10  and  O4_11 
REMARK    8  A    between atoms: C7_10  and  O5_13 
REMARK    9  A    between atoms: C10_17  and  N1_18 
REMARK   10  A    between atoms: C12_20  and  O6_21 
REMARK   11  A    between atoms: C15_26  and  C16_27 
REMARK       I    between atoms: C16_27  and  N2_29 
REMARK   12  A    between atoms: N2_29  and  C17_31 
REMARK   13  A    between atoms: C17_31  and  O9_32 
REMARK   14  A    between atoms: C17_31  and  C18_34 
REMARK   15  A    between atoms: C18_34  and  N3_35 
REMARK   16  A    between atoms: C18_34  and  O10_39 
REMARK   17  A    between atoms: C19_41  and  O11_42 
REMARK   18  A    between atoms: C22_50  and  O13_51 
REMARK   19  A    between atoms: O13_51  and  C23_52 
REMARK   20  A    between atoms: C23_52  and  C24_54 
ROOT
HETATM    1  C8  UNL     1      52.483  24.851  22.268  1.00  0.00     0.086 C 
HETATM    2  C9  UNL     1      53.514  24.256  21.428  1.00  0.00    -0.010 C 
HETATM    3  C10 UNL     1      54.491  24.863  20.796  1.00  0.00     0.104 C 
HETATM    4  C19 UNL     1      53.274  22.813  21.320  1.00  0.00     0.176 C 
HETATM    5  C20 UNL     1      53.596  21.878  22.372  1.00  0.00     0.154 C 
HETATM    6  N4  UNL     1      54.484  21.454  23.222  1.00  0.00    -0.381 N 
ATOM      7  H41 UNL     1      54.710  20.794  23.965  1.00  0.00     0.158 HD
ATOM      8  H42 UNL     1      55.413  21.865  23.306  1.00  0.00     0.158 HD
HETATM    9  O12 UNL     1      52.282  21.299  22.253  1.00  0.00    -0.325 OA
HETATM   10  C21 UNL     1      51.878  22.616  21.923  1.00  0.00     0.207 C 
HETATM   11  C22 UNL     1      51.968  23.624  23.040  1.00  0.00     0.176 C 
ENDROOT
BRANCH   1  12
HETATM   12  C6  UNL     1      51.382  25.606  21.671  1.00  0.00     0.197 C 
BRANCH  12  13
HETATM   13  O3  UNL     1      50.594  25.127  20.661  1.00  0.00    -0.308 OA
BRANCH  13  14
HETATM   14  C5  UNL     1      49.232  25.164  20.557  1.00  0.00     0.293 C 
HETATM   15  O2  UNL     1      48.642  25.104  21.675  1.00  0.00    -0.262 OA
BRANCH  14  16
HETATM   16  C2  UNL     1      48.429  25.267  19.321  1.00  0.00     0.140 C 
HETATM   17  C3  UNL     1      47.001  24.840  19.682  1.00  0.00     0.057 C 
HETATM   18  C4  UNL     1      48.341  26.653  18.751  1.00  0.00     0.057 C 
BRANCH  16  19
HETATM   19  O1  UNL     1      48.966  24.429  18.359  1.00  0.00    -0.376 OA
HETATM   20  C1  UNL     1      48.127  24.033  17.360  1.00  0.00     0.203 C 
ENDBRANCH  16  19
ENDBRANCH  14  16
ENDBRANCH  13  14
ENDBRANCH  12  13
BRANCH  12  21
HETATM   21  C7  UNL     1      51.731  27.088  21.467  1.00  0.00     0.284 C 
BRANCH  21  22
HETATM   22  O4  UNL     1      52.076  27.302  20.111  1.00  0.00    -0.369 OA
ATOM     23  H4  UNL     1      52.829  26.765  19.892  1.00  0.00     0.212 HD
ENDBRANCH  21  22
BRANCH  21  24
HETATM   24  O5  UNL     1      52.782  27.513  22.274  1.00  0.00    -0.369 OA
ATOM     25  H5  UNL     1      53.446  26.845  22.400  1.00  0.00     0.212 HD
ENDBRANCH  21  24
ENDBRANCH  12  21
ENDBRANCH   1  12
BRANCH   3  26
HETATM   26  N1  UNL     1      55.507  24.448  19.993  1.00  0.00    -0.325 N 
HETATM   27  C11 UNL     1      55.432  24.810  18.669  1.00  0.00     0.137 A 
HETATM   28  C12 UNL     1      56.374  24.514  17.725  1.00  0.00     0.132 A 
HETATM   29  C13 UNL     1      57.471  23.808  18.108  1.00  0.00     0.208 A 
HETATM   30  O7  UNL     1      58.346  23.527  17.256  1.00  0.00    -0.285 OA
HETATM   31  C14 UNL     1      57.581  23.425  19.431  1.00  0.00     0.093 A 
HETATM   32  C15 UNL     1      56.577  23.767  20.332  1.00  0.00     0.110 A 
BRANCH  28  33
HETATM   33  O6  UNL     1      56.205  24.937  16.384  1.00  0.00    -0.356 OA
ATOM     34  H6  UNL     1      55.391  24.766  15.923  1.00  0.00     0.218 HD
ENDBRANCH  28  33
BRANCH  32  35
HETATM   35  C16 UNL     1      56.816  23.365  21.734  1.00  0.00     0.270 C 
HETATM   36  O8  UNL     1      57.023  22.126  22.001  1.00  0.00    -0.266 OA
HETATM   37  N2  UNL     1      56.819  24.352  22.727  1.00  0.00    -0.326 N 
ATOM     38  H2  UNL     1      56.644  25.305  22.409  1.00  0.00     0.165 HD
BRANCH  37  39
HETATM   39  C17 UNL     1      57.038  24.191  24.155  1.00  0.00     0.277 C 
BRANCH  39  40
HETATM   40  O9  UNL     1      58.269  24.888  24.368  1.00  0.00    -0.372 OA
ATOM     41  H9  UNL     1      58.642  24.435  25.114  1.00  0.00     0.212 HD
ENDBRANCH  39  40
BRANCH  39  42
HETATM   42  C18 UNL     1      55.987  24.973  24.944  1.00  0.00     0.365 C 
BRANCH  42  43
HETATM   43  N3  UNL     1      55.599  26.161  24.196  1.00  0.00    -0.049 N 
ATOM     44  H33 UNL     1      56.406  26.697  23.879  1.00  0.00     0.277 HD
ATOM     45  H32 UNL     1      55.210  25.930  23.282  1.00  0.00     0.277 HD
ATOM     46  H31 UNL     1      54.959  26.723  24.756  1.00  0.00     0.277 HD
ENDBRANCH  42  43
BRANCH  42  47
HETATM   47  O10 UNL     1      56.449  25.341  26.210  1.00  0.00    -0.367 OA
ATOM     48  H10 UNL     1      56.564  26.280  26.288  1.00  0.00     0.212 HD
ENDBRANCH  42  47
ENDBRANCH  39  42
ENDBRANCH  37  39
ENDBRANCH  32  35
ENDBRANCH   3  26
BRANCH   4  49
HETATM   49  O11 UNL     1      53.399  22.265  20.051  1.00  0.00    -0.374 OA
ATOM     50  H11 UNL     1      53.497  21.321  20.010  1.00  0.00     0.211 HD
ENDBRANCH   4  49
BRANCH  11  51
HETATM   51  O13 UNL     1      50.754  23.808  23.671  1.00  0.00    -0.307 OA
BRANCH  51  52
HETATM   52  C23 UNL     1      50.619  24.020  25.026  1.00  0.00     0.313 C 
HETATM   53  O14 UNL     1      50.497  25.192  25.466  1.00  0.00    -0.258 OA
BRANCH  52  54
HETATM   54  C24 UNL     1      50.606  22.930  25.993  1.00  0.00     0.139 A 
HETATM   55  N5  UNL     1      49.570  22.151  26.339  1.00  0.00    -0.334 N 
HETATM   56  C25 UNL     1      50.053  21.292  27.272  1.00  0.00     0.120 A 
ATOM     57  H5  UNL     1      48.618  22.195  25.976  1.00  0.00     0.168 HD
HETATM   58  C26 UNL     1      49.173  20.251  27.906  1.00  0.00     0.098 C 
HETATM   59  O15 UNL     1      51.324  21.542  27.479  1.00  0.00    -0.300 OA
HETATM   60  C27 UNL     1      51.703  22.531  26.723  1.00  0.00     0.084 A 
HETATM   61  C28 UNL     1      53.096  23.102  26.682  1.00  0.00     0.079 C 
ENDBRANCH  52  54
ENDBRANCH  51  52
ENDBRANCH  11  51
TORSDOF 20
ENDMDL
