MODEL 1
REMARK VINA RESULT: -9.918158205      0.000      0.000
REMARK  18 active torsions:
REMARK  status: ('A' for Active; 'I' for Inactive)
REMARK    1  A    between atoms: C3_3  and  N1_4 
REMARK    2  A    between atoms: N1_4  and  C4_6 
REMARK    3  A    between atoms: C5_9  and  N3_10 
REMARK    4  A    between atoms: N6_18  and  O1_19 
REMARK    5  A    between atoms: O1_19  and  C7_20 
REMARK    6  A    between atoms: C7_20  and  O3_22 
REMARK    7  A    between atoms: O3_22  and  C8_23 
REMARK    8  A    between atoms: C12_29  and  N8_30 
REMARK    9  A    between atoms: C13_34  and  O4_35 
REMARK   10  A    between atoms: O4_35  and  C14_36 
REMARK   11  A    between atoms: C15_38  and  N9_39 
REMARK   12  A    between atoms: C17_43  and  O6_44 
REMARK   13  A    between atoms: O6_44  and  C18_45 
REMARK   14  A    between atoms: N10_47  and  C20_48 
REMARK   15  A    between atoms: C23_52  and  O7_53 
REMARK   16  A    between atoms: C25_55  and  N12_56 
REMARK   17  A    between atoms: C26_60  and  N13_61 
REMARK   18  A    between atoms: C28_66  and  N14_67 
ROOT
HETATM    1  C20 UNL     1      54.867  21.339  21.920  1.00  0.00     0.241 C 
HETATM    2  C21 UNL     1      54.010  21.230  23.097  1.00  0.00     0.078 C 
HETATM    3  N11 UNL     1      53.330  21.123  24.041  1.00  0.00    -0.196 NA
ENDROOT
BRANCH   1   4
HETATM    4  N10 UNL     1      54.844  22.646  21.377  1.00  0.00    -0.396 N 
HETATM    5  C19 UNL     1      53.589  23.345  21.443  1.00  0.00     0.152 C 
HETATM    6  C18 UNL     1      53.789  24.522  22.427  1.00  0.00     0.172 C 
HETATM    7  C25 UNL     1      54.624  25.508  21.662  1.00  0.00     0.244 C 
HETATM    8  C23 UNL     1      55.811  24.843  20.990  1.00  0.00     0.171 C 
HETATM    9  C22 UNL     1      56.005  23.448  21.558  1.00  0.00     0.152 C 
BRANCH   6  10
HETATM   10  O6  UNL     1      52.610  25.124  22.775  1.00  0.00    -0.370 OA
BRANCH  10  11
HETATM   11  C17 UNL     1      51.765  24.539  23.648  1.00  0.00     0.208 C 
HETATM   12  C15 UNL     1      50.352  24.979  23.331  1.00  0.00     0.354 C 
HETATM   13  O5  UNL     1      49.414  23.983  23.334  1.00  0.00    -0.324 OA
HETATM   14  C14 UNL     1      48.838  23.852  24.631  1.00  0.00     0.293 C 
HETATM   15  C28 UNL     1      49.948  23.405  25.511  1.00  0.00     0.240 C 
HETATM   16  C27 UNL     1      50.748  24.625  25.929  1.00  0.00     0.073 C 
HETATM   17  C26 UNL     1      52.034  24.779  25.126  1.00  0.00     0.218 C 
BRANCH  12  18
HETATM   18  N9  UNL     1      50.279  25.668  22.044  1.00  0.00    -0.050 N 
HETATM   19  C16 UNL     1      49.159  25.227  21.267  1.00  0.00     0.270 C 
ATOM     20  H92 UNL     1      50.271  26.681  22.166  1.00  0.00     0.279 HD
ATOM     21  H91 UNL     1      51.152  25.575  21.524  1.00  0.00     0.279 HD
ENDBRANCH  12  18
BRANCH  14  22
HETATM   22  O4  UNL     1      47.719  23.045  24.579  1.00  0.00    -0.347 OA
BRANCH  22  23
HETATM   23  C13 UNL     1      46.562  23.755  24.642  1.00  0.00     0.185 C 
HETATM   24  C2  UNL     1      45.792  23.606  25.902  1.00  0.00    -0.035 C 
HETATM   25  C1  UNL     1      46.036  23.039  27.056  1.00  0.00     0.019 C 
HETATM   26  C3  UNL     1      44.496  24.319  25.504  1.00  0.00     0.132 C 
HETATM   27  C11 UNL     1      44.156  23.462  24.303  1.00  0.00     0.066 C 
HETATM   28  C12 UNL     1      45.514  23.350  23.598  1.00  0.00     0.218 C 
BRANCH  26  29
HETATM   29  N1  UNL     1      43.529  24.313  26.537  1.00  0.00    -0.217 N 
ATOM     30  H1  UNL     1      43.287  23.437  27.002  1.00  0.00     0.178 HD
BRANCH  29  31
HETATM   31  C4  UNL     1      42.954  25.408  26.893  1.00  0.00     0.682 A 
HETATM   32  N2  UNL     1      42.796  25.804  28.168  1.00  0.00    -0.175 N 
HETATM   33  C5  UNL     1      42.180  26.958  28.526  1.00  0.00     0.147 A 
ATOM     34  H2  UNL     1      43.159  25.203  28.907  1.00  0.00     0.186 HD
HETATM   35  C6  UNL     1      41.702  27.752  27.504  1.00  0.00     0.142 A 
HETATM   36  N4  UNL     1      41.049  28.944  27.468  1.00  0.00    -0.277 N 
HETATM   37  C10 UNL     1      41.844  27.383  26.180  1.00  0.00     0.201 A 
HETATM   38  N5  UNL     1      40.823  29.257  26.202  1.00  0.00    -0.213 N 
ATOM     39  H4  UNL     1      40.779  29.501  28.279  1.00  0.00     0.189 HD
HETATM   40  N6  UNL     1      41.289  28.336  25.398  1.00  0.00    -0.116 N 
ATOM     41  H5  UNL     1      40.347  30.104  25.893  1.00  0.00     0.211 HD
HETATM   42  N7  UNL     1      42.471  26.215  25.907  1.00  0.00    -0.170 N 
ATOM     43  H7  UNL     1      42.583  25.929  24.934  1.00  0.00     0.186 HD
BRANCH  33  44
HETATM   44  N3  UNL     1      42.047  27.305  29.760  1.00  0.00    -0.383 N 
ATOM     45  H32 UNL     1      41.259  26.978  30.319  1.00  0.00     0.157 HD
ATOM     46  H31 UNL     1      42.718  27.916  30.224  1.00  0.00     0.157 HD
ENDBRANCH  33  44
BRANCH  40  47
HETATM   47  O1  UNL     1      41.258  28.287  24.030  1.00  0.00    -0.149 OA
BRANCH  47  48
HETATM   48  C7  UNL     1      40.639  29.305  23.281  1.00  0.00     0.430 C 
HETATM   49  O2  UNL     1      39.512  29.673  23.692  1.00  0.00    -0.227 OA
BRANCH  48  50
HETATM   50  O3  UNL     1      41.179  29.891  22.173  1.00  0.00    -0.297 OA
BRANCH  50  51
HETATM   51  C8  UNL     1      40.434  30.773  21.320  1.00  0.00     0.177 C 
HETATM   52  C9  UNL     1      41.436  31.675  20.643  1.00  0.00     0.034 C 
ENDBRANCH  50  51
ENDBRANCH  48  50
ENDBRANCH  47  48
ENDBRANCH  40  47
ENDBRANCH  29  31
ENDBRANCH  26  29
BRANCH  28  53
HETATM   53  N8  UNL     1      45.446  24.313  22.519  1.00  0.00    -0.072 N 
ATOM     54  H83 UNL     1      45.460  25.285  22.827  1.00  0.00     0.274 HD
ATOM     55  H82 UNL     1      46.292  24.361  21.951  1.00  0.00     0.274 HD
ATOM     56  H81 UNL     1      44.609  24.054  21.996  1.00  0.00     0.274 HD
ENDBRANCH  28  53
ENDBRANCH  22  23
ENDBRANCH  14  22
BRANCH  15  57
HETATM   57  N14 UNL     1      49.587  22.693  26.695  1.00  0.00    -0.070 N 
ATOM     58 3H14 UNL     1      48.739  23.099  27.091  1.00  0.00     0.274 HD
ATOM     59 2H14 UNL     1      49.252  21.763  26.444  1.00  0.00     0.274 HD
ATOM     60 1H14 UNL     1      50.299  22.616  27.421  1.00  0.00     0.274 HD
ENDBRANCH  15  57
BRANCH  17  61
HETATM   61  N13 UNL     1      52.904  23.725  25.671  1.00  0.00    -0.072 N 
ATOM     62 3H13 UNL     1      53.302  23.990  26.572  1.00  0.00     0.274 HD
ATOM     63 2H13 UNL     1      52.369  22.912  25.975  1.00  0.00     0.274 HD
ATOM     64 1H13 UNL     1      53.627  23.472  24.997  1.00  0.00     0.274 HD
ENDBRANCH  17  61
ENDBRANCH  10  11
ENDBRANCH   6  10
BRANCH   7  65
HETATM   65  N12 UNL     1      55.029  26.580  22.515  1.00  0.00    -0.070 N 
ATOM     66 3H12 UNL     1      55.505  26.242  23.351  1.00  0.00     0.274 HD
ATOM     67 2H12 UNL     1      55.797  27.118  22.112  1.00  0.00     0.274 HD
ATOM     68 1H12 UNL     1      54.230  27.171  22.744  1.00  0.00     0.274 HD
ENDBRANCH   7  65
BRANCH   8  69
HETATM   69  O7  UNL     1      55.585  24.810  19.637  1.00  0.00    -0.387 OA
HETATM   70  C24 UNL     1      56.685  24.465  18.878  1.00  0.00     0.202 C 
ENDBRANCH   8  69
ENDBRANCH   1   4
TORSDOF 18
ENDMDL
MODEL 2
REMARK VINA RESULT: -9.888633641      2.489     11.049
REMARK  18 active torsions:
REMARK  status: ('A' for Active; 'I' for Inactive)
REMARK    1  A    between atoms: C3_3  and  N1_4 
REMARK    2  A    between atoms: N1_4  and  C4_6 
REMARK    3  A    between atoms: C5_9  and  N3_10 
REMARK    4  A    between atoms: N6_18  and  O1_19 
REMARK    5  A    between atoms: O1_19  and  C7_20 
REMARK    6  A    between atoms: C7_20  and  O3_22 
REMARK    7  A    between atoms: O3_22  and  C8_23 
REMARK    8  A    between atoms: C12_29  and  N8_30 
REMARK    9  A    between atoms: C13_34  and  O4_35 
REMARK   10  A    between atoms: O4_35  and  C14_36 
REMARK   11  A    between atoms: C15_38  and  N9_39 
REMARK   12  A    between atoms: C17_43  and  O6_44 
REMARK   13  A    between atoms: O6_44  and  C18_45 
REMARK   14  A    between atoms: N10_47  and  C20_48 
REMARK   15  A    between atoms: C23_52  and  O7_53 
REMARK   16  A    between atoms: C25_55  and  N12_56 
REMARK   17  A    between atoms: C26_60  and  N13_61 
REMARK   18  A    between atoms: C28_66  and  N14_67 
ROOT
HETATM    1  C20 UNL     1      43.713  25.185  28.044  1.00  0.00     0.241 C 
HETATM    2  C21 UNL     1      42.638  25.962  28.655  1.00  0.00     0.078 C 
HETATM    3  N11 UNL     1      41.785  26.577  29.163  1.00  0.00    -0.196 NA
ENDROOT
BRANCH   1   4
HETATM    4  N10 UNL     1      43.763  25.376  26.643  1.00  0.00    -0.396 N 
HETATM    5  C19 UNL     1      45.012  25.069  25.998  1.00  0.00     0.152 C 
HETATM    6  C18 UNL     1      44.757  23.831  25.107  1.00  0.00     0.172 C 
HETATM    7  C25 UNL     1      43.963  24.362  23.949  1.00  0.00     0.244 C 
HETATM    8  C23 UNL     1      42.815  25.242  24.407  1.00  0.00     0.171 C 
HETATM    9  C22 UNL     1      42.593  25.058  25.899  1.00  0.00     0.152 C 
BRANCH   6  10
HETATM   10  O6  UNL     1      45.915  23.280  24.626  1.00  0.00    -0.370 OA
BRANCH  10  11
HETATM   11  C17 UNL     1      46.727  22.565  25.430  1.00  0.00     0.208 C 
HETATM   12  C15 UNL     1      48.165  22.883  25.082  1.00  0.00     0.354 C 
HETATM   13  O5  UNL     1      48.993  23.097  26.150  1.00  0.00    -0.324 OA
HETATM   14  C14 UNL     1      49.602  21.873  26.555  1.00  0.00     0.293 C 
HETATM   15  C28 UNL     1      48.486  21.019  27.036  1.00  0.00     0.240 C 
HETATM   16  C27 UNL     1      47.835  20.361  25.833  1.00  0.00     0.073 C 
HETATM   17  C26 UNL     1      46.542  21.055  25.421  1.00  0.00     0.218 C 
BRANCH  12  18
HETATM   18  N9  UNL     1      48.261  24.040  24.194  1.00  0.00    -0.050 N 
HETATM   19  C16 UNL     1      49.621  24.442  23.987  1.00  0.00     0.270 C 
ATOM     20  H92 UNL     1      47.785  23.867  23.309  1.00  0.00     0.279 HD
ATOM     21  H91 UNL     1      47.691  24.815  24.534  1.00  0.00     0.279 HD
ENDBRANCH  12  18
BRANCH  14  22
HETATM   22  O4  UNL     1      50.628  22.120  27.446  1.00  0.00    -0.347 OA
BRANCH  22  23
HETATM   23  C13 UNL     1      51.845  22.148  26.842  1.00  0.00     0.185 C 
HETATM   24  C2  UNL     1      52.431  23.499  26.658  1.00  0.00    -0.035 C 
HETATM   25  C1  UNL     1      52.105  24.698  27.071  1.00  0.00     0.019 C 
HETATM   26  C3  UNL     1      53.621  23.149  25.759  1.00  0.00     0.132 C 
HETATM   27  C11 UNL     1      52.839  22.503  24.634  1.00  0.00     0.066 C 
HETATM   28  C12 UNL     1      51.849  21.619  25.404  1.00  0.00     0.218 C 
BRANCH  26  29
HETATM   29  N1  UNL     1      54.378  24.285  25.386  1.00  0.00    -0.217 N 
ATOM     30  H1  UNL     1      54.413  25.097  26.003  1.00  0.00     0.178 HD
BRANCH  29  31
HETATM   31  C4  UNL     1      55.023  24.298  24.273  1.00  0.00     0.682 A 
HETATM   32  N2  UNL     1      56.282  23.855  24.118  1.00  0.00    -0.175 N 
HETATM   33  C5  UNL     1      56.950  23.882  22.938  1.00  0.00     0.147 A 
ATOM     34  H2  UNL     1      56.763  23.476  24.934  1.00  0.00     0.186 HD
HETATM   35  C6  UNL     1      56.273  24.397  21.851  1.00  0.00     0.142 A 
HETATM   36  N4  UNL     1      56.599  24.583  20.545  1.00  0.00    -0.277 N 
HETATM   37  C10 UNL     1      54.978  24.862  21.966  1.00  0.00     0.201 A 
HETATM   38  N5  UNL     1      55.559  25.124  19.929  1.00  0.00    -0.213 N 
ATOM     39  H4  UNL     1      57.493  24.347  20.113  1.00  0.00     0.189 HD
HETATM   40  N6  UNL     1      54.564  25.306  20.757  1.00  0.00    -0.116 N 
ATOM     41  H5  UNL     1      55.537  25.366  18.939  1.00  0.00     0.211 HD
HETATM   42  N7  UNL     1      54.382  24.800  23.180  1.00  0.00    -0.170 N 
ATOM     43  H7  UNL     1      53.425  25.139  23.280  1.00  0.00     0.186 HD
BRANCH  33  44
HETATM   44  N3  UNL     1      58.159  23.448  22.829  1.00  0.00    -0.383 N 
ATOM     45  H32 UNL     1      58.891  23.754  23.470  1.00  0.00     0.157 HD
ATOM     46  H31 UNL     1      58.431  22.787  22.101  1.00  0.00     0.157 HD
ENDBRANCH  33  44
BRANCH  40  47
HETATM   47  O1  UNL     1      53.323  25.832  20.514  1.00  0.00    -0.149 OA
BRANCH  47  48
HETATM   48  C7  UNL     1      52.227  25.000  20.219  1.00  0.00     0.430 C 
HETATM   49  O2  UNL     1      52.465  23.768  20.218  1.00  0.00    -0.227 OA
BRANCH  48  50
HETATM   50  O3  UNL     1      50.967  25.445  19.944  1.00  0.00    -0.297 OA
BRANCH  50  51
HETATM   51  C8  UNL     1      50.256  26.346  20.806  1.00  0.00     0.177 C 
HETATM   52  C9  UNL     1      49.265  27.085  19.942  1.00  0.00     0.034 C 
ENDBRANCH  50  51
ENDBRANCH  48  50
ENDBRANCH  47  48
ENDBRANCH  40  47
ENDBRANCH  29  31
ENDBRANCH  26  29
BRANCH  28  53
HETATM   53  N8  UNL     1      52.416  20.289  25.333  1.00  0.00    -0.072 N 
ATOM     54  H83 UNL     1      51.737  19.557  25.128  1.00  0.00     0.274 HD
ATOM     55  H82 UNL     1      53.005  20.130  24.516  1.00  0.00     0.274 HD
ATOM     56  H81 UNL     1      52.901  20.168  26.223  1.00  0.00     0.274 HD
ENDBRANCH  28  53
ENDBRANCH  22  23
ENDBRANCH  14  22
BRANCH  15  57
HETATM   57  N14 UNL     1      48.816  19.991  27.970  1.00  0.00    -0.070 N 
ATOM     58 3H14 UNL     1      49.778  20.114  28.286  1.00  0.00     0.274 HD
ATOM     59 2H14 UNL     1      48.310  20.149  28.842  1.00  0.00     0.274 HD
ATOM     60 1H14 UNL     1      48.677  19.028  27.664  1.00  0.00     0.274 HD
ENDBRANCH  15  57
BRANCH  17  61
HETATM   61  N13 UNL     1      45.588  20.645  26.464  1.00  0.00    -0.072 N 
ATOM     62 3H13 UNL     1      44.974  21.412  26.738  1.00  0.00     0.274 HD
ATOM     63 2H13 UNL     1      44.881  20.006  26.100  1.00  0.00     0.274 HD
ATOM     64 1H13 UNL     1      46.080  20.249  27.264  1.00  0.00     0.274 HD
ENDBRANCH  17  61
ENDBRANCH  10  11
ENDBRANCH   6  10
BRANCH   7  65
HETATM   65  N12 UNL     1      43.511  23.287  23.124  1.00  0.00    -0.070 N 
ATOM     66 3H12 UNL     1      42.703  23.553  22.561  1.00  0.00     0.274 HD
ATOM     67 2H12 UNL     1      44.164  23.089  22.366  1.00  0.00     0.274 HD
ATOM     68 1H12 UNL     1      43.324  22.460  23.691  1.00  0.00     0.274 HD
ENDBRANCH   7  65
BRANCH   8  69
HETATM   69  O7  UNL     1      43.112  26.545  24.099  1.00  0.00    -0.387 OA
HETATM   70  C24 UNL     1      42.014  27.374  23.982  1.00  0.00     0.202 C 
ENDBRANCH   8  69
ENDBRANCH   1   4
TORSDOF 18
ENDMDL
MODEL 3
REMARK VINA RESULT: -9.708574247      1.583      2.140
REMARK  18 active torsions:
REMARK  status: ('A' for Active; 'I' for Inactive)
REMARK    1  A    between atoms: C3_3  and  N1_4 
REMARK    2  A    between atoms: N1_4  and  C4_6 
REMARK    3  A    between atoms: C5_9  and  N3_10 
REMARK    4  A    between atoms: N6_18  and  O1_19 
REMARK    5  A    between atoms: O1_19  and  C7_20 
REMARK    6  A    between atoms: C7_20  and  O3_22 
REMARK    7  A    between atoms: O3_22  and  C8_23 
REMARK    8  A    between atoms: C12_29  and  N8_30 
REMARK    9  A    between atoms: C13_34  and  O4_35 
REMARK   10  A    between atoms: O4_35  and  C14_36 
REMARK   11  A    between atoms: C15_38  and  N9_39 
REMARK   12  A    between atoms: C17_43  and  O6_44 
REMARK   13  A    between atoms: O6_44  and  C18_45 
REMARK   14  A    between atoms: N10_47  and  C20_48 
REMARK   15  A    between atoms: C23_52  and  O7_53 
REMARK   16  A    between atoms: C25_55  and  N12_56 
REMARK   17  A    between atoms: C26_60  and  N13_61 
REMARK   18  A    between atoms: C28_66  and  N14_67 
ROOT
HETATM    1  C20 UNL     1      54.264  22.061  21.038  1.00  0.00     0.241 C 
HETATM    2  C21 UNL     1      55.379  21.514  21.806  1.00  0.00     0.078 C 
HETATM    3  N11 UNL     1      56.272  21.060  22.407  1.00  0.00    -0.196 NA
ENDROOT
BRANCH   1   4
HETATM    4  N10 UNL     1      53.873  23.333  21.520  1.00  0.00    -0.396 N 
HETATM    5  C19 UNL     1      52.833  23.351  22.514  1.00  0.00     0.152 C 
HETATM    6  C18 UNL     1      53.486  23.839  23.829  1.00  0.00     0.172 C 
HETATM    7  C25 UNL     1      53.700  25.309  23.615  1.00  0.00     0.244 C 
HETATM    8  C23 UNL     1      54.343  25.598  22.271  1.00  0.00     0.171 C 
HETATM    9  C22 UNL     1      54.894  24.311  21.681  1.00  0.00     0.152 C 
BRANCH   6  10
HETATM   10  O6  UNL     1      52.672  23.669  24.916  1.00  0.00    -0.370 OA
BRANCH  10  11
HETATM   11  C17 UNL     1      51.701  22.733  24.915  1.00  0.00     0.208 C 
HETATM   12  C15 UNL     1      50.372  23.406  25.181  1.00  0.00     0.354 C 
HETATM   13  O5  UNL     1      49.341  23.005  24.375  1.00  0.00    -0.324 OA
HETATM   14  C14 UNL     1      48.647  21.912  24.972  1.00  0.00     0.293 C 
HETATM   15  C28 UNL     1      49.627  20.796  25.009  1.00  0.00     0.240 C 
HETATM   16  C27 UNL     1      50.508  20.976  26.232  1.00  0.00     0.073 C 
HETATM   17  C26 UNL     1      51.867  21.574  25.885  1.00  0.00     0.218 C 
BRANCH  12  18
HETATM   18  N9  UNL     1      50.478  24.861  25.090  1.00  0.00    -0.050 N 
HETATM   19  C16 UNL     1      51.104  25.422  26.252  1.00  0.00     0.270 C 
ATOM     20  H92 UNL     1      50.958  25.145  24.236  1.00  0.00     0.279 HD
ATOM     21  H91 UNL     1      49.569  25.289  24.914  1.00  0.00     0.279 HD
ENDBRANCH  12  18
BRANCH  14  22
HETATM   22  O4  UNL     1      47.459  21.678  24.306  1.00  0.00    -0.347 OA
BRANCH  22  23
HETATM   23  C13 UNL     1      46.539  22.653  24.526  1.00  0.00     0.185 C 
HETATM   24  C2  UNL     1      45.578  22.384  25.625  1.00  0.00    -0.035 C 
HETATM   25  C1  UNL     1      45.487  21.461  26.549  1.00  0.00     0.019 C 
HETATM   26  C3  UNL     1      44.595  23.536  25.402  1.00  0.00     0.132 C 
HETATM   27  C11 UNL     1      44.220  23.208  23.972  1.00  0.00     0.066 C 
HETATM   28  C12 UNL     1      45.589  22.902  23.349  1.00  0.00     0.218 C 
BRANCH  26  29
HETATM   29  N1  UNL     1      43.519  23.522  26.321  1.00  0.00    -0.217 N 
ATOM     30  H1  UNL     1      43.065  22.640  26.559  1.00  0.00     0.178 HD
BRANCH  29  31
HETATM   31  C4  UNL     1      43.110  24.619  26.858  1.00  0.00     0.682 A 
HETATM   32  N2  UNL     1      43.146  24.879  28.176  1.00  0.00    -0.175 N 
HETATM   33  C5  UNL     1      42.704  26.038  28.726  1.00  0.00     0.147 A 
ATOM     34  H2  UNL     1      43.527  24.166  28.797  1.00  0.00     0.186 HD
HETATM   35  C6  UNL     1      42.197  26.985  27.860  1.00  0.00     0.142 A 
HETATM   36  N4  UNL     1      41.676  28.229  28.030  1.00  0.00    -0.277 N 
HETATM   37  C10 UNL     1      42.143  26.758  26.498  1.00  0.00     0.201 A 
HETATM   38  N5  UNL     1      41.338  28.704  26.841  1.00  0.00    -0.213 N 
ATOM     39  H4  UNL     1      41.565  28.713  28.921  1.00  0.00     0.189 HD
HETATM   40  N6  UNL     1      41.605  27.842  25.895  1.00  0.00    -0.116 N 
ATOM     41  H5  UNL     1      40.923  29.623  26.684  1.00  0.00     0.211 HD
HETATM   42  N7  UNL     1      42.604  25.575  26.029  1.00  0.00    -0.170 N 
ATOM     43  H7  UNL     1      42.570  25.393  25.026  1.00  0.00     0.186 HD
BRANCH  33  44
HETATM   44  N3  UNL     1      42.754  26.252  29.996  1.00  0.00    -0.383 N 
ATOM     45  H32 UNL     1      41.989  26.718  30.484  1.00  0.00     0.157 HD
ATOM     46  H31 UNL     1      43.555  25.967  30.559  1.00  0.00     0.157 HD
ENDBRANCH  33  44
BRANCH  40  47
HETATM   47  O1  UNL     1      41.409  27.954  24.544  1.00  0.00    -0.149 OA
BRANCH  47  48
HETATM   48  C7  UNL     1      40.689  29.034  24.002  1.00  0.00     0.430 C 
HETATM   49  O2  UNL     1      39.619  29.324  24.590  1.00  0.00    -0.227 OA
BRANCH  48  50
HETATM   50  O3  UNL     1      41.077  29.756  22.911  1.00  0.00    -0.297 OA
BRANCH  50  51
HETATM   51  C8  UNL     1      40.143  30.292  21.962  1.00  0.00     0.177 C 
HETATM   52  C9  UNL     1      40.906  31.273  21.106  1.00  0.00     0.034 C 
ENDBRANCH  50  51
ENDBRANCH  48  50
ENDBRANCH  47  48
ENDBRANCH  40  47
ENDBRANCH  29  31
ENDBRANCH  26  29
BRANCH  28  53
HETATM   53  N8  UNL     1      45.942  24.110  22.633  1.00  0.00    -0.072 N 
ATOM     54  H83 UNL     1      45.578  24.964  23.053  1.00  0.00     0.274 HD
ATOM     55  H82 UNL     1      46.928  24.361  22.701  1.00  0.00     0.274 HD
ATOM     56  H81 UNL     1      45.621  23.947  21.678  1.00  0.00     0.274 HD
ENDBRANCH  28  53
ENDBRANCH  22  23
ENDBRANCH  14  22
BRANCH  15  57
HETATM   57  N14 UNL     1      49.096  19.472  25.044  1.00  0.00    -0.070 N 
ATOM     58 3H14 UNL     1      49.728  18.865  25.565  1.00  0.00     0.274 HD
ATOM     59 2H14 UNL     1      48.274  19.450  25.646  1.00  0.00     0.274 HD
ATOM     60 1H14 UNL     1      48.873  19.041  24.146  1.00  0.00     0.274 HD
ENDBRANCH  15  57
BRANCH  17  61
HETATM   61  N13 UNL     1      52.576  20.457  25.241  1.00  0.00    -0.072 N 
ATOM     62 3H13 UNL     1      52.132  19.561  25.442  1.00  0.00     0.274 HD
ATOM     63 2H13 UNL     1      52.452  20.463  24.228  1.00  0.00     0.274 HD
ATOM     64 1H13 UNL     1      53.562  20.459  25.502  1.00  0.00     0.274 HD
ENDBRANCH  17  61
ENDBRANCH  10  11
ENDBRANCH   6  10
BRANCH   7  65
HETATM   65  N12 UNL     1      54.455  25.862  24.695  1.00  0.00    -0.070 N 
ATOM     66 3H12 UNL     1      54.612  25.180  25.437  1.00  0.00     0.274 HD
ATOM     67 2H12 UNL     1      55.427  26.028  24.434  1.00  0.00     0.274 HD
ATOM     68 1H12 UNL     1      54.005  26.708  25.044  1.00  0.00     0.274 HD
ENDBRANCH   7  65
BRANCH   8  69
HETATM   69  O7  UNL     1      53.404  26.168  21.450  1.00  0.00    -0.387 OA
HETATM   70  C24 UNL     1      52.334  26.738  22.109  1.00  0.00     0.202 C 
ENDBRANCH   8  69
ENDBRANCH   1   4
TORSDOF 18
ENDMDL
MODEL 4
REMARK VINA RESULT: -9.608318937      2.456     11.754
REMARK  18 active torsions:
REMARK  status: ('A' for Active; 'I' for Inactive)
REMARK    1  A    between atoms: C3_3  and  N1_4 
REMARK    2  A    between atoms: N1_4  and  C4_6 
REMARK    3  A    between atoms: C5_9  and  N3_10 
REMARK    4  A    between atoms: N6_18  and  O1_19 
REMARK    5  A    between atoms: O1_19  and  C7_20 
REMARK    6  A    between atoms: C7_20  and  O3_22 
REMARK    7  A    between atoms: O3_22  and  C8_23 
REMARK    8  A    between atoms: C12_29  and  N8_30 
REMARK    9  A    between atoms: C13_34  and  O4_35 
REMARK   10  A    between atoms: O4_35  and  C14_36 
REMARK   11  A    between atoms: C15_38  and  N9_39 
REMARK   12  A    between atoms: C17_43  and  O6_44 
REMARK   13  A    between atoms: O6_44  and  C18_45 
REMARK   14  A    between atoms: N10_47  and  C20_48 
REMARK   15  A    between atoms: C23_52  and  O7_53 
REMARK   16  A    between atoms: C25_55  and  N12_56 
REMARK   17  A    between atoms: C26_60  and  N13_61 
REMARK   18  A    between atoms: C28_66  and  N14_67 
ROOT
HETATM    1  C20 UNL     1      43.622  25.033  28.094  1.00  0.00     0.241 C 
HETATM    2  C21 UNL     1      42.676  25.919  28.765  1.00  0.00     0.078 C 
HETATM    3  N11 UNL     1      41.924  26.619  29.321  1.00  0.00    -0.196 NA
ENDROOT
BRANCH   1   4
HETATM    4  N10 UNL     1      43.725  25.329  26.714  1.00  0.00    -0.396 N 
HETATM    5  C19 UNL     1      45.025  25.166  26.119  1.00  0.00     0.152 C 
HETATM    6  C18 UNL     1      44.913  23.981  25.131  1.00  0.00     0.172 C 
HETATM    7  C25 UNL     1      44.137  24.534  23.972  1.00  0.00     0.244 C 
HETATM    8  C23 UNL     1      42.901  25.288  24.426  1.00  0.00     0.171 C 
HETATM    9  C22 UNL     1      42.622  24.979  25.887  1.00  0.00     0.152 C 
BRANCH   6  10
HETATM   10  O6  UNL     1      46.134  23.556  24.678  1.00  0.00    -0.370 OA
BRANCH  10  11
HETATM   11  C17 UNL     1      46.976  22.880  25.485  1.00  0.00     0.208 C 
HETATM   12  C15 UNL     1      48.391  23.071  24.986  1.00  0.00     0.354 C 
HETATM   13  O5  UNL     1      49.321  23.345  25.952  1.00  0.00    -0.324 OA
HETATM   14  C14 UNL     1      49.899  22.135  26.437  1.00  0.00     0.293 C 
HETATM   15  C28 UNL     1      48.787  21.406  27.100  1.00  0.00     0.240 C 
HETATM   16  C27 UNL     1      47.998  20.667  26.034  1.00  0.00     0.073 C 
HETATM   17  C26 UNL     1      46.711  21.392  25.656  1.00  0.00     0.218 C 
BRANCH  12  18
HETATM   18  N9  UNL     1      48.467  24.121  23.973  1.00  0.00    -0.050 N 
HETATM   19  C16 UNL     1      49.817  24.550  23.750  1.00  0.00     0.270 C 
ATOM     20  H92 UNL     1      48.022  23.830  23.103  1.00  0.00     0.279 HD
ATOM     21  H91 UNL     1      47.862  24.908  24.207  1.00  0.00     0.279 HD
ENDBRANCH  12  18
BRANCH  14  22
HETATM   22  O4  UNL     1      51.011  22.411  27.208  1.00  0.00    -0.347 OA
BRANCH  22  23
HETATM   23  C13 UNL     1      52.166  22.346  26.495  1.00  0.00     0.185 C 
HETATM   24  C2  UNL     1      52.699  23.652  26.031  1.00  0.00    -0.035 C 
HETATM   25  C1  UNL     1      52.384  24.900  26.266  1.00  0.00     0.019 C 
HETATM   26  C3  UNL     1      53.809  23.164  25.094  1.00  0.00     0.132 C 
HETATM   27  C11 UNL     1      52.943  22.330  24.174  1.00  0.00     0.066 C 
HETATM   28  C12 UNL     1      52.050  21.581  25.172  1.00  0.00     0.218 C 
BRANCH  26  29
HETATM   29  N1  UNL     1      54.500  24.227  24.466  1.00  0.00    -0.217 N 
ATOM     30  H1  UNL     1      55.216  24.741  24.979  1.00  0.00     0.178 HD
BRANCH  29  31
HETATM   31  C4  UNL     1      54.230  24.547  23.249  1.00  0.00     0.682 A 
HETATM   32  N2  UNL     1      53.388  25.532  22.891  1.00  0.00    -0.175 N 
HETATM   33  C5  UNL     1      53.108  25.851  21.603  1.00  0.00     0.147 A 
ATOM     34  H2  UNL     1      52.935  26.070  23.629  1.00  0.00     0.186 HD
HETATM   35  C6  UNL     1      53.739  25.108  20.626  1.00  0.00     0.142 A 
HETATM   36  N4  UNL     1      53.713  25.130  19.267  1.00  0.00    -0.277 N 
HETATM   37  C10 UNL     1      54.611  24.087  20.950  1.00  0.00     0.201 A 
HETATM   38  N5  UNL     1      54.521  24.181  18.820  1.00  0.00    -0.213 N 
ATOM     39  H4  UNL     1      53.164  25.768  18.690  1.00  0.00     0.189 HD
HETATM   40  N6  UNL     1      55.079  23.533  19.808  1.00  0.00    -0.116 N 
ATOM     41  H5  UNL     1      54.687  23.983  17.833  1.00  0.00     0.211 HD
HETATM   42  N7  UNL     1      54.836  23.831  22.260  1.00  0.00    -0.170 N 
ATOM     43  H7  UNL     1      55.478  23.081  22.515  1.00  0.00     0.186 HD
BRANCH  33  44
HETATM   44  N3  UNL     1      52.295  26.804  21.298  1.00  0.00    -0.383 N 
ATOM     45  H32 UNL     1      52.588  27.580  20.704  1.00  0.00     0.157 HD
ATOM     46  H31 UNL     1      51.334  26.820  21.637  1.00  0.00     0.157 HD
ENDBRANCH  33  44
BRANCH  40  47
HETATM   47  O1  UNL     1      55.970  22.493  19.767  1.00  0.00    -0.149 OA
BRANCH  47  48
HETATM   48  C7  UNL     1      57.263  22.666  19.241  1.00  0.00     0.430 C 
HETATM   49  O2  UNL     1      58.131  23.069  20.053  1.00  0.00    -0.227 OA
BRANCH  48  50
HETATM   50  O3  UNL     1      57.610  22.430  17.943  1.00  0.00    -0.297 OA
BRANCH  50  51
HETATM   51  C8  UNL     1      57.769  23.481  16.978  1.00  0.00     0.177 C 
HETATM   52  C9  UNL     1      56.559  23.435  16.079  1.00  0.00     0.034 C 
ENDBRANCH  50  51
ENDBRANCH  48  50
ENDBRANCH  47  48
ENDBRANCH  40  47
ENDBRANCH  29  31
ENDBRANCH  26  29
BRANCH  28  53
HETATM   53  N8  UNL     1      52.641  20.263  25.272  1.00  0.00    -0.072 N 
ATOM     54  H83 UNL     1      52.876  19.984  26.225  1.00  0.00     0.274 HD
ATOM     55  H82 UNL     1      51.990  19.500  25.088  1.00  0.00     0.274 HD
ATOM     56  H81 UNL     1      53.440  20.290  24.638  1.00  0.00     0.274 HD
ENDBRANCH  28  53
ENDBRANCH  22  23
ENDBRANCH  14  22
BRANCH  15  57
HETATM   57  N14 UNL     1      49.145  20.463  28.110  1.00  0.00    -0.070 N 
ATOM     58 3H14 UNL     1      49.912  19.881  27.776  1.00  0.00     0.274 HD
ATOM     59 2H14 UNL     1      49.599  20.949  28.883  1.00  0.00     0.274 HD
ATOM     60 1H14 UNL     1      48.398  19.870  28.471  1.00  0.00     0.274 HD
ENDBRANCH  15  57
BRANCH  17  61
HETATM   61  N13 UNL     1      45.834  21.152  26.813  1.00  0.00    -0.072 N 
ATOM     62 3H13 UNL     1      46.071  20.284  27.294  1.00  0.00     0.274 HD
ATOM     63 2H13 UNL     1      46.024  21.804  27.574  1.00  0.00     0.274 HD
ATOM     64 1H13 UNL     1      44.854  21.174  26.531  1.00  0.00     0.274 HD
ENDBRANCH  17  61
ENDBRANCH  10  11
ENDBRANCH   6  10
BRANCH   7  65
HETATM   65  N12 UNL     1      43.813  23.491  23.050  1.00  0.00    -0.070 N 
ATOM     66 3H12 UNL     1      44.014  22.568  23.435  1.00  0.00     0.274 HD
ATOM     67 2H12 UNL     1      42.805  23.388  22.931  1.00  0.00     0.274 HD
ATOM     68 1H12 UNL     1      44.288  23.645  22.161  1.00  0.00     0.274 HD
ENDBRANCH   7  65
BRANCH   8  69
HETATM   69  O7  UNL     1      43.108  26.629  24.226  1.00  0.00    -0.387 OA
HETATM   70  C24 UNL     1      41.955  27.377  24.099  1.00  0.00     0.202 C 
ENDBRANCH   8  69
ENDBRANCH   1   4
TORSDOF 18
ENDMDL
MODEL 5
REMARK VINA RESULT: -9.353846862      2.750      4.371
REMARK  18 active torsions:
REMARK  status: ('A' for Active; 'I' for Inactive)
REMARK    1  A    between atoms: C3_3  and  N1_4 
REMARK    2  A    between atoms: N1_4  and  C4_6 
REMARK    3  A    between atoms: C5_9  and  N3_10 
REMARK    4  A    between atoms: N6_18  and  O1_19 
REMARK    5  A    between atoms: O1_19  and  C7_20 
REMARK    6  A    between atoms: C7_20  and  O3_22 
REMARK    7  A    between atoms: O3_22  and  C8_23 
REMARK    8  A    between atoms: C12_29  and  N8_30 
REMARK    9  A    between atoms: C13_34  and  O4_35 
REMARK   10  A    between atoms: O4_35  and  C14_36 
REMARK   11  A    between atoms: C15_38  and  N9_39 
REMARK   12  A    between atoms: C17_43  and  O6_44 
REMARK   13  A    between atoms: O6_44  and  C18_45 
REMARK   14  A    between atoms: N10_47  and  C20_48 
REMARK   15  A    between atoms: C23_52  and  O7_53 
REMARK   16  A    between atoms: C25_55  and  N12_56 
REMARK   17  A    between atoms: C26_60  and  N13_61 
REMARK   18  A    between atoms: C28_66  and  N14_67 
ROOT
HETATM    1  C20 UNL     1      54.947  21.606  21.342  1.00  0.00     0.241 C 
HETATM    2  C21 UNL     1      54.709  21.953  19.944  1.00  0.00     0.078 C 
HETATM    3  N11 UNL     1      54.516  22.210  18.821  1.00  0.00    -0.196 NA
ENDROOT
BRANCH   1   4
HETATM    4  N10 UNL     1      55.054  22.760  22.155  1.00  0.00    -0.396 N 
HETATM    5  C19 UNL     1      53.819  23.376  22.559  1.00  0.00     0.152 C 
HETATM    6  C18 UNL     1      53.704  23.176  24.089  1.00  0.00     0.172 C 
HETATM    7  C25 UNL     1      54.703  24.136  24.666  1.00  0.00     0.244 C 
HETATM    8  C23 UNL     1      56.046  24.045  23.966  1.00  0.00     0.171 C 
HETATM    9  C22 UNL     1      56.098  22.783  23.122  1.00  0.00     0.152 C 
BRANCH   6  10
HETATM   10  O6  UNL     1      52.462  23.494  24.570  1.00  0.00    -0.370 OA
BRANCH  10  11
HETATM   11  C17 UNL     1      51.525  22.542  24.750  1.00  0.00     0.208 C 
HETATM   12  C15 UNL     1      50.191  23.210  25.005  1.00  0.00     0.354 C 
HETATM   13  O5  UNL     1      49.130  22.679  24.324  1.00  0.00    -0.324 OA
HETATM   14  C14 UNL     1      48.508  21.658  25.099  1.00  0.00     0.293 C 
HETATM   15  C28 UNL     1      49.525  20.582  25.223  1.00  0.00     0.240 C 
HETATM   16  C27 UNL     1      50.468  20.945  26.356  1.00  0.00     0.073 C 
HETATM   17  C26 UNL     1      51.784  21.526  25.852  1.00  0.00     0.218 C 
BRANCH  12  18
HETATM   18  N9  UNL     1      50.244  24.642  24.719  1.00  0.00    -0.050 N 
HETATM   19  C16 UNL     1      49.974  24.920  23.339  1.00  0.00     0.270 C 
ATOM     20  H92 UNL     1      49.620  25.166  25.332  1.00  0.00     0.279 HD
ATOM     21  H91 UNL     1      51.134  25.047  25.012  1.00  0.00     0.279 HD
ENDBRANCH  12  18
BRANCH  14  22
HETATM   22  O4  UNL     1      47.293  21.307  24.543  1.00  0.00    -0.347 OA
BRANCH  22  23
HETATM   23  C13 UNL     1      46.272  22.082  24.993  1.00  0.00     0.185 C 
HETATM   24  C2  UNL     1      45.589  22.896  23.958  1.00  0.00    -0.035 C 
HETATM   25  C1  UNL     1      45.650  22.947  22.651  1.00  0.00     0.019 C 
HETATM   26  C3  UNL     1      44.715  23.780  24.854  1.00  0.00     0.132 C 
HETATM   27  C11 UNL     1      45.826  24.387  25.683  1.00  0.00     0.066 C 
HETATM   28  C12 UNL     1      46.694  23.161  25.997  1.00  0.00     0.218 C 
BRANCH  26  29
HETATM   29  N1  UNL     1      43.940  24.708  24.118  1.00  0.00    -0.217 N 
ATOM     30  H1  UNL     1      43.923  24.661  23.099  1.00  0.00     0.178 HD
BRANCH  29  31
HETATM   31  C4  UNL     1      43.258  25.612  24.729  1.00  0.00     0.682 A 
HETATM   32  N2  UNL     1      42.491  26.530  24.117  1.00  0.00    -0.175 N 
HETATM   33  C5  UNL     1      41.783  27.481  24.776  1.00  0.00     0.147 A 
ATOM     34  H2  UNL     1      42.437  26.510  23.098  1.00  0.00     0.186 HD
HETATM   35  C6  UNL     1      41.873  27.480  26.153  1.00  0.00     0.142 A 
HETATM   36  N4  UNL     1      41.327  28.253  27.129  1.00  0.00    -0.277 N 
HETATM   37  C10 UNL     1      42.649  26.554  26.823  1.00  0.00     0.201 A 
HETATM   38  N5  UNL     1      41.755  27.807  28.301  1.00  0.00    -0.213 N 
ATOM     39  H4  UNL     1      40.696  29.041  26.984  1.00  0.00     0.189 HD
HETATM   40  N6  UNL     1      42.555  26.784  28.152  1.00  0.00    -0.116 N 
ATOM     41  H5  UNL     1      41.494  28.210  29.201  1.00  0.00     0.211 HD
HETATM   42  N7  UNL     1      43.325  25.639  26.090  1.00  0.00    -0.170 N 
ATOM     43  H7  UNL     1      43.902  24.948  26.570  1.00  0.00     0.186 HD
BRANCH  33  44
HETATM   44  N3  UNL     1      41.058  28.345  24.153  1.00  0.00    -0.383 N 
ATOM     45  H32 UNL     1      40.599  28.114  23.273  1.00  0.00     0.157 HD
ATOM     46  H31 UNL     1      40.917  29.289  24.513  1.00  0.00     0.157 HD
ENDBRANCH  33  44
BRANCH  40  47
HETATM   47  O1  UNL     1      43.199  26.044  29.109  1.00  0.00    -0.149 OA
BRANCH  47  48
HETATM   48  C7  UNL     1      42.923  24.674  29.273  1.00  0.00     0.430 C 
HETATM   49  O2  UNL     1      42.282  24.369  30.307  1.00  0.00    -0.227 OA
BRANCH  48  50
HETATM   50  O3  UNL     1      43.304  23.697  28.400  1.00  0.00    -0.297 OA
BRANCH  50  51
HETATM   51  C8  UNL     1      43.049  22.304  28.635  1.00  0.00     0.177 C 
HETATM   52  C9  UNL     1      42.951  21.644  27.282  1.00  0.00     0.034 C 
ENDBRANCH  50  51
ENDBRANCH  48  50
ENDBRANCH  47  48
ENDBRANCH  40  47
ENDBRANCH  29  31
ENDBRANCH  26  29
BRANCH  28  53
HETATM   53  N8  UNL     1      46.331  22.794  27.349  1.00  0.00    -0.072 N 
ATOM     54  H83 UNL     1      45.326  22.788  27.523  1.00  0.00     0.274 HD
ATOM     55  H82 UNL     1      46.490  21.811  27.571  1.00  0.00     0.274 HD
ATOM     56  H81 UNL     1      46.850  23.443  27.941  1.00  0.00     0.274 HD
ENDBRANCH  28  53
ENDBRANCH  22  23
ENDBRANCH  14  22
BRANCH  15  57
HETATM   57  N14 UNL     1      49.042  19.261  25.463  1.00  0.00    -0.070 N 
ATOM     58 3H14 UNL     1      49.785  18.696  25.873  1.00  0.00     0.274 HD
ATOM     59 2H14 UNL     1      48.372  19.278  26.231  1.00  0.00     0.274 HD
ATOM     60 1H14 UNL     1      48.638  18.767  24.668  1.00  0.00     0.274 HD
ENDBRANCH  15  57
BRANCH  17  61
HETATM   61  N13 UNL     1      52.492  20.352  25.318  1.00  0.00    -0.072 N 
ATOM     62 3H13 UNL     1      52.112  19.481  25.687  1.00  0.00     0.274 HD
ATOM     63 2H13 UNL     1      52.286  20.202  24.331  1.00  0.00     0.274 HD
ATOM     64 1H13 UNL     1      53.495  20.430  25.488  1.00  0.00     0.274 HD
ENDBRANCH  17  61
ENDBRANCH  10  11
ENDBRANCH   6  10
BRANCH   7  65
HETATM   65  N12 UNL     1      54.824  23.938  26.075  1.00  0.00    -0.070 N 
ATOM     66 3H12 UNL     1      53.923  23.735  26.510  1.00  0.00     0.274 HD
ATOM     67 2H12 UNL     1      55.298  23.063  26.297  1.00  0.00     0.274 HD
ATOM     68 1H12 UNL     1      55.283  24.740  26.507  1.00  0.00     0.274 HD
ENDBRANCH   7  65
BRANCH   8  69
HETATM   69  O7  UNL     1      56.219  25.170  23.201  1.00  0.00    -0.387 OA
HETATM   70  C24 UNL     1      55.531  26.280  23.647  1.00  0.00     0.202 C 
ENDBRANCH   8  69
ENDBRANCH   1   4
TORSDOF 18
ENDMDL
