MODEL 1
REMARK VINA RESULT: -10.557458840      0.000      0.000
REMARK  4 active torsions:
REMARK  status: ('A' for Active; 'I' for Inactive)
REMARK    1  A    between atoms: C2_2  and  C3_3 
REMARK    2  A    between atoms: C6_8  and  O1_9 
REMARK    3  A    between atoms: O1_9  and  N2_10 
REMARK    4  A    between atoms: C11_16  and  C12_17 
ROOT
HETATM    1  C3  UNL     1      26.462 -10.818   7.079  1.00  0.00     0.081 A 
HETATM    2  N1  UNL     1      26.817 -12.077   6.787  1.00  0.00    -0.344 N 
ATOM      3  H1  UNL     1      27.768 -12.444   6.780  1.00  0.00     0.167 HD
HETATM    4  C4  UNL     1      25.677 -12.787   6.501  1.00  0.00     0.065 A 
HETATM    5  C5  UNL     1      25.474 -14.080   6.150  1.00  0.00     0.071 A 
HETATM    6  C6  UNL     1      24.195 -14.551   5.912  1.00  0.00     0.102 A 
HETATM    7  C18 UNL     1      23.129 -13.658   6.045  1.00  0.00     0.065 A 
HETATM    8  C19 UNL     1      23.344 -12.355   6.400  1.00  0.00     0.065 A 
HETATM    9 CL1  UNL     1      22.023 -11.221   6.571  1.00  0.00    -0.082 Cl
HETATM   10  C20 UNL     1      24.624 -11.910   6.630  1.00  0.00     0.082 A 
HETATM   11  N3  UNL     1      25.127 -10.703   6.987  1.00  0.00    -0.343 N 
ATOM     12  H3  UNL     1      24.586  -9.855   7.157  1.00  0.00     0.167 HD
ENDROOT
BRANCH   6  13
HETATM   13  O1  UNL     1      23.986 -15.860   5.554  1.00  0.00    -0.238 OA
BRANCH  13  14
HETATM   14  N2  UNL     1      24.002 -16.930   6.284  1.00  0.00    -0.269 N 
HETATM   15  C7  UNL     1      24.789 -17.645   6.935  1.00  0.00     0.015 C 
HETATM   16  C8  UNL     1      26.243 -17.474   7.124  1.00  0.00     0.055 C 
HETATM   17  C11 UNL     1      24.486 -18.892   7.728  1.00  0.00     0.037 C 
HETATM   18  C9  UNL     1      26.769 -18.889   6.968  1.00  0.00     0.006 C 
HETATM   19  C10 UNL     1      25.606 -19.802   7.273  1.00  0.00     0.011 C 
ATOM     20  H2  UNL     1      23.059 -17.315   6.347  1.00  0.00     0.194 HD
BRANCH  17  21
HETATM   21  C12 UNL     1      23.184 -19.522   7.298  1.00  0.00    -0.005 C 
HETATM   22  C13 UNL     1      21.975 -18.864   7.871  1.00  0.00     0.005 C 
HETATM   23  C14 UNL     1      20.917 -19.917   8.125  1.00  0.00     0.000 C 
HETATM   24  C15 UNL     1      21.317 -20.864   9.236  1.00  0.00     0.000 C 
HETATM   25  C16 UNL     1      22.827 -20.967   9.219  1.00  0.00     0.000 C 
HETATM   26  C17 UNL     1      23.232 -20.969   7.740  1.00  0.00     0.005 C 
ENDBRANCH  17  21
ENDBRANCH  13  14
ENDBRANCH   6  13
BRANCH   1  27
HETATM   27  C2  UNL     1      27.395  -9.739   7.441  1.00  0.00     0.072 C 
HETATM   28  C1  UNL     1      26.649  -8.438   7.759  1.00  0.00     0.013 C 
ENDBRANCH   1  27
TORSDOF 4
ENDMDL
MODEL 2
REMARK VINA RESULT: -10.067424858      1.957      3.188
REMARK  4 active torsions:
REMARK  status: ('A' for Active; 'I' for Inactive)
REMARK    1  A    between atoms: C2_2  and  C3_3 
REMARK    2  A    between atoms: C6_8  and  O1_9 
REMARK    3  A    between atoms: O1_9  and  N2_10 
REMARK    4  A    between atoms: C11_16  and  C12_17 
ROOT
HETATM    1  C3  UNL     1      21.270 -11.948   6.178  1.00  0.00     0.081 A 
HETATM    2  N1  UNL     1      21.390 -13.265   5.959  1.00  0.00    -0.344 N 
ATOM      3  H1  UNL     1      20.641 -13.894   5.671  1.00  0.00     0.167 HD
HETATM    4  C4  UNL     1      22.696 -13.619   6.191  1.00  0.00     0.065 A 
HETATM    5  C5  UNL     1      23.344 -14.808   6.115  1.00  0.00     0.071 A 
HETATM    6  C6  UNL     1      24.693 -14.891   6.407  1.00  0.00     0.102 A 
HETATM    7  C18 UNL     1      25.361 -13.721   6.778  1.00  0.00     0.065 A 
HETATM    8  C19 UNL     1      24.699 -12.527   6.850  1.00  0.00     0.065 A 
HETATM    9 CL1  UNL     1      25.516 -11.052   7.313  1.00  0.00    -0.082 Cl
HETATM   10  C20 UNL     1      23.358 -12.469   6.556  1.00  0.00     0.082 A 
HETATM   11  N3  UNL     1      22.462 -11.451   6.542  1.00  0.00    -0.343 N 
ATOM     12  H3  UNL     1      22.661 -10.476   6.769  1.00  0.00     0.167 HD
ENDROOT
BRANCH   6  13
HETATM   13  O1  UNL     1      25.353 -16.093   6.334  1.00  0.00    -0.238 OA
BRANCH  13  14
HETATM   14  N2  UNL     1      25.066 -17.228   6.890  1.00  0.00    -0.269 N 
HETATM   15  C7  UNL     1      25.613 -18.183   7.478  1.00  0.00     0.015 C 
HETATM   16  C8  UNL     1      27.042 -18.369   7.795  1.00  0.00     0.055 C 
HETATM   17  C11 UNL     1      24.972 -19.425   8.044  1.00  0.00     0.037 C 
HETATM   18  C9  UNL     1      27.271 -19.832   7.460  1.00  0.00     0.006 C 
HETATM   19  C10 UNL     1      25.915 -20.493   7.536  1.00  0.00     0.011 C 
ATOM     20  H2  UNL     1      24.063 -17.397   6.825  1.00  0.00     0.194 HD
BRANCH  17  21
HETATM   21  C12 UNL     1      23.618 -19.683   7.429  1.00  0.00    -0.005 C 
HETATM   22  C13 UNL     1      22.567 -18.713   7.851  1.00  0.00     0.005 C 
HETATM   23  C14 UNL     1      21.240 -19.435   7.937  1.00  0.00     0.000 C 
HETATM   24  C15 UNL     1      21.214 -20.440   9.070  1.00  0.00     0.000 C 
HETATM   25  C16 UNL     1      22.627 -20.949   9.252  1.00  0.00     0.000 C 
HETATM   26  C17 UNL     1      23.212 -21.082   7.841  1.00  0.00     0.005 C 
ENDBRANCH  17  21
ENDBRANCH  13  14
ENDBRANCH   6  13
BRANCH   1  27
HETATM   27  C2  UNL     1      20.024 -11.178   6.039  1.00  0.00     0.072 C 
HETATM   28  C1  UNL     1      18.816 -12.100   5.839  1.00  0.00     0.013 C 
ENDBRANCH   1  27
TORSDOF 4
ENDMDL
MODEL 3
REMARK VINA RESULT: -9.967418330      1.507      3.313
REMARK  4 active torsions:
REMARK  status: ('A' for Active; 'I' for Inactive)
REMARK    1  A    between atoms: C2_2  and  C3_3 
REMARK    2  A    between atoms: C6_8  and  O1_9 
REMARK    3  A    between atoms: O1_9  and  N2_10 
REMARK    4  A    between atoms: C11_16  and  C12_17 
ROOT
HETATM    1  C3  UNL     1      24.532 -11.464   6.453  1.00  0.00     0.081 A 
HETATM    2  N1  UNL     1      24.803 -12.743   6.750  1.00  0.00    -0.344 N 
ATOM      3  H1  UNL     1      25.727 -13.128   6.945  1.00  0.00     0.167 HD
HETATM    4  C4  UNL     1      23.622 -13.442   6.746  1.00  0.00     0.065 A 
HETATM    5  C5  UNL     1      23.335 -14.747   6.979  1.00  0.00     0.071 A 
HETATM    6  C6  UNL     1      22.032 -15.203   6.910  1.00  0.00     0.102 A 
HETATM    7  C18 UNL     1      21.028 -14.283   6.596  1.00  0.00     0.065 A 
HETATM    8  C19 UNL     1      21.326 -12.969   6.363  1.00  0.00     0.065 A 
HETATM    9 CL1  UNL     1      20.085 -11.803   5.967  1.00  0.00    -0.082 Cl
HETATM   10  C20 UNL     1      22.630 -12.540   6.437  1.00  0.00     0.082 A 
HETATM   11  N3  UNL     1      23.210 -11.327   6.260  1.00  0.00    -0.343 N 
ATOM     12  H3  UNL     1      22.726 -10.461   6.022  1.00  0.00     0.167 HD
ENDROOT
BRANCH   6  13
HETATM   13  O1  UNL     1      21.738 -16.524   7.143  1.00  0.00    -0.238 OA
BRANCH  13  14
HETATM   14  N2  UNL     1      22.535 -17.530   7.315  1.00  0.00    -0.269 N 
HETATM   15  C7  UNL     1      22.513 -18.769   7.456  1.00  0.00     0.015 C 
HETATM   16  C8  UNL     1      21.344 -19.670   7.478  1.00  0.00     0.055 C 
HETATM   17  C11 UNL     1      23.675 -19.713   7.639  1.00  0.00     0.037 C 
HETATM   18  C9  UNL     1      21.671 -20.615   8.619  1.00  0.00     0.006 C 
HETATM   19  C10 UNL     1      23.172 -20.572   8.779  1.00  0.00     0.011 C 
ATOM     20  H2  UNL     1      23.500 -17.201   7.346  1.00  0.00     0.194 HD
BRANCH  17  21
HETATM   21  C12 UNL     1      24.909 -18.990   8.124  1.00  0.00    -0.005 C 
HETATM   22  C13 UNL     1      25.814 -18.537   7.029  1.00  0.00     0.005 C 
HETATM   23  C14 UNL     1      27.247 -18.631   7.508  1.00  0.00     0.000 C 
HETATM   24  C15 UNL     1      27.685 -20.067   7.705  1.00  0.00     0.000 C 
HETATM   25  C16 UNL     1      26.459 -20.861   8.101  1.00  0.00     0.000 C 
HETATM   26  C17 UNL     1      25.649 -19.950   9.030  1.00  0.00     0.005 C 
ENDBRANCH  17  21
ENDBRANCH  13  14
ENDBRANCH   6  13
BRANCH   1  27
HETATM   27  C2  UNL     1      25.530 -10.388   6.356  1.00  0.00     0.072 C 
HETATM   28  C1  UNL     1      26.407 -10.324   7.611  1.00  0.00     0.013 C 
ENDBRANCH   1  27
TORSDOF 4
ENDMDL
MODEL 4
REMARK VINA RESULT: -9.838617651      1.416      1.579
REMARK  4 active torsions:
REMARK  status: ('A' for Active; 'I' for Inactive)
REMARK    1  A    between atoms: C2_2  and  C3_3 
REMARK    2  A    between atoms: C6_8  and  O1_9 
REMARK    3  A    between atoms: O1_9  and  N2_10 
REMARK    4  A    between atoms: C11_16  and  C12_17 
ROOT
HETATM    1  C3  UNL     1      25.878 -10.029   6.472  1.00  0.00     0.081 A 
HETATM    2  N1  UNL     1      25.474 -10.884   5.522  1.00  0.00    -0.344 N 
ATOM      3  H1  UNL     1      25.330 -10.661   4.538  1.00  0.00     0.167 HD
HETATM    4  C4  UNL     1      25.288 -12.113   6.105  1.00  0.00     0.065 A 
HETATM    5  C5  UNL     1      24.891 -13.309   5.603  1.00  0.00     0.071 A 
HETATM    6  C6  UNL     1      24.784 -14.415   6.426  1.00  0.00     0.102 A 
HETATM    7  C18 UNL     1      25.095 -14.262   7.780  1.00  0.00     0.065 A 
HETATM    8  C19 UNL     1      25.495 -13.053   8.277  1.00  0.00     0.065 A 
HETATM    9 CL1  UNL     1      25.889 -12.841   9.967  1.00  0.00    -0.082 Cl
HETATM   10  C20 UNL     1      25.594 -11.968   7.439  1.00  0.00     0.082 A 
HETATM   11  N3  UNL     1      25.956 -10.677   7.645  1.00  0.00    -0.343 N 
ATOM     12  H3  UNL     1      26.238 -10.270   8.537  1.00  0.00     0.167 HD
ENDROOT
BRANCH   6  13
HETATM   13  O1  UNL     1      24.379 -15.626   5.922  1.00  0.00    -0.238 OA
BRANCH  13  14
HETATM   14  N2  UNL     1      24.276 -16.775   6.512  1.00  0.00    -0.269 N 
HETATM   15  C7  UNL     1      24.980 -17.658   7.042  1.00  0.00     0.015 C 
HETATM   16  C8  UNL     1      26.447 -17.689   7.201  1.00  0.00     0.055 C 
HETATM   17  C11 UNL     1      24.540 -18.949   7.684  1.00  0.00     0.037 C 
HETATM   18  C9  UNL     1      26.791 -19.125   6.852  1.00  0.00     0.006 C 
HETATM   19  C10 UNL     1      25.529 -19.922   7.081  1.00  0.00     0.011 C 
ATOM     20  H2  UNL     1      23.295 -17.048   6.560  1.00  0.00     0.194 HD
BRANCH  17  21
HETATM   21  C12 UNL     1      23.161 -19.358   7.223  1.00  0.00    -0.005 C 
HETATM   22  C13 UNL     1      22.056 -18.596   7.873  1.00  0.00     0.005 C 
HETATM   23  C14 UNL     1      20.867 -19.515   8.053  1.00  0.00     0.000 C 
HETATM   24  C15 UNL     1      21.141 -20.603   9.071  1.00  0.00     0.000 C 
HETATM   25  C16 UNL     1      22.623 -20.906   9.017  1.00  0.00     0.000 C 
HETATM   26  C17 UNL     1      23.015 -20.831   7.537  1.00  0.00     0.005 C 
ENDBRANCH  17  21
ENDBRANCH  13  14
ENDBRANCH   6  13
BRANCH   1  27
HETATM   27  C2  UNL     1      26.186  -8.607   6.253  1.00  0.00     0.072 C 
HETATM   28  C1  UNL     1      26.637  -7.927   7.550  1.00  0.00     0.013 C 
ENDBRANCH   1  27
TORSDOF 4
ENDMDL
MODEL 5
REMARK VINA RESULT: -9.721411415      1.254      1.536
REMARK  4 active torsions:
REMARK  status: ('A' for Active; 'I' for Inactive)
REMARK    1  A    between atoms: C2_2  and  C3_3 
REMARK    2  A    between atoms: C6_8  and  O1_9 
REMARK    3  A    between atoms: O1_9  and  N2_10 
REMARK    4  A    between atoms: C11_16  and  C12_17 
ROOT
HETATM    1  C3  UNL     1      26.451  -9.585   6.642  1.00  0.00     0.081 A 
HETATM    2  N1  UNL     1      27.323 -10.602   6.630  1.00  0.00    -0.344 N 
ATOM      3  H1  UNL     1      28.339 -10.519   6.629  1.00  0.00     0.167 HD
HETATM    4  C4  UNL     1      26.610 -11.775   6.618  1.00  0.00     0.065 A 
HETATM    5  C5  UNL     1      26.996 -13.075   6.603  1.00  0.00     0.071 A 
HETATM    6  C6  UNL     1      26.054 -14.087   6.594  1.00  0.00     0.102 A 
HETATM    7  C18 UNL     1      24.703 -13.730   6.599  1.00  0.00     0.065 A 
HETATM    8  C19 UNL     1      24.323 -12.417   6.614  1.00  0.00     0.065 A 
HETATM    9 CL1  UNL     1      22.638 -11.949   6.621  1.00  0.00    -0.082 Cl
HETATM   10  C20 UNL     1      25.278 -11.428   6.623  1.00  0.00     0.082 A 
HETATM   11  N3  UNL     1      25.201 -10.075   6.639  1.00  0.00    -0.343 N 
ATOM     12  H3  UNL     1      24.342  -9.524   6.646  1.00  0.00     0.167 HD
ENDROOT
BRANCH   6  13
HETATM   13  O1  UNL     1      26.441 -15.405   6.576  1.00  0.00    -0.238 OA
BRANCH  13  14
HETATM   14  N2  UNL     1      25.774 -16.467   6.902  1.00  0.00    -0.269 N 
HETATM   15  C7  UNL     1      25.950 -17.636   7.298  1.00  0.00     0.015 C 
HETATM   16  C8  UNL     1      27.223 -18.329   7.578  1.00  0.00     0.055 C 
HETATM   17  C11 UNL     1      24.914 -18.686   7.613  1.00  0.00     0.037 C 
HETATM   18  C9  UNL     1      26.998 -19.701   6.969  1.00  0.00     0.006 C 
HETATM   19  C10 UNL     1      25.502 -19.891   6.912  1.00  0.00     0.011 C 
ATOM     20  H2  UNL     1      24.775 -16.287   6.803  1.00  0.00     0.194 HD
BRANCH  17  21
HETATM   21  C12 UNL     1      23.591 -18.377   6.955  1.00  0.00    -0.005 C 
HETATM   22  C13 UNL     1      22.774 -17.366   7.686  1.00  0.00     0.005 C 
HETATM   23  C14 UNL     1      21.309 -17.716   7.532  1.00  0.00     0.000 C 
HETATM   24  C15 UNL     1      20.952 -18.996   8.259  1.00  0.00     0.000 C 
HETATM   25  C16 UNL     1      22.183 -19.876   8.249  1.00  0.00     0.000 C 
HETATM   26  C17 UNL     1      22.830 -19.682   6.873  1.00  0.00     0.005 C 
ENDBRANCH  17  21
ENDBRANCH  13  14
ENDBRANCH   6  13
BRANCH   1  27
HETATM   27  C2  UNL     1      26.815  -8.159   6.657  1.00  0.00     0.072 C 
HETATM   28  C1  UNL     1      26.768  -7.584   8.077  1.00  0.00     0.013 C 
ENDBRANCH   1  27
TORSDOF 4
ENDMDL
