MODEL 1
REMARK VINA RESULT: -9.402969803      0.000      0.000
REMARK  4 active torsions:
REMARK  status: ('A' for Active; 'I' for Inactive)
REMARK    1  A    between atoms: C4_5  and  C5_6 
REMARK    2  A    between atoms: C6_9  and  C7_10 
REMARK    3  A    between atoms: C7_10  and  N2_11 
REMARK    4  A    between atoms: N2_11  and  C8_13 
ROOT
HETATM    1  C5  UNL     1      24.543 -18.627   7.167  1.00  0.00     0.084 A 
HETATM    2  N1  UNL     1      24.832 -17.345   7.041  1.00  0.00    -0.351 N 
ATOM      3  H1  UNL     1      24.086 -16.671   6.871  1.00  0.00     0.166 HD
HETATM    4  C6  UNL     1      26.055 -16.939   7.133  1.00  0.00     0.034 A 
HETATM    5  C18 UNL     1      27.023 -17.887   7.364  1.00  0.00     0.078 A 
HETATM    6  S1  UNL     1      26.080 -19.320   7.432  1.00  0.00    -0.081 SA
ENDROOT
BRANCH   4   7
HETATM    7  C7  UNL     1      26.452 -15.483   7.004  1.00  0.00     0.172 C 
BRANCH   7   8
HETATM    8  N2  UNL     1      25.497 -14.731   7.721  1.00  0.00    -0.407 N 
ATOM      9  H2  UNL     1      25.410 -14.812   8.735  1.00  0.00     0.154 HD
BRANCH   8  10
HETATM   10  C8  UNL     1      24.662 -13.859   6.975  1.00  0.00     0.027 C 
HETATM   11  C9  UNL     1      24.876 -12.395   7.232  1.00  0.00     0.035 C 
HETATM   12  C10 UNL     1      24.002 -11.609   6.280  1.00  0.00    -0.012 C 
HETATM   13  C11 UNL     1      24.280 -11.912   4.836  1.00  0.00     0.009 C 
HETATM   14  C15 UNL     1      22.554 -11.909   6.640  1.00  0.00     0.009 C 
HETATM   15  C12 UNL     1      23.970 -13.372   4.612  1.00  0.00    -0.012 C 
HETATM   16  C13 UNL     1      22.539 -13.702   4.959  1.00  0.00     0.009 C 
HETATM   17  C17 UNL     1      24.879 -14.163   5.511  1.00  0.00     0.035 C 
HETATM   18  C14 UNL     1      22.307 -13.373   6.407  1.00  0.00    -0.012 C 
HETATM   19  C16 UNL     1      23.207 -14.173   7.308  1.00  0.00     0.035 C 
ENDBRANCH   8  10
ENDBRANCH   7   8
ENDBRANCH   4   7
BRANCH   1  20
HETATM   20  C4  UNL     1      23.223 -19.289   7.096  1.00  0.00    -0.002 A 
HETATM   21  C3  UNL     1      22.912 -20.233   6.154  1.00  0.00     0.016 A 
HETATM   22  C2  UNL     1      21.656 -20.840   6.115  1.00  0.00     0.024 A 
HETATM   23  C1  UNL     1      20.703 -20.487   7.041  1.00  0.00     0.034 A 
HETATM   24 CL1  UNL     1      19.118 -21.269   6.983  1.00  0.00    -0.084 Cl
HETATM   25  C20 UNL     1      21.000 -19.535   7.998  1.00  0.00     0.024 A 
HETATM   26  C19 UNL     1      22.267 -18.939   8.019  1.00  0.00     0.016 A 
ENDBRANCH   1  20
TORSDOF 4
ENDMDL
MODEL 2
REMARK VINA RESULT: -9.401759105      0.125      1.521
REMARK  4 active torsions:
REMARK  status: ('A' for Active; 'I' for Inactive)
REMARK    1  A    between atoms: C4_5  and  C5_6 
REMARK    2  A    between atoms: C6_9  and  C7_10 
REMARK    3  A    between atoms: C7_10  and  N2_11 
REMARK    4  A    between atoms: N2_11  and  C8_13 
ROOT
HETATM    1  C5  UNL     1      24.558 -18.634   7.163  1.00  0.00     0.084 A 
HETATM    2  N1  UNL     1      24.850 -17.351   7.056  1.00  0.00    -0.351 N 
ATOM      3  H1  UNL     1      24.104 -16.673   6.903  1.00  0.00     0.166 HD
HETATM    4  C6  UNL     1      26.074 -16.950   7.143  1.00  0.00     0.034 A 
HETATM    5  C18 UNL     1      27.042 -17.904   7.350  1.00  0.00     0.078 A 
HETATM    6  S1  UNL     1      26.096 -19.335   7.403  1.00  0.00    -0.081 SA
ENDROOT
BRANCH   4   7
HETATM    7  C7  UNL     1      26.474 -15.492   7.035  1.00  0.00     0.172 C 
BRANCH   7   8
HETATM    8  N2  UNL     1      25.462 -14.740   7.670  1.00  0.00    -0.407 N 
ATOM      9  H2  UNL     1      25.347 -14.754   8.683  1.00  0.00     0.154 HD
BRANCH   8  10
HETATM   10  C8  UNL     1      24.612 -13.964   6.840  1.00  0.00     0.027 C 
HETATM   11  C9  UNL     1      24.773 -14.197   5.365  1.00  0.00     0.035 C 
HETATM   12  C10 UNL     1      23.721 -13.391   4.635  1.00  0.00    -0.012 C 
HETATM   13  C11 UNL     1      22.319 -13.736   5.049  1.00  0.00     0.009 C 
HETATM   14  C15 UNL     1      24.025 -11.920   4.881  1.00  0.00     0.009 C 
HETATM   15  C12 UNL     1      22.186 -13.405   6.516  1.00  0.00    -0.012 C 
HETATM   16  C13 UNL     1      22.481 -11.951   6.793  1.00  0.00     0.009 C 
HETATM   17  C17 UNL     1      23.187 -14.249   7.255  1.00  0.00     0.035 C 
HETATM   18  C14 UNL     1      23.886 -11.653   6.354  1.00  0.00    -0.012 C 
HETATM   19  C16 UNL     1      24.889 -12.487   7.102  1.00  0.00     0.035 C 
ENDBRANCH   8  10
ENDBRANCH   7   8
ENDBRANCH   4   7
BRANCH   1  20
HETATM   20  C4  UNL     1      23.236 -19.292   7.093  1.00  0.00    -0.002 A 
HETATM   21  C3  UNL     1      22.925 -20.244   6.160  1.00  0.00     0.016 A 
HETATM   22  C2  UNL     1      21.667 -20.847   6.121  1.00  0.00     0.024 A 
HETATM   23  C1  UNL     1      20.711 -20.481   7.040  1.00  0.00     0.034 A 
HETATM   24 CL1  UNL     1      19.124 -21.256   6.983  1.00  0.00    -0.084 Cl
HETATM   25  C20 UNL     1      21.008 -19.520   7.989  1.00  0.00     0.024 A 
HETATM   26  C19 UNL     1      22.278 -18.929   8.008  1.00  0.00     0.016 A 
ENDBRANCH   1  20
TORSDOF 4
ENDMDL
MODEL 3
REMARK VINA RESULT: -9.251959132      2.466      3.922
REMARK  4 active torsions:
REMARK  status: ('A' for Active; 'I' for Inactive)
REMARK    1  A    between atoms: C4_5  and  C5_6 
REMARK    2  A    between atoms: C6_9  and  C7_10 
REMARK    3  A    between atoms: C7_10  and  N2_11 
REMARK    4  A    between atoms: N2_11  and  C8_13 
ROOT
HETATM    1  C5  UNL     1      21.942 -16.355   7.094  1.00  0.00     0.084 A 
HETATM    2  N1  UNL     1      22.412 -15.499   6.206  1.00  0.00    -0.351 N 
ATOM      3  H1  UNL     1      23.211 -15.757   5.627  1.00  0.00     0.166 HD
HETATM    4  C6  UNL     1      21.866 -14.338   6.064  1.00  0.00     0.034 A 
HETATM    5  C18 UNL     1      20.791 -14.039   6.869  1.00  0.00     0.078 A 
HETATM    6  S1  UNL     1      20.647 -15.484   7.784  1.00  0.00    -0.081 SA
ENDROOT
BRANCH   4   7
HETATM    7  C7  UNL     1      22.353 -13.313   5.060  1.00  0.00     0.172 C 
BRANCH   7   8
HETATM    8  N2  UNL     1      23.689 -13.646   4.749  1.00  0.00    -0.407 N 
ATOM      9  H2  UNL     1      23.911 -14.357   4.051  1.00  0.00     0.154 HD
BRANCH   8  10
HETATM   10  C8  UNL     1      24.711 -12.953   5.448  1.00  0.00     0.027 C 
HETATM   11  C9  UNL     1      24.229 -11.935   6.441  1.00  0.00     0.035 C 
HETATM   12  C10 UNL     1      25.427 -11.379   7.178  1.00  0.00    -0.012 C 
HETATM   13  C11 UNL     1      26.227 -12.434   7.886  1.00  0.00     0.009 C 
HETATM   14  C15 UNL     1      26.277 -10.629   6.162  1.00  0.00     0.009 C 
HETATM   15  C12 UNL     1      26.757 -13.381   6.838  1.00  0.00    -0.012 C 
HETATM   16  C13 UNL     1      27.606 -12.667   5.815  1.00  0.00     0.009 C 
HETATM   17  C17 UNL     1      25.569 -13.985   6.142  1.00  0.00     0.035 C 
HETATM   18  C14 UNL     1      26.768 -11.618   5.141  1.00  0.00    -0.012 C 
HETATM   19  C16 UNL     1      25.587 -12.222   4.434  1.00  0.00     0.035 C 
ENDBRANCH   8  10
ENDBRANCH   7   8
ENDBRANCH   4   7
BRANCH   1  20
HETATM   20  C4  UNL     1      22.418 -17.720   7.407  1.00  0.00    -0.002 A 
HETATM   21  C3  UNL     1      21.629 -18.665   8.005  1.00  0.00     0.016 A 
HETATM   22  C2  UNL     1      22.109 -19.945   8.286  1.00  0.00     0.024 A 
HETATM   23  C1  UNL     1      23.404 -20.272   7.959  1.00  0.00     0.034 A 
HETATM   24 CL1  UNL     1      23.997 -21.898   8.316  1.00  0.00    -0.084 Cl
HETATM   25  C20 UNL     1      24.214 -19.328   7.355  1.00  0.00     0.024 A 
HETATM   26  C19 UNL     1      23.711 -18.050   7.081  1.00  0.00     0.016 A 
ENDBRANCH   1  20
TORSDOF 4
ENDMDL
MODEL 4
REMARK VINA RESULT: -9.251310963      0.080      1.524
REMARK  4 active torsions:
REMARK  status: ('A' for Active; 'I' for Inactive)
REMARK    1  A    between atoms: C4_5  and  C5_6 
REMARK    2  A    between atoms: C6_9  and  C7_10 
REMARK    3  A    between atoms: C7_10  and  N2_11 
REMARK    4  A    between atoms: N2_11  and  C8_13 
ROOT
HETATM    1  C5  UNL     1      24.557 -18.642   7.172  1.00  0.00     0.084 A 
HETATM    2  N1  UNL     1      24.849 -17.361   7.048  1.00  0.00    -0.351 N 
ATOM      3  H1  UNL     1      24.104 -16.685   6.877  1.00  0.00     0.166 HD
HETATM    4  C6  UNL     1      26.072 -16.957   7.143  1.00  0.00     0.034 A 
HETATM    5  C18 UNL     1      27.038 -17.907   7.375  1.00  0.00     0.078 A 
HETATM    6  S1  UNL     1      26.093 -19.338   7.440  1.00  0.00    -0.081 SA
ENDROOT
BRANCH   4   7
HETATM    7  C7  UNL     1      26.472 -15.501   7.017  1.00  0.00     0.172 C 
BRANCH   7   8
HETATM    8  N2  UNL     1      25.503 -14.747   7.712  1.00  0.00    -0.407 N 
ATOM      9  H2  UNL     1      25.468 -14.737   8.731  1.00  0.00     0.154 HD
BRANCH   8  10
HETATM   10  C8  UNL     1      24.578 -14.003   6.934  1.00  0.00     0.027 C 
HETATM   11  C9  UNL     1      23.132 -14.336   7.170  1.00  0.00     0.035 C 
HETATM   12  C10 UNL     1      22.283 -13.380   6.361  1.00  0.00    -0.012 C 
HETATM   13  C11 UNL     1      22.529 -11.939   6.699  1.00  0.00     0.009 C 
HETATM   14  C15 UNL     1      22.560 -13.660   4.891  1.00  0.00     0.009 C 
HETATM   15  C12 UNL     1      23.969 -11.635   6.366  1.00  0.00    -0.012 C 
HETATM   16  C13 UNL     1      24.277 -11.901   4.912  1.00  0.00     0.009 C 
HETATM   17  C17 UNL     1      24.822 -12.538   7.213  1.00  0.00     0.035 C 
HETATM   18  C14 UNL     1      24.006 -13.350   4.620  1.00  0.00    -0.012 C 
HETATM   19  C16 UNL     1      24.868 -14.254   5.458  1.00  0.00     0.035 C 
ENDBRANCH   8  10
ENDBRANCH   7   8
ENDBRANCH   4   7
BRANCH   1  20
HETATM   20  C4  UNL     1      23.236 -19.302   7.098  1.00  0.00    -0.002 A 
HETATM   21  C3  UNL     1      22.927 -20.248   6.157  1.00  0.00     0.016 A 
HETATM   22  C2  UNL     1      21.670 -20.853   6.115  1.00  0.00     0.024 A 
HETATM   23  C1  UNL     1      20.714 -20.495   7.036  1.00  0.00     0.034 A 
HETATM   24 CL1  UNL     1      19.128 -21.274   6.973  1.00  0.00    -0.084 Cl
HETATM   25  C20 UNL     1      21.009 -19.541   7.992  1.00  0.00     0.024 A 
HETATM   26  C19 UNL     1      22.278 -18.948   8.016  1.00  0.00     0.016 A 
ENDBRANCH   1  20
TORSDOF 4
ENDMDL
MODEL 5
REMARK VINA RESULT: -9.201508160      2.440      3.869
REMARK  4 active torsions:
REMARK  status: ('A' for Active; 'I' for Inactive)
REMARK    1  A    between atoms: C4_5  and  C5_6 
REMARK    2  A    between atoms: C6_9  and  C7_10 
REMARK    3  A    between atoms: C7_10  and  N2_11 
REMARK    4  A    between atoms: N2_11  and  C8_13 
ROOT
HETATM    1  C5  UNL     1      22.135 -16.553   7.028  1.00  0.00     0.084 A 
HETATM    2  N1  UNL     1      22.591 -15.745   6.089  1.00  0.00    -0.351 N 
ATOM      3  H1  UNL     1      23.362 -16.044   5.493  1.00  0.00     0.166 HD
HETATM    4  C6  UNL     1      22.066 -14.577   5.921  1.00  0.00     0.034 A 
HETATM    5  C18 UNL     1      21.029 -14.222   6.751  1.00  0.00     0.078 A 
HETATM    6  S1  UNL     1      20.886 -15.625   7.729  1.00  0.00    -0.081 SA
ENDROOT
BRANCH   4   7
HETATM    7  C7  UNL     1      22.539 -13.605   4.859  1.00  0.00     0.172 C 
BRANCH   7   8
HETATM    8  N2  UNL     1      22.863 -12.400   5.520  1.00  0.00    -0.407 N 
ATOM      9  H2  UNL     1      22.142 -11.725   5.776  1.00  0.00     0.154 HD
BRANCH   8  10
HETATM   10  C8  UNL     1      24.232 -12.167   5.811  1.00  0.00     0.027 C 
HETATM   11  C9  UNL     1      24.734 -10.795   5.461  1.00  0.00     0.035 C 
HETATM   12  C10 UNL     1      26.163 -10.672   5.942  1.00  0.00    -0.012 C 
HETATM   13  C11 UNL     1      26.313 -10.902   7.418  1.00  0.00     0.009 C 
HETATM   14  C15 UNL     1      26.999 -11.660   5.140  1.00  0.00     0.009 C 
HETATM   15  C12 UNL     1      25.875 -12.318   7.702  1.00  0.00    -0.012 C 
HETATM   16  C13 UNL     1      26.686 -13.323   6.922  1.00  0.00     0.009 C 
HETATM   17  C17 UNL     1      24.435 -12.431   7.285  1.00  0.00     0.035 C 
HETATM   18  C14 UNL     1      26.513 -13.047   5.456  1.00  0.00    -0.012 C 
HETATM   19  C16 UNL     1      25.075 -13.173   5.034  1.00  0.00     0.035 C 
ENDBRANCH   8  10
ENDBRANCH   7   8
ENDBRANCH   4   7
BRANCH   1  20
HETATM   20  C4  UNL     1      22.592 -17.915   7.378  1.00  0.00    -0.002 A 
HETATM   21  C3  UNL     1      21.773 -18.853   7.947  1.00  0.00     0.016 A 
HETATM   22  C2  UNL     1      22.235 -20.130   8.265  1.00  0.00     0.024 A 
HETATM   23  C1  UNL     1      23.543 -20.463   8.004  1.00  0.00     0.034 A 
HETATM   24 CL1  UNL     1      24.114 -22.087   8.408  1.00  0.00    -0.084 Cl
HETATM   25  C20 UNL     1      24.385 -19.527   7.431  1.00  0.00     0.024 A 
HETATM   26  C19 UNL     1      23.898 -18.251   7.119  1.00  0.00     0.016 A 
ENDBRANCH   1  20
TORSDOF 4
ENDMDL
