MODEL 1
REMARK VINA RESULT: -8.576793833      0.000      0.000
REMARK  5 active torsions:
REMARK  status: ('A' for Active; 'I' for Inactive)
REMARK    1  A    between atoms: C2_2  and  C3_3 
REMARK    2  A    between atoms: C3_3  and  C4_4 
REMARK    3  A    between atoms: C4_4  and  C5_5 
REMARK    4  A    between atoms: C16_18  and  O2_19 
REMARK    5  A    between atoms: C21_24  and  O3_26 
ROOT
HETATM    1  C5  UNL     1      23.043 -12.355   6.800  1.00  0.00    -0.017 C 
HETATM    2  C6  UNL     1      23.889 -12.846   5.977  1.00  0.00    -0.011 C 
HETATM    3  C7  UNL     1      25.093 -11.959   5.654  1.00  0.00     0.087 C 
HETATM    4  C8  UNL     1      24.955 -11.273   4.344  1.00  0.00     0.051 C 
HETATM    5  C9  UNL     1      25.325 -10.956   6.756  1.00  0.00     0.051 C 
HETATM    6  O1  UNL     1      26.177 -12.862   5.715  1.00  0.00    -0.336 OA
HETATM    7  C10 UNL     1      26.058 -14.174   6.225  1.00  0.00     0.080 A 
HETATM    8  C11 UNL     1      27.080 -14.704   6.925  1.00  0.00     0.038 A 
HETATM    9  C12 UNL     1      27.000 -15.972   7.432  1.00  0.00     0.015 A 
HETATM   10  C13 UNL     1      25.882 -16.715   7.234  1.00  0.00    -0.022 A 
HETATM   11  C14 UNL     1      25.794 -17.988   7.744  1.00  0.00     0.057 A 
HETATM   12  C15 UNL     1      24.647 -18.720   7.532  1.00  0.00     0.150 A 
HETATM   13  F1  UNL     1      24.542 -19.975   8.025  1.00  0.00    -0.203 F 
HETATM   14  C16 UNL     1      23.590 -18.204   6.822  1.00  0.00     0.107 A 
HETATM   15  C18 UNL     1      23.681 -16.921   6.308  1.00  0.00     0.053 A 
HETATM   16  C19 UNL     1      24.807 -16.160   6.498  1.00  0.00    -0.011 A 
HETATM   17  C20 UNL     1      24.865 -14.909   5.989  1.00  0.00     0.025 A 
HETATM   18  C21 UNL     1      23.891 -14.209   5.263  1.00  0.00     0.111 C 
HETATM   19  C22 UNL     1      22.676 -14.356   4.614  1.00  0.00     0.056 C 
ENDROOT
BRANCH   1  20
HETATM   20  C4  UNL     1      21.813 -13.012   7.280  1.00  0.00     0.027 C 
BRANCH  20  21
HETATM   21  C3  UNL     1      22.003 -14.224   8.108  1.00  0.00     0.003 C 
BRANCH  21  22
HETATM   22  C2  UNL     1      20.887 -15.230   7.998  1.00  0.00    -0.004 C 
HETATM   23  C1  UNL     1      19.826 -14.650   7.088  1.00  0.00     0.005 C 
ENDBRANCH  21  22
ENDBRANCH  20  21
ENDBRANCH   1  20
BRANCH  18  24
HETATM   24  O3  UNL     1      24.728 -13.805   4.073  1.00  0.00    -0.381 OA
ATOM     25  H3  UNL     1      24.503 -14.537   3.511  1.00  0.00     0.211 HD
ENDBRANCH  18  24
BRANCH  14  26
HETATM   26  O2  UNL     1      22.420 -18.952   6.607  1.00  0.00    -0.353 OA
HETATM   27  C17 UNL     1      21.493 -19.113   7.660  1.00  0.00     0.210 C 
ENDBRANCH  14  26
TORSDOF 5
ENDMDL
MODEL 2
REMARK VINA RESULT: -8.211233408      1.344      1.648
REMARK  5 active torsions:
REMARK  status: ('A' for Active; 'I' for Inactive)
REMARK    1  A    between atoms: C2_2  and  C3_3 
REMARK    2  A    between atoms: C3_3  and  C4_4 
REMARK    3  A    between atoms: C4_4  and  C5_5 
REMARK    4  A    between atoms: C16_18  and  O2_19 
REMARK    5  A    between atoms: C21_24  and  O3_26 
ROOT
HETATM    1  C5  UNL     1      22.827 -13.686   7.468  1.00  0.00    -0.017 C 
HETATM    2  C6  UNL     1      23.667 -14.093   6.595  1.00  0.00    -0.011 C 
HETATM    3  C7  UNL     1      24.876 -13.185   6.361  1.00  0.00     0.087 C 
HETATM    4  C8  UNL     1      24.737 -12.366   5.129  1.00  0.00     0.051 C 
HETATM    5  C9  UNL     1      25.117 -12.303   7.560  1.00  0.00     0.051 C 
HETATM    6  O1  UNL     1      25.955 -14.095   6.324  1.00  0.00    -0.336 OA
HETATM    7  C10 UNL     1      25.830 -15.451   6.696  1.00  0.00     0.080 A 
HETATM    8  C11 UNL     1      26.851 -16.057   7.333  1.00  0.00     0.038 A 
HETATM    9  C12 UNL     1      26.765 -17.370   7.707  1.00  0.00     0.015 A 
HETATM   10  C13 UNL     1      25.642 -18.083   7.438  1.00  0.00    -0.022 A 
HETATM   11  C14 UNL     1      25.549 -19.401   7.813  1.00  0.00     0.057 A 
HETATM   12  C15 UNL     1      24.397 -20.101   7.531  1.00  0.00     0.150 A 
HETATM   13  F1  UNL     1      24.286 -21.400   7.892  1.00  0.00    -0.203 F 
HETATM   14  C16 UNL     1      23.341 -19.509   6.882  1.00  0.00     0.107 A 
HETATM   15  C18 UNL     1      23.437 -18.180   6.503  1.00  0.00     0.053 A 
HETATM   16  C19 UNL     1      24.568 -17.448   6.767  1.00  0.00    -0.011 A 
HETATM   17  C20 UNL     1      24.632 -16.152   6.390  1.00  0.00     0.025 A 
HETATM   18  C21 UNL     1      23.660 -15.376   5.744  1.00  0.00     0.111 C 
HETATM   19  C22 UNL     1      22.441 -15.448   5.088  1.00  0.00     0.056 C 
ENDROOT
BRANCH   1  20
HETATM   20  C4  UNL     1      21.595 -14.382   7.882  1.00  0.00     0.027 C 
BRANCH  20  21
HETATM   21  C3  UNL     1      20.399 -14.140   7.044  1.00  0.00     0.003 C 
BRANCH  21  22
HETATM   22  C2  UNL     1      20.447 -12.860   6.251  1.00  0.00    -0.004 C 
HETATM   23  C1  UNL     1      19.327 -12.900   5.234  1.00  0.00     0.005 C 
ENDBRANCH  21  22
ENDBRANCH  20  21
ENDBRANCH   1  20
BRANCH  18  24
HETATM   24  O3  UNL     1      24.495 -14.855   4.599  1.00  0.00    -0.381 OA
ATOM     25  H3  UNL     1      25.124 -15.566   4.573  1.00  0.00     0.211 HD
ENDBRANCH  18  24
BRANCH  14  26
HETATM   26  O2  UNL     1      22.166 -20.224   6.595  1.00  0.00    -0.353 OA
HETATM   27  C17 UNL     1      22.105 -21.031   5.438  1.00  0.00     0.210 C 
ENDBRANCH  14  26
TORSDOF 5
ENDMDL
MODEL 3
REMARK VINA RESULT: -7.847974426      1.083      1.404
REMARK  5 active torsions:
REMARK  status: ('A' for Active; 'I' for Inactive)
REMARK    1  A    between atoms: C2_2  and  C3_3 
REMARK    2  A    between atoms: C3_3  and  C4_4 
REMARK    3  A    between atoms: C4_4  and  C5_5 
REMARK    4  A    between atoms: C16_18  and  O2_19 
REMARK    5  A    between atoms: C21_24  and  O3_26 
ROOT
HETATM    1  C5  UNL     1      23.505 -13.404   7.551  1.00  0.00    -0.017 C 
HETATM    2  C6  UNL     1      24.206 -13.959   6.638  1.00  0.00    -0.011 C 
HETATM    3  C7  UNL     1      25.522 -13.260   6.291  1.00  0.00     0.087 C 
HETATM    4  C8  UNL     1      25.425 -12.457   5.045  1.00  0.00     0.051 C 
HETATM    5  C9  UNL     1      25.984 -12.400   7.441  1.00  0.00     0.051 C 
HETATM    6  O1  UNL     1      26.439 -14.331   6.212  1.00  0.00    -0.336 OA
HETATM    7  C10 UNL     1      26.130 -15.641   6.637  1.00  0.00     0.080 A 
HETATM    8  C11 UNL     1      27.087 -16.387   7.225  1.00  0.00     0.038 A 
HETATM    9  C12 UNL     1      26.823 -17.660   7.647  1.00  0.00     0.015 A 
HETATM   10  C13 UNL     1      25.586 -18.192   7.479  1.00  0.00    -0.022 A 
HETATM   11  C14 UNL     1      25.314 -19.469   7.904  1.00  0.00     0.057 A 
HETATM   12  C15 UNL     1      24.049 -19.984   7.724  1.00  0.00     0.150 A 
HETATM   13  F1  UNL     1      23.762 -21.240   8.136  1.00  0.00    -0.203 F 
HETATM   14  C16 UNL     1      23.055 -19.246   7.128  1.00  0.00     0.107 A 
HETATM   15  C18 UNL     1      23.331 -17.958   6.699  1.00  0.00     0.053 A 
HETATM   16  C19 UNL     1      24.579 -17.410   6.861  1.00  0.00    -0.011 A 
HETATM   17  C20 UNL     1      24.818 -16.149   6.437  1.00  0.00     0.025 A 
HETATM   18  C21 UNL     1      23.935 -15.243   5.833  1.00  0.00     0.111 C 
HETATM   19  C22 UNL     1      22.677 -15.135   5.264  1.00  0.00     0.056 C 
ENDROOT
BRANCH   1  20
HETATM   20  C4  UNL     1      22.212 -13.886   8.070  1.00  0.00     0.027 C 
BRANCH  20  21
HETATM   21  C3  UNL     1      21.034 -13.645   7.207  1.00  0.00     0.003 C 
BRANCH  21  22
HETATM   22  C2  UNL     1      19.984 -14.724   7.278  1.00  0.00    -0.004 C 
HETATM   23  C1  UNL     1      20.531 -15.849   8.129  1.00  0.00     0.005 C 
ENDBRANCH  21  22
ENDBRANCH  20  21
ENDBRANCH   1  20
BRANCH  18  24
HETATM   24  O3  UNL     1      24.757 -14.888   4.617  1.00  0.00    -0.381 OA
ATOM     25  H3  UNL     1      24.035 -14.755   4.014  1.00  0.00     0.211 HD
ENDBRANCH  18  24
BRANCH  14  26
HETATM   26  O2  UNL     1      21.764 -19.772   6.947  1.00  0.00    -0.353 OA
HETATM   27  C17 UNL     1      20.826 -19.696   7.999  1.00  0.00     0.210 C 
ENDBRANCH  14  26
TORSDOF 5
ENDMDL
MODEL 4
REMARK VINA RESULT: -7.832964339      2.363      4.741
REMARK  5 active torsions:
REMARK  status: ('A' for Active; 'I' for Inactive)
REMARK    1  A    between atoms: C2_2  and  C3_3 
REMARK    2  A    between atoms: C3_3  and  C4_4 
REMARK    3  A    between atoms: C4_4  and  C5_5 
REMARK    4  A    between atoms: C16_18  and  O2_19 
REMARK    5  A    between atoms: C21_24  and  O3_26 
ROOT
HETATM    1  C5  UNL     1      27.150 -14.511   6.802  1.00  0.00    -0.017 C 
HETATM    2  C6  UNL     1      26.619 -13.374   7.047  1.00  0.00    -0.011 C 
HETATM    3  C7  UNL     1      27.316 -12.165   6.420  1.00  0.00     0.087 C 
HETATM    4  C8  UNL     1      28.163 -11.431   7.395  1.00  0.00     0.051 C 
HETATM    5  C9  UNL     1      28.130 -12.585   5.222  1.00  0.00     0.051 C 
HETATM    6  O1  UNL     1      26.239 -11.406   5.912  1.00  0.00    -0.336 OA
HETATM    7  C10 UNL     1      24.918 -11.899   5.839  1.00  0.00     0.080 A 
HETATM    8  C11 UNL     1      24.142 -11.553   4.792  1.00  0.00     0.038 A 
HETATM    9  C12 UNL     1      22.857 -12.010   4.690  1.00  0.00     0.015 A 
HETATM   10  C13 UNL     1      22.345 -12.824   5.648  1.00  0.00    -0.022 A 
HETATM   11  C14 UNL     1      21.057 -13.289   5.549  1.00  0.00     0.057 A 
HETATM   12  C15 UNL     1      20.562 -14.116   6.533  1.00  0.00     0.150 A 
HETATM   13  F1  UNL     1      19.296 -14.584   6.453  1.00  0.00    -0.203 F 
HETATM   14  C16 UNL     1      21.331 -14.485   7.610  1.00  0.00     0.107 A 
HETATM   15  C18 UNL     1      22.630 -14.014   7.709  1.00  0.00     0.053 A 
HETATM   16  C19 UNL     1      23.159 -13.188   6.748  1.00  0.00    -0.011 A 
HETATM   17  C20 UNL     1      24.431 -12.748   6.869  1.00  0.00     0.025 A 
HETATM   18  C21 UNL     1      25.367 -13.030   7.874  1.00  0.00     0.111 C 
HETATM   19  C22 UNL     1      25.508 -13.606   9.126  1.00  0.00     0.056 C 
ENDROOT
BRANCH   1  20
HETATM   20  C4  UNL     1      26.664 -15.819   7.277  1.00  0.00     0.027 C 
BRANCH  20  21
HETATM   21  C3  UNL     1      25.388 -16.290   6.693  1.00  0.00     0.003 C 
BRANCH  21  22
HETATM   22  C2  UNL     1      24.988 -17.680   7.118  1.00  0.00    -0.004 C 
HETATM   23  C1  UNL     1      26.244 -18.520   7.199  1.00  0.00     0.005 C 
ENDBRANCH  21  22
ENDBRANCH  20  21
ENDBRANCH   1  20
BRANCH  18  24
HETATM   24  O3  UNL     1      25.756 -11.617   8.237  1.00  0.00    -0.381 OA
ATOM     25  H3  UNL     1      26.391 -11.833   8.910  1.00  0.00     0.211 HD
ENDBRANCH  18  24
BRANCH  14  26
HETATM   26  O2  UNL     1      20.825 -15.330   8.613  1.00  0.00    -0.353 OA
HETATM   27  C17 UNL     1      20.941 -16.730   8.468  1.00  0.00     0.210 C 
ENDBRANCH  14  26
TORSDOF 5
ENDMDL
MODEL 5
REMARK VINA RESULT: -7.350518554      0.989      1.105
REMARK  5 active torsions:
REMARK  status: ('A' for Active; 'I' for Inactive)
REMARK    1  A    between atoms: C2_2  and  C3_3 
REMARK    2  A    between atoms: C3_3  and  C4_4 
REMARK    3  A    between atoms: C4_4  and  C5_5 
REMARK    4  A    between atoms: C16_18  and  O2_19 
REMARK    5  A    between atoms: C21_24  and  O3_26 
ROOT
HETATM    1  C5  UNL     1      23.146 -13.023   7.093  1.00  0.00    -0.017 C 
HETATM    2  C6  UNL     1      24.030 -13.467   6.284  1.00  0.00    -0.011 C 
HETATM    3  C7  UNL     1      25.270 -12.587   6.106  1.00  0.00     0.087 C 
HETATM    4  C8  UNL     1      25.225 -11.793   4.851  1.00  0.00     0.051 C 
HETATM    5  C9  UNL     1      25.454 -11.683   7.299  1.00  0.00     0.051 C 
HETATM    6  O1  UNL     1      26.329 -13.519   6.156  1.00  0.00    -0.336 OA
HETATM    7  C10 UNL     1      26.154 -14.864   6.549  1.00  0.00     0.080 A 
HETATM    8  C11 UNL     1      27.121 -15.475   7.262  1.00  0.00     0.038 A 
HETATM    9  C12 UNL     1      26.984 -16.777   7.657  1.00  0.00     0.015 A 
HETATM   10  C13 UNL     1      25.866 -17.474   7.333  1.00  0.00    -0.022 A 
HETATM   11  C14 UNL     1      25.721 -18.781   7.730  1.00  0.00     0.057 A 
HETATM   12  C15 UNL     1      24.575 -19.465   7.392  1.00  0.00     0.150 A 
HETATM   13  F1  UNL     1      24.415 -20.753   7.773  1.00  0.00    -0.203 F 
HETATM   14  C16 UNL     1      23.574 -18.867   6.665  1.00  0.00     0.107 A 
HETATM   15  C18 UNL     1      23.722 -17.549   6.264  1.00  0.00     0.053 A 
HETATM   16  C19 UNL     1      24.849 -16.834   6.583  1.00  0.00    -0.011 A 
HETATM   17  C20 UNL     1      24.963 -15.548   6.183  1.00  0.00     0.025 A 
HETATM   18  C21 UNL     1      24.049 -14.768   5.461  1.00  0.00     0.111 C 
HETATM   19  C22 UNL     1      22.873 -14.831   4.732  1.00  0.00     0.056 C 
ENDROOT
BRANCH   1  20
HETATM   20  C4  UNL     1      21.876 -13.686   7.443  1.00  0.00     0.027 C 
BRANCH  20  21
HETATM   21  C3  UNL     1      21.992 -15.002   8.111  1.00  0.00     0.003 C 
BRANCH  21  22
HETATM   22  C2  UNL     1      21.068 -16.058   7.562  1.00  0.00    -0.004 C 
HETATM   23  C1  UNL     1      20.943 -17.152   8.600  1.00  0.00     0.005 C 
ENDBRANCH  21  22
ENDBRANCH  20  21
ENDBRANCH   1  20
BRANCH  18  24
HETATM   24  O3  UNL     1      24.965 -14.289   4.360  1.00  0.00    -0.381 OA
ATOM     25  H3  UNL     1      24.939 -15.075   3.828  1.00  0.00     0.211 HD
ENDBRANCH  18  24
BRANCH  14  26
HETATM   26  O2  UNL     1      22.404 -19.566   6.320  1.00  0.00    -0.353 OA
HETATM   27  C17 UNL     1      22.470 -20.610   5.372  1.00  0.00     0.210 C 
ENDBRANCH  14  26
TORSDOF 5
ENDMDL
