MODEL 1
REMARK VINA RESULT: -8.930083632      0.000      0.000
REMARK  5 active torsions:
REMARK  status: ('A' for Active; 'I' for Inactive)
REMARK    1  A    between atoms: C2_2  and  C3_3 
REMARK    2  A    between atoms: C6_6  and  O1_7 
REMARK    3  A    between atoms: C9_11  and  O2_12 
REMARK    4  A    between atoms: C14_17  and  C15_18 
REMARK    5  A    between atoms: C15_18  and  O3_21 
ROOT
HETATM    1  C3  UNL     1      25.664 -18.276   7.161  1.00  0.00    -0.016 A 
HETATM    2  C4  UNL     1      25.540 -16.913   7.052  1.00  0.00    -0.040 A 
HETATM    3  C5  UNL     1      24.295 -16.354   6.932  1.00  0.00    -0.011 A 
HETATM    4  C6  UNL     1      23.156 -17.123   6.919  1.00  0.00     0.100 A 
HETATM    5  C8  UNL     1      23.303 -18.489   7.029  1.00  0.00     0.101 A 
HETATM    6 CL1  UNL     1      21.858 -19.481   7.012  1.00  0.00    -0.078 Cl
HETATM    7  C9  UNL     1      24.533 -19.095   7.150  1.00  0.00     0.099 A 
HETATM    8  C11 UNL     1      24.160 -14.892   6.815  1.00  0.00     0.027 C 
HETATM    9  C12 UNL     1      24.381 -14.133   8.096  1.00  0.00     0.010 C 
HETATM   10  C13 UNL     1      25.075 -12.818   7.703  1.00  0.00     0.009 C 
HETATM   11  C14 UNL     1      24.990 -12.860   6.228  1.00  0.00     0.024 C 
HETATM   12  C18 UNL     1      25.271 -14.324   5.937  1.00  0.00     0.001 C 
HETATM   13  C19 UNL     1      26.621 -14.782   6.308  1.00  0.00     0.010 C 
HETATM   14  C20 UNL     1      26.723 -16.052   7.079  1.00  0.00     0.040 C 
ENDROOT
BRANCH  11  15
HETATM   15  C15 UNL     1      25.702 -11.868   5.439  1.00  0.00     0.054 C 
HETATM   16  C16 UNL     1      26.823 -11.283   6.304  1.00  0.00     0.045 C 
HETATM   17  C17 UNL     1      24.935 -10.796   4.767  1.00  0.00     0.045 C 
BRANCH  15  18
HETATM   18  O3  UNL     1      26.393 -12.572   4.419  1.00  0.00    -0.390 OA
ATOM     19  H3  UNL     1      26.570 -11.948   3.725  1.00  0.00     0.210 HD
ENDBRANCH  15  18
ENDBRANCH  11  15
BRANCH   4  20
HETATM   20  O1  UNL     1      21.900 -16.524   6.795  1.00  0.00    -0.354 OA
HETATM   21  C7  UNL     1      21.117 -16.175   7.916  1.00  0.00     0.210 C 
ENDBRANCH   4  20
BRANCH   1  22
HETATM   22  C2  UNL     1      26.979 -18.979   7.272  1.00  0.00     0.037 C 
HETATM   23  C1  UNL     1      27.292 -19.444   8.659  1.00  0.00     0.010 C 
ENDBRANCH   1  22
BRANCH   7  24
HETATM   24  O2  UNL     1      24.590 -20.480   7.258  1.00  0.00    -0.354 OA
HETATM   25  C10 UNL     1      24.252 -21.107   8.505  1.00  0.00     0.210 C 
ENDBRANCH   7  24
TORSDOF 5
ENDMDL
MODEL 2
REMARK VINA RESULT: -7.945472677      0.950      1.254
REMARK  5 active torsions:
REMARK  status: ('A' for Active; 'I' for Inactive)
REMARK    1  A    between atoms: C2_2  and  C3_3 
REMARK    2  A    between atoms: C6_6  and  O1_7 
REMARK    3  A    between atoms: C9_11  and  O2_12 
REMARK    4  A    between atoms: C14_17  and  C15_18 
REMARK    5  A    between atoms: C15_18  and  O3_21 
ROOT
HETATM    1  C3  UNL     1      25.226 -18.098   7.435  1.00  0.00    -0.016 A 
HETATM    2  C4  UNL     1      25.263 -16.736   7.269  1.00  0.00    -0.040 A 
HETATM    3  C5  UNL     1      24.097 -16.047   7.062  1.00  0.00    -0.011 A 
HETATM    4  C6  UNL     1      22.880 -16.685   7.017  1.00  0.00     0.100 A 
HETATM    5  C8  UNL     1      22.866 -18.052   7.186  1.00  0.00     0.101 A 
HETATM    6 CL1  UNL     1      21.320 -18.876   7.130  1.00  0.00    -0.078 Cl
HETATM    7  C9  UNL     1      24.012 -18.785   7.396  1.00  0.00     0.099 A 
HETATM    8  C11 UNL     1      24.135 -14.586   6.883  1.00  0.00     0.027 C 
HETATM    9  C12 UNL     1      24.378 -13.801   8.145  1.00  0.00     0.010 C 
HETATM   10  C13 UNL     1      25.235 -12.589   7.740  1.00  0.00     0.009 C 
HETATM   11  C14 UNL     1      25.218 -12.686   6.265  1.00  0.00     0.024 C 
HETATM   12  C18 UNL     1      25.344 -14.183   6.045  1.00  0.00     0.001 C 
HETATM   13  C19 UNL     1      26.614 -14.772   6.504  1.00  0.00     0.010 C 
HETATM   14  C20 UNL     1      26.533 -16.011   7.327  1.00  0.00     0.040 C 
ENDROOT
BRANCH  11  15
HETATM   15  C15 UNL     1      26.074 -11.815   5.478  1.00  0.00     0.054 C 
HETATM   16  C16 UNL     1      25.421 -11.613   4.106  1.00  0.00     0.045 C 
HETATM   17  C17 UNL     1      27.509 -12.147   5.339  1.00  0.00     0.045 C 
BRANCH  15  18
HETATM   18  O3  UNL     1      26.013 -10.529   6.075  1.00  0.00    -0.390 OA
ATOM     19  H3  UNL     1      25.166 -10.463   6.501  1.00  0.00     0.210 HD
ENDBRANCH  15  18
ENDBRANCH  11  15
BRANCH   4  20
HETATM   20  O1  UNL     1      21.708 -15.955   6.805  1.00  0.00    -0.354 OA
HETATM   21  C7  UNL     1      20.913 -15.477   7.869  1.00  0.00     0.210 C 
ENDBRANCH   4  20
BRANCH   1  22
HETATM   22  C2  UNL     1      26.446 -18.937   7.643  1.00  0.00     0.037 C 
HETATM   23  C1  UNL     1      27.111 -19.350   6.368  1.00  0.00     0.010 C 
ENDBRANCH   1  22
BRANCH   7  24
HETATM   24  O2  UNL     1      23.905 -20.162   7.558  1.00  0.00    -0.354 OA
HETATM   25  C10 UNL     1      23.767 -21.002   6.402  1.00  0.00     0.210 C 
ENDBRANCH   7  24
TORSDOF 5
ENDMDL
MODEL 3
REMARK VINA RESULT: -7.696310471      2.095      3.742
REMARK  5 active torsions:
REMARK  status: ('A' for Active; 'I' for Inactive)
REMARK    1  A    between atoms: C2_2  and  C3_3 
REMARK    2  A    between atoms: C6_6  and  O1_7 
REMARK    3  A    between atoms: C9_11  and  O2_12 
REMARK    4  A    between atoms: C14_17  and  C15_18 
REMARK    5  A    between atoms: C15_18  and  O3_21 
ROOT
HETATM    1  C3  UNL     1      22.119 -18.781   7.978  1.00  0.00    -0.016 A 
HETATM    2  C4  UNL     1      22.444 -17.580   7.398  1.00  0.00    -0.040 A 
HETATM    3  C5  UNL     1      23.713 -17.380   6.922  1.00  0.00    -0.011 A 
HETATM    4  C6  UNL     1      24.678 -18.356   7.006  1.00  0.00     0.100 A 
HETATM    5  C8  UNL     1      24.330 -19.553   7.591  1.00  0.00     0.101 A 
HETATM    6 CL1  UNL     1      25.552 -20.805   7.705  1.00  0.00    -0.078 Cl
HETATM    7  C9  UNL     1      23.069 -19.799   8.084  1.00  0.00     0.099 A 
HETATM    8  C11 UNL     1      24.065 -16.092   6.301  1.00  0.00     0.027 C 
HETATM    9  C12 UNL     1      23.510 -15.887   4.916  1.00  0.00     0.010 C 
HETATM   10  C13 UNL     1      23.169 -14.390   4.807  1.00  0.00     0.009 C 
HETATM   11  C14 UNL     1      23.757 -13.855   6.053  1.00  0.00     0.024 C 
HETATM   12  C18 UNL     1      23.412 -14.940   7.058  1.00  0.00     0.001 C 
HETATM   13  C19 UNL     1      21.970 -15.124   7.301  1.00  0.00     0.010 C 
HETATM   14  C20 UNL     1      21.446 -16.518   7.271  1.00  0.00     0.040 C 
ENDROOT
BRANCH  11  15
HETATM   15  C15 UNL     1      23.497 -12.476   6.435  1.00  0.00     0.054 C 
HETATM   16  C16 UNL     1      24.579 -12.044   7.431  1.00  0.00     0.045 C 
HETATM   17  C17 UNL     1      22.150 -12.103   6.919  1.00  0.00     0.045 C 
BRANCH  15  18
HETATM   18  O3  UNL     1      23.752 -11.677   5.290  1.00  0.00    -0.390 OA
ATOM     19  H3  UNL     1      24.689 -11.703   5.139  1.00  0.00     0.210 HD
ENDBRANCH  15  18
ENDBRANCH  11  15
BRANCH   4  20
HETATM   20  O1  UNL     1      25.964 -18.123   6.510  1.00  0.00    -0.354 OA
HETATM   21  C7  UNL     1      27.077 -17.936   7.358  1.00  0.00     0.210 C 
ENDBRANCH   4  20
BRANCH   1  22
HETATM   22  C2  UNL     1      20.769 -19.083   8.546  1.00  0.00     0.037 C 
HETATM   23  C1  UNL     1      20.027 -20.141   7.792  1.00  0.00     0.010 C 
ENDBRANCH   1  22
BRANCH   7  24
HETATM   24  O2  UNL     1      22.803 -21.037   8.658  1.00  0.00    -0.354 OA
HETATM   25  C10 UNL     1      23.302 -21.329   9.972  1.00  0.00     0.210 C 
ENDBRANCH   7  24
TORSDOF 5
ENDMDL
MODEL 4
REMARK VINA RESULT: -7.678302194      1.843      3.771
REMARK  5 active torsions:
REMARK  status: ('A' for Active; 'I' for Inactive)
REMARK    1  A    between atoms: C2_2  and  C3_3 
REMARK    2  A    between atoms: C6_6  and  O1_7 
REMARK    3  A    between atoms: C9_11  and  O2_12 
REMARK    4  A    between atoms: C14_17  and  C15_18 
REMARK    5  A    between atoms: C15_18  and  O3_21 
ROOT
HETATM    1  C3  UNL     1      22.284 -15.759   6.907  1.00  0.00    -0.016 A 
HETATM    2  C4  UNL     1      23.281 -14.842   6.687  1.00  0.00    -0.040 A 
HETATM    3  C5  UNL     1      24.581 -15.265   6.595  1.00  0.00    -0.011 A 
HETATM    4  C6  UNL     1      24.919 -16.592   6.715  1.00  0.00     0.100 A 
HETATM    5  C8  UNL     1      23.903 -17.495   6.936  1.00  0.00     0.101 A 
HETATM    6 CL1  UNL     1      24.321 -19.190   7.092  1.00  0.00    -0.078 Cl
HETATM    7  C9  UNL     1      22.583 -17.117   7.037  1.00  0.00     0.099 A 
HETATM    8  C11 UNL     1      25.653 -14.283   6.359  1.00  0.00     0.027 C 
HETATM    9  C12 UNL     1      25.723 -13.750   4.952  1.00  0.00     0.010 C 
HETATM   10  C13 UNL     1      26.148 -12.277   5.071  1.00  0.00     0.009 C 
HETATM   11  C14 UNL     1      26.483 -12.173   6.507  1.00  0.00     0.024 C 
HETATM   12  C18 UNL     1      25.386 -13.005   7.148  1.00  0.00     0.001 C 
HETATM   13  C19 UNL     1      24.024 -12.470   6.980  1.00  0.00     0.010 C 
HETATM   14  C20 UNL     1      22.968 -13.421   6.534  1.00  0.00     0.040 C 
ENDROOT
BRANCH  11  15
HETATM   15  C15 UNL     1      26.766 -10.870   7.086  1.00  0.00     0.054 C 
HETATM   16  C16 UNL     1      26.332 -10.895   8.556  1.00  0.00     0.045 C 
HETATM   17  C17 UNL     1      26.269  -9.655   6.406  1.00  0.00     0.045 C 
BRANCH  15  18
HETATM   18  O3  UNL     1      28.179 -10.748   7.152  1.00  0.00    -0.390 OA
ATOM     19  H3  UNL     1      28.443 -11.066   8.007  1.00  0.00     0.210 HD
ENDBRANCH  15  18
ENDBRANCH  11  15
BRANCH   4  20
HETATM   20  O1  UNL     1      26.254 -16.993   6.616  1.00  0.00    -0.354 OA
HETATM   21  C7  UNL     1      26.839 -17.900   7.525  1.00  0.00     0.210 C 
ENDBRANCH   4  20
BRANCH   1  22
HETATM   22  C2  UNL     1      20.841 -15.391   7.046  1.00  0.00     0.037 C 
HETATM   23  C1  UNL     1      20.431 -15.104   8.455  1.00  0.00     0.010 C 
ENDBRANCH   1  22
BRANCH   7  24
HETATM   24  O2  UNL     1      21.620 -18.095   7.259  1.00  0.00    -0.354 OA
HETATM   25  C10 UNL     1      21.369 -18.548   8.598  1.00  0.00     0.210 C 
ENDBRANCH   7  24
TORSDOF 5
ENDMDL
MODEL 5
REMARK VINA RESULT: -7.655376362      1.688      3.801
REMARK  5 active torsions:
REMARK  status: ('A' for Active; 'I' for Inactive)
REMARK    1  A    between atoms: C2_2  and  C3_3 
REMARK    2  A    between atoms: C6_6  and  O1_7 
REMARK    3  A    between atoms: C9_11  and  O2_12 
REMARK    4  A    between atoms: C14_17  and  C15_18 
REMARK    5  A    between atoms: C15_18  and  O3_21 
ROOT
HETATM    1  C3  UNL     1      21.773 -15.838   7.508  1.00  0.00    -0.016 A 
HETATM    2  C4  UNL     1      22.824 -15.070   7.072  1.00  0.00    -0.040 A 
HETATM    3  C5  UNL     1      23.992 -15.675   6.688  1.00  0.00    -0.011 A 
HETATM    4  C6  UNL     1      24.144 -17.041   6.725  1.00  0.00     0.100 A 
HETATM    5  C8  UNL     1      23.077 -17.793   7.166  1.00  0.00     0.101 A 
HETATM    6 CL1  UNL     1      23.259 -19.536   7.218  1.00  0.00    -0.078 Cl
HETATM    7  C9  UNL     1      21.885 -17.229   7.562  1.00  0.00     0.099 A 
HETATM    8  C11 UNL     1      25.120 -14.852   6.221  1.00  0.00     0.027 C 
HETATM    9  C12 UNL     1      24.956 -14.284   4.837  1.00  0.00     0.010 C 
HETATM   10  C13 UNL     1      25.615 -12.894   4.861  1.00  0.00     0.009 C 
HETATM   11  C14 UNL     1      26.272 -12.894   6.186  1.00  0.00     0.024 C 
HETATM   12  C18 UNL     1      25.232 -13.579   7.055  1.00  0.00     0.001 C 
HETATM   13  C19 UNL     1      23.963 -12.845   7.199  1.00  0.00     0.010 C 
HETATM   14  C20 UNL     1      22.703 -13.614   6.999  1.00  0.00     0.040 C 
ENDROOT
BRANCH  11  15
HETATM   15  C15 UNL     1      26.870 -11.669   6.691  1.00  0.00     0.054 C 
HETATM   16  C16 UNL     1      28.362 -11.929   6.930  1.00  0.00     0.045 C 
HETATM   17  C17 UNL     1      26.256 -10.992   7.854  1.00  0.00     0.045 C 
BRANCH  15  18
HETATM   18  O3  UNL     1      26.856 -10.734   5.624  1.00  0.00    -0.390 OA
ATOM     19  H3  UNL     1      27.755 -10.630   5.336  1.00  0.00     0.210 HD
ENDBRANCH  15  18
ENDBRANCH  11  15
BRANCH   4  20
HETATM   20  O1  UNL     1      25.347 -17.629   6.327  1.00  0.00    -0.354 OA
HETATM   21  C7  UNL     1      26.352 -17.992   7.249  1.00  0.00     0.210 C 
ENDBRANCH   4  20
BRANCH   1  22
HETATM   22  C2  UNL     1      20.470 -15.269   7.969  1.00  0.00     0.037 C 
HETATM   23  C1  UNL     1      19.709 -14.569   6.888  1.00  0.00     0.010 C 
ENDBRANCH   1  22
BRANCH   7  24
HETATM   24  O2  UNL     1      20.859 -18.064   7.992  1.00  0.00    -0.354 OA
HETATM   25  C10 UNL     1      21.150 -19.120   8.920  1.00  0.00     0.210 C 
ENDBRANCH   7  24
TORSDOF 5
ENDMDL
