MODEL 1
REMARK VINA RESULT: -9.453371622      0.000      0.000
REMARK  5 active torsions:
REMARK  status: ('A' for Active; 'I' for Inactive)
REMARK    1  A    between atoms: C2_2  and  C10_10 
REMARK    2  A    between atoms: C3_3  and  C4_4 
REMARK    3  A    between atoms: C12_13  and  N1_14 
REMARK    4  A    between atoms: N1_14  and  N2_16 
REMARK    5  A    between atoms: C13_18  and  C14_19 
ROOT
HETATM    1  C10 UNL     1      25.687 -13.939   6.408  1.00  0.00     0.046 A 
HETATM    2  C11 UNL     1      26.260 -13.393   5.285  1.00  0.00     0.083 A 
HETATM    3  S1  UNL     1      25.279 -12.020   4.995  1.00  0.00    -0.062 SA
HETATM    4  C12 UNL     1      24.207 -12.207   6.294  1.00  0.00     0.163 A 
HETATM    5  N3  UNL     1      24.646 -13.315   6.899  1.00  0.00    -0.335 N 
ATOM      6  H3  UNL     1      24.176 -13.670   7.732  1.00  0.00     0.168 HD
ENDROOT
BRANCH   4   7
HETATM    7  N1  UNL     1      23.180 -11.456   6.648  1.00  0.00    -0.280 N 
ATOM      8  H1  UNL     1      23.295 -10.709   7.334  1.00  0.00     0.189 HD
BRANCH   7   9
HETATM    9  N2  UNL     1      21.988 -11.692   6.093  1.00  0.00    -0.309 N 
HETATM   10  C13 UNL     1      21.168 -12.614   5.991  1.00  0.00     0.118 C 
ATOM     11  H2  UNL     1      21.652 -10.861   5.605  1.00  0.00     0.186 HD
BRANCH  10  12
HETATM   12  C14 UNL     1      21.257 -13.943   6.529  1.00  0.00    -0.019 A 
HETATM   13  C15 UNL     1      20.493 -14.291   7.641  1.00  0.00     0.014 A 
HETATM   14  C16 UNL     1      20.546 -15.545   8.188  1.00  0.00     0.024 A 
HETATM   15  C17 UNL     1      21.381 -16.473   7.612  1.00  0.00     0.034 A 
HETATM   16 CL1  UNL     1      21.448 -18.078   8.313  1.00  0.00    -0.084 Cl
HETATM   17  C18 UNL     1      22.155 -16.180   6.516  1.00  0.00     0.024 A 
HETATM   18  C19 UNL     1      22.076 -14.892   5.986  1.00  0.00     0.014 A 
ENDBRANCH  10  12
ENDBRANCH   7   9
ENDBRANCH   4   7
BRANCH   1  19
HETATM   19  C2  UNL     1      26.272 -15.179   7.031  1.00  0.00    -0.038 C 
HETATM   20  C1  UNL     1      27.614 -15.090   7.605  1.00  0.00     0.050 C 
HETATM   21  C3  UNL     1      25.577 -16.266   7.054  1.00  0.00    -0.013 C 
BRANCH  21  22
HETATM   22  C4  UNL     1      25.783 -17.611   7.560  1.00  0.00     0.009 C 
HETATM   23  C5  UNL     1      27.169 -18.147   7.158  1.00  0.00     0.008 C 
HETATM   24  C6  UNL     1      27.451 -19.333   8.023  1.00  0.00     0.001 C 
HETATM   25  C7  UNL     1      26.390 -20.388   7.762  1.00  0.00     0.000 C 
HETATM   26  C8  UNL     1      25.093 -19.828   8.306  1.00  0.00     0.001 C 
HETATM   27  C9  UNL     1      24.738 -18.642   7.363  1.00  0.00     0.008 C 
ENDBRANCH  21  22
ENDBRANCH   1  19
TORSDOF 5
ENDMDL
MODEL 2
REMARK VINA RESULT: -9.416616120      2.244      6.244
REMARK  5 active torsions:
REMARK  status: ('A' for Active; 'I' for Inactive)
REMARK    1  A    between atoms: C2_2  and  C10_10 
REMARK    2  A    between atoms: C3_3  and  C4_4 
REMARK    3  A    between atoms: C12_13  and  N1_14 
REMARK    4  A    between atoms: N1_14  and  N2_16 
REMARK    5  A    between atoms: C13_18  and  C14_19 
ROOT
HETATM    1  C10 UNL     1      25.147 -13.945   6.345  1.00  0.00     0.046 A 
HETATM    2  C11 UNL     1      26.383 -13.345   6.355  1.00  0.00     0.083 A 
HETATM    3  S1  UNL     1      27.381 -14.558   7.037  1.00  0.00    -0.062 SA
HETATM    4  C12 UNL     1      26.196 -15.746   7.271  1.00  0.00     0.163 A 
HETATM    5  N3  UNL     1      25.081 -15.165   6.816  1.00  0.00    -0.335 N 
ATOM      6  H3  UNL     1      24.193 -15.665   6.836  1.00  0.00     0.168 HD
ENDROOT
BRANCH   4   7
HETATM    7  N1  UNL     1      26.316 -16.960   7.777  1.00  0.00    -0.280 N 
ATOM      8  H1  UNL     1      26.429 -17.095   8.782  1.00  0.00     0.189 HD
BRANCH   7   9
HETATM    9  N2  UNL     1      26.286 -18.009   6.950  1.00  0.00    -0.309 N 
HETATM   10  C13 UNL     1      25.563 -18.982   6.696  1.00  0.00     0.118 C 
ATOM     11  H2  UNL     1      27.107 -18.008   6.344  1.00  0.00     0.186 HD
BRANCH  10  12
HETATM   12  C14 UNL     1      24.321 -19.349   7.318  1.00  0.00    -0.019 A 
HETATM   13  C15 UNL     1      23.183 -18.576   7.096  1.00  0.00     0.014 A 
HETATM   14  C16 UNL     1      21.978 -18.887   7.667  1.00  0.00     0.024 A 
HETATM   15  C17 UNL     1      21.907 -19.995   8.479  1.00  0.00     0.034 A 
HETATM   16 CL1  UNL     1      20.364 -20.392   9.210  1.00  0.00    -0.084 Cl
HETATM   17  C18 UNL     1      23.000 -20.788   8.730  1.00  0.00     0.024 A 
HETATM   18  C19 UNL     1      24.211 -20.441   8.131  1.00  0.00     0.014 A 
ENDBRANCH  10  12
ENDBRANCH   7   9
ENDBRANCH   4   7
BRANCH   1  19
HETATM   19  C2  UNL     1      23.954 -13.214   5.787  1.00  0.00    -0.038 C 
HETATM   20  C1  UNL     1      24.179 -12.273   4.691  1.00  0.00     0.050 C 
HETATM   21  C3  UNL     1      22.782 -13.447   6.274  1.00  0.00    -0.013 C 
BRANCH  21  22
HETATM   22  C4  UNL     1      21.439 -12.970   6.001  1.00  0.00     0.009 C 
HETATM   23  C5  UNL     1      21.243 -11.537   6.527  1.00  0.00     0.008 C 
HETATM   24  C6  UNL     1      20.012 -10.992   5.877  1.00  0.00     0.001 C 
HETATM   25  C7  UNL     1      18.829 -11.858   6.274  1.00  0.00     0.000 C 
HETATM   26  C8  UNL     1      19.043 -13.199   5.607  1.00  0.00     0.001 C 
HETATM   27  C9  UNL     1      20.272 -13.820   6.332  1.00  0.00     0.008 C 
ENDBRANCH  21  22
ENDBRANCH   1  19
TORSDOF 5
ENDMDL
MODEL 3
REMARK VINA RESULT: -9.371017752      2.061      3.294
REMARK  5 active torsions:
REMARK  status: ('A' for Active; 'I' for Inactive)
REMARK    1  A    between atoms: C2_2  and  C10_10 
REMARK    2  A    between atoms: C3_3  and  C4_4 
REMARK    3  A    between atoms: C12_13  and  N1_14 
REMARK    4  A    between atoms: N1_14  and  N2_16 
REMARK    5  A    between atoms: C13_18  and  C14_19 
ROOT
HETATM    1  C10 UNL     1      25.677 -15.767   6.663  1.00  0.00     0.046 A 
HETATM    2  C11 UNL     1      26.914 -15.387   7.123  1.00  0.00     0.083 A 
HETATM    3  S1  UNL     1      27.108 -13.833   6.430  1.00  0.00    -0.062 SA
HETATM    4  C12 UNL     1      25.632 -13.748   5.603  1.00  0.00     0.163 A 
HETATM    5  N3  UNL     1      25.048 -14.916   5.892  1.00  0.00    -0.335 N 
ATOM      6  H3  UNL     1      24.126 -15.139   5.518  1.00  0.00     0.168 HD
ENDROOT
BRANCH   4   7
HETATM    7  N1  UNL     1      25.148 -12.778   4.849  1.00  0.00    -0.280 N 
ATOM      8  H1  UNL     1      25.195 -12.839   3.832  1.00  0.00     0.189 HD
BRANCH   7   9
HETATM    9  N2  UNL     1      24.597 -11.715   5.442  1.00  0.00    -0.309 N 
HETATM   10  C13 UNL     1      23.545 -11.403   6.017  1.00  0.00     0.118 C 
ATOM     11  H2  UNL     1      25.235 -10.920   5.412  1.00  0.00     0.186 HD
BRANCH  10  12
HETATM   12  C14 UNL     1      22.395 -12.227   6.268  1.00  0.00    -0.019 A 
HETATM   13  C15 UNL     1      21.181 -11.922   5.656  1.00  0.00     0.014 A 
HETATM   14  C16 UNL     1      20.059 -12.678   5.866  1.00  0.00     0.024 A 
HETATM   15  C17 UNL     1      20.150 -13.762   6.705  1.00  0.00     0.034 A 
HETATM   16 CL1  UNL     1      18.712 -14.729   6.973  1.00  0.00    -0.084 Cl
HETATM   17  C18 UNL     1      21.323 -14.104   7.334  1.00  0.00     0.024 A 
HETATM   18  C19 UNL     1      22.446 -13.311   7.097  1.00  0.00     0.014 A 
ENDBRANCH  10  12
ENDBRANCH   7   9
ENDBRANCH   4   7
BRANCH   1  19
HETATM   19  C2  UNL     1      25.095 -17.097   7.066  1.00  0.00    -0.038 C 
HETATM   20  C1  UNL     1      26.019 -18.156   7.468  1.00  0.00     0.050 C 
HETATM   21  C3  UNL     1      23.814 -17.256   7.062  1.00  0.00    -0.013 C 
BRANCH  21  22
HETATM   22  C4  UNL     1      22.910 -18.343   7.390  1.00  0.00     0.009 C 
HETATM   23  C5  UNL     1      22.826 -19.358   6.236  1.00  0.00     0.008 C 
HETATM   24  C6  UNL     1      22.210 -20.604   6.788  1.00  0.00     0.001 C 
HETATM   25  C7  UNL     1      20.817 -20.275   7.294  1.00  0.00     0.000 C 
HETATM   26  C8  UNL     1      21.004 -19.382   8.502  1.00  0.00     0.001 C 
HETATM   27  C9  UNL     1      21.564 -18.046   7.933  1.00  0.00     0.008 C 
ENDBRANCH  21  22
ENDBRANCH   1  19
TORSDOF 5
ENDMDL
MODEL 4
REMARK VINA RESULT: -9.235534518      3.003      6.705
REMARK  5 active torsions:
REMARK  status: ('A' for Active; 'I' for Inactive)
REMARK    1  A    between atoms: C2_2  and  C10_10 
REMARK    2  A    between atoms: C3_3  and  C4_4 
REMARK    3  A    between atoms: C12_13  and  N1_14 
REMARK    4  A    between atoms: N1_14  and  N2_16 
REMARK    5  A    between atoms: C13_18  and  C14_19 
ROOT
HETATM    1  C10 UNL     1      24.183 -15.978   7.022  1.00  0.00     0.046 A 
HETATM    2  C11 UNL     1      25.262 -15.165   7.271  1.00  0.00     0.083 A 
HETATM    3  S1  UNL     1      26.566 -16.273   7.301  1.00  0.00    -0.062 SA
HETATM    4  C12 UNL     1      25.689 -17.691   7.001  1.00  0.00     0.163 A 
HETATM    5  N3  UNL     1      24.429 -17.257   6.890  1.00  0.00    -0.335 N 
ATOM      6  H3  UNL     1      23.671 -17.913   6.704  1.00  0.00     0.168 HD
ENDROOT
BRANCH   4   7
HETATM    7  N1  UNL     1      26.118 -18.936   6.897  1.00  0.00    -0.280 N 
ATOM      8  H1  UNL     1      26.603 -19.249   6.056  1.00  0.00     0.189 HD
BRANCH   7   9
HETATM    9  N2  UNL     1      25.906 -19.777   7.913  1.00  0.00    -0.309 N 
HETATM   10  C13 UNL     1      24.981 -20.438   8.405  1.00  0.00     0.118 C 
ATOM     11  H2  UNL     1      26.765 -19.919   8.444  1.00  0.00     0.186 HD
BRANCH  10  12
HETATM   12  C14 UNL     1      23.616 -20.517   7.963  1.00  0.00    -0.019 A 
HETATM   13  C15 UNL     1      22.585 -20.519   8.901  1.00  0.00     0.014 A 
HETATM   14  C16 UNL     1      21.271 -20.594   8.526  1.00  0.00     0.024 A 
HETATM   15  C17 UNL     1      20.978 -20.668   7.185  1.00  0.00     0.034 A 
HETATM   16 CL1  UNL     1      19.294 -20.764   6.707  1.00  0.00    -0.084 Cl
HETATM   17  C18 UNL     1      21.956 -20.671   6.222  1.00  0.00     0.024 A 
HETATM   18  C19 UNL     1      23.285 -20.594   6.640  1.00  0.00     0.014 A 
ENDBRANCH  10  12
ENDBRANCH   7   9
ENDBRANCH   4   7
BRANCH   1  19
HETATM   19  C2  UNL     1      22.804 -15.388   6.889  1.00  0.00    -0.038 C 
HETATM   20  C1  UNL     1      21.678 -16.153   7.424  1.00  0.00     0.050 C 
HETATM   21  C3  UNL     1      22.658 -14.234   6.330  1.00  0.00    -0.013 C 
BRANCH  21  22
HETATM   22  C4  UNL     1      21.533 -13.363   6.043  1.00  0.00     0.009 C 
HETATM   23  C5  UNL     1      21.750 -11.964   6.646  1.00  0.00     0.008 C 
HETATM   24  C6  UNL     1      20.771 -11.044   5.991  1.00  0.00     0.001 C 
HETATM   25  C7  UNL     1      19.366 -11.530   6.298  1.00  0.00     0.000 C 
HETATM   26  C8  UNL     1      19.200 -12.842   5.561  1.00  0.00     0.001 C 
HETATM   27  C9  UNL     1      20.151 -13.837   6.287  1.00  0.00     0.008 C 
ENDBRANCH  21  22
ENDBRANCH   1  19
TORSDOF 5
ENDMDL
MODEL 5
REMARK VINA RESULT: -9.156209897      2.201      4.286
REMARK  5 active torsions:
REMARK  status: ('A' for Active; 'I' for Inactive)
REMARK    1  A    between atoms: C2_2  and  C10_10 
REMARK    2  A    between atoms: C3_3  and  C4_4 
REMARK    3  A    between atoms: C12_13  and  N1_14 
REMARK    4  A    between atoms: N1_14  and  N2_16 
REMARK    5  A    between atoms: C13_18  and  C14_19 
ROOT
HETATM    1  C10 UNL     1      21.080 -14.131   7.016  1.00  0.00     0.046 A 
HETATM    2  C11 UNL     1      20.039 -13.872   6.157  1.00  0.00     0.083 A 
HETATM    3  S1  UNL     1      20.404 -12.297   5.594  1.00  0.00    -0.062 SA
HETATM    4  C12 UNL     1      21.836 -12.051   6.465  1.00  0.00     0.163 A 
HETATM    5  N3  UNL     1      21.978 -13.188   7.154  1.00  0.00    -0.335 N 
ATOM      6  H3  UNL     1      22.775 -13.320   7.777  1.00  0.00     0.168 HD
ENDROOT
BRANCH   4   7
HETATM    7  N1  UNL     1      22.638 -11.002   6.481  1.00  0.00    -0.280 N 
ATOM      8  H1  UNL     1      22.449 -10.213   7.099  1.00  0.00     0.189 HD
BRANCH   7   9
HETATM    9  N2  UNL     1      23.701 -10.992   5.672  1.00  0.00    -0.309 N 
HETATM   10  C13 UNL     1      24.667 -11.712   5.386  1.00  0.00     0.118 C 
ATOM     11  H2  UNL     1      23.724 -10.131   5.125  1.00  0.00     0.186 HD
BRANCH  10  12
HETATM   12  C14 UNL     1      25.004 -13.000   5.926  1.00  0.00    -0.019 A 
HETATM   13  C15 UNL     1      24.645 -14.154   5.232  1.00  0.00     0.014 A 
HETATM   14  C16 UNL     1      24.944 -15.402   5.708  1.00  0.00     0.024 A 
HETATM   15  C17 UNL     1      25.616 -15.501   6.903  1.00  0.00     0.034 A 
HETATM   16 CL1  UNL     1      25.998 -17.101   7.512  1.00  0.00    -0.084 Cl
HETATM   17  C18 UNL     1      25.991 -14.395   7.625  1.00  0.00     0.024 A 
HETATM   18  C19 UNL     1      25.669 -13.139   7.110  1.00  0.00     0.014 A 
ENDBRANCH  10  12
ENDBRANCH   7   9
ENDBRANCH   4   7
BRANCH   1  19
HETATM   19  C2  UNL     1      21.163 -15.456   7.728  1.00  0.00    -0.038 C 
HETATM   20  C1  UNL     1      20.436 -15.604   8.988  1.00  0.00     0.050 C 
HETATM   21  C3  UNL     1      21.850 -16.415   7.205  1.00  0.00    -0.013 C 
BRANCH  21  22
HETATM   22  C4  UNL     1      22.144 -17.789   7.569  1.00  0.00     0.009 C 
HETATM   23  C5  UNL     1      22.984 -18.481   6.480  1.00  0.00     0.008 C 
HETATM   24  C6  UNL     1      23.563 -19.718   7.088  1.00  0.00     0.001 C 
HETATM   25  C7  UNL     1      22.424 -20.625   7.522  1.00  0.00     0.000 C 
HETATM   26  C8  UNL     1      21.740 -19.924   8.676  1.00  0.00     0.001 C 
HETATM   27  C9  UNL     1      21.057 -18.676   8.044  1.00  0.00     0.008 C 
ENDBRANCH  21  22
ENDBRANCH   1  19
TORSDOF 5
ENDMDL
