MODEL 1
REMARK VINA RESULT: -8.362859023      0.000      0.000
REMARK  4 active torsions:
REMARK  status: ('A' for Active; 'I' for Inactive)
REMARK    1  A    between atoms: C2_2  and  C3_3 
REMARK    2  A    between atoms: C3_3  and  C4_4 
REMARK    3  A    between atoms: C4_4  and  N1_5 
REMARK    4  A    between atoms: N1_5  and  C5_7 
ROOT
HETATM    1  C5  UNL     1      23.545 -17.620   7.021  1.00  0.00     0.059 A 
HETATM    2  C6  UNL     1      22.804 -18.694   7.475  1.00  0.00     0.050 A 
HETATM    3  C7  UNL     1      21.519 -18.548   7.967  1.00  0.00     0.029 A 
HETATM    4  N2  UNL     1      20.951 -17.354   8.020  1.00  0.00    -0.358 N 
ATOM      5  H2  UNL     1      20.003 -17.260   8.385  1.00  0.00     0.166 HD
HETATM    6  C8  UNL     1      21.613 -16.268   7.596  1.00  0.00     0.045 A 
HETATM    7  C9  UNL     1      21.028 -14.998   7.644  1.00  0.00     0.032 A 
HETATM    8  C10 UNL     1      21.744 -13.914   7.200  1.00  0.00     0.021 A 
HETATM    9  C11 UNL     1      23.030 -14.012   6.699  1.00  0.00     0.011 A 
HETATM   10 BR1  UNL     1      23.975 -12.473   6.096  1.00  0.00    -0.051 Br
HETATM   11  C12 UNL     1      23.572 -15.280   6.668  1.00  0.00     0.035 A 
HETATM   12  C13 UNL     1      22.902 -16.387   7.098  1.00  0.00     0.020 A 
HETATM   13  C14 UNL     1      20.846 -19.805   8.422  1.00  0.00     0.059 C 
HETATM   14  C15 UNL     1      21.669 -20.562   9.422  1.00  0.00     0.017 C 
HETATM   15  C16 UNL     1      22.737 -21.359   8.695  1.00  0.00     0.080 C 
HETATM   16  S1  UNL     1      23.508 -20.311   7.430  1.00  0.00    -0.126 SA
ENDROOT
BRANCH   1  17
HETATM   17  N1  UNL     1      24.848 -17.721   6.515  1.00  0.00    -0.388 N 
ATOM     18  H1  UNL     1      24.951 -17.696   5.500  1.00  0.00     0.159 HD
BRANCH  17  19
HETATM   19  C4  UNL     1      26.046 -17.856   7.282  1.00  0.00     0.120 C 
BRANCH  19  20
HETATM   20  C3  UNL     1      26.885 -19.033   6.871  1.00  0.00     0.019 C 
BRANCH  20  21
HETATM   21  C2  UNL     1      27.695 -19.521   8.079  1.00  0.00    -0.003 C 
HETATM   22  C1  UNL     1      26.705 -19.873   9.166  1.00  0.00     0.005 C 
ENDBRANCH  20  21
ENDBRANCH  19  20
ENDBRANCH  17  19
ENDBRANCH   1  17
TORSDOF 4
ENDMDL
MODEL 2
REMARK VINA RESULT: -8.303942875      3.061      5.286
REMARK  4 active torsions:
REMARK  status: ('A' for Active; 'I' for Inactive)
REMARK    1  A    between atoms: C2_2  and  C3_3 
REMARK    2  A    between atoms: C3_3  and  C4_4 
REMARK    3  A    between atoms: C4_4  and  N1_5 
REMARK    4  A    between atoms: N1_5  and  C5_7 
ROOT
HETATM    1  C5  UNL     1      24.451 -15.265   6.522  1.00  0.00     0.059 A 
HETATM    2  C6  UNL     1      24.707 -13.932   6.269  1.00  0.00     0.050 A 
HETATM    3  C7  UNL     1      23.767 -12.944   6.500  1.00  0.00     0.029 A 
HETATM    4  N2  UNL     1      22.573 -13.250   6.980  1.00  0.00    -0.358 N 
ATOM      5  H2  UNL     1      21.888 -12.512   7.147  1.00  0.00     0.166 HD
HETATM    6  C8  UNL     1      22.256 -14.525   7.249  1.00  0.00     0.045 A 
HETATM    7  C9  UNL     1      20.998 -14.868   7.757  1.00  0.00     0.032 A 
HETATM    8  C10 UNL     1      20.718 -16.187   8.017  1.00  0.00     0.021 A 
HETATM    9  C11 UNL     1      21.627 -17.209   7.801  1.00  0.00     0.011 A 
HETATM   10 BR1  UNL     1      21.183 -19.020   8.181  1.00  0.00    -0.051 Br
HETATM   11  C12 UNL     1      22.855 -16.831   7.300  1.00  0.00     0.035 A 
HETATM   12  C13 UNL     1      23.180 -15.536   7.026  1.00  0.00     0.020 A 
HETATM   13  C14 UNL     1      24.193 -11.546   6.175  1.00  0.00     0.059 C 
HETATM   14  C15 UNL     1      24.700 -11.418   4.768  1.00  0.00     0.017 C 
HETATM   15  C16 UNL     1      26.136 -11.905   4.704  1.00  0.00     0.080 C 
HETATM   16  S1  UNL     1      26.282 -13.461   5.628  1.00  0.00    -0.126 SA
ENDROOT
BRANCH   1  17
HETATM   17  N1  UNL     1      25.371 -16.299   6.303  1.00  0.00    -0.388 N 
ATOM     18  H1  UNL     1      25.414 -16.685   5.359  1.00  0.00     0.159 HD
BRANCH  17  19
HETATM   19  C4  UNL     1      26.255 -16.865   7.273  1.00  0.00     0.120 C 
BRANCH  19  20
HETATM   20  C3  UNL     1      26.579 -18.309   7.009  1.00  0.00     0.019 C 
BRANCH  20  21
HETATM   21  C2  UNL     1      25.629 -19.196   7.824  1.00  0.00    -0.003 C 
HETATM   22  C1  UNL     1      26.424 -19.753   8.982  1.00  0.00     0.005 C 
ENDBRANCH  20  21
ENDBRANCH  19  20
ENDBRANCH  17  19
ENDBRANCH   1  17
TORSDOF 4
ENDMDL
MODEL 3
REMARK VINA RESULT: -8.229974576      3.506      6.841
REMARK  4 active torsions:
REMARK  status: ('A' for Active; 'I' for Inactive)
REMARK    1  A    between atoms: C2_2  and  C3_3 
REMARK    2  A    between atoms: C3_3  and  C4_4 
REMARK    3  A    between atoms: C4_4  and  N1_5 
REMARK    4  A    between atoms: N1_5  and  C5_7 
ROOT
HETATM    1  C5  UNL     1      24.344 -14.660   5.873  1.00  0.00     0.059 A 
HETATM    2  C6  UNL     1      25.376 -13.742   5.882  1.00  0.00     0.050 A 
HETATM    3  C7  UNL     1      26.620 -14.036   6.412  1.00  0.00     0.029 A 
HETATM    4  N2  UNL     1      26.864 -15.226   6.935  1.00  0.00    -0.358 N 
ATOM      5  H2  UNL     1      27.785 -15.431   7.322  1.00  0.00     0.166 HD
HETATM    6  C8  UNL     1      25.907 -16.166   6.960  1.00  0.00     0.045 A 
HETATM    7  C9  UNL     1      26.147 -17.430   7.509  1.00  0.00     0.032 A 
HETATM    8  C10 UNL     1      25.138 -18.361   7.512  1.00  0.00     0.021 A 
HETATM    9  C11 UNL     1      23.879 -18.112   6.994  1.00  0.00     0.011 A 
HETATM   10 BR1  UNL     1      22.517 -19.442   7.026  1.00  0.00    -0.051 Br
HETATM   11  C12 UNL     1      23.681 -16.855   6.461  1.00  0.00     0.035 A 
HETATM   12  C13 UNL     1      24.651 -15.897   6.435  1.00  0.00     0.020 A 
HETATM   13  C14 UNL     1      27.634 -12.937   6.349  1.00  0.00     0.059 C 
HETATM   14  C15 UNL     1      27.131 -11.663   6.961  1.00  0.00     0.017 C 
HETATM   15  C16 UNL     1      26.241 -10.942   5.964  1.00  0.00     0.080 C 
HETATM   16  S1  UNL     1      25.111 -12.137   5.198  1.00  0.00    -0.126 SA
ENDROOT
BRANCH   1  17
HETATM   17  N1  UNL     1      23.069 -14.407   5.348  1.00  0.00    -0.388 N 
ATOM     18  H1  UNL     1      22.833 -14.868   4.468  1.00  0.00     0.159 HD
BRANCH  17  19
HETATM   19  C4  UNL     1      22.069 -13.565   5.924  1.00  0.00     0.120 C 
BRANCH  19  20
HETATM   20  C3  UNL     1      21.754 -13.910   7.353  1.00  0.00     0.019 C 
BRANCH  20  21
HETATM   21  C2  UNL     1      20.505 -14.800   7.392  1.00  0.00    -0.003 C 
HETATM   22  C1  UNL     1      20.834 -15.990   8.264  1.00  0.00     0.005 C 
ENDBRANCH  20  21
ENDBRANCH  19  20
ENDBRANCH  17  19
ENDBRANCH   1  17
TORSDOF 4
ENDMDL
MODEL 4
REMARK VINA RESULT: -8.142199572      1.519      2.482
REMARK  4 active torsions:
REMARK  status: ('A' for Active; 'I' for Inactive)
REMARK    1  A    between atoms: C2_2  and  C3_3 
REMARK    2  A    between atoms: C3_3  and  C4_4 
REMARK    3  A    between atoms: C4_4  and  N1_5 
REMARK    4  A    between atoms: N1_5  and  C5_7 
ROOT
HETATM    1  C5  UNL     1      23.748 -17.246   6.964  1.00  0.00     0.059 A 
HETATM    2  C6  UNL     1      23.469 -18.554   7.308  1.00  0.00     0.050 A 
HETATM    3  C7  UNL     1      22.241 -18.936   7.817  1.00  0.00     0.029 A 
HETATM    4  N2  UNL     1      21.279 -18.045   7.994  1.00  0.00    -0.358 N 
ATOM      5  H2  UNL     1      20.378 -18.340   8.371  1.00  0.00     0.166 HD
HETATM    6  C8  UNL     1      21.482 -16.756   7.682  1.00  0.00     0.045 A 
HETATM    7  C9  UNL     1      20.476 -15.800   7.863  1.00  0.00     0.032 A 
HETATM    8  C10 UNL     1      20.730 -14.493   7.530  1.00  0.00     0.021 A 
HETATM    9  C11 UNL     1      21.942 -14.064   7.017  1.00  0.00     0.011 A 
HETATM   10 BR1  UNL     1      22.235 -12.237   6.572  1.00  0.00    -0.051 Br
HETATM   11  C12 UNL     1      22.907 -15.036   6.853  1.00  0.00     0.035 A 
HETATM   12  C13 UNL     1      22.704 -16.347   7.170  1.00  0.00     0.020 A 
HETATM   13  C14 UNL     1      22.091 -20.389   8.142  1.00  0.00     0.059 C 
HETATM   14  C15 UNL     1      23.174 -20.883   9.057  1.00  0.00     0.017 C 
HETATM   15  C16 UNL     1      24.428 -21.161   8.247  1.00  0.00     0.080 C 
HETATM   16  S1  UNL     1      24.711 -19.789   7.094  1.00  0.00    -0.126 SA
ENDROOT
BRANCH   1  17
HETATM   17  N1  UNL     1      24.976 -16.813   6.445  1.00  0.00    -0.388 N 
ATOM     18  H1  UNL     1      25.055 -16.763   5.429  1.00  0.00     0.159 HD
BRANCH  17  19
HETATM   19  C4  UNL     1      26.129 -16.437   7.202  1.00  0.00     0.120 C 
BRANCH  19  20
HETATM   20  C3  UNL     1      26.543 -15.008   6.982  1.00  0.00     0.019 C 
BRANCH  20  21
HETATM   21  C2  UNL     1      26.098 -14.165   8.183  1.00  0.00    -0.003 C 
HETATM   22  C1  UNL     1      25.840 -12.765   7.674  1.00  0.00     0.005 C 
ENDBRANCH  20  21
ENDBRANCH  19  20
ENDBRANCH  17  19
ENDBRANCH   1  17
TORSDOF 4
ENDMDL
MODEL 5
REMARK VINA RESULT: -8.124230957      3.152      6.633
REMARK  4 active torsions:
REMARK  status: ('A' for Active; 'I' for Inactive)
REMARK    1  A    between atoms: C2_2  and  C3_3 
REMARK    2  A    between atoms: C3_3  and  C4_4 
REMARK    3  A    between atoms: C4_4  and  N1_5 
REMARK    4  A    between atoms: N1_5  and  C5_7 
ROOT
HETATM    1  C5  UNL     1      23.379 -16.055   6.723  1.00  0.00     0.059 A 
HETATM    2  C6  UNL     1      24.537 -15.303   6.741  1.00  0.00     0.050 A 
HETATM    3  C7  UNL     1      25.778 -15.867   6.982  1.00  0.00     0.029 A 
HETATM    4  N2  UNL     1      25.895 -17.165   7.207  1.00  0.00    -0.358 N 
ATOM      5  H2  UNL     1      26.815 -17.569   7.384  1.00  0.00     0.166 HD
HETATM    6  C8  UNL     1      24.811 -17.955   7.205  1.00  0.00     0.045 A 
HETATM    7  C9  UNL     1      24.915 -19.330   7.441  1.00  0.00     0.032 A 
HETATM    8  C10 UNL     1      23.778 -20.099   7.429  1.00  0.00     0.021 A 
HETATM    9  C11 UNL     1      22.517 -19.580   7.192  1.00  0.00     0.011 A 
HETATM   10 BR1  UNL     1      20.975 -20.696   7.187  1.00  0.00    -0.051 Br
HETATM   11  C12 UNL     1      22.455 -18.222   6.964  1.00  0.00     0.035 A 
HETATM   12  C13 UNL     1      23.555 -17.415   6.966  1.00  0.00     0.020 A 
HETATM   13  C14 UNL     1      26.939 -14.922   6.970  1.00  0.00     0.059 C 
HETATM   14  C15 UNL     1      26.739 -13.763   7.902  1.00  0.00     0.017 C 
HETATM   15  C16 UNL     1      25.850 -12.729   7.235  1.00  0.00     0.080 C 
HETATM   16  S1  UNL     1      24.446 -13.566   6.448  1.00  0.00    -0.126 SA
ENDROOT
BRANCH   1  17
HETATM   17  N1  UNL     1      22.102 -15.528   6.484  1.00  0.00    -0.388 N 
ATOM     18  H1  UNL     1      21.805 -15.466   5.509  1.00  0.00     0.159 HD
BRANCH  17  19
HETATM   19  C4  UNL     1      21.177 -15.069   7.471  1.00  0.00     0.120 C 
BRANCH  19  20
HETATM   20  C3  UNL     1      20.054 -14.251   6.897  1.00  0.00     0.019 C 
BRANCH  20  21
HETATM   21  C2  UNL     1      20.617 -13.293   5.840  1.00  0.00    -0.003 C 
HETATM   22  C1  UNL     1      19.470 -12.431   5.365  1.00  0.00     0.005 C 
ENDBRANCH  20  21
ENDBRANCH  19  20
ENDBRANCH  17  19
ENDBRANCH   1  17
TORSDOF 4
ENDMDL
