MODEL 1
REMARK VINA RESULT: -9.018733778      0.000      0.000
REMARK  3 active torsions:
REMARK  status: ('A' for Active; 'I' for Inactive)
REMARK    1  A    between atoms: C2_2  and  C3_3 
REMARK    2  A    between atoms: C6_6  and  C7_7 
REMARK       I    between atoms: C7_7  and  N1_9 
REMARK    3  A    between atoms: N1_9  and  N2_11 
ROOT
HETATM    1  N2  UNL     1      23.122 -12.529   6.536  1.00  0.00    -0.303 N 
ATOM      2  H2  UNL     1      22.159 -12.198   6.473  1.00  0.00     0.186 HD
HETATM    3  C8  UNL     1      23.358 -13.756   6.234  1.00  0.00     0.037 C 
HETATM    4  C9  UNL     1      22.233 -14.605   5.816  1.00  0.00     0.057 C 
HETATM    5  C10 UNL     1      20.999 -14.469   6.631  1.00  0.00     0.006 C 
HETATM    6  C11 UNL     1      21.003 -15.302   7.894  1.00  0.00     0.000 C 
HETATM    7  C12 UNL     1      20.789 -16.753   7.466  1.00  0.00     0.000 C 
HETATM    8  C13 UNL     1      21.555 -17.710   8.326  1.00  0.00     0.000 C 
HETATM    9  C14 UNL     1      22.283 -18.684   7.418  1.00  0.00     0.000 C 
HETATM   10  C15 UNL     1      23.732 -18.850   7.824  1.00  0.00     0.000 C 
HETATM   11  C16 UNL     1      24.672 -18.306   6.767  1.00  0.00     0.000 C 
HETATM   12  C17 UNL     1      25.895 -17.666   7.343  1.00  0.00     0.000 C 
HETATM   13  C18 UNL     1      26.088 -16.231   6.876  1.00  0.00     0.003 C 
HETATM   14  C19 UNL     1      24.932 -15.361   7.313  1.00  0.00     0.043 C 
HETATM   15  C20 UNL     1      24.761 -14.218   6.331  1.00  0.00     0.217 C 
HETATM   16  F1  UNL     1      25.233 -14.591   5.064  1.00  0.00    -0.243 F 
ENDROOT
BRANCH   1  17
HETATM   17  N1  UNL     1      24.098 -11.624   6.946  1.00  0.00    -0.264 N 
HETATM   18  C7  UNL     1      24.811 -10.787   6.049  1.00  0.00     0.293 C 
HETATM   19  O1  UNL     1      24.596 -10.816   4.811  1.00  0.00    -0.264 OA
ATOM     20  H1  UNL     1      24.311 -11.560   7.942  1.00  0.00     0.190 HD
BRANCH  18  21
HETATM   21  C6  UNL     1      25.823  -9.857   6.531  1.00  0.00     0.144 A 
HETATM   22  C5  UNL     1      26.684 -10.025   7.611  1.00  0.00     0.045 A 
HETATM   23  C4  UNL     1      27.479  -8.906   7.717  1.00  0.00     0.036 A 
HETATM   24  C3  UNL     1      27.074  -8.084   6.692  1.00  0.00     0.053 A 
HETATM   25  O2  UNL     1      26.106  -8.680   6.027  1.00  0.00    -0.309 OA
BRANCH  24  26
HETATM   26  C2  UNL     1      27.671  -6.743   6.422  1.00  0.00     0.060 C 
HETATM   27  C1  UNL     1      27.539  -5.822   7.623  1.00  0.00     0.012 C 
ENDBRANCH  24  26
ENDBRANCH  18  21
ENDBRANCH   1  17
TORSDOF 3
ENDMDL
MODEL 2
REMARK VINA RESULT: -8.990751369      1.925      2.858
REMARK  3 active torsions:
REMARK  status: ('A' for Active; 'I' for Inactive)
REMARK    1  A    between atoms: C2_2  and  C3_3 
REMARK    2  A    between atoms: C6_6  and  C7_7 
REMARK       I    between atoms: C7_7  and  N1_9 
REMARK    3  A    between atoms: N1_9  and  N2_11 
ROOT
HETATM    1  N2  UNL     1      24.496 -10.360   5.828  1.00  0.00    -0.303 N 
ATOM      2  H2  UNL     1      23.591 -10.019   5.503  1.00  0.00     0.186 HD
HETATM    3  C8  UNL     1      24.793 -11.590   5.602  1.00  0.00     0.037 C 
HETATM    4  C9  UNL     1      23.816 -12.428   4.891  1.00  0.00     0.057 C 
HETATM    5  C10 UNL     1      22.408 -12.278   5.337  1.00  0.00     0.006 C 
HETATM    6  C11 UNL     1      22.057 -13.107   6.552  1.00  0.00     0.000 C 
HETATM    7  C12 UNL     1      21.952 -14.557   6.080  1.00  0.00     0.000 C 
HETATM    8  C13 UNL     1      22.442 -15.520   7.118  1.00  0.00     0.000 C 
HETATM    9  C14 UNL     1      23.381 -16.504   6.443  1.00  0.00     0.000 C 
HETATM   10  C15 UNL     1      24.661 -16.684   7.230  1.00  0.00     0.000 C 
HETATM   11  C16 UNL     1      25.860 -16.153   6.471  1.00  0.00     0.000 C 
HETATM   12  C17 UNL     1      26.886 -15.525   7.361  1.00  0.00     0.000 C 
HETATM   13  C18 UNL     1      27.215 -14.093   6.966  1.00  0.00     0.003 C 
HETATM   14  C19 UNL     1      25.993 -13.210   7.069  1.00  0.00     0.043 C 
HETATM   15  C20 UNL     1      26.110 -12.067   6.079  1.00  0.00     0.217 C 
HETATM   16  F1  UNL     1      26.908 -12.448   4.990  1.00  0.00    -0.243 F 
ENDROOT
BRANCH   1  17
HETATM   17  N1  UNL     1      25.332  -9.465   6.490  1.00  0.00    -0.264 N 
HETATM   18  C7  UNL     1      25.295  -8.062   6.280  1.00  0.00     0.293 C 
HETATM   19  O1  UNL     1      24.490  -7.539   5.469  1.00  0.00    -0.264 OA
ATOM     20  H1  UNL     1      26.006  -9.836   7.161  1.00  0.00     0.190 HD
BRANCH  18  21
HETATM   21  C6  UNL     1      26.193  -7.169   7.000  1.00  0.00     0.144 A 
HETATM   22  C5  UNL     1      27.139  -6.301   6.461  1.00  0.00     0.045 A 
HETATM   23  C4  UNL     1      27.770  -5.645   7.493  1.00  0.00     0.036 A 
HETATM   24  C3  UNL     1      27.186  -6.136   8.637  1.00  0.00     0.053 A 
HETATM   25  O2  UNL     1      26.273  -7.023   8.300  1.00  0.00    -0.309 OA
BRANCH  24  26
HETATM   26  C2  UNL     1      27.566  -5.700  10.013  1.00  0.00     0.060 C 
HETATM   27  C1  UNL     1      26.352  -5.267  10.817  1.00  0.00     0.012 C 
ENDBRANCH  24  26
ENDBRANCH  18  21
ENDBRANCH   1  17
TORSDOF 3
ENDMDL
MODEL 3
REMARK VINA RESULT: -8.824204314      1.146      1.330
REMARK  3 active torsions:
REMARK  status: ('A' for Active; 'I' for Inactive)
REMARK    1  A    between atoms: C2_2  and  C3_3 
REMARK    2  A    between atoms: C6_6  and  C7_7 
REMARK       I    between atoms: C7_7  and  N1_9 
REMARK    3  A    between atoms: N1_9  and  N2_11 
ROOT
HETATM    1  N2  UNL     1      23.131 -13.902   6.880  1.00  0.00    -0.303 N 
ATOM      2  H2  UNL     1      22.139 -13.667   6.850  1.00  0.00     0.186 HD
HETATM    3  C8  UNL     1      23.478 -15.094   6.544  1.00  0.00     0.037 C 
HETATM    4  C9  UNL     1      22.430 -16.042   6.138  1.00  0.00     0.057 C 
HETATM    5  C10 UNL     1      21.214 -16.044   6.991  1.00  0.00     0.006 C 
HETATM    6  C11 UNL     1      21.338 -16.897   8.234  1.00  0.00     0.000 C 
HETATM    7  C12 UNL     1      21.254 -18.353   7.780  1.00  0.00     0.000 C 
HETATM    8  C13 UNL     1      22.136 -19.246   8.598  1.00  0.00     0.000 C 
HETATM    9  C14 UNL     1      22.929 -20.126   7.648  1.00  0.00     0.000 C 
HETATM   10  C15 UNL     1      24.399 -20.155   8.009  1.00  0.00     0.000 C 
HETATM   11  C16 UNL     1      25.248 -19.501   6.939  1.00  0.00     0.000 C 
HETATM   12  C17 UNL     1      26.419 -18.754   7.494  1.00  0.00     0.000 C 
HETATM   13  C18 UNL     1      26.456 -17.298   7.054  1.00  0.00     0.003 C 
HETATM   14  C19 UNL     1      25.233 -16.556   7.542  1.00  0.00     0.043 C 
HETATM   15  C20 UNL     1      24.922 -15.416   6.591  1.00  0.00     0.217 C 
HETATM   16  F1  UNL     1      25.390 -15.716   5.303  1.00  0.00    -0.243 F 
ENDROOT
BRANCH   1  17
HETATM   17  N1  UNL     1      24.025 -12.913   7.282  1.00  0.00    -0.264 N 
HETATM   18  C7  UNL     1      24.494 -11.888   6.419  1.00  0.00     0.293 C 
HETATM   19  O1  UNL     1      24.121 -11.814   5.221  1.00  0.00    -0.264 OA
ATOM     20  H1  UNL     1      24.361 -12.926   8.245  1.00  0.00     0.190 HD
BRANCH  18  21
HETATM   21  C6  UNL     1      25.430 -10.877   6.891  1.00  0.00     0.144 A 
HETATM   22  C5  UNL     1      26.208 -10.913   8.045  1.00  0.00     0.045 A 
HETATM   23  C4  UNL     1      26.950  -9.756   8.110  1.00  0.00     0.036 A 
HETATM   24  C3  UNL     1      26.600  -9.045   6.987  1.00  0.00     0.053 A 
HETATM   25  O2  UNL     1      25.710  -9.738   6.306  1.00  0.00    -0.309 OA
BRANCH  24  26
HETATM   26  C2  UNL     1      27.167  -7.708   6.644  1.00  0.00     0.060 C 
HETATM   27  C1  UNL     1      26.952  -6.706   7.766  1.00  0.00     0.012 C 
ENDBRANCH  24  26
ENDBRANCH  18  21
ENDBRANCH   1  17
TORSDOF 3
ENDMDL
MODEL 4
REMARK VINA RESULT: -8.807773824      1.858      2.475
REMARK  3 active torsions:
REMARK  status: ('A' for Active; 'I' for Inactive)
REMARK    1  A    between atoms: C2_2  and  C3_3 
REMARK    2  A    between atoms: C6_6  and  C7_7 
REMARK       I    between atoms: C7_7  and  N1_9 
REMARK    3  A    between atoms: N1_9  and  N2_11 
ROOT
HETATM    1  N2  UNL     1      24.142 -10.513   5.707  1.00  0.00    -0.303 N 
ATOM      2  H2  UNL     1      23.216 -10.168   5.456  1.00  0.00     0.186 HD
HETATM    3  C8  UNL     1      24.397 -11.757   5.505  1.00  0.00     0.037 C 
HETATM    4  C9  UNL     1      23.344 -12.604   4.926  1.00  0.00     0.057 C 
HETATM    5  C10 UNL     1      21.987 -12.408   5.497  1.00  0.00     0.006 C 
HETATM    6  C11 UNL     1      21.741 -13.181   6.773  1.00  0.00     0.000 C 
HETATM    7  C12 UNL     1      21.569 -14.646   6.375  1.00  0.00     0.000 C 
HETATM    8  C13 UNL     1      22.141 -15.576   7.400  1.00  0.00     0.000 C 
HETATM    9  C14 UNL     1      22.995 -16.604   6.681  1.00  0.00     0.000 C 
HETATM   10  C15 UNL     1      24.343 -16.778   7.350  1.00  0.00     0.000 C 
HETATM   11  C16 UNL     1      25.472 -16.301   6.459  1.00  0.00     0.000 C 
HETATM   12  C17 UNL     1      26.587 -15.658   7.220  1.00  0.00     0.000 C 
HETATM   13  C18 UNL     1      26.899 -14.249   6.736  1.00  0.00     0.003 C 
HETATM   14  C19 UNL     1      25.706 -13.339   6.919  1.00  0.00     0.043 C 
HETATM   15  C20 UNL     1      25.747 -12.240   5.875  1.00  0.00     0.217 C 
HETATM   16  F1  UNL     1      26.430 -12.680   4.732  1.00  0.00    -0.243 F 
ENDROOT
BRANCH   1  17
HETATM   17  N1  UNL     1      25.052  -9.609   6.249  1.00  0.00    -0.264 N 
HETATM   18  C7  UNL     1      24.989  -8.209   6.022  1.00  0.00     0.293 C 
HETATM   19  O1  UNL     1      24.091  -7.698   5.306  1.00  0.00    -0.264 OA
ATOM     20  H1  UNL     1      25.802  -9.970   6.839  1.00  0.00     0.190 HD
BRANCH  18  21
HETATM   21  C6  UNL     1      25.967  -7.306   6.614  1.00  0.00     0.144 A 
HETATM   22  C5  UNL     1      25.976  -6.795   7.909  1.00  0.00     0.045 A 
HETATM   23  C4  UNL     1      27.078  -5.983   8.052  1.00  0.00     0.036 A 
HETATM   24  C3  UNL     1      27.711  -6.023   6.832  1.00  0.00     0.053 A 
HETATM   25  O2  UNL     1      27.026  -6.807   6.024  1.00  0.00    -0.309 OA
BRANCH  24  26
HETATM   26  C2  UNL     1      28.967  -5.278   6.526  1.00  0.00     0.060 C 
HETATM   27  C1  UNL     1      29.269  -5.279   5.037  1.00  0.00     0.012 C 
ENDBRANCH  24  26
ENDBRANCH  18  21
ENDBRANCH   1  17
TORSDOF 3
ENDMDL
MODEL 5
REMARK VINA RESULT: -8.640270542      3.752      8.859
REMARK  3 active torsions:
REMARK  status: ('A' for Active; 'I' for Inactive)
REMARK    1  A    between atoms: C2_2  and  C3_3 
REMARK    2  A    between atoms: C6_6  and  C7_7 
REMARK       I    between atoms: C7_7  and  N1_9 
REMARK    3  A    between atoms: N1_9  and  N2_11 
ROOT
HETATM    1  N2  UNL     1      26.103 -16.407   7.093  1.00  0.00    -0.303 N 
ATOM      2  H2  UNL     1      27.099 -16.434   7.310  1.00  0.00     0.186 HD
HETATM    3  C8  UNL     1      25.676 -15.457   6.339  1.00  0.00     0.037 C 
HETATM    4  C9  UNL     1      26.645 -14.470   5.837  1.00  0.00     0.057 C 
HETATM    5  C10 UNL     1      27.625 -13.979   6.839  1.00  0.00     0.006 C 
HETATM    6  C11 UNL     1      27.105 -12.852   7.703  1.00  0.00     0.000 C 
HETATM    7  C12 UNL     1      27.083 -11.599   6.829  1.00  0.00     0.000 C 
HETATM    8  C13 UNL     1      25.923 -10.709   7.155  1.00  0.00     0.000 C 
HETATM    9  C14 UNL     1      25.249 -10.316   5.853  1.00  0.00     0.000 C 
HETATM   10  C15 UNL     1      23.746 -10.485   5.929  1.00  0.00     0.000 C 
HETATM   11  C16 UNL     1      23.260 -11.575   4.996  1.00  0.00     0.000 C 
HETATM   12  C17 UNL     1      22.111 -12.354   5.552  1.00  0.00     0.000 C 
HETATM   13  C18 UNL     1      22.380 -13.851   5.601  1.00  0.00     0.003 C 
HETATM   14  C19 UNL     1      23.553 -14.159   6.502  1.00  0.00     0.043 C 
HETATM   15  C20 UNL     1      24.228 -15.434   6.033  1.00  0.00     0.217 C 
HETATM   16  F1  UNL     1      24.024 -15.614   4.657  1.00  0.00    -0.243 F 
ENDROOT
BRANCH   1  17
HETATM   17  N1  UNL     1      25.290 -17.401   7.630  1.00  0.00    -0.264 N 
HETATM   18  C7  UNL     1      25.450 -18.782   7.342  1.00  0.00     0.293 C 
HETATM   19  O1  UNL     1      26.354 -19.191   6.570  1.00  0.00    -0.264 OA
ATOM     20  H1  UNL     1      24.540 -17.123   8.264  1.00  0.00     0.190 HD
BRANCH  18  21
HETATM   21  C6  UNL     1      24.571 -19.781   7.932  1.00  0.00     0.144 A 
HETATM   22  C5  UNL     1      24.906 -21.065   8.351  1.00  0.00     0.045 A 
HETATM   23  C4  UNL     1      23.776 -21.673   8.849  1.00  0.00     0.036 A 
HETATM   24  C3  UNL     1      22.780 -20.735   8.717  1.00  0.00     0.053 A 
HETATM   25  O2  UNL     1      23.290 -19.647   8.178  1.00  0.00    -0.309 OA
BRANCH  24  26
HETATM   26  C2  UNL     1      21.366 -20.966   9.135  1.00  0.00     0.060 C 
HETATM   27  C1  UNL     1      20.392 -20.200   8.255  1.00  0.00     0.012 C 
ENDBRANCH  24  26
ENDBRANCH  18  21
ENDBRANCH   1  17
TORSDOF 3
ENDMDL
