MODEL 1
REMARK VINA RESULT: -4.936242272      0.000      0.000
REMARK  0 active torsions:
REMARK  status: ('A' for Active; 'I' for Inactive)
ROOT
HETATM    1  C1  UNL     1      15.769   2.333  14.804  1.00  0.00     0.044 C 
HETATM    2  C2  UNL     1      16.465   1.787  16.039  1.00  0.00     0.005 C 
HETATM    3  C3  UNL     1      15.796   0.594  16.617  1.00  0.00     0.005 C 
HETATM    4  C4  UNL     1      14.613   0.859  17.470  1.00  0.00    -0.011 C 
HETATM    5  C5  UNL     1      14.718   2.033  18.375  1.00  0.00     0.029 C 
HETATM    6  C6  UNL     1      13.845   2.809  17.376  1.00  0.00     0.081 C 
HETATM    7  C7  UNL     1      13.469   1.522  16.767  1.00  0.00     0.029 C 
HETATM    8  N1  UNL     1      14.713   3.624  16.612  1.00  0.00    -0.398 N 
ATOM      9  H1  UNL     1      15.273   4.352  17.056  1.00  0.00     0.159 HD
HETATM   10  C8  UNL     1      14.783   3.402  15.226  1.00  0.00     0.056 C 
ENDROOT
TORSDOF 0
ENDMDL
MODEL 2
REMARK VINA RESULT: -4.872518443      4.951      6.126
REMARK  0 active torsions:
REMARK  status: ('A' for Active; 'I' for Inactive)
ROOT
HETATM    1  C1  UNL     1      19.375   1.840  10.433  1.00  0.00     0.044 C 
HETATM    2  C2  UNL     1      19.257   0.425  10.972  1.00  0.00     0.005 C 
HETATM    3  C3  UNL     1      18.085  -0.316  10.442  1.00  0.00     0.005 C 
HETATM    4  C4  UNL     1      16.782  -0.023  11.083  1.00  0.00    -0.011 C 
HETATM    5  C5  UNL     1      16.813   0.150  12.560  1.00  0.00     0.029 C 
HETATM    6  C6  UNL     1      16.742   1.667  12.326  1.00  0.00     0.081 C 
HETATM    7  C7  UNL     1      16.319   1.394  10.944  1.00  0.00     0.029 C 
HETATM    8  N1  UNL     1      18.055   2.171  12.482  1.00  0.00    -0.398 N 
ATOM      9  H1  UNL     1      18.546   2.089  13.373  1.00  0.00     0.159 HD
HETATM   10  C8  UNL     1      18.665   2.788  11.376  1.00  0.00     0.056 C 
ENDROOT
TORSDOF 0
ENDMDL
MODEL 3
REMARK VINA RESULT: -4.601470814      5.060      6.413
REMARK  0 active torsions:
REMARK  status: ('A' for Active; 'I' for Inactive)
ROOT
HETATM    1  C1  UNL     1      18.169  -0.661  11.138  1.00  0.00     0.044 C 
HETATM    2  C2  UNL     1      18.760   0.560  10.455  1.00  0.00     0.005 C 
HETATM    3  C3  UNL     1      19.086   1.664  11.393  1.00  0.00     0.005 C 
HETATM    4  C4  UNL     1      17.951   2.518  11.816  1.00  0.00    -0.011 C 
HETATM    5  C5  UNL     1      16.963   2.852  10.756  1.00  0.00     0.029 C 
HETATM    6  C6  UNL     1      16.040   1.781  11.358  1.00  0.00     0.081 C 
HETATM    7  C7  UNL     1      16.874   1.802  12.571  1.00  0.00     0.029 C 
HETATM    8  N1  UNL     1      16.160   0.628  10.546  1.00  0.00    -0.398 N 
ATOM      9  H1  UNL     1      15.890   0.650   9.563  1.00  0.00     0.159 HD
HETATM   10  C8  UNL     1      16.659  -0.547  11.133  1.00  0.00     0.056 C 
ENDROOT
TORSDOF 0
ENDMDL
MODEL 4
REMARK VINA RESULT: -4.565667681      4.716      6.146
REMARK  0 active torsions:
REMARK  status: ('A' for Active; 'I' for Inactive)
ROOT
HETATM    1  C1  UNL     1      19.263   0.815  10.441  1.00  0.00     0.044 C 
HETATM    2  C2  UNL     1      18.245   0.023  11.243  1.00  0.00     0.005 C 
HETATM    3  C3  UNL     1      16.845   0.233  10.796  1.00  0.00     0.005 C 
HETATM    4  C4  UNL     1      16.184   1.467  11.280  1.00  0.00    -0.011 C 
HETATM    5  C5  UNL     1      16.466   1.840  12.692  1.00  0.00     0.029 C 
HETATM    6  C6  UNL     1      17.450   2.892  12.157  1.00  0.00     0.081 C 
HETATM    7  C7  UNL     1      16.828   2.742  10.832  1.00  0.00     0.029 C 
HETATM    8  N1  UNL     1      18.750   2.350  12.294  1.00  0.00    -0.398 N 
ATOM      9  H1  UNL     1      19.126   2.116  13.213  1.00  0.00     0.159 HD
HETATM   10  C8  UNL     1      19.508   2.142  11.129  1.00  0.00     0.056 C 
ENDROOT
TORSDOF 0
ENDMDL
MODEL 5
REMARK VINA RESULT: -4.362968185      4.985      6.392
REMARK  0 active torsions:
REMARK  status: ('A' for Active; 'I' for Inactive)
ROOT
HETATM    1  C1  UNL     1      18.131   2.628  11.626  1.00  0.00     0.044 C 
HETATM    2  C2  UNL     1      19.179   1.539  11.476  1.00  0.00     0.005 C 
HETATM    3  C3  UNL     1      19.024   0.735  10.237  1.00  0.00     0.005 C 
HETATM    4  C4  UNL     1      17.999  -0.334  10.277  1.00  0.00    -0.011 C 
HETATM    5  C5  UNL     1      17.910  -1.098  11.549  1.00  0.00     0.029 C 
HETATM    6  C6  UNL     1      16.671  -0.259  11.900  1.00  0.00     0.081 C 
HETATM    7  C7  UNL     1      16.597   0.148  10.488  1.00  0.00     0.029 C 
HETATM    8  N1  UNL     1      17.092   0.739  12.810  1.00  0.00    -0.398 N 
ATOM      9  H1  UNL     1      17.478   0.489  13.721  1.00  0.00     0.159 HD
HETATM   10  C8  UNL     1      16.965   2.085  12.424  1.00  0.00     0.056 C 
ENDROOT
TORSDOF 0
ENDMDL
