MODEL 1
REMARK VINA RESULT: -5.348606772      0.000      0.000
REMARK  0 active torsions:
REMARK  status: ('A' for Active; 'I' for Inactive)
ROOT
HETATM    1  C1  UNL     1      14.641   4.216  14.976  1.00  0.00     0.001 C 
HETATM    2  C2  UNL     1      16.057   3.779  14.581  1.00  0.00     0.002 C 
HETATM    3  C3  UNL     1      16.048   2.259  14.761  1.00  0.00     0.033 C 
HETATM    4  C4  UNL     1      16.000   2.007  16.241  1.00  0.00     0.190 C 
HETATM    5  N1  UNL     1      15.841   0.575  16.475  1.00  0.00    -0.070 N 
ATOM      6  H11 UNL     1      16.710   0.110  16.738  1.00  0.00     0.277 HD
ATOM      7  H12 UNL     1      15.665   0.044  15.622  1.00  0.00     0.277 HD
HETATM    8  C5  UNL     1      14.797   0.432  17.461  1.00  0.00     0.233 C 
HETATM    9  C6  UNL     1      13.856   1.579  17.058  1.00  0.00     0.034 C 
HETATM   10  C7  UNL     1      14.909   2.694  16.958  1.00  0.00     0.018 C 
HETATM   11  C8  UNL     1      14.397   3.946  16.411  1.00  0.00     0.007 C 
ENDROOT
TORSDOF 0
ENDMDL
MODEL 2
REMARK VINA RESULT: -5.331630474      1.637      3.281
REMARK  0 active torsions:
REMARK  status: ('A' for Active; 'I' for Inactive)
ROOT
HETATM    1  C1  UNL     1      14.761   2.557  17.815  1.00  0.00     0.001 C 
HETATM    2  C2  UNL     1      14.979   1.395  16.838  1.00  0.00     0.002 C 
HETATM    3  C3  UNL     1      15.918   1.967  15.772  1.00  0.00     0.033 C 
HETATM    4  C4  UNL     1      15.107   2.948  14.976  1.00  0.00     0.190 C 
HETATM    5  N1  UNL     1      15.986   3.638  14.036  1.00  0.00    -0.070 N 
ATOM      6  H11 UNL     1      15.916   3.282  13.083  1.00  0.00     0.277 HD
ATOM      7  H12 UNL     1      16.973   3.429  14.179  1.00  0.00     0.277 HD
HETATM    8  C5  UNL     1      15.680   5.045  14.142  1.00  0.00     0.233 C 
HETATM    9  C6  UNL     1      15.387   5.167  15.646  1.00  0.00     0.034 C 
HETATM   10  C7  UNL     1      14.418   3.982  15.772  1.00  0.00     0.018 C 
HETATM   11  C8  UNL     1      14.043   3.666  17.146  1.00  0.00     0.007 C 
ENDROOT
TORSDOF 0
ENDMDL
MODEL 3
REMARK VINA RESULT: -5.075315221      1.152      2.149
REMARK  0 active torsions:
REMARK  status: ('A' for Active; 'I' for Inactive)
ROOT
HETATM    1  C1  UNL     1      15.522   4.536  15.343  1.00  0.00     0.001 C 
HETATM    2  C2  UNL     1      14.268   4.860  16.166  1.00  0.00     0.002 C 
HETATM    3  C3  UNL     1      14.354   3.922  17.372  1.00  0.00     0.033 C 
HETATM    4  C4  UNL     1      14.088   2.538  16.854  1.00  0.00     0.190 C 
HETATM    5  N1  UNL     1      14.301   1.577  17.932  1.00  0.00    -0.070 N 
ATOM      6  H11 UNL     1      13.433   1.249  18.357  1.00  0.00     0.277 HD
ATOM      7  H12 UNL     1      14.703   1.995  18.771  1.00  0.00     0.277 HD
HETATM    8  C5  UNL     1      15.105   0.512  17.382  1.00  0.00     0.233 C 
HETATM    9  C6  UNL     1      16.021   1.300  16.431  1.00  0.00     0.034 C 
HETATM   10  C7  UNL     1      14.935   2.121  15.720  1.00  0.00     0.018 C 
HETATM   11  C8  UNL     1      15.458   3.150  14.828  1.00  0.00     0.007 C 
ENDROOT
TORSDOF 0
ENDMDL
MODEL 4
REMARK VINA RESULT: -5.074100289      1.464      3.125
REMARK  0 active torsions:
REMARK  status: ('A' for Active; 'I' for Inactive)
ROOT
HETATM    1  C1  UNL     1      14.832   1.026  17.867  1.00  0.00     0.001 C 
HETATM    2  C2  UNL     1      15.620   0.452  16.682  1.00  0.00     0.002 C 
HETATM    3  C3  UNL     1      16.318   1.667  16.067  1.00  0.00     0.033 C 
HETATM    4  C4  UNL     1      15.244   2.488  15.413  1.00  0.00     0.190 C 
HETATM    5  N1  UNL     1      15.826   3.738  14.934  1.00  0.00    -0.070 N 
ATOM      6  H11 UNL     1      16.006   3.741  13.930  1.00  0.00     0.277 HD
ATOM      7  H12 UNL     1      16.790   3.876  15.238  1.00  0.00     0.277 HD
HETATM    8  C5  UNL     1      14.938   4.795  15.356  1.00  0.00     0.233 C 
HETATM    9  C6  UNL     1      14.480   4.262  16.724  1.00  0.00     0.034 C 
HETATM   10  C7  UNL     1      14.106   2.839  16.284  1.00  0.00     0.018 C 
HETATM   11  C8  UNL     1      13.775   1.945  17.389  1.00  0.00     0.007 C 
ENDROOT
TORSDOF 0
ENDMDL
MODEL 5
REMARK VINA RESULT: -5.036976280      1.051      2.326
REMARK  0 active torsions:
REMARK  status: ('A' for Active; 'I' for Inactive)
ROOT
HETATM    1  C1  UNL     1      14.697   4.779  16.360  1.00  0.00     0.001 C 
HETATM    2  C2  UNL     1      13.765   4.188  17.426  1.00  0.00     0.002 C 
HETATM    3  C3  UNL     1      14.517   2.962  17.949  1.00  0.00     0.033 C 
HETATM    4  C4  UNL     1      14.485   1.942  16.848  1.00  0.00     0.190 C 
HETATM    5  N1  UNL     1      15.313   0.802  17.231  1.00  0.00    -0.070 N 
ATOM      6  H11 UNL     1      14.772   0.004  17.564  1.00  0.00     0.277 HD
ATOM      7  H12 UNL     1      15.846   0.961  18.086  1.00  0.00     0.277 HD
HETATM    8  C5  UNL     1      16.142   0.493  16.090  1.00  0.00     0.233 C 
HETATM    9  C6  UNL     1      16.418   1.902  15.540  1.00  0.00     0.034 C 
HETATM   10  C7  UNL     1      14.971   2.418  15.539  1.00  0.00     0.018 C 
HETATM   11  C8  UNL     1      14.848   3.838  15.227  1.00  0.00     0.007 C 
ENDROOT
TORSDOF 0
ENDMDL
