MODEL 1
REMARK VINA RESULT: -7.707059427      0.000      0.000
REMARK  3 active torsions:
REMARK  status: ('A' for Active; 'I' for Inactive)
REMARK    1  A    between atoms: C2_2  and  C3_3 
REMARK    2  A    between atoms: C4_7  and  O2_8 
REMARK    3  A    between atoms: C4_7  and  C5_10 
ROOT
HETATM    1  C3  UNL     1     -42.837 -49.843  27.846  1.00  0.00     0.033 C 
HETATM    2  N1  UNL     1     -43.739 -49.427  27.048  1.00  0.00    -0.270 N 
ATOM      3  H1  UNL     1     -44.158 -50.023  26.333  1.00  0.00     0.194 HD
HETATM    4  O1  UNL     1     -44.095 -48.141  27.224  1.00  0.00    -0.233 OA
HETATM    5  C4  UNL     1     -43.171 -47.538  28.116  1.00  0.00     0.239 C 
HETATM    6  C12 UNL     1     -42.461 -48.724  28.736  1.00  0.00     0.209 C 
HETATM    7  C13 UNL     1     -40.981 -48.529  28.702  1.00  0.00     0.076 C 
HETATM    8  N2  UNL     1     -39.834 -48.376  28.656  1.00  0.00    -0.196 NA
ENDROOT
BRANCH   1   9
HETATM    9  C2  UNL     1     -42.260 -51.191  27.885  1.00  0.00     0.051 C 
HETATM   10  C1  UNL     1     -42.762 -51.946  29.093  1.00  0.00     0.011 C 
ENDBRANCH   1   9
BRANCH   5  11
HETATM   11  O2  UNL     1     -42.191 -46.890  27.364  1.00  0.00    -0.359 OA
ATOM     12  H2  UNL     1     -41.655 -46.373  27.952  1.00  0.00     0.213 HD
ENDBRANCH   5  11
BRANCH   5  13
HETATM   13  C5  UNL     1     -43.816 -46.635  29.056  1.00  0.00     0.036 A 
HETATM   14  C6  UNL     1     -43.218 -45.385  29.269  1.00  0.00     0.048 A 
HETATM   15 CL1  UNL     1     -41.724 -44.902  28.494  1.00  0.00    -0.084 Cl
HETATM   16  C7  UNL     1     -43.775 -44.470  30.129  1.00  0.00     0.050 A 
HETATM   17  C8  UNL     1     -44.939 -44.809  30.778  1.00  0.00     0.058 A 
HETATM   18 CL2  UNL     1     -45.670 -43.654  31.880  1.00  0.00    -0.082 Cl
HETATM   19  C9  UNL     1     -45.551 -46.027  30.592  1.00  0.00     0.062 A 
HETATM   20 CL3  UNL     1     -47.042 -46.429  31.441  1.00  0.00    -0.082 Cl
HETATM   21  C10 UNL     1     -44.980 -46.959  29.715  1.00  0.00    -0.025 A 
HETATM   22  C11 UNL     1     -45.689 -48.248  29.566  1.00  0.00     0.050 C 
ENDBRANCH   5  13
TORSDOF 3
ENDMDL
MODEL 2
REMARK VINA RESULT: -7.606665994      2.616      4.200
REMARK  3 active torsions:
REMARK  status: ('A' for Active; 'I' for Inactive)
REMARK    1  A    between atoms: C2_2  and  C3_3 
REMARK    2  A    between atoms: C4_7  and  O2_8 
REMARK    3  A    between atoms: C4_7  and  C5_10 
ROOT
HETATM    1  C3  UNL     1     -39.978 -45.933  28.001  1.00  0.00     0.033 C 
HETATM    2  N1  UNL     1     -39.932 -47.002  28.692  1.00  0.00    -0.270 N 
ATOM      3  H1  UNL     1     -39.081 -47.323  29.154  1.00  0.00     0.194 HD
HETATM    4  O1  UNL     1     -41.096 -47.674  28.764  1.00  0.00    -0.233 OA
HETATM    5  C4  UNL     1     -42.000 -47.105  27.830  1.00  0.00     0.239 C 
HETATM    6  C12 UNL     1     -41.352 -45.781  27.480  1.00  0.00     0.209 C 
HETATM    7  C13 UNL     1     -41.312 -45.589  26.000  1.00  0.00     0.076 C 
HETATM    8  N2  UNL     1     -41.271 -45.457  24.850  1.00  0.00    -0.196 NA
ENDROOT
BRANCH   1   9
HETATM    9  C2  UNL     1     -38.867 -45.007  27.752  1.00  0.00     0.051 C 
HETATM   10  C1  UNL     1     -39.139 -43.670  28.401  1.00  0.00     0.011 C 
ENDBRANCH   1   9
BRANCH   5  11
HETATM   11  O2  UNL     1     -41.945 -47.851  26.653  1.00  0.00    -0.359 OA
ATOM     12  H2  UNL     1     -42.676 -48.457  26.647  1.00  0.00     0.213 HD
ENDBRANCH   5  11
BRANCH   5  13
HETATM   13  C5  UNL     1     -43.355 -47.018  28.353  1.00  0.00     0.036 A 
HETATM   14  C6  UNL     1     -44.320 -47.871  27.798  1.00  0.00     0.048 A 
HETATM   15 CL1  UNL     1     -43.968 -48.981  26.491  1.00  0.00    -0.084 Cl
HETATM   16  C7  UNL     1     -45.618 -47.862  28.249  1.00  0.00     0.050 A 
HETATM   17  C8  UNL     1     -45.950 -46.993  29.262  1.00  0.00     0.058 A 
HETATM   18 CL2  UNL     1     -47.602 -46.965  29.855  1.00  0.00    -0.082 Cl
HETATM   19  C9  UNL     1     -45.028 -46.143  29.827  1.00  0.00     0.062 A 
HETATM   20 CL3  UNL     1     -45.489 -45.043  31.124  1.00  0.00    -0.082 Cl
HETATM   21  C10 UNL     1     -43.705 -46.155  29.365  1.00  0.00    -0.025 A 
HETATM   22  C11 UNL     1     -42.768 -45.213  30.015  1.00  0.00     0.050 C 
ENDBRANCH   5  13
TORSDOF 3
ENDMDL
MODEL 3
REMARK VINA RESULT: -7.538178569      1.629      2.765
REMARK  3 active torsions:
REMARK  status: ('A' for Active; 'I' for Inactive)
REMARK    1  A    between atoms: C2_2  and  C3_3 
REMARK    2  A    between atoms: C4_7  and  O2_8 
REMARK    3  A    between atoms: C4_7  and  C5_10 
ROOT
HETATM    1  C3  UNL     1     -41.157 -48.124  26.715  1.00  0.00     0.033 C 
HETATM    2  N1  UNL     1     -40.581 -48.324  27.834  1.00  0.00    -0.270 N 
ATOM      3  H1  UNL     1     -39.605 -48.613  27.907  1.00  0.00     0.194 HD
HETATM    4  O1  UNL     1     -41.363 -48.122  28.911  1.00  0.00    -0.233 OA
HETATM    5  C4  UNL     1     -42.703 -47.970  28.470  1.00  0.00     0.239 C 
HETATM    6  C12 UNL     1     -42.554 -47.725  26.982  1.00  0.00     0.209 C 
HETATM    7  C13 UNL     1     -43.484 -48.600  26.208  1.00  0.00     0.076 C 
HETATM    8  N2  UNL     1     -44.198 -49.294  25.617  1.00  0.00    -0.196 NA
ENDROOT
BRANCH   1   9
HETATM    9  C2  UNL     1     -40.552 -48.266  25.385  1.00  0.00     0.051 C 
HETATM   10  C1  UNL     1     -39.705 -47.060  25.058  1.00  0.00     0.011 C 
ENDBRANCH   1   9
BRANCH   5  11
HETATM   11  O2  UNL     1     -43.341 -49.206  28.565  1.00  0.00    -0.359 OA
ATOM     12  H2  UNL     1     -43.834 -49.227  29.376  1.00  0.00     0.213 HD
ENDBRANCH   5  11
BRANCH   5  13
HETATM   13  C5  UNL     1     -43.414 -46.935  29.204  1.00  0.00     0.036 A 
HETATM   14  C6  UNL     1     -42.834 -45.660  29.252  1.00  0.00     0.048 A 
HETATM   15 CL1  UNL     1     -41.291 -45.289  28.514  1.00  0.00    -0.084 Cl
HETATM   16  C7  UNL     1     -43.452 -44.624  29.911  1.00  0.00     0.050 A 
HETATM   17  C8  UNL     1     -44.658 -44.869  30.524  1.00  0.00     0.058 A 
HETATM   18 CL2  UNL     1     -45.466 -43.560  31.371  1.00  0.00    -0.082 Cl
HETATM   19  C9  UNL     1     -45.254 -46.108  30.497  1.00  0.00     0.062 A 
HETATM   20 CL3  UNL     1     -46.801 -46.386  31.294  1.00  0.00    -0.082 Cl
HETATM   21  C10 UNL     1     -44.621 -47.163  29.824  1.00  0.00    -0.025 A 
HETATM   22  C11 UNL     1     -45.316 -48.468  29.838  1.00  0.00     0.050 C 
ENDBRANCH   5  13
TORSDOF 3
ENDMDL
MODEL 4
REMARK VINA RESULT: -7.434763227      3.275      5.582
REMARK  3 active torsions:
REMARK  status: ('A' for Active; 'I' for Inactive)
REMARK    1  A    between atoms: C2_2  and  C3_3 
REMARK    2  A    between atoms: C4_7  and  O2_8 
REMARK    3  A    between atoms: C4_7  and  C5_10 
ROOT
HETATM    1  C3  UNL     1     -45.503 -47.163  29.337  1.00  0.00     0.033 C 
HETATM    2  N1  UNL     1     -44.958 -48.290  29.572  1.00  0.00    -0.270 N 
ATOM      3  H1  UNL     1     -45.477 -49.086  29.944  1.00  0.00     0.194 HD
HETATM    4  O1  UNL     1     -43.642 -48.346  29.292  1.00  0.00    -0.233 OA
HETATM    5  C4  UNL     1     -43.183 -47.030  29.030  1.00  0.00     0.239 C 
HETATM    6  C12 UNL     1     -44.464 -46.250  28.816  1.00  0.00     0.209 C 
HETATM    7  C13 UNL     1     -44.454 -44.989  29.616  1.00  0.00     0.076 C 
HETATM    8  N2  UNL     1     -44.442 -44.022  30.253  1.00  0.00    -0.196 NA
ENDROOT
BRANCH   1   9
HETATM    9  C2  UNL     1     -46.913 -46.815  29.546  1.00  0.00     0.051 C 
HETATM   10  C1  UNL     1     -47.741 -47.225  28.351  1.00  0.00     0.011 C 
ENDBRANCH   1   9
BRANCH   5  11
HETATM   11  O2  UNL     1     -42.642 -46.510  30.205  1.00  0.00    -0.359 OA
ATOM     12  H2  UNL     1     -42.238 -47.220  30.689  1.00  0.00     0.213 HD
ENDBRANCH   5  11
BRANCH   5  13
HETATM   13  C5  UNL     1     -42.233 -46.983  27.929  1.00  0.00     0.036 A 
HETATM   14  C6  UNL     1     -42.492 -47.793  26.815  1.00  0.00     0.048 A 
HETATM   15 CL1  UNL     1     -43.866 -48.874  26.724  1.00  0.00    -0.084 Cl
HETATM   16  C7  UNL     1     -41.652 -47.793  25.728  1.00  0.00     0.050 A 
HETATM   17  C8  UNL     1     -40.547 -46.975  25.757  1.00  0.00     0.058 A 
HETATM   18 CL2  UNL     1     -39.461 -46.957  24.378  1.00  0.00    -0.082 Cl
HETATM   19  C9  UNL     1     -40.263 -46.169  26.835  1.00  0.00     0.062 A 
HETATM   20 CL3  UNL     1     -38.838 -45.132  26.839  1.00  0.00    -0.082 Cl
HETATM   21  C10 UNL     1     -41.122 -46.171  27.943  1.00  0.00    -0.025 A 
HETATM   22  C11 UNL     1     -40.755 -45.283  29.067  1.00  0.00     0.050 C 
ENDBRANCH   5  13
TORSDOF 3
ENDMDL
MODEL 5
REMARK VINA RESULT: -7.273706365      1.339      1.740
REMARK  3 active torsions:
REMARK  status: ('A' for Active; 'I' for Inactive)
REMARK    1  A    between atoms: C2_2  and  C3_3 
REMARK    2  A    between atoms: C4_7  and  O2_8 
REMARK    3  A    between atoms: C4_7  and  C5_10 
ROOT
HETATM    1  C3  UNL     1     -43.380 -49.109  26.341  1.00  0.00     0.033 C 
HETATM    2  N1  UNL     1     -42.906 -48.027  25.866  1.00  0.00    -0.270 N 
ATOM      3  H1  UNL     1     -42.695 -47.906  24.875  1.00  0.00     0.194 HD
HETATM    4  O1  UNL     1     -42.706 -47.055  26.776  1.00  0.00    -0.233 OA
HETATM    5  C4  UNL     1     -42.864 -47.613  28.070  1.00  0.00     0.239 C 
HETATM    6  C12 UNL     1     -43.556 -48.933  27.798  1.00  0.00     0.209 C 
HETATM    7  C13 UNL     1     -42.875 -50.045  28.526  1.00  0.00     0.076 C 
HETATM    8  N2  UNL     1     -42.330 -50.903  29.081  1.00  0.00    -0.196 NA
ENDROOT
BRANCH   1   9
HETATM    9  C2  UNL     1     -43.697 -50.328  25.588  1.00  0.00     0.051 C 
HETATM   10  C1  UNL     1     -42.436 -50.954  25.041  1.00  0.00     0.011 C 
ENDBRANCH   1   9
BRANCH   5  11
HETATM   11  O2  UNL     1     -41.605 -47.965  28.556  1.00  0.00    -0.359 OA
ATOM     12  H2  UNL     1     -40.985 -47.927  27.838  1.00  0.00     0.213 HD
ENDBRANCH   5  11
BRANCH   5  13
HETATM   13  C5  UNL     1     -43.564 -46.718  28.978  1.00  0.00     0.036 A 
HETATM   14  C6  UNL     1     -43.012 -45.446  29.188  1.00  0.00     0.048 A 
HETATM   15 CL1  UNL     1     -41.514 -44.927  28.446  1.00  0.00    -0.084 Cl
HETATM   16  C7  UNL     1     -43.622 -44.536  30.017  1.00  0.00     0.050 A 
HETATM   17  C8  UNL     1     -44.792 -44.903  30.639  1.00  0.00     0.058 A 
HETATM   18 CL2  UNL     1     -45.590 -43.755  31.702  1.00  0.00    -0.082 Cl
HETATM   19  C9  UNL     1     -45.360 -46.142  30.456  1.00  0.00     0.062 A 
HETATM   20 CL3  UNL     1     -46.861 -46.579  31.269  1.00  0.00    -0.082 Cl
HETATM   21  C10 UNL     1     -44.735 -47.068  29.610  1.00  0.00    -0.025 A 
HETATM   22  C11 UNL     1     -45.398 -48.382  29.461  1.00  0.00     0.050 C 
ENDBRANCH   5  13
TORSDOF 3
ENDMDL
