MODEL 1
REMARK VINA RESULT: -7.204723190      0.000      0.000
REMARK  3 active torsions:
REMARK  status: ('A' for Active; 'I' for Inactive)
REMARK    1  A    between atoms: C2_2  and  N1_3 
REMARK    2  A    between atoms: C5_6  and  C6_7 
REMARK    3  A    between atoms: C12_18  and  O1_19 
ROOT
HETATM    1  N1  UNL     1     -40.415 -46.851  28.359  1.00  0.00    -0.316 N 
HETATM    2  C3  UNL     1     -41.666 -46.550  28.731  1.00  0.00     0.023 A 
HETATM    3  C4  UNL     1     -42.254 -45.204  28.636  1.00  0.00     0.069 C 
HETATM    4  C5  UNL     1     -42.441 -47.592  29.233  1.00  0.00     0.018 A 
HETATM    5  C11 UNL     1     -41.954 -48.877  29.344  1.00  0.00     0.058 A 
HETATM    6  C12 UNL     1     -40.660 -49.149  28.950  1.00  0.00     0.135 A 
HETATM    7  C13 UNL     1     -39.922 -48.111  28.463  1.00  0.00     0.281 A 
HETATM    8  O2  UNL     1     -38.726 -48.378  28.102  1.00  0.00    -0.265 OA
ENDROOT
BRANCH   4   9
HETATM    9  C6  UNL     1     -43.829 -47.335  29.681  1.00  0.00     0.068 A 
HETATM   10  N2  UNL     1     -44.080 -46.901  30.931  1.00  0.00    -0.362 N 
HETATM   11  C7  UNL     1     -45.322 -46.648  31.379  1.00  0.00     0.114 A 
ATOM     12  H2  UNL     1     -43.294 -46.757  31.564  1.00  0.00     0.165 HD
HETATM   13  C8  UNL     1     -46.404 -46.842  30.520  1.00  0.00     0.072 A 
HETATM   14 CL1  UNL     1     -47.997 -46.499  31.151  1.00  0.00    -0.081 Cl
HETATM   15  C9  UNL     1     -46.205 -47.286  29.228  1.00  0.00     0.081 A 
HETATM   16 CL2  UNL     1     -47.607 -47.505  28.211  1.00  0.00    -0.081 Cl
HETATM   17  C10 UNL     1     -44.911 -47.524  28.836  1.00  0.00     0.085 A 
HETATM   18 CL3  UNL     1     -44.648 -48.089  27.205  1.00  0.00    -0.080 Cl
ENDBRANCH   4   9
BRANCH   1  19
HETATM   19  C2  UNL     1     -39.545 -45.833  27.825  1.00  0.00     0.128 C 
HETATM   20  C1  UNL     1     -39.669 -45.737  26.308  1.00  0.00     0.027 C 
ENDBRANCH   1  19
BRANCH   6  21
HETATM   21  O1  UNL     1     -40.125 -50.443  29.046  1.00  0.00    -0.356 OA
ATOM     22  H1  UNL     1     -39.376 -50.708  28.525  1.00  0.00     0.218 HD
ENDBRANCH   6  21
TORSDOF 3
ENDMDL
MODEL 2
REMARK VINA RESULT: -7.109137364      3.395      5.636
REMARK  3 active torsions:
REMARK  status: ('A' for Active; 'I' for Inactive)
REMARK    1  A    between atoms: C2_2  and  N1_3 
REMARK    2  A    between atoms: C5_6  and  C6_7 
REMARK    3  A    between atoms: C12_18  and  O1_19 
ROOT
HETATM    1  N1  UNL     1     -44.612 -46.025  29.599  1.00  0.00    -0.316 N 
HETATM    2  C3  UNL     1     -44.632 -47.166  28.898  1.00  0.00     0.023 A 
HETATM    3  C4  UNL     1     -45.721 -48.154  28.960  1.00  0.00     0.069 C 
HETATM    4  C5  UNL     1     -43.545 -47.410  28.062  1.00  0.00     0.018 A 
HETATM    5  C11 UNL     1     -42.494 -46.524  27.954  1.00  0.00     0.058 A 
HETATM    6  C12 UNL     1     -42.510 -45.358  28.691  1.00  0.00     0.135 A 
HETATM    7  C13 UNL     1     -43.585 -45.144  29.502  1.00  0.00     0.281 A 
HETATM    8  O2  UNL     1     -43.586 -44.060  30.179  1.00  0.00    -0.265 OA
ENDROOT
BRANCH   4   9
HETATM    9  C6  UNL     1     -43.486 -48.658  27.268  1.00  0.00     0.068 A 
HETATM   10  N2  UNL     1     -43.999 -48.708  26.023  1.00  0.00    -0.362 N 
HETATM   11  C7  UNL     1     -43.964 -49.816  25.264  1.00  0.00     0.114 A 
ATOM     12  H2  UNL     1     -44.434 -47.868  25.641  1.00  0.00     0.165 HD
HETATM   13  C8  UNL     1     -43.372 -50.970  25.778  1.00  0.00     0.072 A 
HETATM   14 CL1  UNL     1     -43.350 -52.383  24.750  1.00  0.00    -0.081 Cl
HETATM   15  C9  UNL     1     -42.830 -50.975  27.047  1.00  0.00     0.081 A 
HETATM   16 CL2  UNL     1     -42.106 -52.457  27.623  1.00  0.00    -0.081 Cl
HETATM   17  C10 UNL     1     -42.901 -49.810  27.769  1.00  0.00     0.085 A 
HETATM   18 CL3  UNL     1     -42.222 -49.807  29.377  1.00  0.00    -0.080 Cl
ENDBRANCH   4   9
BRANCH   1  19
HETATM   19  C2  UNL     1     -45.700 -45.692  30.485  1.00  0.00     0.128 C 
HETATM   20  C1  UNL     1     -45.501 -46.310  31.864  1.00  0.00     0.027 C 
ENDBRANCH   1  19
BRANCH   6  21
HETATM   21  O1  UNL     1     -41.460 -44.429  28.610  1.00  0.00    -0.356 OA
ATOM     22  H1  UNL     1     -41.018 -44.115  29.390  1.00  0.00     0.218 HD
ENDBRANCH   6  21
TORSDOF 3
ENDMDL
MODEL 3
REMARK VINA RESULT: -6.990815045     11.534     13.917
REMARK  3 active torsions:
REMARK  status: ('A' for Active; 'I' for Inactive)
REMARK    1  A    between atoms: C2_2  and  N1_3 
REMARK    2  A    between atoms: C5_6  and  C6_7 
REMARK    3  A    between atoms: C12_18  and  O1_19 
ROOT
HETATM    1  N1  UNL     1     -53.821 -45.677  33.307  1.00  0.00    -0.316 N 
HETATM    2  C3  UNL     1     -54.097 -46.976  33.478  1.00  0.00     0.023 A 
HETATM    3  C4  UNL     1     -53.177 -48.068  33.121  1.00  0.00     0.069 C 
HETATM    4  C5  UNL     1     -55.336 -47.289  34.031  1.00  0.00     0.018 A 
HETATM    5  C11 UNL     1     -56.242 -46.314  34.391  1.00  0.00     0.058 A 
HETATM    6  C12 UNL     1     -55.922 -44.986  34.201  1.00  0.00     0.135 A 
HETATM    7  C13 UNL     1     -54.704 -44.706  33.657  1.00  0.00     0.281 A 
HETATM    8  O2  UNL     1     -54.420 -43.472  33.487  1.00  0.00    -0.265 OA
ENDROOT
BRANCH   4   9
HETATM    9  C6  UNL     1     -55.721 -48.704  34.235  1.00  0.00     0.068 A 
HETATM   10  N2  UNL     1     -55.262 -49.397  35.295  1.00  0.00    -0.362 N 
HETATM   11  C7  UNL     1     -55.589 -50.681  35.523  1.00  0.00     0.114 A 
ATOM     12  H2  UNL     1     -54.641 -48.927  35.953  1.00  0.00     0.165 HD
HETATM   13  C8  UNL     1     -56.438 -51.332  34.629  1.00  0.00     0.072 A 
HETATM   14 CL1  UNL     1     -56.833 -53.000  34.972  1.00  0.00    -0.081 Cl
HETATM   15  C9  UNL     1     -56.937 -50.671  33.525  1.00  0.00     0.081 A 
HETATM   16 CL2  UNL     1     -57.994 -51.551  32.450  1.00  0.00    -0.081 Cl
HETATM   17  C10 UNL     1     -56.563 -49.361  33.352  1.00  0.00     0.085 A 
HETATM   18 CL3  UNL     1     -57.186 -48.516  31.958  1.00  0.00    -0.080 Cl
ENDBRANCH   4   9
BRANCH   1  19
HETATM   19  C2  UNL     1     -52.560 -45.263  32.744  1.00  0.00     0.128 C 
HETATM   20  C1  UNL     1     -52.307 -45.933  31.398  1.00  0.00     0.027 C 
ENDBRANCH   1  19
BRANCH   6  21
HETATM   21  O1  UNL     1     -56.816 -43.962  34.554  1.00  0.00    -0.356 OA
ATOM     22  H1  UNL     1     -57.539 -44.121  35.149  1.00  0.00     0.218 HD
ENDBRANCH   6  21
TORSDOF 3
ENDMDL
MODEL 4
REMARK VINA RESULT: -6.977307110     12.847     14.531
REMARK  3 active torsions:
REMARK  status: ('A' for Active; 'I' for Inactive)
REMARK    1  A    between atoms: C2_2  and  N1_3 
REMARK    2  A    between atoms: C5_6  and  C6_7 
REMARK    3  A    between atoms: C12_18  and  O1_19 
ROOT
HETATM    1  N1  UNL     1     -56.928 -51.084  33.797  1.00  0.00    -0.316 N 
HETATM    2  C3  UNL     1     -56.720 -49.786  33.547  1.00  0.00     0.023 A 
HETATM    3  C4  UNL     1     -57.389 -49.035  32.472  1.00  0.00     0.069 C 
HETATM    4  C5  UNL     1     -55.813 -49.124  34.371  1.00  0.00     0.018 A 
HETATM    5  C11 UNL     1     -55.156 -49.767  35.399  1.00  0.00     0.058 A 
HETATM    6  C12 UNL     1     -55.398 -51.105  35.626  1.00  0.00     0.135 A 
HETATM    7  C13 UNL     1     -56.289 -51.730  34.805  1.00  0.00     0.281 A 
HETATM    8  O2  UNL     1     -56.503 -52.970  35.027  1.00  0.00    -0.265 OA
ENDROOT
BRANCH   4   9
HETATM    9  C6  UNL     1     -55.517 -47.690  34.146  1.00  0.00     0.068 A 
HETATM   10  N2  UNL     1     -56.281 -46.733  34.707  1.00  0.00    -0.362 N 
HETATM   11  C7  UNL     1     -56.047 -45.420  34.536  1.00  0.00     0.114 A 
ATOM     12  H2  UNL     1     -57.070 -47.016  35.287  1.00  0.00     0.165 HD
HETATM   13  C8  UNL     1     -54.969 -45.023  33.744  1.00  0.00     0.072 A 
HETATM   14 CL1  UNL     1     -54.707 -43.305  33.554  1.00  0.00    -0.081 Cl
HETATM   15  C9  UNL     1     -54.153 -45.962  33.146  1.00  0.00     0.081 A 
HETATM   16 CL2  UNL     1     -52.823 -45.389  32.169  1.00  0.00    -0.081 Cl
HETATM   17  C10 UNL     1     -54.449 -47.285  33.362  1.00  0.00     0.085 A 
HETATM   18 CL3  UNL     1     -53.426 -48.480  32.606  1.00  0.00    -0.080 Cl
ENDBRANCH   4   9
BRANCH   1  19
HETATM   19  C2  UNL     1     -57.854 -51.845  32.995  1.00  0.00     0.128 C 
HETATM   20  C1  UNL     1     -57.161 -52.474  31.793  1.00  0.00     0.027 C 
ENDBRANCH   1  19
BRANCH   6  21
HETATM   21  O1  UNL     1     -54.750 -51.798  36.662  1.00  0.00    -0.356 OA
ATOM     22  H1  UNL     1     -53.908 -52.216  36.525  1.00  0.00     0.218 HD
ENDBRANCH   6  21
TORSDOF 3
ENDMDL
MODEL 5
REMARK VINA RESULT: -6.841218738      3.643      6.356
REMARK  3 active torsions:
REMARK  status: ('A' for Active; 'I' for Inactive)
REMARK    1  A    between atoms: C2_2  and  N1_3 
REMARK    2  A    between atoms: C5_6  and  C6_7 
REMARK    3  A    between atoms: C12_18  and  O1_19 
ROOT
HETATM    1  N1  UNL     1     -46.198 -47.219  29.619  1.00  0.00    -0.316 N 
HETATM    2  C3  UNL     1     -45.044 -47.181  28.941  1.00  0.00     0.023 A 
HETATM    3  C4  UNL     1     -44.791 -47.930  27.700  1.00  0.00     0.069 C 
HETATM    4  C5  UNL     1     -44.036 -46.373  29.461  1.00  0.00     0.018 A 
HETATM    5  C11 UNL     1     -44.209 -45.642  30.617  1.00  0.00     0.058 A 
HETATM    6  C12 UNL     1     -45.413 -45.706  31.287  1.00  0.00     0.135 A 
HETATM    7  C13 UNL     1     -46.383 -46.505  30.758  1.00  0.00     0.281 A 
HETATM    8  O2  UNL     1     -47.493 -46.555  31.389  1.00  0.00    -0.265 OA
ENDROOT
BRANCH   4   9
HETATM    9  C6  UNL     1     -42.724 -46.293  28.777  1.00  0.00     0.068 A 
HETATM   10  N2  UNL     1     -42.357 -45.175  28.121  1.00  0.00    -0.362 N 
HETATM   11  C7  UNL     1     -41.176 -45.055  27.492  1.00  0.00     0.114 A 
ATOM     12  H2  UNL     1     -43.004 -44.387  28.101  1.00  0.00     0.165 HD
HETATM   13  C8  UNL     1     -40.285 -46.128  27.513  1.00  0.00     0.072 A 
HETATM   14 CL1  UNL     1     -38.762 -45.920  26.681  1.00  0.00    -0.081 Cl
HETATM   15  C9  UNL     1     -40.609 -47.297  28.171  1.00  0.00     0.081 A 
HETATM   16 CL2  UNL     1     -39.444 -48.597  28.155  1.00  0.00    -0.081 Cl
HETATM   17  C10 UNL     1     -41.832 -47.352  28.792  1.00  0.00     0.085 A 
HETATM   18 CL3  UNL     1     -42.254 -48.828  29.624  1.00  0.00    -0.080 Cl
ENDBRANCH   4   9
BRANCH   1  19
HETATM   19  C2  UNL     1     -47.297 -48.027  29.149  1.00  0.00     0.128 C 
HETATM   20  C1  UNL     1     -48.245 -47.217  28.272  1.00  0.00     0.027 C 
ENDBRANCH   1  19
BRANCH   6  21
HETATM   21  O1  UNL     1     -45.630 -44.978  32.467  1.00  0.00    -0.356 OA
ATOM     22  H1  UNL     1     -46.128 -44.169  32.464  1.00  0.00     0.218 HD
ENDBRANCH   6  21
TORSDOF 3
ENDMDL
