MODEL 1
REMARK VINA RESULT: -7.509685860      0.000      0.000
REMARK  3 active torsions:
REMARK  status: ('A' for Active; 'I' for Inactive)
REMARK    1  A    between atoms: O1_2  and  C2_3 
REMARK    2  A    between atoms: C3_4  and  O2_5 
REMARK    3  A    between atoms: C5_8  and  N1_9 
ROOT
HETATM    1  C2  UNL     1     -49.203 -48.224  29.753  1.00  0.00     0.123 A 
HETATM    2  C3  UNL     1     -48.150 -48.631  30.533  1.00  0.00     0.102 A 
HETATM    3  C4  UNL     1     -46.870 -48.198  30.218  1.00  0.00     0.069 A 
HETATM    4  C5  UNL     1     -46.624 -47.372  29.150  1.00  0.00     0.047 A 
HETATM    5  C13 UNL     1     -47.694 -46.973  28.378  1.00  0.00     0.057 A 
HETATM    6  C14 UNL     1     -48.996 -47.395  28.671  1.00  0.00     0.072 A 
HETATM    7 CL3  UNL     1     -50.332 -46.875  27.678  1.00  0.00    -0.081 Cl
ENDROOT
BRANCH   4   8
HETATM    8  N1  UNL     1     -45.294 -46.942  28.851  1.00  0.00    -0.280 N 
HETATM    9  C6  UNL     1     -44.758 -45.867  29.487  1.00  0.00     0.038 A 
HETATM   10  C7  UNL     1     -45.579 -45.157  30.490  1.00  0.00     0.070 C 
HETATM   11  C8  UNL     1     -43.481 -45.456  29.199  1.00  0.00     0.064 A 
HETATM   12 CL1  UNL     1     -42.811 -44.072  30.027  1.00  0.00    -0.082 Cl
HETATM   13  C9  UNL     1     -42.694 -46.092  28.274  1.00  0.00    -0.011 A 
HETATM   14  C10 UNL     1     -41.314 -45.687  27.930  1.00  0.00     0.052 C 
HETATM   15  C11 UNL     1     -43.251 -47.191  27.628  1.00  0.00     0.110 A 
HETATM   16 CL2  UNL     1     -42.366 -48.102  26.425  1.00  0.00    -0.078 Cl
HETATM   17  C12 UNL     1     -44.526 -47.571  27.943  1.00  0.00     0.275 A 
HETATM   18  O3  UNL     1     -45.033 -48.565  27.360  1.00  0.00    -0.266 OA
ENDBRANCH   4   8
BRANCH   2  19
HETATM   19  O2  UNL     1     -48.406 -49.461  31.604  1.00  0.00    -0.358 OA
ATOM     20  H2  UNL     1     -47.715 -49.608  32.238  1.00  0.00     0.217 HD
ENDBRANCH   2  19
BRANCH   1  21
HETATM   21  O1  UNL     1     -50.499 -48.627  30.021  1.00  0.00    -0.351 OA
HETATM   22  C1  UNL     1     -51.383 -47.905  30.848  1.00  0.00     0.210 C 
ENDBRANCH   1  21
TORSDOF 3
ENDMDL
MODEL 2
REMARK VINA RESULT: -7.261443076      3.677      7.210
REMARK  3 active torsions:
REMARK  status: ('A' for Active; 'I' for Inactive)
REMARK    1  A    between atoms: O1_2  and  C2_3 
REMARK    2  A    between atoms: C3_4  and  O2_5 
REMARK    3  A    between atoms: C5_8  and  N1_9 
ROOT
HETATM    1  C2  UNL     1     -40.087 -46.785  27.048  1.00  0.00     0.123 A 
HETATM    2  C3  UNL     1     -40.123 -47.243  28.340  1.00  0.00     0.102 A 
HETATM    3  C4  UNL     1     -41.293 -47.102  29.074  1.00  0.00     0.069 A 
HETATM    4  C5  UNL     1     -42.417 -46.519  28.545  1.00  0.00     0.047 A 
HETATM    5  C13 UNL     1     -42.362 -46.064  27.245  1.00  0.00     0.057 A 
HETATM    6  C14 UNL     1     -41.195 -46.192  26.481  1.00  0.00     0.072 A 
HETATM    7 CL3  UNL     1     -41.154 -45.609  24.839  1.00  0.00    -0.081 Cl
ENDROOT
BRANCH   4   8
HETATM    8  N1  UNL     1     -43.607 -46.388  29.325  1.00  0.00    -0.280 N 
HETATM    9  C6  UNL     1     -44.460 -47.438  29.463  1.00  0.00     0.038 A 
HETATM   10  C7  UNL     1     -44.128 -48.711  28.790  1.00  0.00     0.070 C 
HETATM   11  C8  UNL     1     -45.602 -47.311  30.213  1.00  0.00     0.064 A 
HETATM   12 CL1  UNL     1     -46.684 -48.671  30.378  1.00  0.00    -0.082 Cl
HETATM   13  C9  UNL     1     -45.938 -46.144  30.850  1.00  0.00    -0.011 A 
HETATM   14  C10 UNL     1     -47.155 -45.958  31.668  1.00  0.00     0.052 C 
HETATM   15  C11 UNL     1     -45.059 -45.075  30.703  1.00  0.00     0.110 A 
HETATM   16 CL2  UNL     1     -45.357 -43.525  31.457  1.00  0.00    -0.078 Cl
HETATM   17  C12 UNL     1     -43.931 -45.240  29.948  1.00  0.00     0.275 A 
HETATM   18  O3  UNL     1     -43.135 -44.276  29.813  1.00  0.00    -0.266 OA
ENDBRANCH   4   8
BRANCH   2  19
HETATM   19  O2  UNL     1     -38.989 -47.828  28.863  1.00  0.00    -0.358 OA
ATOM     20  H2  UNL     1     -38.751 -47.631  29.761  1.00  0.00     0.217 HD
ENDBRANCH   2  19
BRANCH   1  21
HETATM   21  O1  UNL     1     -38.947 -46.899  26.272  1.00  0.00    -0.351 OA
HETATM   22  C1  UNL     1     -38.727 -47.952  25.362  1.00  0.00     0.210 C 
ENDBRANCH   1  21
TORSDOF 3
ENDMDL
MODEL 3
REMARK VINA RESULT: -7.231613712      1.240      2.482
REMARK  3 active torsions:
REMARK  status: ('A' for Active; 'I' for Inactive)
REMARK    1  A    between atoms: O1_2  and  C2_3 
REMARK    2  A    between atoms: C3_4  and  O2_5 
REMARK    3  A    between atoms: C5_8  and  N1_9 
ROOT
HETATM    1  C2  UNL     1     -49.144 -48.234  29.756  1.00  0.00     0.123 A 
HETATM    2  C3  UNL     1     -48.111 -48.575  30.592  1.00  0.00     0.102 A 
HETATM    3  C4  UNL     1     -46.861 -48.009  30.386  1.00  0.00     0.069 A 
HETATM    4  C5  UNL     1     -46.626 -47.115  29.372  1.00  0.00     0.047 A 
HETATM    5  C13 UNL     1     -47.676 -46.784  28.542  1.00  0.00     0.057 A 
HETATM    6  C14 UNL     1     -48.947 -47.341  28.725  1.00  0.00     0.072 A 
HETATM    7 CL3  UNL     1     -50.258 -46.904  27.661  1.00  0.00    -0.081 Cl
ENDROOT
BRANCH   4   8
HETATM    8  N1  UNL     1     -45.327 -46.547  29.185  1.00  0.00    -0.280 N 
HETATM    9  C6  UNL     1     -44.399 -47.188  28.427  1.00  0.00     0.038 A 
HETATM   10  C7  UNL     1     -44.761 -48.477  27.804  1.00  0.00     0.070 C 
HETATM   11  C8  UNL     1     -43.153 -46.642  28.248  1.00  0.00     0.064 A 
HETATM   12 CL1  UNL     1     -41.973 -47.480  27.271  1.00  0.00    -0.082 Cl
HETATM   13  C9  UNL     1     -42.785 -45.448  28.811  1.00  0.00    -0.011 A 
HETATM   14  C10 UNL     1     -41.456 -44.819  28.649  1.00  0.00     0.052 C 
HETATM   15  C11 UNL     1     -43.742 -44.800  29.586  1.00  0.00     0.110 A 
HETATM   16 CL2  UNL     1     -43.417 -43.268  30.367  1.00  0.00    -0.078 Cl
HETATM   17  C12 UNL     1     -44.973 -45.374  29.740  1.00  0.00     0.275 A 
HETATM   18  O3  UNL     1     -45.841 -44.791  30.439  1.00  0.00    -0.266 OA
ENDBRANCH   4   8
BRANCH   2  19
HETATM   19  O2  UNL     1     -48.356 -49.474  31.609  1.00  0.00    -0.358 OA
ATOM     20  H2  UNL     1     -47.816 -49.433  32.389  1.00  0.00     0.217 HD
ENDBRANCH   2  19
BRANCH   1  21
HETATM   21  O1  UNL     1     -50.410 -48.769  29.916  1.00  0.00    -0.351 OA
HETATM   22  C1  UNL     1     -51.407 -48.183  30.719  1.00  0.00     0.210 C 
ENDBRANCH   1  21
TORSDOF 3
ENDMDL
MODEL 4
REMARK VINA RESULT: -6.929300853      2.673      4.212
REMARK  3 active torsions:
REMARK  status: ('A' for Active; 'I' for Inactive)
REMARK    1  A    between atoms: O1_2  and  C2_3 
REMARK    2  A    between atoms: C3_4  and  O2_5 
REMARK    3  A    between atoms: C5_8  and  N1_9 
ROOT
HETATM    1  C2  UNL     1     -46.381 -47.023  29.900  1.00  0.00     0.123 A 
HETATM    2  C3  UNL     1     -46.264 -47.432  28.596  1.00  0.00     0.102 A 
HETATM    3  C4  UNL     1     -45.002 -47.679  28.076  1.00  0.00     0.069 A 
HETATM    4  C5  UNL     1     -43.864 -47.528  28.828  1.00  0.00     0.047 A 
HETATM    5  C13 UNL     1     -44.000 -47.117  30.137  1.00  0.00     0.057 A 
HETATM    6  C14 UNL     1     -45.261 -46.859  30.688  1.00  0.00     0.072 A 
HETATM    7 CL3  UNL     1     -45.405 -46.341  32.346  1.00  0.00    -0.081 Cl
ENDROOT
BRANCH   4   8
HETATM    8  N1  UNL     1     -42.576 -47.790  28.265  1.00  0.00    -0.280 N 
HETATM    9  C6  UNL     1     -42.062 -49.048  28.277  1.00  0.00     0.038 A 
HETATM   10  C7  UNL     1     -42.862 -50.133  28.883  1.00  0.00     0.070 C 
HETATM   11  C8  UNL     1     -40.827 -49.299  27.735  1.00  0.00     0.064 A 
HETATM   12 CL1  UNL     1     -40.184 -50.922  27.760  1.00  0.00    -0.082 Cl
HETATM   13  C9  UNL     1     -40.060 -48.315  27.165  1.00  0.00    -0.011 A 
HETATM   14  C10 UNL     1     -38.725 -48.534  26.569  1.00  0.00     0.052 C 
HETATM   15  C11 UNL     1     -40.595 -47.030  27.158  1.00  0.00     0.110 A 
HETATM   16 CL2  UNL     1     -39.732 -45.675  26.465  1.00  0.00    -0.078 Cl
HETATM   17  C12 UNL     1     -41.829 -46.821  27.706  1.00  0.00     0.275 A 
HETATM   18  O3  UNL     1     -42.316 -45.660  27.701  1.00  0.00    -0.266 OA
ENDBRANCH   4   8
BRANCH   2  19
HETATM   19  O2  UNL     1     -47.413 -47.580  27.848  1.00  0.00    -0.358 OA
ATOM     20  H2  UNL     1     -48.250 -47.582  28.297  1.00  0.00     0.217 HD
ENDBRANCH   2  19
BRANCH   1  21
HETATM   21  O1  UNL     1     -47.615 -46.762  30.469  1.00  0.00    -0.351 OA
HETATM   22  C1  UNL     1     -48.647 -47.717  30.561  1.00  0.00     0.210 C 
ENDBRANCH   1  21
TORSDOF 3
ENDMDL
MODEL 5
REMARK VINA RESULT: -6.903382266      3.746      7.472
REMARK  3 active torsions:
REMARK  status: ('A' for Active; 'I' for Inactive)
REMARK    1  A    between atoms: O1_2  and  C2_3 
REMARK    2  A    between atoms: C3_4  and  O2_5 
REMARK    3  A    between atoms: C5_8  and  N1_9 
ROOT
HETATM    1  C2  UNL     1     -40.087 -46.902  26.687  1.00  0.00     0.123 A 
HETATM    2  C3  UNL     1     -41.154 -46.163  26.244  1.00  0.00     0.102 A 
HETATM    3  C4  UNL     1     -42.269 -46.032  27.060  1.00  0.00     0.069 A 
HETATM    4  C5  UNL     1     -42.337 -46.619  28.299  1.00  0.00     0.047 A 
HETATM    5  C13 UNL     1     -41.255 -47.358  28.727  1.00  0.00     0.057 A 
HETATM    6  C14 UNL     1     -40.117 -47.508  27.925  1.00  0.00     0.072 A 
HETATM    7 CL3  UNL     1     -38.762 -48.448  28.491  1.00  0.00    -0.081 Cl
ENDROOT
BRANCH   4   8
HETATM    8  N1  UNL     1     -43.499 -46.466  29.116  1.00  0.00    -0.280 N 
HETATM    9  C6  UNL     1     -44.366 -47.500  29.282  1.00  0.00     0.038 A 
HETATM   10  C7  UNL     1     -44.080 -48.778  28.600  1.00  0.00     0.070 C 
HETATM   11  C8  UNL     1     -45.481 -47.352  30.068  1.00  0.00     0.064 A 
HETATM   12 CL1  UNL     1     -46.583 -48.691  30.267  1.00  0.00    -0.082 Cl
HETATM   13  C9  UNL     1     -45.775 -46.179  30.714  1.00  0.00    -0.011 A 
HETATM   14  C10 UNL     1     -46.963 -45.970  31.570  1.00  0.00     0.052 C 
HETATM   15  C11 UNL     1     -44.882 -45.126  30.538  1.00  0.00     0.110 A 
HETATM   16 CL2  UNL     1     -45.127 -43.570  31.300  1.00  0.00    -0.078 Cl
HETATM   17  C12 UNL     1     -43.782 -45.312  29.748  1.00  0.00     0.275 A 
HETATM   18  O3  UNL     1     -42.972 -44.363  29.588  1.00  0.00    -0.266 OA
ENDBRANCH   4   8
BRANCH   2  19
HETATM   19  O2  UNL     1     -41.078 -45.577  24.998  1.00  0.00    -0.358 OA
ATOM     20  H2  UNL     1     -40.596 -44.763  24.909  1.00  0.00     0.217 HD
ENDBRANCH   2  19
BRANCH   1  21
HETATM   21  O1  UNL     1     -38.951 -47.066  25.914  1.00  0.00    -0.351 OA
HETATM   22  C1  UNL     1     -38.809 -48.077  24.944  1.00  0.00     0.210 C 
ENDBRANCH   1  21
TORSDOF 3
ENDMDL
