MODEL 1
REMARK VINA RESULT: -8.485183770      0.000      0.000
REMARK  6 active torsions:
REMARK  status: ('A' for Active; 'I' for Inactive)
REMARK    1  A    between atoms: C4_5  and  N1_6 
REMARK    2  A    between atoms: N1_6  and  C5_7 
REMARK    3  A    between atoms: C5_7  and  C6_8 
REMARK    4  A    between atoms: C6_8  and  C8_11 
REMARK    5  A    between atoms: C9_12  and  C10_13 
REMARK    6  A    between atoms: C14_20  and  O2_21 
ROOT
HETATM    1  C1  UNL     1     -43.243 -48.688  28.467  1.00  0.00     0.210 C 
HETATM    2  O1  UNL     1     -44.238 -48.225  29.132  1.00  0.00    -0.353 OA
HETATM    3  C2  UNL     1     -45.241 -47.757  29.804  1.00  0.00     0.106 A 
HETATM    4  C3  UNL     1     -46.486 -48.332  29.856  1.00  0.00     0.084 A 
HETATM    5  C4  UNL     1     -47.576 -47.829  30.581  1.00  0.00     0.110 A 
HETATM    6  C12 UNL     1     -47.320 -46.635  31.298  1.00  0.00     0.071 A 
HETATM    7  C13 UNL     1     -46.106 -46.037  31.271  1.00  0.00     0.073 A 
HETATM    8 CL3  UNL     1     -45.824 -44.543  32.181  1.00  0.00    -0.081 Cl
HETATM    9  C14 UNL     1     -45.089 -46.577  30.547  1.00  0.00     0.121 A 
ENDROOT
BRANCH   9  10
HETATM   10  O2  UNL     1     -43.841 -45.986  30.504  1.00  0.00    -0.356 OA
ATOM     11  H2  UNL     1     -43.826 -45.047  30.361  1.00  0.00     0.218 HD
ENDBRANCH   9  10
BRANCH   5  12
HETATM   12  N1  UNL     1     -48.777 -48.409  30.614  1.00  0.00    -0.420 NA
BRANCH  12  13
HETATM   13  C5  UNL     1     -49.798 -48.955  30.688  1.00  0.00     0.187 C 
BRANCH  13  14
HETATM   14  C6  UNL     1     -51.076 -48.610  29.906  1.00  0.00     0.223 C 
HETATM   15  C7  UNL     1     -50.677 -47.664  28.889  1.00  0.00     0.083 C 
HETATM   16  N2  UNL     1     -50.374 -46.892  28.078  1.00  0.00    -0.196 NA
BRANCH  14  17
HETATM   17  C8  UNL     1     -52.045 -47.957  30.785  1.00  0.00    -0.077 C 
HETATM   18  C9  UNL     1     -52.856 -47.438  31.508  1.00  0.00    -0.062 C 
BRANCH  18  19
HETATM   19  C10 UNL     1     -53.852 -46.831  32.393  1.00  0.00     0.172 C 
HETATM   20  C11 UNL     1     -53.936 -47.598  33.713  1.00  0.00     0.065 C 
HETATM   21 CL1  UNL     1     -53.254 -45.181  32.778  1.00  0.00    -0.088 Cl
HETATM   22 CL2  UNL     1     -55.449 -46.747  31.667  1.00  0.00    -0.088 Cl
ENDBRANCH  18  19
ENDBRANCH  14  17
ENDBRANCH  13  14
ENDBRANCH  12  13
ENDBRANCH   5  12
TORSDOF 6
ENDMDL
MODEL 2
REMARK VINA RESULT: -8.298633738      4.201      8.118
REMARK  6 active torsions:
REMARK  status: ('A' for Active; 'I' for Inactive)
REMARK    1  A    between atoms: C4_5  and  N1_6 
REMARK    2  A    between atoms: N1_6  and  C5_7 
REMARK    3  A    between atoms: C5_7  and  C6_8 
REMARK    4  A    between atoms: C6_8  and  C8_11 
REMARK    5  A    between atoms: C9_12  and  C10_13 
REMARK    6  A    between atoms: C14_20  and  O2_21 
ROOT
HETATM    1  C1  UNL     1     -54.847 -42.906  33.671  1.00  0.00     0.210 C 
HETATM    2  O1  UNL     1     -54.560 -44.132  33.425  1.00  0.00    -0.353 OA
HETATM    3  C2  UNL     1     -54.271 -45.371  33.178  1.00  0.00     0.106 A 
HETATM    4  C3  UNL     1     -53.421 -45.793  32.188  1.00  0.00     0.084 A 
HETATM    5  C4  UNL     1     -53.105 -47.133  31.916  1.00  0.00     0.110 A 
HETATM    6  C12 UNL     1     -53.737 -48.082  32.756  1.00  0.00     0.071 A 
HETATM    7  C13 UNL     1     -54.582 -47.703  33.743  1.00  0.00     0.073 A 
HETATM    8 CL3  UNL     1     -55.354 -48.919  34.775  1.00  0.00    -0.081 Cl
HETATM    9  C14 UNL     1     -54.847 -46.386  33.955  1.00  0.00     0.121 A 
ENDROOT
BRANCH   9  10
HETATM   10  O2  UNL     1     -55.705 -45.974  34.957  1.00  0.00    -0.356 OA
ATOM     11  H2  UNL     1     -55.845 -46.589  35.668  1.00  0.00     0.218 HD
ENDBRANCH   9  10
BRANCH   5  12
HETATM   12  N1  UNL     1     -52.274 -47.518  30.945  1.00  0.00    -0.420 NA
BRANCH  12  13
HETATM   13  C5  UNL     1     -51.541 -47.788  30.087  1.00  0.00     0.187 C 
BRANCH  13  14
HETATM   14  C6  UNL     1     -50.667 -46.805  29.291  1.00  0.00     0.223 C 
HETATM   15  C7  UNL     1     -50.816 -47.172  27.902  1.00  0.00     0.083 C 
HETATM   16  N2  UNL     1     -50.915 -47.467  26.784  1.00  0.00    -0.196 NA
BRANCH  14  17
HETATM   17  C8  UNL     1     -49.262 -46.967  29.660  1.00  0.00    -0.077 C 
HETATM   18  C9  UNL     1     -48.098 -47.091  29.945  1.00  0.00    -0.062 C 
BRANCH  18  19
HETATM   19  C10 UNL     1     -46.678 -47.222  30.274  1.00  0.00     0.172 C 
HETATM   20  C11 UNL     1     -46.291 -48.695  30.410  1.00  0.00     0.065 C 
HETATM   21 CL1  UNL     1     -45.767 -46.563  28.872  1.00  0.00    -0.088 Cl
HETATM   22 CL2  UNL     1     -46.235 -46.368  31.744  1.00  0.00    -0.088 Cl
ENDBRANCH  18  19
ENDBRANCH  14  17
ENDBRANCH  13  14
ENDBRANCH  12  13
ENDBRANCH   5  12
TORSDOF 6
ENDMDL
MODEL 3
REMARK VINA RESULT: -8.285892779      1.442      2.395
REMARK  6 active torsions:
REMARK  status: ('A' for Active; 'I' for Inactive)
REMARK    1  A    between atoms: C4_5  and  N1_6 
REMARK    2  A    between atoms: N1_6  and  C5_7 
REMARK    3  A    between atoms: C5_7  and  C6_8 
REMARK    4  A    between atoms: C6_8  and  C8_11 
REMARK    5  A    between atoms: C9_12  and  C10_13 
REMARK    6  A    between atoms: C14_20  and  O2_21 
ROOT
HETATM    1  C1  UNL     1     -45.631 -43.686  32.442  1.00  0.00     0.210 C 
HETATM    2  O1  UNL     1     -45.864 -44.807  31.862  1.00  0.00    -0.353 OA
HETATM    3  C2  UNL     1     -46.100 -45.938  31.276  1.00  0.00     0.106 A 
HETATM    4  C3  UNL     1     -47.312 -46.580  31.271  1.00  0.00     0.084 A 
HETATM    5  C4  UNL     1     -47.571 -47.805  30.639  1.00  0.00     0.110 A 
HETATM    6  C12 UNL     1     -46.466 -48.381  29.967  1.00  0.00     0.071 A 
HETATM    7  C13 UNL     1     -45.254 -47.777  29.950  1.00  0.00     0.073 A 
HETATM    8 CL3  UNL     1     -43.893 -48.528  29.099  1.00  0.00    -0.081 Cl
HETATM    9  C14 UNL     1     -45.068 -46.589  30.584  1.00  0.00     0.121 A 
ENDROOT
BRANCH   9  10
HETATM   10  O2  UNL     1     -43.841 -45.953  30.580  1.00  0.00    -0.356 OA
ATOM     11  H2  UNL     1     -43.126 -46.424  30.169  1.00  0.00     0.218 HD
ENDBRANCH   9  10
BRANCH   5  12
HETATM   12  N1  UNL     1     -48.761 -48.409  30.650  1.00  0.00    -0.420 NA
BRANCH  12  13
HETATM   13  C5  UNL     1     -49.771 -48.979  30.702  1.00  0.00     0.187 C 
BRANCH  13  14
HETATM   14  C6  UNL     1     -51.046 -48.648  29.909  1.00  0.00     0.223 C 
HETATM   15  C7  UNL     1     -50.646 -47.713  28.883  1.00  0.00     0.083 C 
HETATM   16  N2  UNL     1     -50.342 -46.949  28.065  1.00  0.00    -0.196 NA
BRANCH  14  17
HETATM   17  C8  UNL     1     -52.022 -47.990  30.775  1.00  0.00    -0.077 C 
HETATM   18  C9  UNL     1     -52.832 -47.468  31.498  1.00  0.00    -0.062 C 
BRANCH  18  19
HETATM   19  C10 UNL     1     -53.812 -46.854  32.394  1.00  0.00     0.172 C 
HETATM   20  C11 UNL     1     -53.909 -47.637  33.704  1.00  0.00     0.065 C 
HETATM   21 CL1  UNL     1     -53.181 -45.221  32.801  1.00  0.00    -0.088 Cl
HETATM   22 CL2  UNL     1     -55.410 -46.727  31.675  1.00  0.00    -0.088 Cl
ENDBRANCH  18  19
ENDBRANCH  14  17
ENDBRANCH  13  14
ENDBRANCH  12  13
ENDBRANCH   5  12
TORSDOF 6
ENDMDL
MODEL 4
REMARK VINA RESULT: -8.225460404      1.611      2.614
REMARK  6 active torsions:
REMARK  status: ('A' for Active; 'I' for Inactive)
REMARK    1  A    between atoms: C4_5  and  N1_6 
REMARK    2  A    between atoms: N1_6  and  C5_7 
REMARK    3  A    between atoms: C5_7  and  C6_8 
REMARK    4  A    between atoms: C6_8  and  C8_11 
REMARK    5  A    between atoms: C9_12  and  C10_13 
REMARK    6  A    between atoms: C14_20  and  O2_21 
ROOT
HETATM    1  C1  UNL     1     -45.591 -43.707  32.429  1.00  0.00     0.210 C 
HETATM    2  O1  UNL     1     -45.833 -44.825  31.847  1.00  0.00    -0.353 OA
HETATM    3  C2  UNL     1     -46.077 -45.953  31.258  1.00  0.00     0.106 A 
HETATM    4  C3  UNL     1     -47.293 -46.588  31.255  1.00  0.00     0.084 A 
HETATM    5  C4  UNL     1     -47.561 -47.809  30.620  1.00  0.00     0.110 A 
HETATM    6  C12 UNL     1     -46.460 -48.390  29.944  1.00  0.00     0.071 A 
HETATM    7  C13 UNL     1     -45.245 -47.794  29.926  1.00  0.00     0.073 A 
HETATM    8 CL3  UNL     1     -43.891 -48.550  29.069  1.00  0.00    -0.081 Cl
HETATM    9  C14 UNL     1     -45.050 -46.608  30.562  1.00  0.00     0.121 A 
ENDROOT
BRANCH   9  10
HETATM   10  O2  UNL     1     -43.820 -45.979  30.557  1.00  0.00    -0.356 OA
ATOM     11  H2  UNL     1     -43.596 -45.491  31.340  1.00  0.00     0.218 HD
ENDBRANCH   9  10
BRANCH   5  12
HETATM   12  N1  UNL     1     -48.755 -48.406  30.632  1.00  0.00    -0.420 NA
BRANCH  12  13
HETATM   13  C5  UNL     1     -49.769 -48.968  30.688  1.00  0.00     0.187 C 
BRANCH  13  14
HETATM   14  C6  UNL     1     -51.045 -48.625  29.902  1.00  0.00     0.223 C 
HETATM   15  C7  UNL     1     -50.641 -47.698  28.871  1.00  0.00     0.083 C 
HETATM   16  N2  UNL     1     -50.333 -46.941  28.047  1.00  0.00    -0.196 NA
BRANCH  14  17
HETATM   17  C8  UNL     1     -52.008 -47.952  30.772  1.00  0.00    -0.077 C 
HETATM   18  C9  UNL     1     -52.806 -47.417  31.499  1.00  0.00    -0.062 C 
BRANCH  18  19
HETATM   19  C10 UNL     1     -53.771 -46.787  32.401  1.00  0.00     0.172 C 
HETATM   20  C11 UNL     1     -55.154 -46.728  31.752  1.00  0.00     0.065 C 
HETATM   21 CL1  UNL     1     -53.906 -47.862  33.835  1.00  0.00    -0.088 Cl
HETATM   22 CL2  UNL     1     -53.291 -45.171  32.894  1.00  0.00    -0.088 Cl
ENDBRANCH  18  19
ENDBRANCH  14  17
ENDBRANCH  13  14
ENDBRANCH  12  13
ENDBRANCH   5  12
TORSDOF 6
ENDMDL
MODEL 5
REMARK VINA RESULT: -8.125745295      4.375      8.313
REMARK  6 active torsions:
REMARK  status: ('A' for Active; 'I' for Inactive)
REMARK    1  A    between atoms: C4_5  and  N1_6 
REMARK    2  A    between atoms: N1_6  and  C5_7 
REMARK    3  A    between atoms: C5_7  and  C6_8 
REMARK    4  A    between atoms: C6_8  and  C8_11 
REMARK    5  A    between atoms: C9_12  and  C10_13 
REMARK    6  A    between atoms: C14_20  and  O2_21 
ROOT
HETATM    1  C1  UNL     1     -56.276 -49.904  33.582  1.00  0.00     0.210 C 
HETATM    2  O1  UNL     1     -55.619 -48.828  33.340  1.00  0.00    -0.353 OA
HETATM    3  C2  UNL     1     -54.957 -47.742  33.096  1.00  0.00     0.106 A 
HETATM    4  C3  UNL     1     -53.837 -47.668  32.308  1.00  0.00     0.084 A 
HETATM    5  C4  UNL     1     -53.116 -46.494  32.041  1.00  0.00     0.110 A 
HETATM    6  C12 UNL     1     -53.625 -45.324  32.656  1.00  0.00     0.071 A 
HETATM    7  C13 UNL     1     -54.727 -45.357  33.440  1.00  0.00     0.073 A 
HETATM    8 CL3  UNL     1     -55.334 -43.872  34.193  1.00  0.00    -0.081 Cl
HETATM    9  C14 UNL     1     -55.381 -46.529  33.659  1.00  0.00     0.121 A 
ENDROOT
BRANCH   9  10
HETATM   10  O2  UNL     1     -56.509 -46.589  34.456  1.00  0.00    -0.356 OA
ATOM     11  H2  UNL     1     -57.330 -46.363  34.037  1.00  0.00     0.218 HD
ENDBRANCH   9  10
BRANCH   5  12
HETATM   12  N1  UNL     1     -52.028 -46.450  31.270  1.00  0.00    -0.420 NA
BRANCH  12  13
HETATM   13  C5  UNL     1     -51.086 -46.346  30.600  1.00  0.00     0.187 C 
BRANCH  13  14
HETATM   14  C6  UNL     1     -50.401 -47.473  29.809  1.00  0.00     0.223 C 
HETATM   15  C7  UNL     1     -50.797 -48.706  30.448  1.00  0.00     0.083 C 
HETATM   16  N2  UNL     1     -51.095 -49.703  30.961  1.00  0.00    -0.196 NA
BRANCH  14  17
HETATM   17  C8  UNL     1     -48.948 -47.349  29.912  1.00  0.00    -0.077 C 
HETATM   18  C9  UNL     1     -47.753 -47.226  30.003  1.00  0.00    -0.062 C 
BRANCH  18  19
HETATM   19  C10 UNL     1     -46.305 -47.056  30.130  1.00  0.00     0.172 C 
HETATM   20  C11 UNL     1     -45.568 -48.265  29.553  1.00  0.00     0.065 C 
HETATM   21 CL1  UNL     1     -45.867 -45.637  29.118  1.00  0.00    -0.088 Cl
HETATM   22 CL2  UNL     1     -45.790 -46.801  31.790  1.00  0.00    -0.088 Cl
ENDBRANCH  18  19
ENDBRANCH  14  17
ENDBRANCH  13  14
ENDBRANCH  12  13
ENDBRANCH   5  12
TORSDOF 6
ENDMDL
