MODEL 1
REMARK VINA RESULT: -5.795988035      0.000      0.000
REMARK  2 active torsions:
REMARK  status: ('A' for Active; 'I' for Inactive)
REMARK    1  A    between atoms: S1_2  and  C2_3 
REMARK    2  A    between atoms: C5_9  and  C6_10 
ROOT
HETATM    1  C2  UNL     1      -7.103  27.403   7.839  1.00  0.00     0.050 C 
HETATM    2  C3  UNL     1      -8.384  27.008   8.544  1.00  0.00     0.043 C 
HETATM    3  C4  UNL     1      -8.094  25.987   9.604  1.00  0.00     0.234 C 
HETATM    4  N1  UNL     1      -7.539  24.777   9.031  1.00  0.00    -0.069 N 
ATOM      5  H11 UNL     1      -8.229  24.278   8.468  1.00  0.00     0.277 HD
ATOM      6  H12 UNL     1      -7.375  24.065   9.743  1.00  0.00     0.277 HD
HETATM    7  C5  UNL     1      -6.348  25.057   8.279  1.00  0.00     0.209 C 
HETATM    8  C10 UNL     1      -6.511  26.134   7.264  1.00  0.00     0.050 C 
ENDROOT
BRANCH   7   9
HETATM    9  C6  UNL     1      -5.789  23.829   7.637  1.00  0.00     0.116 C 
HETATM   10  C7  UNL     1      -5.715  22.629   8.541  1.00  0.00     0.047 C 
HETATM   11  C8  UNL     1      -5.312  21.437   7.676  1.00  0.00     0.124 C 
HETATM   12  N2  UNL     1      -4.288  21.736   6.729  1.00  0.00    -0.365 N 
HETATM   13  C9  UNL     1      -3.869  22.926   6.422  1.00  0.00     0.184 C 
ATOM     14  H2  UNL     1      -3.848  20.949   6.253  1.00  0.00     0.162 HD
HETATM   15  N3  UNL     1      -2.840  23.095   5.462  1.00  0.00    -0.064 NA
HETATM   16  N4  UNL     1      -4.472  24.034   7.079  1.00  0.00    -0.358 N 
ATOM     17  H4  UNL     1      -3.995  24.933   7.153  1.00  0.00     0.162 HD
ENDBRANCH   7   9
BRANCH   1  18
HETATM   18  S1  UNL     1      -5.975  28.264   8.935  1.00  0.00    -0.169 SA
HETATM   19  C1  UNL     1      -4.367  28.459   8.134  1.00  0.00     0.090 C 
ENDBRANCH   1  18
TORSDOF 2
ENDMDL
MODEL 2
REMARK VINA RESULT: -5.751227441      1.073      1.212
REMARK  2 active torsions:
REMARK  status: ('A' for Active; 'I' for Inactive)
REMARK    1  A    between atoms: S1_2  and  C2_3 
REMARK    2  A    between atoms: C5_9  and  C6_10 
ROOT
HETATM    1  C2  UNL     1      -7.593  27.108   8.409  1.00  0.00     0.050 C 
HETATM    2  C3  UNL     1      -8.769  26.421   9.072  1.00  0.00     0.043 C 
HETATM    3  C4  UNL     1      -8.283  25.328   9.978  1.00  0.00     0.234 C 
HETATM    4  N1  UNL     1      -7.566  24.310   9.236  1.00  0.00    -0.069 N 
ATOM      5  H11 UNL     1      -8.188  23.786   8.621  1.00  0.00     0.277 HD
ATOM      6  H12 UNL     1      -7.265  23.546   9.841  1.00  0.00     0.277 HD
HETATM    7  C5  UNL     1      -6.462  24.877   8.512  1.00  0.00     0.209 C 
HETATM    8  C10 UNL     1      -6.831  26.039   7.657  1.00  0.00     0.050 C 
ENDROOT
BRANCH   7   9
HETATM    9  C6  UNL     1      -5.741  23.851   7.699  1.00  0.00     0.116 C 
HETATM   10  C7  UNL     1      -5.461  22.562   8.423  1.00  0.00     0.047 C 
HETATM   11  C8  UNL     1      -4.905  21.579   7.395  1.00  0.00     0.124 C 
HETATM   12  N2  UNL     1      -3.965  22.161   6.495  1.00  0.00    -0.365 N 
HETATM   13  C9  UNL     1      -3.739  23.432   6.359  1.00  0.00     0.184 C 
ATOM     14  H2  UNL     1      -3.424  21.526   5.910  1.00  0.00     0.162 HD
HETATM   15  N3  UNL     1      -2.774  23.890   5.427  1.00  0.00    -0.064 NA
HETATM   16  N4  UNL     1      -4.485  24.332   7.169  1.00  0.00    -0.358 N 
ATOM     17  H4  UNL     1      -4.149  25.274   7.368  1.00  0.00     0.162 HD
ENDBRANCH   7   9
BRANCH   1  18
HETATM   18  S1  UNL     1      -6.575  27.986   9.595  1.00  0.00    -0.169 SA
HETATM   19  C1  UNL     1      -7.597  29.117  10.566  1.00  0.00     0.090 C 
ENDBRANCH   1  18
TORSDOF 2
ENDMDL
MODEL 3
REMARK VINA RESULT: -5.738615916      1.435      1.968
REMARK  2 active torsions:
REMARK  status: ('A' for Active; 'I' for Inactive)
REMARK    1  A    between atoms: S1_2  and  C2_3 
REMARK    2  A    between atoms: C5_9  and  C6_10 
ROOT
HETATM    1  C2  UNL     1      -5.674  27.120   9.594  1.00  0.00     0.050 C 
HETATM    2  C3  UNL     1      -6.315  27.934   8.489  1.00  0.00     0.043 C 
HETATM    3  C4  UNL     1      -7.450  27.168   7.878  1.00  0.00     0.234 C 
HETATM    4  N1  UNL     1      -6.986  25.934   7.274  1.00  0.00    -0.069 N 
ATOM      5  H11 UNL     1      -6.410  26.111   6.452  1.00  0.00     0.277 HD
ATOM      6  H12 UNL     1      -7.749  25.427   6.825  1.00  0.00     0.277 HD
HETATM    7  C5  UNL     1      -6.300  25.114   8.233  1.00  0.00     0.209 C 
HETATM    8  C10 UNL     1      -5.214  25.821   8.968  1.00  0.00     0.050 C 
ENDROOT
BRANCH   7   9
HETATM    9  C6  UNL     1      -5.769  23.859   7.619  1.00  0.00     0.116 C 
HETATM   10  C7  UNL     1      -5.720  22.678   8.549  1.00  0.00     0.047 C 
HETATM   11  C8  UNL     1      -5.345  21.458   7.711  1.00  0.00     0.124 C 
HETATM   12  N2  UNL     1      -4.317  21.713   6.756  1.00  0.00    -0.365 N 
HETATM   13  C9  UNL     1      -3.872  22.886   6.421  1.00  0.00     0.184 C 
ATOM     14  H2  UNL     1      -3.895  20.906   6.297  1.00  0.00     0.162 HD
HETATM   15  N3  UNL     1      -2.842  23.011   5.456  1.00  0.00    -0.064 NA
HETATM   16  N4  UNL     1      -4.449  24.022   7.054  1.00  0.00    -0.358 N 
ATOM     17  H4  UNL     1      -3.953  24.912   7.107  1.00  0.00     0.162 HD
ENDBRANCH   7   9
BRANCH   1  18
HETATM   18  S1  UNL     1      -6.788  26.872  10.976  1.00  0.00    -0.169 SA
HETATM   19  C1  UNL     1      -6.105  25.636  12.104  1.00  0.00     0.090 C 
ENDBRANCH   1  18
TORSDOF 2
ENDMDL
MODEL 4
REMARK VINA RESULT: -5.636802886      1.617      2.558
REMARK  2 active torsions:
REMARK  status: ('A' for Active; 'I' for Inactive)
REMARK    1  A    between atoms: S1_2  and  C2_3 
REMARK    2  A    between atoms: C5_9  and  C6_10 
ROOT
HETATM    1  C2  UNL     1      -7.723  25.543  10.328  1.00  0.00     0.050 C 
HETATM    2  C3  UNL     1      -6.627  26.559  10.573  1.00  0.00     0.043 C 
HETATM    3  C4  UNL     1      -6.049  27.017   9.266  1.00  0.00     0.234 C 
HETATM    4  N1  UNL     1      -5.447  25.915   8.542  1.00  0.00    -0.069 N 
ATOM      5  H11 UNL     1      -4.609  25.571   9.011  1.00  0.00     0.277 HD
ATOM      6  H12 UNL     1      -5.020  26.228   7.670  1.00  0.00     0.277 HD
HETATM    7  C5  UNL     1      -6.397  24.861   8.317  1.00  0.00     0.209 C 
HETATM    8  C10 UNL     1      -7.099  24.406   9.549  1.00  0.00     0.050 C 
ENDROOT
BRANCH   7   9
HETATM    9  C6  UNL     1      -5.782  23.693   7.617  1.00  0.00     0.116 C 
HETATM   10  C7  UNL     1      -5.652  22.455   8.460  1.00  0.00     0.047 C 
HETATM   11  C8  UNL     1      -5.195  21.326   7.538  1.00  0.00     0.124 C 
HETATM   12  N2  UNL     1      -4.186  21.719   6.609  1.00  0.00    -0.365 N 
HETATM   13  C9  UNL     1      -3.822  22.941   6.362  1.00  0.00     0.184 C 
ATOM     14  H2  UNL     1      -3.711  20.978   6.096  1.00  0.00     0.162 HD
HETATM   15  N3  UNL     1      -2.804  23.204   5.414  1.00  0.00    -0.064 NA
HETATM   16  N4  UNL     1      -4.476  23.986   7.072  1.00  0.00    -0.358 N 
ATOM     17  H4  UNL     1      -4.042  24.901   7.191  1.00  0.00     0.162 HD
ENDBRANCH   7   9
BRANCH   1  18
HETATM   18  S1  UNL     1      -9.134  26.269   9.493  1.00  0.00    -0.169 SA
HETATM   19  C1  UNL     1     -10.420  26.676  10.696  1.00  0.00     0.090 C 
ENDBRANCH   1  18
TORSDOF 2
ENDMDL
MODEL 5
REMARK VINA RESULT: -5.479093262      1.332      1.986
REMARK  2 active torsions:
REMARK  status: ('A' for Active; 'I' for Inactive)
REMARK    1  A    between atoms: S1_2  and  C2_3 
REMARK    2  A    between atoms: C5_9  and  C6_10 
ROOT
HETATM    1  C2  UNL     1      -8.306  27.352   8.515  1.00  0.00     0.050 C 
HETATM    2  C3  UNL     1      -9.335  26.391   9.071  1.00  0.00     0.043 C 
HETATM    3  C4  UNL     1      -8.681  25.430  10.020  1.00  0.00     0.234 C 
HETATM    4  N1  UNL     1      -7.679  24.628   9.348  1.00  0.00    -0.069 N 
ATOM      5  H11 UNL     1      -8.100  23.981   8.681  1.00  0.00     0.277 HD
ATOM      6  H12 UNL     1      -7.257  23.947   9.980  1.00  0.00     0.277 HD
HETATM    7  C5  UNL     1      -6.684  25.456   8.724  1.00  0.00     0.209 C 
HETATM    8  C10 UNL     1      -7.245  26.512   7.836  1.00  0.00     0.050 C 
ENDROOT
BRANCH   7   9
HETATM    9  C6  UNL     1      -5.669  24.649   7.982  1.00  0.00     0.116 C 
HETATM   10  C7  UNL     1      -5.219  25.253   6.681  1.00  0.00     0.047 C 
HETATM   11  C8  UNL     1      -4.057  24.405   6.167  1.00  0.00     0.124 C 
HETATM   12  N2  UNL     1      -4.260  23.002   6.321  1.00  0.00    -0.365 N 
HETATM   13  C9  UNL     1      -5.200  22.448   7.025  1.00  0.00     0.184 C 
ATOM     14  H2  UNL     1      -3.612  22.381   5.837  1.00  0.00     0.162 HD
HETATM   15  N3  UNL     1      -5.298  21.037   7.100  1.00  0.00    -0.064 NA
HETATM   16  N4  UNL     1      -6.112  23.302   7.705  1.00  0.00    -0.358 N 
ATOM     17  H4  UNL     1      -7.038  22.977   7.985  1.00  0.00     0.162 HD
ENDBRANCH   7   9
BRANCH   1  18
HETATM   18  S1  UNL     1      -7.637  28.426   9.785  1.00  0.00    -0.169 SA
HETATM   19  C1  UNL     1      -6.162  29.268   9.165  1.00  0.00     0.090 C 
ENDBRANCH   1  18
TORSDOF 2
ENDMDL
