MODEL 1
REMARK VINA RESULT: -6.449707818      0.000      0.000
REMARK  3 active torsions:
REMARK  status: ('A' for Active; 'I' for Inactive)
REMARK    1  A    between atoms: N1_1  and  C1_5 
REMARK    2  A    between atoms: C5_12  and  C6_13 
REMARK    3  A    between atoms: C7_16  and  C8_17 
ROOT
HETATM    1  C6  UNL     1      -3.209  24.419   6.799  1.00  0.00     0.154 A 
HETATM    2  N3  UNL     1      -2.011  24.958   7.076  1.00  0.00    -0.325 N 
ATOM      3  H3  UNL     1      -1.600  25.046   8.005  1.00  0.00     0.169 HD
HETATM    4  C7  UNL     1      -1.441  25.362   5.923  1.00  0.00     0.134 A 
HETATM    5  N5  UNL     1      -2.335  25.047   4.960  1.00  0.00    -0.245 N 
ATOM      6  H5  UNL     1      -2.213  25.220   3.962  1.00  0.00     0.196 HD
HETATM    7  O1  UNL     1      -3.362  24.496   5.497  1.00  0.00    -0.222 OA
ENDROOT
BRANCH   1   8
HETATM    8  C5  UNL     1      -4.223  23.836   7.680  1.00  0.00     0.096 C 
HETATM    9  C1  UNL     1      -5.497  24.684   7.696  1.00  0.00     0.221 C 
HETATM   10  C2  UNL     1      -6.312  24.160   8.882  1.00  0.00     0.265 C 
HETATM   11  N2  UNL     1      -6.677  22.795   8.621  1.00  0.00    -0.073 N 
HETATM   12  C3  UNL     1      -5.557  21.931   8.367  1.00  0.00     0.233 C 
ATOM     13  H22 UNL     1      -7.250  22.426   9.379  1.00  0.00     0.277 HD
ATOM     14  H21 UNL     1      -7.350  22.744   7.856  1.00  0.00     0.277 HD
HETATM   15  C4  UNL     1      -4.650  22.449   7.275  1.00  0.00     0.042 C 
BRANCH   9  16
HETATM   16  N1  UNL     1      -6.264  24.383   6.509  1.00  0.00    -0.073 N 
ATOM     17  H13 UNL     1      -6.194  23.407   6.219  1.00  0.00     0.274 HD
ATOM     18  H12 UNL     1      -7.272  24.396   6.665  1.00  0.00     0.274 HD
ATOM     19  H11 UNL     1      -5.957  25.041   5.793  1.00  0.00     0.274 HD
ENDBRANCH   9  16
ENDBRANCH   1   8
BRANCH   4  20
HETATM   20  C8  UNL     1      -0.144  26.004   5.701  1.00  0.00     0.254 C 
HETATM   21  C9  UNL     1       0.596  26.144   7.034  1.00  0.00     0.042 C 
HETATM   22  C10 UNL     1       1.983  26.534   6.512  1.00  0.00     0.030 C 
HETATM   23  C11 UNL     1       2.116  25.593   5.340  1.00  0.00     0.233 C 
HETATM   24  N4  UNL     1       0.782  25.214   4.944  1.00  0.00    -0.064 N 
ATOM     25  H42 UNL     1       0.612  24.212   5.035  1.00  0.00     0.278 HD
ATOM     26  H41 UNL     1       0.632  25.286   3.938  1.00  0.00     0.278 HD
ENDBRANCH   4  20
TORSDOF 3
ENDMDL
MODEL 2
REMARK VINA RESULT: -6.357611726      3.518      7.771
REMARK  3 active torsions:
REMARK  status: ('A' for Active; 'I' for Inactive)
REMARK    1  A    between atoms: N1_1  and  C1_5 
REMARK    2  A    between atoms: C5_12  and  C6_13 
REMARK    3  A    between atoms: C7_16  and  C8_17 
ROOT
HETATM    1  C6  UNL     1      -6.714  24.177   9.209  1.00  0.00     0.154 A 
HETATM    2  N3  UNL     1      -7.046  25.346   9.780  1.00  0.00    -0.325 N 
ATOM      3  H3  UNL     1      -6.432  26.153   9.882  1.00  0.00     0.169 HD
HETATM    4  C7  UNL     1      -8.327  25.276  10.196  1.00  0.00     0.134 A 
HETATM    5  N5  UNL     1      -8.740  24.035   9.855  1.00  0.00    -0.245 N 
ATOM      6  H5  UNL     1      -9.671  23.654  10.028  1.00  0.00     0.196 HD
HETATM    7  O1  UNL     1      -7.779  23.411   9.278  1.00  0.00    -0.222 OA
ENDROOT
BRANCH   1   8
HETATM    8  C5  UNL     1      -5.459  23.731   8.602  1.00  0.00     0.096 C 
HETATM    9  C1  UNL     1      -5.697  23.135   7.213  1.00  0.00     0.221 C 
HETATM   10  C2  UNL     1      -4.389  22.421   6.854  1.00  0.00     0.265 C 
HETATM   11  N2  UNL     1      -3.344  23.403   6.755  1.00  0.00    -0.073 N 
HETATM   12  C3  UNL     1      -3.170  24.190   7.944  1.00  0.00     0.233 C 
ATOM     13  H22 UNL     1      -2.464  22.963   6.484  1.00  0.00     0.277 HD
ATOM     14  H21 UNL     1      -3.492  24.004   5.945  1.00  0.00     0.277 HD
HETATM   15  C4  UNL     1      -4.453  24.837   8.414  1.00  0.00     0.042 C 
BRANCH   9  16
HETATM   16  N1  UNL     1      -5.844  24.217   6.267  1.00  0.00    -0.073 N 
ATOM     17  H13 UNL     1      -6.524  24.919   6.558  1.00  0.00     0.274 HD
ATOM     18  H12 UNL     1      -5.033  24.835   6.231  1.00  0.00     0.274 HD
ATOM     19  H11 UNL     1      -6.065  23.787   5.369  1.00  0.00     0.274 HD
ENDBRANCH   9  16
ENDBRANCH   1   8
BRANCH   4  20
HETATM   20  C8  UNL     1      -9.143  26.288  10.871  1.00  0.00     0.254 C 
HETATM   21  C9  UNL     1      -9.080  27.603  10.092  1.00  0.00     0.042 C 
HETATM   22  C10 UNL     1     -10.210  28.365  10.793  1.00  0.00     0.030 C 
HETATM   23  C11 UNL     1     -11.247  27.276  10.918  1.00  0.00     0.233 C 
HETATM   24  N4  UNL     1     -10.550  26.015  10.855  1.00  0.00    -0.064 N 
ATOM     25  H42 UNL     1     -10.833  25.447  10.056  1.00  0.00     0.278 HD
ATOM     26  H41 UNL     1     -10.836  25.369  11.590  1.00  0.00     0.278 HD
ENDBRANCH   4  20
TORSDOF 3
ENDMDL
MODEL 3
REMARK VINA RESULT: -6.300485222      4.919      7.578
REMARK  3 active torsions:
REMARK  status: ('A' for Active; 'I' for Inactive)
REMARK    1  A    between atoms: N1_1  and  C1_5 
REMARK    2  A    between atoms: C5_12  and  C6_13 
REMARK    3  A    between atoms: C7_16  and  C8_17 
ROOT
HETATM    1  C6  UNL     1      -8.756  26.295  10.396  1.00  0.00     0.154 A 
HETATM    2  N3  UNL     1      -7.776  25.383  10.498  1.00  0.00    -0.325 N 
ATOM      3  H3  UNL     1      -7.438  24.968  11.366  1.00  0.00     0.169 HD
HETATM    4  C7  UNL     1      -7.313  25.105   9.262  1.00  0.00     0.134 A 
HETATM    5  N5  UNL     1      -8.046  25.877   8.430  1.00  0.00    -0.245 N 
ATOM      6  H5  UNL     1      -7.948  25.909   7.415  1.00  0.00     0.196 HD
HETATM    7  O1  UNL     1      -8.884  26.565   9.117  1.00  0.00    -0.222 OA
ENDROOT
BRANCH   1   8
HETATM    8  C5  UNL     1      -9.581  26.932  11.424  1.00  0.00     0.096 C 
HETATM    9  C1  UNL     1     -10.674  27.801  10.797  1.00  0.00     0.221 C 
HETATM   10  C2  UNL     1     -11.223  28.648  11.949  1.00  0.00     0.265 C 
HETATM   11  N2  UNL     1     -11.834  27.771  12.911  1.00  0.00    -0.073 N 
HETATM   12  C3  UNL     1     -10.953  26.755  13.416  1.00  0.00     0.233 C 
ATOM     13  H22 UNL     1     -12.240  28.308  13.677  1.00  0.00     0.277 HD
ATOM     14  H21 UNL     1     -12.681  27.352  12.527  1.00  0.00     0.277 HD
HETATM   15  C4  UNL     1     -10.292  25.951  12.320  1.00  0.00     0.042 C 
BRANCH   9  16
HETATM   16  N1  UNL     1     -11.755  26.943  10.369  1.00  0.00    -0.073 N 
ATOM     17  H13 UNL     1     -11.541  25.950  10.452  1.00  0.00     0.274 HD
ATOM     18  H12 UNL     1     -12.554  26.953  11.004  1.00  0.00     0.274 HD
ATOM     19  H11 UNL     1     -11.991  27.229   9.419  1.00  0.00     0.274 HD
ENDBRANCH   9  16
ENDBRANCH   1   8
BRANCH   4  20
HETATM   20  C8  UNL     1      -6.254  24.180   8.851  1.00  0.00     0.254 C 
HETATM   21  C9  UNL     1      -6.688  22.741   9.138  1.00  0.00     0.042 C 
HETATM   22  C10 UNL     1      -5.597  21.990   8.367  1.00  0.00     0.030 C 
HETATM   23  C11 UNL     1      -5.518  22.825   7.111  1.00  0.00     0.233 C 
HETATM   24  N4  UNL     1      -6.032  24.133   7.436  1.00  0.00    -0.064 N 
ATOM     25  H42 UNL     1      -6.863  24.376   6.898  1.00  0.00     0.278 HD
ATOM     26  H41 UNL     1      -5.430  24.887   7.106  1.00  0.00     0.278 HD
ENDBRANCH   4  20
TORSDOF 3
ENDMDL
MODEL 4
REMARK VINA RESULT: -6.278665933      3.571      7.734
REMARK  3 active torsions:
REMARK  status: ('A' for Active; 'I' for Inactive)
REMARK    1  A    between atoms: N1_1  and  C1_5 
REMARK    2  A    between atoms: C5_12  and  C6_13 
REMARK    3  A    between atoms: C7_16  and  C8_17 
ROOT
HETATM    1  C6  UNL     1      -6.861  24.222   8.963  1.00  0.00     0.154 A 
HETATM    2  N3  UNL     1      -7.411  25.446   9.013  1.00  0.00    -0.325 N 
ATOM      3  H3  UNL     1      -6.967  26.310   8.705  1.00  0.00     0.169 HD
HETATM    4  C7  UNL     1      -8.648  25.343   9.541  1.00  0.00     0.134 A 
HETATM    5  N5  UNL     1      -8.811  24.027   9.799  1.00  0.00    -0.245 N 
ATOM      6  H5  UNL     1      -9.646  23.604  10.205  1.00  0.00     0.196 HD
HETATM    7  O1  UNL     1      -7.752  23.391   9.451  1.00  0.00    -0.222 OA
ENDROOT
BRANCH   1   8
HETATM    8  C5  UNL     1      -5.549  23.782   8.484  1.00  0.00     0.096 C 
HETATM    9  C1  UNL     1      -5.611  23.353   7.016  1.00  0.00     0.221 C 
HETATM   10  C2  UNL     1      -4.292  22.617   6.757  1.00  0.00     0.265 C 
HETATM   11  N2  UNL     1      -3.210  23.550   6.914  1.00  0.00    -0.073 N 
HETATM   12  C3  UNL     1      -3.176  24.194   8.197  1.00  0.00     0.233 C 
ATOM     13  H22 UNL     1      -2.317  23.098   6.715  1.00  0.00     0.277 HD
ATOM     14  H21 UNL     1      -3.222  24.242   6.165  1.00  0.00     0.277 HD
HETATM   15  C4  UNL     1      -4.489  24.850   8.560  1.00  0.00     0.042 C 
BRANCH   9  16
HETATM   16  N1  UNL     1      -5.587  24.537   6.189  1.00  0.00    -0.073 N 
ATOM     17  H13 UNL     1      -5.592  25.405   6.724  1.00  0.00     0.274 HD
ATOM     18  H12 UNL     1      -4.693  24.684   5.719  1.00  0.00     0.274 HD
ATOM     19  H11 UNL     1      -6.373  24.454   5.544  1.00  0.00     0.274 HD
ENDBRANCH   9  16
ENDBRANCH   1   8
BRANCH   4  20
HETATM   20  C8  UNL     1      -9.639  26.389   9.799  1.00  0.00     0.254 C 
HETATM   21  C9  UNL     1     -10.279  26.164  11.172  1.00  0.00     0.042 C 
HETATM   22  C10 UNL     1     -11.011  27.500  11.331  1.00  0.00     0.030 C 
HETATM   23  C11 UNL     1      -9.964  28.457  10.812  1.00  0.00     0.233 C 
HETATM   24  N4  UNL     1      -9.083  27.700   9.957  1.00  0.00    -0.064 N 
ATOM     25  H42 UNL     1      -8.121  27.683  10.298  1.00  0.00     0.278 HD
ATOM     26  H41 UNL     1      -8.903  28.163   9.067  1.00  0.00     0.278 HD
ENDBRANCH   4  20
TORSDOF 3
ENDMDL
MODEL 5
REMARK VINA RESULT: -6.266126072      6.879     10.346
REMARK  3 active torsions:
REMARK  status: ('A' for Active; 'I' for Inactive)
REMARK    1  A    between atoms: N1_1  and  C1_5 
REMARK    2  A    between atoms: C5_12  and  C6_13 
REMARK    3  A    between atoms: C7_16  and  C8_17 
ROOT
HETATM    1  C6  UNL     1      -9.600  27.609  10.378  1.00  0.00     0.154 A 
HETATM    2  N3  UNL     1      -9.716  28.756  11.066  1.00  0.00    -0.325 N 
ATOM      3  H3  UNL     1      -8.953  29.392  11.293  1.00  0.00     0.169 HD
HETATM    4  C7  UNL     1     -11.009  28.926  11.409  1.00  0.00     0.134 A 
HETATM    5  N5  UNL     1     -11.651  27.849  10.904  1.00  0.00    -0.245 N 
ATOM      6  H5  UNL     1     -12.651  27.666  10.986  1.00  0.00     0.196 HD
HETATM    7  O1  UNL     1     -10.805  27.093  10.305  1.00  0.00    -0.222 OA
ENDROOT
BRANCH   1   8
HETATM    8  C5  UNL     1      -8.428  26.964   9.783  1.00  0.00     0.096 C 
HETATM    9  C1  UNL     1      -8.387  25.471  10.118  1.00  0.00     0.221 C 
HETATM   10  C2  UNL     1      -6.976  25.012   9.735  1.00  0.00     0.265 C 
HETATM   11  N2  UNL     1      -6.815  25.165   8.315  1.00  0.00    -0.073 N 
HETATM   12  C3  UNL     1      -7.049  26.502   7.842  1.00  0.00     0.233 C 
ATOM     13  H22 UNL     1      -5.895  24.837   8.021  1.00  0.00     0.277 HD
ATOM     14  H21 UNL     1      -7.403  24.499   7.813  1.00  0.00     0.277 HD
HETATM   15  C4  UNL     1      -8.386  27.055   8.280  1.00  0.00     0.042 C 
BRANCH   9  16
HETATM   16  N1  UNL     1      -9.296  24.777   9.235  1.00  0.00    -0.073 N 
ATOM     17  H13 UNL     1      -8.905  24.601   8.309  1.00  0.00     0.274 HD
ATOM     18  H12 UNL     1      -9.447  23.802   9.494  1.00  0.00     0.274 HD
ATOM     19  H11 UNL     1     -10.154  25.327   9.214  1.00  0.00     0.274 HD
ENDBRANCH   9  16
ENDBRANCH   1   8
BRANCH   4  20
HETATM   20  C8  UNL     1     -11.637  30.015  12.160  1.00  0.00     0.254 C 
HETATM   21  C9  UNL     1     -10.627  31.146  12.367  1.00  0.00     0.042 C 
HETATM   22  C10 UNL     1     -11.574  32.240  12.873  1.00  0.00     0.030 C 
HETATM   23  C11 UNL     1     -12.747  32.046  11.944  1.00  0.00     0.233 C 
HETATM   24  N4  UNL     1     -12.681  30.693  11.450  1.00  0.00    -0.064 N 
ATOM     25  H42 UNL     1     -12.564  30.647  10.438  1.00  0.00     0.278 HD
ATOM     26  H41 UNL     1     -13.576  30.208  11.506  1.00  0.00     0.278 HD
ENDBRANCH   4  20
TORSDOF 3
ENDMDL
