MODEL 1
REMARK VINA RESULT: -5.455423721      0.000      0.000
REMARK  6 active torsions:
REMARK  status: ('A' for Active; 'I' for Inactive)
REMARK    1  A    between atoms: C2_2  and  O1_4 
REMARK    2  A    between atoms: C2_2  and  C4_6 
REMARK    3  A    between atoms: C4_6  and  S1_7 
REMARK    4  A    between atoms: S1_7  and  C5_8 
REMARK    5  A    between atoms: C5_8  and  N1_10 
REMARK    6  A    between atoms: N1_10  and  C6_12 
ROOT
HETATM    1  C5  UNL     1      -5.860  26.237   6.802  1.00  0.00     0.141 C 
HETATM    2  S2  UNL     1      -7.089  26.886   7.704  1.00  0.00    -0.052 SA
ENDROOT
BRANCH   1   3
HETATM    3  S1  UNL     1      -4.412  27.158   6.614  1.00  0.00    -0.097 SA
BRANCH   3   4
HETATM    4  C4  UNL     1      -2.927  26.190   6.619  1.00  0.00     0.118 C 
BRANCH   4   5
HETATM    5  C2  UNL     1      -2.411  25.883   5.263  1.00  0.00     0.059 C 
HETATM    6  C1  UNL     1      -1.007  25.312   5.431  1.00  0.00     0.046 C 
HETATM    7  C3  UNL     1      -2.445  26.962   4.264  1.00  0.00     0.046 C 
BRANCH   5   8
HETATM    8  O1  UNL     1      -3.224  24.840   4.768  1.00  0.00    -0.390 OA
ATOM      9  H1  UNL     1      -3.100  24.095   5.345  1.00  0.00     0.210 HD
ENDBRANCH   5   8
ENDBRANCH   4   5
ENDBRANCH   3   4
ENDBRANCH   1   3
BRANCH   1  10
HETATM   10  N1  UNL     1      -6.097  24.962   6.250  1.00  0.00    -0.314 N 
ATOM     11  H1  UNL     1      -6.539  24.893   5.333  1.00  0.00     0.170 HD
BRANCH  10  12
HETATM   12  C6  UNL     1      -5.730  23.742   6.950  1.00  0.00     0.176 C 
HETATM   13  N2  UNL     1      -4.869  22.881   6.574  1.00  0.00    -0.361 N 
HETATM   14  C7  UNL     1      -4.726  21.771   7.487  1.00  0.00     0.142 C 
ATOM     15  H2  UNL     1      -4.332  22.968   5.711  1.00  0.00     0.162 HD
HETATM   16  C8  UNL     1      -5.868  21.951   8.456  1.00  0.00     0.142 C 
HETATM   17  N3  UNL     1      -6.278  23.310   8.182  1.00  0.00    -0.361 N 
ATOM     18  H3  UNL     1      -6.875  23.874   8.787  1.00  0.00     0.162 HD
ENDBRANCH  10  12
ENDBRANCH   1  10
TORSDOF 6
ENDMDL
MODEL 2
REMARK VINA RESULT: -5.375832310      0.152      1.011
REMARK  6 active torsions:
REMARK  status: ('A' for Active; 'I' for Inactive)
REMARK    1  A    between atoms: C2_2  and  O1_4 
REMARK    2  A    between atoms: C2_2  and  C4_6 
REMARK    3  A    between atoms: C4_6  and  S1_7 
REMARK    4  A    between atoms: S1_7  and  C5_8 
REMARK    5  A    between atoms: C5_8  and  N1_10 
REMARK    6  A    between atoms: N1_10  and  C6_12 
ROOT
HETATM    1  C5  UNL     1      -5.728  26.293   6.776  1.00  0.00     0.141 C 
HETATM    2  S2  UNL     1      -6.987  26.938   7.640  1.00  0.00    -0.052 SA
ENDROOT
BRANCH   1   3
HETATM    3  S1  UNL     1      -4.260  27.196   6.675  1.00  0.00    -0.097 SA
BRANCH   3   4
HETATM    4  C4  UNL     1      -2.794  26.201   6.623  1.00  0.00     0.118 C 
BRANCH   4   5
HETATM    5  C2  UNL     1      -2.319  25.912   5.248  1.00  0.00     0.059 C 
HETATM    6  C1  UNL     1      -0.904  25.356   5.365  1.00  0.00     0.046 C 
HETATM    7  C3  UNL     1      -2.398  27.000   4.261  1.00  0.00     0.046 C 
BRANCH   5   8
HETATM    8  O1  UNL     1      -3.136  24.864   4.770  1.00  0.00    -0.390 OA
ATOM      9  H1  UNL     1      -3.963  25.254   4.510  1.00  0.00     0.210 HD
ENDBRANCH   5   8
ENDBRANCH   4   5
ENDBRANCH   3   4
ENDBRANCH   1   3
BRANCH   1  10
HETATM   10  N1  UNL     1      -5.959  25.035   6.182  1.00  0.00    -0.314 N 
ATOM     11  H1  UNL     1      -6.325  24.996   5.231  1.00  0.00     0.170 HD
BRANCH  10  12
HETATM   12  C6  UNL     1      -5.690  23.792   6.886  1.00  0.00     0.176 C 
HETATM   13  N2  UNL     1      -6.273  23.377   7.940  1.00  0.00    -0.361 N 
HETATM   14  C7  UNL     1      -5.783  22.099   8.405  1.00  0.00     0.142 C 
ATOM     15  H2  UNL     1      -7.013  23.896   8.411  1.00  0.00     0.162 HD
HETATM   16  C8  UNL     1      -4.559  21.852   7.557  1.00  0.00     0.142 C 
HETATM   17  N3  UNL     1      -4.724  22.829   6.505  1.00  0.00    -0.361 N 
ATOM     18  H3  UNL     1      -4.220  22.826   5.619  1.00  0.00     0.162 HD
ENDBRANCH  10  12
ENDBRANCH   1  10
TORSDOF 6
ENDMDL
MODEL 3
REMARK VINA RESULT: -5.174686875      3.113      4.981
REMARK  6 active torsions:
REMARK  status: ('A' for Active; 'I' for Inactive)
REMARK    1  A    between atoms: C2_2  and  O1_4 
REMARK    2  A    between atoms: C2_2  and  C4_6 
REMARK    3  A    between atoms: C4_6  and  S1_7 
REMARK    4  A    between atoms: S1_7  and  C5_8 
REMARK    5  A    between atoms: C5_8  and  N1_10 
REMARK    6  A    between atoms: N1_10  and  C6_12 
ROOT
HETATM    1  C5  UNL     1      -5.846  26.274   7.033  1.00  0.00     0.141 C 
HETATM    2  S2  UNL     1      -4.675  27.166   6.272  1.00  0.00    -0.052 SA
ENDROOT
BRANCH   1   3
HETATM    3  S1  UNL     1      -6.556  26.916   8.470  1.00  0.00    -0.097 SA
BRANCH   3   4
HETATM    4  C4  UNL     1      -8.298  27.224   8.348  1.00  0.00     0.118 C 
BRANCH   4   5
HETATM    5  C2  UNL     1      -9.117  26.370   9.241  1.00  0.00     0.059 C 
HETATM    6  C1  UNL     1      -9.721  27.278  10.307  1.00  0.00     0.046 C 
HETATM    7  C3  UNL     1      -8.470  25.189   9.833  1.00  0.00     0.046 C 
BRANCH   5   8
HETATM    8  O1  UNL     1     -10.187  25.897   8.450  1.00  0.00    -0.390 OA
ATOM      9  H1  UNL     1      -9.980  26.113   7.547  1.00  0.00     0.210 HD
ENDBRANCH   5   8
ENDBRANCH   4   5
ENDBRANCH   3   4
ENDBRANCH   1   3
BRANCH   1  10
HETATM   10  N1  UNL     1      -6.177  25.040   6.437  1.00  0.00    -0.314 N 
ATOM     11  H1  UNL     1      -6.735  25.037   5.583  1.00  0.00     0.170 HD
BRANCH  10  12
HETATM   12  C6  UNL     1      -5.745  23.773   7.004  1.00  0.00     0.176 C 
HETATM   13  N2  UNL     1      -4.865  22.988   6.523  1.00  0.00    -0.361 N 
HETATM   14  C7  UNL     1      -4.655  21.800   7.318  1.00  0.00     0.142 C 
ATOM     15  H2  UNL     1      -4.357  23.179   5.659  1.00  0.00     0.162 HD
HETATM   16  C8  UNL     1      -5.774  21.840   8.329  1.00  0.00     0.142 C 
HETATM   17  N3  UNL     1      -6.241  23.202   8.201  1.00  0.00    -0.361 N 
ATOM     18  H3  UNL     1      -6.839  23.682   8.874  1.00  0.00     0.162 HD
ENDBRANCH  10  12
ENDBRANCH   1  10
TORSDOF 6
ENDMDL
MODEL 4
REMARK VINA RESULT: -5.167481832      3.102      5.070
REMARK  6 active torsions:
REMARK  status: ('A' for Active; 'I' for Inactive)
REMARK    1  A    between atoms: C2_2  and  O1_4 
REMARK    2  A    between atoms: C2_2  and  C4_6 
REMARK    3  A    between atoms: C4_6  and  S1_7 
REMARK    4  A    between atoms: S1_7  and  C5_8 
REMARK    5  A    between atoms: C5_8  and  N1_10 
REMARK    6  A    between atoms: N1_10  and  C6_12 
ROOT
HETATM    1  C5  UNL     1      -5.818  26.282   7.033  1.00  0.00     0.141 C 
HETATM    2  S2  UNL     1      -4.621  27.165   6.302  1.00  0.00    -0.052 SA
ENDROOT
BRANCH   1   3
HETATM    3  S1  UNL     1      -6.537  26.916   8.469  1.00  0.00    -0.097 SA
BRANCH   3   4
HETATM    4  C4  UNL     1      -8.279  27.215   8.340  1.00  0.00     0.118 C 
BRANCH   4   5
HETATM    5  C2  UNL     1      -9.098  26.360   9.233  1.00  0.00     0.059 C 
HETATM    6  C1  UNL     1      -9.701  27.266  10.301  1.00  0.00     0.046 C 
HETATM    7  C3  UNL     1      -8.450  25.178   9.822  1.00  0.00     0.046 C 
BRANCH   5   8
HETATM    8  O1  UNL     1     -10.169  25.889   8.441  1.00  0.00    -0.390 OA
ATOM      9  H1  UNL     1     -10.408  25.033   8.779  1.00  0.00     0.210 HD
ENDBRANCH   5   8
ENDBRANCH   4   5
ENDBRANCH   3   4
ENDBRANCH   1   3
BRANCH   1  10
HETATM   10  N1  UNL     1      -6.161  25.064   6.413  1.00  0.00    -0.314 N 
ATOM     11  H1  UNL     1      -6.693  25.083   5.544  1.00  0.00     0.170 HD
BRANCH  10  12
HETATM   12  C6  UNL     1      -5.779  23.780   6.979  1.00  0.00     0.176 C 
HETATM   13  N2  UNL     1      -6.267  23.235   8.022  1.00  0.00    -0.361 N 
HETATM   14  C7  UNL     1      -5.679  21.953   8.332  1.00  0.00     0.142 C 
ATOM     15  H2  UNL     1      -7.002  23.663   8.584  1.00  0.00     0.162 HD
HETATM   16  C8  UNL     1      -4.502  21.859   7.392  1.00  0.00     0.142 C 
HETATM   17  N3  UNL     1      -4.789  22.916   6.450  1.00  0.00    -0.361 N 
ATOM     18  H3  UNL     1      -4.345  23.024   5.538  1.00  0.00     0.162 HD
ENDBRANCH  10  12
ENDBRANCH   1  10
TORSDOF 6
ENDMDL
MODEL 5
REMARK VINA RESULT: -5.148668400      3.518      5.496
REMARK  6 active torsions:
REMARK  status: ('A' for Active; 'I' for Inactive)
REMARK    1  A    between atoms: C2_2  and  O1_4 
REMARK    2  A    between atoms: C2_2  and  C4_6 
REMARK    3  A    between atoms: C4_6  and  S1_7 
REMARK    4  A    between atoms: S1_7  and  C5_8 
REMARK    5  A    between atoms: C5_8  and  N1_10 
REMARK    6  A    between atoms: N1_10  and  C6_12 
ROOT
HETATM    1  C5  UNL     1      -6.434  25.902   7.765  1.00  0.00     0.141 C 
HETATM    2  S2  UNL     1      -5.276  25.842   8.948  1.00  0.00    -0.052 SA
ENDROOT
BRANCH   1   3
HETATM    3  S1  UNL     1      -7.592  27.182   7.820  1.00  0.00    -0.097 SA
BRANCH   3   4
HETATM    4  C4  UNL     1      -8.464  27.310   9.358  1.00  0.00     0.118 C 
BRANCH   4   5
HETATM    5  C2  UNL     1      -9.405  26.191   9.604  1.00  0.00     0.059 C 
HETATM    6  C1  UNL     1     -10.448  26.688  10.599  1.00  0.00     0.046 C 
HETATM    7  C3  UNL     1      -8.832  24.900  10.013  1.00  0.00     0.046 C 
BRANCH   5   8
HETATM    8  O1  UNL     1     -10.074  25.973   8.380  1.00  0.00    -0.390 OA
ATOM      9  H1  UNL     1     -10.203  26.825   7.980  1.00  0.00     0.210 HD
ENDBRANCH   5   8
ENDBRANCH   4   5
ENDBRANCH   3   4
ENDBRANCH   1   3
BRANCH   1  10
HETATM   10  N1  UNL     1      -6.382  24.887   6.788  1.00  0.00    -0.314 N 
ATOM     11  H1  UNL     1      -7.246  24.587   6.338  1.00  0.00     0.170 HD
BRANCH  10  12
HETATM   12  C6  UNL     1      -5.130  24.255   6.404  1.00  0.00     0.176 C 
HETATM   13  N2  UNL     1      -4.812  23.034   6.580  1.00  0.00    -0.361 N 
HETATM   14  C7  UNL     1      -3.494  22.705   6.088  1.00  0.00     0.142 C 
ATOM     15  H2  UNL     1      -5.428  22.354   7.026  1.00  0.00     0.162 HD
HETATM   16  C8  UNL     1      -2.889  24.046   5.752  1.00  0.00     0.142 C 
HETATM   17  N3  UNL     1      -4.050  24.906   5.759  1.00  0.00    -0.361 N 
ATOM     18  H3  UNL     1      -4.087  25.843   5.359  1.00  0.00     0.162 HD
ENDBRANCH  10  12
ENDBRANCH   1  10
TORSDOF 6
ENDMDL
