MODEL 1
REMARK VINA RESULT: -6.111634897      0.000      0.000
REMARK  3 active torsions:
REMARK  status: ('A' for Active; 'I' for Inactive)
REMARK    1  A    between atoms: N1_2  and  C2_4 
REMARK    2  A    between atoms: C4_8  and  N3_9 
REMARK    3  A    between atoms: C5_14  and  N5_15 
ROOT
HETATM    1  C2  UNL     1      -6.875  26.377   7.665  1.00  0.00     0.088 A 
HETATM    2  C3  UNL     1      -7.966  27.196   7.998  1.00  0.00     0.139 A 
HETATM    3  N2  UNL     1      -8.828  26.761   8.922  1.00  0.00    -0.200 N 
ATOM      4  H2  UNL     1      -9.626  27.342   9.176  1.00  0.00     0.183 HD
HETATM    5  C4  UNL     1      -8.660  25.568   9.522  1.00  0.00     0.677 A 
HETATM    6  N4  UNL     1      -7.610  24.795   9.194  1.00  0.00    -0.175 N 
ATOM      7  H4  UNL     1      -7.503  23.896   9.663  1.00  0.00     0.186 HD
HETATM    8  C5  UNL     1      -6.682  25.156   8.264  1.00  0.00     0.147 A 
ENDROOT
BRANCH   8   9
HETATM    9  N5  UNL     1      -5.597  24.307   7.982  1.00  0.00    -0.356 N 
HETATM   10  C6  UNL     1      -5.750  23.346   6.873  1.00  0.00     0.125 C 
HETATM   11  C7  UNL     1      -5.095  22.032   7.254  1.00  0.00     0.020 C 
HETATM   12  C8  UNL     1      -5.052  21.847   8.743  1.00  0.00     0.004 C 
HETATM   13  C9  UNL     1      -4.193  22.896   9.347  1.00  0.00     0.030 C 
HETATM   14  C10 UNL     1      -4.331  24.253   8.664  1.00  0.00     0.027 C 
HETATM   15  C11 UNL     1      -3.129  24.390   7.753  1.00  0.00     0.038 C 
HETATM   16  C12 UNL     1      -4.297  25.303   9.755  1.00  0.00     0.038 C 
ENDBRANCH   8   9
BRANCH   1  17
HETATM   17  N1  UNL     1      -5.997  26.839   6.683  1.00  0.00    -0.390 N 
HETATM   18  C1  UNL     1      -4.919  27.741   7.011  1.00  0.00     0.146 C 
ATOM     19  H1  UNL     1      -6.119  26.534   5.717  1.00  0.00     0.159 HD
ENDBRANCH   1  17
BRANCH   5  20
HETATM   20  N3  UNL     1      -9.500  25.146  10.421  1.00  0.00    -0.234 N 
ATOM     21  H32 UNL     1     -10.421  24.822  10.126  1.00  0.00     0.174 HD
ATOM     22  H31 UNL     1      -9.251  25.134  11.409  1.00  0.00     0.174 HD
ENDBRANCH   5  20
TORSDOF 3
ENDMDL
MODEL 2
REMARK VINA RESULT: -5.576098000      1.571      2.564
REMARK  3 active torsions:
REMARK  status: ('A' for Active; 'I' for Inactive)
REMARK    1  A    between atoms: N1_2  and  C2_4 
REMARK    2  A    between atoms: C4_8  and  N3_9 
REMARK    3  A    between atoms: C5_14  and  N5_15 
ROOT
HETATM    1  C2  UNL     1      -6.785  25.504   9.472  1.00  0.00     0.088 A 
HETATM    2  C3  UNL     1      -8.086  25.790   9.914  1.00  0.00     0.139 A 
HETATM    3  N2  UNL     1      -8.972  24.792   9.968  1.00  0.00    -0.200 N 
ATOM      4  H2  UNL     1      -9.922  24.981  10.287  1.00  0.00     0.183 HD
HETATM    5  C4  UNL     1      -8.632  23.539   9.610  1.00  0.00     0.677 A 
HETATM    6  N4  UNL     1      -7.381  23.280   9.190  1.00  0.00    -0.175 N 
ATOM      7  H4  UNL     1      -7.147  22.324   8.925  1.00  0.00     0.186 HD
HETATM    8  C5  UNL     1      -6.413  24.234   9.101  1.00  0.00     0.147 A 
ENDROOT
BRANCH   8   9
HETATM    9  N5  UNL     1      -5.119  23.889   8.671  1.00  0.00    -0.356 N 
HETATM   10  C6  UNL     1      -4.160  23.425   9.692  1.00  0.00     0.125 C 
HETATM   11  C7  UNL     1      -2.785  23.984   9.380  1.00  0.00     0.020 C 
HETATM   12  C8  UNL     1      -2.874  25.259   8.593  1.00  0.00     0.004 C 
HETATM   13  C9  UNL     1      -3.487  24.982   7.270  1.00  0.00     0.030 C 
HETATM   14  C10 UNL     1      -4.602  23.943   7.330  1.00  0.00     0.027 C 
HETATM   15  C11 UNL     1      -3.992  22.644   6.846  1.00  0.00     0.038 C 
HETATM   16  C12 UNL     1      -5.691  24.407   6.385  1.00  0.00     0.038 C 
ENDBRANCH   8   9
BRANCH   1  17
HETATM   17  N1  UNL     1      -5.878  26.563   9.402  1.00  0.00    -0.390 N 
HETATM   18  C1  UNL     1      -5.991  27.574   8.377  1.00  0.00     0.146 C 
ATOM     19  H1  UNL     1      -5.124  26.625  10.086  1.00  0.00     0.159 HD
ENDBRANCH   1  17
BRANCH   5  20
HETATM   20  N3  UNL     1      -9.496  22.569   9.663  1.00  0.00    -0.234 N 
ATOM     21  H32 UNL     1      -9.200  21.626   9.412  1.00  0.00     0.174 HD
ATOM     22  H31 UNL     1     -10.459  22.738   9.953  1.00  0.00     0.174 HD
ENDBRANCH   5  20
TORSDOF 3
ENDMDL
MODEL 3
REMARK VINA RESULT: -5.484259752      1.200      2.170
REMARK  3 active torsions:
REMARK  status: ('A' for Active; 'I' for Inactive)
REMARK    1  A    between atoms: N1_2  and  C2_4 
REMARK    2  A    between atoms: C4_8  and  N3_9 
REMARK    3  A    between atoms: C5_14  and  N5_15 
ROOT
HETATM    1  C2  UNL     1      -6.013  26.645   8.773  1.00  0.00     0.088 A 
HETATM    2  C3  UNL     1      -6.960  27.682   8.783  1.00  0.00     0.139 A 
HETATM    3  N2  UNL     1      -8.254  27.360   8.846  1.00  0.00    -0.200 N 
ATOM      4  H2  UNL     1      -8.956  28.100   8.855  1.00  0.00     0.183 HD
HETATM    5  C4  UNL     1      -8.649  26.074   8.900  1.00  0.00     0.677 A 
HETATM    6  N4  UNL     1      -7.731  25.092   8.891  1.00  0.00    -0.175 N 
ATOM      7  H4  UNL     1      -8.054  24.125   8.934  1.00  0.00     0.186 HD
HETATM    8  C5  UNL     1      -6.391  25.325   8.828  1.00  0.00     0.147 A 
ENDROOT
BRANCH   8   9
HETATM    9  N5  UNL     1      -5.485  24.250   8.841  1.00  0.00    -0.356 N 
HETATM   10  C6  UNL     1      -4.978  23.798  10.151  1.00  0.00     0.125 C 
HETATM   11  C7  UNL     1      -3.512  23.433  10.023  1.00  0.00     0.020 C 
HETATM   12  C8  UNL     1      -2.855  24.173   8.894  1.00  0.00     0.004 C 
HETATM   13  C9  UNL     1      -3.470  23.760   7.608  1.00  0.00     0.030 C 
HETATM   14  C10 UNL     1      -4.973  23.525   7.708  1.00  0.00     0.027 C 
HETATM   15  C11 UNL     1      -5.161  22.025   7.793  1.00  0.00     0.038 C 
HETATM   16  C12 UNL     1      -5.592  24.070   6.437  1.00  0.00     0.038 C 
ENDBRANCH   8   9
BRANCH   1  17
HETATM   17  N1  UNL     1      -4.666  27.001   8.685  1.00  0.00    -0.390 N 
HETATM   18  C1  UNL     1      -4.105  27.498   7.452  1.00  0.00     0.146 C 
ATOM     19  H1  UNL     1      -4.068  26.908   9.507  1.00  0.00     0.159 HD
ENDBRANCH   1  17
BRANCH   5  20
HETATM   20  N3  UNL     1      -9.910  25.762   8.961  1.00  0.00    -0.234 N 
ATOM     21  H32 UNL     1     -10.204  24.998   9.570  1.00  0.00     0.174 HD
ATOM     22  H31 UNL     1     -10.604  26.269   8.413  1.00  0.00     0.174 HD
ENDBRANCH   5  20
TORSDOF 3
ENDMDL
MODEL 4
REMARK VINA RESULT: -5.438905197      3.715      5.675
REMARK  3 active torsions:
REMARK  status: ('A' for Active; 'I' for Inactive)
REMARK    1  A    between atoms: N1_2  and  C2_4 
REMARK    2  A    between atoms: C4_8  and  N3_9 
REMARK    3  A    between atoms: C5_14  and  N5_15 
ROOT
HETATM    1  C2  UNL     1      -3.505  26.357   6.388  1.00  0.00     0.088 A 
HETATM    2  C3  UNL     1      -4.705  25.644   6.541  1.00  0.00     0.139 A 
HETATM    3  N2  UNL     1      -4.675  24.315   6.417  1.00  0.00    -0.200 N 
ATOM      4  H2  UNL     1      -5.537  23.781   6.526  1.00  0.00     0.183 HD
HETATM    5  C4  UNL     1      -3.525  23.667   6.153  1.00  0.00     0.677 A 
HETATM    6  N4  UNL     1      -2.383  24.362   6.011  1.00  0.00    -0.175 N 
ATOM      7  H4  UNL     1      -1.524  23.849   5.812  1.00  0.00     0.186 HD
HETATM    8  C5  UNL     1      -2.319  25.718   6.118  1.00  0.00     0.147 A 
ENDROOT
BRANCH   8   9
HETATM    9  N5  UNL     1      -1.086  26.380   5.976  1.00  0.00    -0.356 N 
HETATM   10  C6  UNL     1      -0.686  26.797   4.618  1.00  0.00     0.125 C 
HETATM   11  C7  UNL     1       0.806  26.582   4.447  1.00  0.00     0.020 C 
HETATM   12  C8  UNL     1       1.315  25.502   5.356  1.00  0.00     0.004 C 
HETATM   13  C9  UNL     1       1.147  25.924   6.769  1.00  0.00     0.030 C 
HETATM   14  C10 UNL     1      -0.142  26.701   7.014  1.00  0.00     0.027 C 
HETATM   15  C11 UNL     1       0.250  28.163   7.066  1.00  0.00     0.038 C 
HETATM   16  C12 UNL     1      -0.686  26.246   8.352  1.00  0.00     0.038 C 
ENDBRANCH   8   9
BRANCH   1  17
HETATM   17  N1  UNL     1      -3.560  27.747   6.499  1.00  0.00    -0.390 N 
HETATM   18  C1  UNL     1      -3.920  28.572   5.371  1.00  0.00     0.146 C 
ATOM     19  H1  UNL     1      -3.342  28.188   7.393  1.00  0.00     0.159 HD
ENDBRANCH   1  17
BRANCH   5  20
HETATM   20  N3  UNL     1      -3.497  22.372   6.033  1.00  0.00    -0.234 N 
ATOM     21  H32 UNL     1      -4.361  21.875   5.818  1.00  0.00     0.174 HD
ATOM     22  H31 UNL     1      -2.628  21.852   6.149  1.00  0.00     0.174 HD
ENDBRANCH   5  20
TORSDOF 3
ENDMDL
MODEL 5
REMARK VINA RESULT: -5.418955282      2.878      4.862
REMARK  3 active torsions:
REMARK  status: ('A' for Active; 'I' for Inactive)
REMARK    1  A    between atoms: N1_2  and  C2_4 
REMARK    2  A    between atoms: C4_8  and  N3_9 
REMARK    3  A    between atoms: C5_14  and  N5_15 
ROOT
HETATM    1  C2  UNL     1      -4.762  25.642   6.456  1.00  0.00     0.088 A 
HETATM    2  C3  UNL     1      -5.801  24.718   6.653  1.00  0.00     0.139 A 
HETATM    3  N2  UNL     1      -5.492  23.420   6.712  1.00  0.00    -0.200 N 
ATOM      4  H2  UNL     1      -6.234  22.734   6.854  1.00  0.00     0.183 HD
HETATM    5  C4  UNL     1      -4.219  23.001   6.588  1.00  0.00     0.677 A 
HETATM    6  N4  UNL     1      -3.235  23.897   6.402  1.00  0.00    -0.175 N 
ATOM      7  H4  UNL     1      -2.278  23.556   6.312  1.00  0.00     0.186 HD
HETATM    8  C5  UNL     1      -3.455  25.239   6.327  1.00  0.00     0.147 A 
ENDROOT
BRANCH   8   9
HETATM    9  N5  UNL     1      -2.376  26.123   6.149  1.00  0.00    -0.356 N 
HETATM   10  C6  UNL     1      -2.048  26.534   4.771  1.00  0.00     0.125 C 
HETATM   11  C7  UNL     1      -0.541  26.609   4.615  1.00  0.00     0.020 C 
HETATM   12  C8  UNL     1       0.160  25.704   5.586  1.00  0.00     0.004 C 
HETATM   13  C9  UNL     1      -0.107  26.163   6.971  1.00  0.00     0.030 C 
HETATM   14  C10 UNL     1      -1.528  26.682   7.169  1.00  0.00     0.027 C 
HETATM   15  C11 UNL     1      -1.432  28.193   7.138  1.00  0.00     0.038 C 
HETATM   16  C12 UNL     1      -1.989  26.204   8.530  1.00  0.00     0.038 C 
ENDBRANCH   8   9
BRANCH   1  17
HETATM   17  N1  UNL     1      -5.106  26.993   6.375  1.00  0.00    -0.390 N 
HETATM   18  C1  UNL     1      -5.271  27.793   7.566  1.00  0.00     0.146 C 
ATOM     19  H1  UNL     1      -5.242  27.422   5.460  1.00  0.00     0.159 HD
ENDBRANCH   1  17
BRANCH   5  20
HETATM   20  N3  UNL     1      -3.921  21.736   6.646  1.00  0.00    -0.234 N 
ATOM     21  H32 UNL     1      -4.618  21.077   6.993  1.00  0.00     0.174 HD
ATOM     22  H31 UNL     1      -3.006  21.398   6.349  1.00  0.00     0.174 HD
ENDBRANCH   5  20
TORSDOF 3
ENDMDL
