MODEL 1
REMARK VINA RESULT: -6.374558701      0.000      0.000
REMARK  2 active torsions:
REMARK  status: ('A' for Active; 'I' for Inactive)
REMARK    1  A    between atoms: C2_2  and  C3_3 
REMARK    2  A    between atoms: C3_3  and  C4_4 
ROOT
HETATM    1  C4  UNL     1      -2.351  26.289   8.331  1.00  0.00     0.008 C 
HETATM    2  C5  UNL     1      -3.815  26.035   8.426  1.00  0.00     0.035 C 
HETATM    3  C6  UNL     1      -4.461  25.541   7.180  1.00  0.00     0.125 C 
HETATM    4  C7  UNL     1      -5.874  25.159   7.377  1.00  0.00     0.149 C 
HETATM    5  N1  UNL     1      -6.142  23.931   8.039  1.00  0.00    -0.362 N 
ATOM      6  H1  UNL     1      -6.826  24.008   8.792  1.00  0.00     0.162 HD
HETATM    7  C8  UNL     1      -5.686  22.741   7.869  1.00  0.00     0.190 C 
HETATM    8  N2  UNL     1      -6.170  21.708   8.718  1.00  0.00    -0.063 NA
HETATM    9  N3  UNL     1      -4.714  22.380   6.875  1.00  0.00    -0.304 N 
ATOM     10  H3  UNL     1      -4.729  21.410   6.559  1.00  0.00     0.171 HD
HETATM   11  C9  UNL     1      -3.814  23.152   6.331  1.00  0.00     0.209 C 
HETATM   12  N4  UNL     1      -2.973  22.541   5.371  1.00  0.00    -0.062 NA
HETATM   13  N5  UNL     1      -3.608  24.531   6.616  1.00  0.00    -0.262 N 
HETATM   14  N6  UNL     1      -2.331  24.911   6.263  1.00  0.00    -0.131 NA
HETATM   15  C10 UNL     1      -1.597  25.569   7.295  1.00  0.00     0.099 C 
HETATM   16  C11 UNL     1      -0.609  26.497   6.572  1.00  0.00     0.030 C 
ENDROOT
BRANCH   1  17
HETATM   17  C3  UNL     1      -1.803  26.059   9.739  1.00  0.00     0.006 C 
BRANCH  17  18
HETATM   18  C2  UNL     1      -1.861  24.612  10.139  1.00  0.00    -0.004 C 
HETATM   19  C1  UNL     1      -2.202  24.587  11.625  1.00  0.00     0.005 C 
ENDBRANCH  17  18
ENDBRANCH   1  17
TORSDOF 2
ENDMDL
MODEL 2
REMARK VINA RESULT: -6.335766874      1.795      3.895
REMARK  2 active torsions:
REMARK  status: ('A' for Active; 'I' for Inactive)
REMARK    1  A    between atoms: C2_2  and  C3_3 
REMARK    2  A    between atoms: C3_3  and  C4_4 
ROOT
HETATM    1  C4  UNL     1      -4.890  23.941  10.917  1.00  0.00     0.008 C 
HETATM    2  C5  UNL     1      -4.737  22.832   9.935  1.00  0.00     0.035 C 
HETATM    3  C6  UNL     1      -5.684  22.859   8.788  1.00  0.00     0.125 C 
HETATM    4  C7  UNL     1      -5.385  21.831   7.771  1.00  0.00     0.149 C 
HETATM    5  N1  UNL     1      -4.282  22.058   6.904  1.00  0.00    -0.362 N 
ATOM      6  H1  UNL     1      -3.646  21.264   6.827  1.00  0.00     0.162 HD
HETATM    7  C8  UNL     1      -3.933  23.075   6.199  1.00  0.00     0.190 C 
HETATM    8  N2  UNL     1      -2.746  22.979   5.421  1.00  0.00    -0.063 NA
HETATM    9  N3  UNL     1      -4.664  24.311   6.142  1.00  0.00    -0.304 N 
ATOM     10  H3  UNL     1      -4.552  24.864   5.293  1.00  0.00     0.171 HD
HETATM   11  C9  UNL     1      -5.454  24.805   7.055  1.00  0.00     0.209 C 
HETATM   12  N4  UNL     1      -6.055  26.049   6.746  1.00  0.00    -0.062 NA
HETATM   13  N5  UNL     1      -5.759  24.213   8.312  1.00  0.00    -0.262 N 
HETATM   14  N6  UNL     1      -6.204  25.168   9.201  1.00  0.00    -0.131 NA
HETATM   15  C10 UNL     1      -5.517  25.187  10.452  1.00  0.00     0.099 C 
HETATM   16  C11 UNL     1      -6.532  25.721  11.473  1.00  0.00     0.030 C 
ENDROOT
BRANCH   1  17
HETATM   17  C3  UNL     1      -3.499  24.156  11.512  1.00  0.00     0.006 C 
BRANCH  17  18
HETATM   18  C2  UNL     1      -2.413  23.645  10.608  1.00  0.00    -0.004 C 
HETATM   19  C1  UNL     1      -1.812  24.867   9.921  1.00  0.00     0.005 C 
ENDBRANCH  17  18
ENDBRANCH   1  17
TORSDOF 2
ENDMDL
MODEL 3
REMARK VINA RESULT: -6.277825221      1.747      2.171
REMARK  2 active torsions:
REMARK  status: ('A' for Active; 'I' for Inactive)
REMARK    1  A    between atoms: C2_2  and  C3_3 
REMARK    2  A    between atoms: C3_3  and  C4_4 
ROOT
HETATM    1  C4  UNL     1      -2.772  27.091   6.464  1.00  0.00     0.008 C 
HETATM    2  C5  UNL     1      -3.893  26.653   7.340  1.00  0.00     0.035 C 
HETATM    3  C6  UNL     1      -4.752  25.570   6.788  1.00  0.00     0.125 C 
HETATM    4  C7  UNL     1      -5.745  25.072   7.761  1.00  0.00     0.149 C 
HETATM    5  N1  UNL     1      -5.285  24.218   8.799  1.00  0.00    -0.362 N 
ATOM      6  H1  UNL     1      -5.603  24.490   9.729  1.00  0.00     0.162 HD
HETATM    7  C8  UNL     1      -4.543  23.168   8.789  1.00  0.00     0.190 C 
HETATM    8  N2  UNL     1      -4.263  22.531  10.029  1.00  0.00    -0.063 NA
HETATM    9  N3  UNL     1      -3.973  22.591   7.604  1.00  0.00    -0.304 N 
ATOM     10  H3  UNL     1      -3.766  21.593   7.641  1.00  0.00     0.171 HD
HETATM   11  C9  UNL     1      -3.688  23.199   6.485  1.00  0.00     0.209 C 
HETATM   12  N4  UNL     1      -3.128  22.392   5.466  1.00  0.00    -0.062 NA
HETATM   13  N5  UNL     1      -3.889  24.580   6.206  1.00  0.00    -0.262 N 
HETATM   14  N6  UNL     1      -3.070  24.987   5.173  1.00  0.00    -0.131 NA
HETATM   15  C10 UNL     1      -2.277  26.139   5.458  1.00  0.00     0.099 C 
HETATM   16  C11 UNL     1      -2.042  26.824   4.104  1.00  0.00     0.030 C 
ENDROOT
BRANCH   1  17
HETATM   17  C3  UNL     1      -1.679  27.583   7.412  1.00  0.00     0.006 C 
BRANCH  17  18
HETATM   18  C2  UNL     1      -0.743  26.479   7.817  1.00  0.00    -0.004 C 
HETATM   19  C1  UNL     1       0.668  26.991   7.552  1.00  0.00     0.005 C 
ENDBRANCH  17  18
ENDBRANCH   1  17
TORSDOF 2
ENDMDL
MODEL 4
REMARK VINA RESULT: -6.135472466      0.689      1.216
REMARK  2 active torsions:
REMARK  status: ('A' for Active; 'I' for Inactive)
REMARK    1  A    between atoms: C2_2  and  C3_3 
REMARK    2  A    between atoms: C3_3  and  C4_4 
ROOT
HETATM    1  C4  UNL     1      -2.322  26.266   8.343  1.00  0.00     0.008 C 
HETATM    2  C5  UNL     1      -3.788  26.027   8.441  1.00  0.00     0.035 C 
HETATM    3  C6  UNL     1      -4.442  25.543   7.196  1.00  0.00     0.125 C 
HETATM    4  C7  UNL     1      -5.859  25.176   7.395  1.00  0.00     0.149 C 
HETATM    5  N1  UNL     1      -6.138  23.949   8.055  1.00  0.00    -0.362 N 
ATOM      6  H1  UNL     1      -6.820  24.031   8.810  1.00  0.00     0.162 HD
HETATM    7  C8  UNL     1      -5.695  22.754   7.880  1.00  0.00     0.190 C 
HETATM    8  N2  UNL     1      -6.188  21.724   8.728  1.00  0.00    -0.063 NA
HETATM    9  N3  UNL     1      -4.730  22.386   6.883  1.00  0.00    -0.304 N 
ATOM     10  H3  UNL     1      -4.755  21.417   6.564  1.00  0.00     0.171 HD
HETATM   11  C9  UNL     1      -3.823  23.150   6.339  1.00  0.00     0.209 C 
HETATM   12  N4  UNL     1      -2.990  22.533   5.375  1.00  0.00    -0.062 NA
HETATM   13  N5  UNL     1      -3.602  24.526   6.626  1.00  0.00    -0.262 N 
HETATM   14  N6  UNL     1      -2.321  24.894   6.271  1.00  0.00    -0.131 NA
HETATM   15  C10 UNL     1      -1.578  25.541   7.303  1.00  0.00     0.099 C 
HETATM   16  C11 UNL     1      -0.582  26.460   6.580  1.00  0.00     0.030 C 
ENDROOT
BRANCH   1  17
HETATM   17  C3  UNL     1      -1.773  26.027   9.749  1.00  0.00     0.006 C 
BRANCH  17  18
HETATM   18  C2  UNL     1      -1.614  27.308  10.519  1.00  0.00    -0.004 C 
HETATM   19  C1  UNL     1      -0.363  27.987   9.973  1.00  0.00     0.005 C 
ENDBRANCH  17  18
ENDBRANCH   1  17
TORSDOF 2
ENDMDL
MODEL 5
REMARK VINA RESULT: -6.055896542      2.437      4.391
REMARK  2 active torsions:
REMARK  status: ('A' for Active; 'I' for Inactive)
REMARK    1  A    between atoms: C2_2  and  C3_3 
REMARK    2  A    between atoms: C3_3  and  C4_4 
ROOT
HETATM    1  C4  UNL     1       0.899  26.870   6.882  1.00  0.00     0.008 C 
HETATM    2  C5  UNL     1      -0.064  25.954   7.556  1.00  0.00     0.035 C 
HETATM    3  C6  UNL     1      -1.496  26.342   7.452  1.00  0.00     0.125 C 
HETATM    4  C7  UNL     1      -2.410  25.320   8.001  1.00  0.00     0.149 C 
HETATM    5  N1  UNL     1      -2.639  24.151   7.226  1.00  0.00    -0.362 N 
ATOM      6  H1  UNL     1      -2.540  23.282   7.750  1.00  0.00     0.162 HD
HETATM    7  C8  UNL     1      -2.948  23.982   5.989  1.00  0.00     0.190 C 
HETATM    8  N2  UNL     1      -3.109  22.652   5.513  1.00  0.00    -0.063 NA
HETATM    9  N3  UNL     1      -3.141  25.050   5.049  1.00  0.00    -0.304 N 
ATOM     10  H3  UNL     1      -3.753  24.851   4.258  1.00  0.00     0.171 HD
HETATM   11  C9  UNL     1      -2.621  26.246   5.092  1.00  0.00     0.209 C 
HETATM   12  N4  UNL     1      -2.976  27.114   4.031  1.00  0.00    -0.062 NA
HETATM   13  N5  UNL     1      -1.743  26.745   6.095  1.00  0.00    -0.262 N 
HETATM   14  N6  UNL     1      -1.019  27.814   5.613  1.00  0.00    -0.131 NA
HETATM   15  C10 UNL     1       0.394  27.702   5.780  1.00  0.00     0.099 C 
HETATM   16  C11 UNL     1       0.914  29.144   5.882  1.00  0.00     0.030 C 
ENDROOT
BRANCH   1  17
HETATM   17  C3  UNL     1       2.083  25.993   6.477  1.00  0.00     0.006 C 
BRANCH  17  18
HETATM   18  C2  UNL     1       1.779  25.158   5.265  1.00  0.00    -0.004 C 
HETATM   19  C1  UNL     1       2.874  25.458   4.248  1.00  0.00     0.005 C 
ENDBRANCH  17  18
ENDBRANCH   1  17
TORSDOF 2
ENDMDL
