MODEL 1
REMARK VINA RESULT: -5.830548169      0.000      0.000
REMARK  3 active torsions:
REMARK  status: ('A' for Active; 'I' for Inactive)
REMARK    1  A    between atoms: C2_2  and  C5_5 
REMARK    2  A    between atoms: N2_9  and  C7_10 
REMARK    3  A    between atoms: C9_12  and  O1_13 
ROOT
HETATM    1  C5  UNL     1      -3.680  25.929   6.784  1.00  0.00     0.059 A 
HETATM    2  N1  UNL     1      -3.790  27.012   7.547  1.00  0.00    -0.352 N 
ATOM      3  H1  UNL     1      -3.055  27.704   7.695  1.00  0.00     0.166 HD
HETATM    4  C6  UNL     1      -5.017  27.056   8.093  1.00  0.00     0.185 A 
HETATM    5  N2  UNL     1      -5.720  25.974   7.671  1.00  0.00    -0.316 N 
HETATM    6  C11 UNL     1      -4.886  25.277   6.859  1.00  0.00     0.144 A 
HETATM    7  N3  UNL     1      -5.249  24.072   6.214  1.00  0.00    -0.080 NA
ENDROOT
BRANCH   5   8
HETATM    8  C7  UNL     1      -7.068  25.705   8.060  1.00  0.00     0.156 C 
HETATM    9  C8  UNL     1      -7.775  27.006   8.363  1.00  0.00     0.069 C 
HETATM   10  C9  UNL     1      -8.987  26.660   9.196  1.00  0.00     0.130 C 
HETATM   11  C10 UNL     1      -8.485  25.958  10.436  1.00  0.00     0.107 C 
HETATM   12  S1  UNL     1      -7.146  24.923   9.721  1.00  0.00    -0.141 SA
BRANCH  10  13
HETATM   13  O1  UNL     1      -9.888  25.881   8.494  1.00  0.00    -0.395 OA
ATOM     14  H1  UNL     1     -10.406  25.334   9.072  1.00  0.00     0.210 HD
ENDBRANCH  10  13
ENDBRANCH   5   8
BRANCH   1  15
HETATM   15  C2  UNL     1      -2.510  25.507   6.012  1.00  0.00    -0.005 C 
HETATM   16  C1  UNL     1      -2.467  26.185   4.643  1.00  0.00     0.021 C 
HETATM   17  C3  UNL     1      -2.452  24.015   5.796  1.00  0.00     0.021 C 
HETATM   18  C4  UNL     1      -1.228  25.898   6.734  1.00  0.00     0.021 C 
ENDBRANCH   1  15
TORSDOF 3
ENDMDL
MODEL 2
REMARK VINA RESULT: -5.779801462      0.035      1.062
REMARK  3 active torsions:
REMARK  status: ('A' for Active; 'I' for Inactive)
REMARK    1  A    between atoms: C2_2  and  C5_5 
REMARK    2  A    between atoms: N2_9  and  C7_10 
REMARK    3  A    between atoms: C9_12  and  O1_13 
ROOT
HETATM    1  C5  UNL     1      -3.663  25.920   6.804  1.00  0.00     0.059 A 
HETATM    2  N1  UNL     1      -3.780  27.001   7.569  1.00  0.00    -0.352 N 
ATOM      3  H1  UNL     1      -3.047  27.693   7.726  1.00  0.00     0.166 HD
HETATM    4  C6  UNL     1      -5.012  27.042   8.105  1.00  0.00     0.185 A 
HETATM    5  N2  UNL     1      -5.710  25.960   7.674  1.00  0.00    -0.316 N 
HETATM    6  C11 UNL     1      -4.869  25.266   6.867  1.00  0.00     0.144 A 
HETATM    7  N3  UNL     1      -5.225  24.063   6.215  1.00  0.00    -0.080 NA
ENDROOT
BRANCH   5   8
HETATM    8  C7  UNL     1      -7.061  25.688   8.050  1.00  0.00     0.156 C 
HETATM    9  C8  UNL     1      -7.767  26.986   8.371  1.00  0.00     0.069 C 
HETATM   10  C9  UNL     1      -8.984  26.630   9.191  1.00  0.00     0.130 C 
HETATM   11  C10 UNL     1      -8.491  25.906  10.422  1.00  0.00     0.107 C 
HETATM   12  S1  UNL     1      -7.151  24.880   9.698  1.00  0.00    -0.141 SA
BRANCH  10  13
HETATM   13  O1  UNL     1      -9.882  25.865   8.471  1.00  0.00    -0.395 OA
ATOM     14  H1  UNL     1     -10.531  25.460   9.034  1.00  0.00     0.210 HD
ENDBRANCH  10  13
ENDBRANCH   5   8
BRANCH   1  15
HETATM   15  C2  UNL     1      -2.486  25.502   6.041  1.00  0.00    -0.005 C 
HETATM   16  C1  UNL     1      -2.473  23.990   5.814  1.00  0.00     0.021 C 
HETATM   17  C3  UNL     1      -1.185  25.885   6.703  1.00  0.00     0.021 C 
HETATM   18  C4  UNL     1      -2.487  26.150   4.663  1.00  0.00     0.021 C 
ENDBRANCH   1  15
TORSDOF 3
ENDMDL
MODEL 3
REMARK VINA RESULT: -5.742723953      1.571      2.091
REMARK  3 active torsions:
REMARK  status: ('A' for Active; 'I' for Inactive)
REMARK    1  A    between atoms: C2_2  and  C5_5 
REMARK    2  A    between atoms: N2_9  and  C7_10 
REMARK    3  A    between atoms: C9_12  and  O1_13 
ROOT
HETATM    1  C5  UNL     1      -4.800  24.948   7.112  1.00  0.00     0.059 A 
HETATM    2  N1  UNL     1      -5.609  25.844   6.556  1.00  0.00    -0.352 N 
ATOM      3  H1  UNL     1      -5.436  26.326   5.673  1.00  0.00     0.166 HD
HETATM    4  C6  UNL     1      -6.692  26.017   7.334  1.00  0.00     0.185 A 
HETATM    5  N2  UNL     1      -6.580  25.212   8.421  1.00  0.00    -0.316 N 
HETATM    6  C11 UNL     1      -5.404  24.550   8.280  1.00  0.00     0.144 A 
HETATM    7  N3  UNL     1      -4.920  23.607   9.215  1.00  0.00    -0.080 NA
ENDROOT
BRANCH   5   8
HETATM    8  C7  UNL     1      -7.559  25.142   9.458  1.00  0.00     0.156 C 
HETATM    9  C8  UNL     1      -8.735  26.023   9.103  1.00  0.00     0.069 C 
HETATM   10  C9  UNL     1      -9.488  26.285  10.386  1.00  0.00     0.130 C 
HETATM   11  C10 UNL     1      -8.521  26.949  11.337  1.00  0.00     0.107 C 
HETATM   12  S1  UNL     1      -6.989  26.000  10.980  1.00  0.00    -0.141 SA
BRANCH  10  13
HETATM   13  O1  UNL     1     -10.017  25.124  10.918  1.00  0.00    -0.395 OA
ATOM     14  H1  UNL     1     -10.269  25.236  11.827  1.00  0.00     0.210 HD
ENDBRANCH  10  13
ENDBRANCH   5   8
BRANCH   1  15
HETATM   15  C2  UNL     1      -3.517  24.473   6.592  1.00  0.00    -0.005 C 
HETATM   16  C1  UNL     1      -3.588  23.002   6.182  1.00  0.00     0.021 C 
HETATM   17  C3  UNL     1      -2.385  24.629   7.577  1.00  0.00     0.021 C 
HETATM   18  C4  UNL     1      -3.127  25.255   5.345  1.00  0.00     0.021 C 
ENDBRANCH   1  15
TORSDOF 3
ENDMDL
MODEL 4
REMARK VINA RESULT: -5.736271214      3.930      5.479
REMARK  3 active torsions:
REMARK  status: ('A' for Active; 'I' for Inactive)
REMARK    1  A    between atoms: C2_2  and  C5_5 
REMARK    2  A    between atoms: N2_9  and  C7_10 
REMARK    3  A    between atoms: C9_12  and  O1_13 
ROOT
HETATM    1  C5  UNL     1      -3.606  25.238   6.079  1.00  0.00     0.059 A 
HETATM    2  N1  UNL     1      -2.823  25.391   5.016  1.00  0.00    -0.352 N 
ATOM      3  H1  UNL     1      -2.380  24.632   4.497  1.00  0.00     0.166 HD
HETATM    4  C6  UNL     1      -2.703  26.699   4.730  1.00  0.00     0.185 A 
HETATM    5  N2  UNL     1      -3.429  27.410   5.630  1.00  0.00    -0.316 N 
HETATM    6  C11 UNL     1      -3.987  26.499   6.466  1.00  0.00     0.144 A 
HETATM    7  N3  UNL     1      -4.824  26.844   7.552  1.00  0.00    -0.080 NA
ENDROOT
BRANCH   5   8
HETATM    8  C7  UNL     1      -3.525  28.835   5.621  1.00  0.00     0.156 C 
HETATM    9  C8  UNL     1      -3.058  29.364   4.284  1.00  0.00     0.069 C 
HETATM   10  C9  UNL     1      -2.734  30.826   4.481  1.00  0.00     0.130 C 
HETATM   11  C10 UNL     1      -1.669  30.901   5.551  1.00  0.00     0.107 C 
HETATM   12  S1  UNL     1      -2.259  29.602   6.708  1.00  0.00    -0.141 SA
BRANCH  10  13
HETATM   13  O1  UNL     1      -3.855  31.559   4.821  1.00  0.00    -0.395 OA
ATOM     14  H1  UNL     1      -3.747  32.003   5.654  1.00  0.00     0.210 HD
ENDBRANCH  10  13
ENDBRANCH   5   8
BRANCH   1  15
HETATM   15  C2  UNL     1      -3.992  23.979   6.718  1.00  0.00    -0.005 C 
HETATM   16  C1  UNL     1      -5.505  23.765   6.669  1.00  0.00     0.021 C 
HETATM   17  C3  UNL     1      -3.554  23.888   8.159  1.00  0.00     0.021 C 
HETATM   18  C4  UNL     1      -3.362  22.799   5.990  1.00  0.00     0.021 C 
ENDBRANCH   1  15
TORSDOF 3
ENDMDL
MODEL 5
REMARK VINA RESULT: -5.729370356      1.560      1.822
REMARK  3 active torsions:
REMARK  status: ('A' for Active; 'I' for Inactive)
REMARK    1  A    between atoms: C2_2  and  C5_5 
REMARK    2  A    between atoms: N2_9  and  C7_10 
REMARK    3  A    between atoms: C9_12  and  O1_13 
ROOT
HETATM    1  C5  UNL     1      -4.792  24.937   7.063  1.00  0.00     0.059 A 
HETATM    2  N1  UNL     1      -5.588  25.863   6.536  1.00  0.00    -0.352 N 
ATOM      3  H1  UNL     1      -5.410  26.366   5.666  1.00  0.00     0.166 HD
HETATM    4  C6  UNL     1      -6.663  26.034   7.325  1.00  0.00     0.185 A 
HETATM    5  N2  UNL     1      -6.560  25.196   8.389  1.00  0.00    -0.316 N 
HETATM    6  C11 UNL     1      -5.397  24.518   8.222  1.00  0.00     0.144 A 
HETATM    7  N3  UNL     1      -4.925  23.541   9.129  1.00  0.00    -0.080 NA
ENDROOT
BRANCH   5   8
HETATM    8  C7  UNL     1      -7.534  25.116   9.429  1.00  0.00     0.156 C 
HETATM    9  C8  UNL     1      -8.693  26.032   9.108  1.00  0.00     0.069 C 
HETATM   10  C9  UNL     1      -9.433  26.271  10.403  1.00  0.00     0.130 C 
HETATM   11  C10 UNL     1      -8.446  26.884  11.369  1.00  0.00     0.107 C 
HETATM   12  S1  UNL     1      -6.937  25.914  10.973  1.00  0.00    -0.141 SA
BRANCH  10  13
HETATM   13  O1  UNL     1      -9.984  25.106  10.903  1.00  0.00    -0.395 OA
ATOM     14  H1  UNL     1     -10.933  25.122  10.869  1.00  0.00     0.210 HD
ENDBRANCH  10  13
ENDBRANCH   5   8
BRANCH   1  15
HETATM   15  C2  UNL     1      -3.521  24.454   6.522  1.00  0.00    -0.005 C 
HETATM   16  C1  UNL     1      -3.086  25.264   5.301  1.00  0.00     0.021 C 
HETATM   17  C3  UNL     1      -3.562  22.999   6.125  1.00  0.00     0.021 C 
HETATM   18  C4  UNL     1      -2.414  24.598   7.557  1.00  0.00     0.021 C 
ENDBRANCH   1  15
TORSDOF 3
ENDMDL
