MODEL 1
REMARK VINA RESULT: -7.116312748      0.000      0.000
REMARK  6 active torsions:
REMARK  status: ('A' for Active; 'I' for Inactive)
REMARK    1  A    between atoms: N1_1  and  C1_5 
REMARK    2  A    between atoms: C1_5  and  C2_6 
REMARK       I    between atoms: N2_10  and  C6_11 
REMARK    3  A    between atoms: C6_11  and  C7_13 
REMARK    4  A    between atoms: C10_16  and  C11_17 
REMARK    5  A    between atoms: C11_17  and  N3_18 
REMARK    6  A    between atoms: N3_18  and  C12_21 
ROOT
HETATM    1  C7  UNL     1      23.925  49.347  -0.070  1.00  0.00     0.078 C 
HETATM    2  C8  UNL     1      24.832  48.408   0.653  1.00  0.00     0.014 C 
HETATM    3  C9  UNL     1      24.113  47.146   1.151  1.00  0.00     0.007 C 
HETATM    4  C10 UNL     1      22.992  47.602   2.024  1.00  0.00     0.011 C 
HETATM    5  C15 UNL     1      22.000  48.301   1.083  1.00  0.00     0.007 C 
HETATM    6  C16 UNL     1      22.641  49.595   0.705  1.00  0.00     0.014 C 
ENDROOT
BRANCH   1   7
HETATM    7  C6  UNL     1      24.575  50.664  -0.248  1.00  0.00     0.224 C 
HETATM    8  N2  UNL     1      25.000  51.140  -1.502  1.00  0.00    -0.351 N 
HETATM    9  C5  UNL     1      25.652  52.435  -1.586  1.00  0.00     0.126 C 
HETATM   10  C17 UNL     1      24.771  50.353  -2.687  1.00  0.00     0.132 C 
HETATM   11  C4  UNL     1      24.929  53.356  -2.545  1.00  0.00     0.020 C 
HETATM   12  C3  UNL     1      23.966  52.608  -3.433  1.00  0.00     0.009 C 
HETATM   13  C2  UNL     1      24.497  51.266  -3.871  1.00  0.00     0.029 C 
HETATM   14  O1  UNL     1      24.773  51.422   0.777  1.00  0.00    -0.273 OA
BRANCH  13  15
HETATM   15  C1  UNL     1      25.705  51.374  -4.745  1.00  0.00     0.235 C 
BRANCH  15  16
HETATM   16  N1  UNL     1      26.590  50.257  -4.580  1.00  0.00    -0.079 N 
ATOM     17  H13 UNL     1      26.430  49.787  -3.689  1.00  0.00     0.274 HD
ATOM     18  H12 UNL     1      26.344  49.495  -5.212  1.00  0.00     0.274 HD
ATOM     19  H11 UNL     1      27.568  50.526  -4.687  1.00  0.00     0.274 HD
ENDBRANCH  15  16
ENDBRANCH  13  15
ENDBRANCH   1   7
BRANCH   4  20
HETATM   20  C11 UNL     1      22.234  46.471   2.684  1.00  0.00     0.237 C 
BRANCH  20  21
HETATM   21  N3  UNL     1      23.102  45.506   3.288  1.00  0.00    -0.071 N 
ATOM     22  H32 UNL     1      22.635  44.608   3.416  1.00  0.00     0.277 HD
ATOM     23  H31 UNL     1      23.837  45.209   2.647  1.00  0.00     0.277 HD
BRANCH  21  24
HETATM   24  C12 UNL     1      23.637  45.994   4.505  1.00  0.00     0.186 A 
HETATM   25  C13 UNL     1      24.844  46.848   4.588  1.00  0.00     0.035 A 
HETATM   26  C14 UNL     1      24.959  45.413   4.953  1.00  0.00     0.035 A 
ENDBRANCH  21  24
ENDBRANCH  20  21
ENDBRANCH   4  20
TORSDOF 6
ENDMDL
MODEL 2
REMARK VINA RESULT: -6.488311580      2.319      3.201
REMARK  6 active torsions:
REMARK  status: ('A' for Active; 'I' for Inactive)
REMARK    1  A    between atoms: N1_1  and  C1_5 
REMARK    2  A    between atoms: C1_5  and  C2_6 
REMARK       I    between atoms: N2_10  and  C6_11 
REMARK    3  A    between atoms: C6_11  and  C7_13 
REMARK    4  A    between atoms: C10_16  and  C11_17 
REMARK    5  A    between atoms: C11_17  and  N3_18 
REMARK    6  A    between atoms: N3_18  and  C12_21 
ROOT
HETATM    1  C7  UNL     1      24.336  50.673  -0.099  1.00  0.00     0.078 C 
HETATM    2  C8  UNL     1      22.856  50.588  -0.271  1.00  0.00     0.014 C 
HETATM    3  C9  UNL     1      22.186  49.666   0.759  1.00  0.00     0.007 C 
HETATM    4  C10 UNL     1      22.829  48.326   0.624  1.00  0.00     0.011 C 
HETATM    5  C15 UNL     1      24.273  48.515   1.113  1.00  0.00     0.007 C 
HETATM    6  C16 UNL     1      24.964  49.296   0.045  1.00  0.00     0.014 C 
ENDROOT
BRANCH   1   7
HETATM    7  C6  UNL     1      24.962  51.303  -1.283  1.00  0.00     0.224 C 
HETATM    8  N2  UNL     1      26.349  51.506  -1.393  1.00  0.00    -0.351 N 
HETATM    9  C5  UNL     1      26.881  52.155  -2.578  1.00  0.00     0.126 C 
HETATM   10  C17 UNL     1      27.229  51.056  -0.343  1.00  0.00     0.132 C 
HETATM   11  C4  UNL     1      27.913  51.288  -3.266  1.00  0.00     0.020 C 
HETATM   12  C3  UNL     1      28.398  50.169  -2.378  1.00  0.00     0.009 C 
HETATM   13  C2  UNL     1      28.549  50.591  -0.937  1.00  0.00     0.029 C 
HETATM   14  O1  UNL     1      24.222  51.693  -2.265  1.00  0.00    -0.273 OA
BRANCH  13  15
HETATM   15  C1  UNL     1      29.610  51.626  -0.740  1.00  0.00     0.235 C 
BRANCH  15  16
HETATM   16  N1  UNL     1      30.091  51.653   0.610  1.00  0.00    -0.079 N 
ATOM     17  H13 UNL     1      29.607  52.362   1.162  1.00  0.00     0.274 HD
ATOM     18  H12 UNL     1      29.800  50.821   1.124  1.00  0.00     0.274 HD
ATOM     19  H11 UNL     1      31.103  51.779   0.653  1.00  0.00     0.274 HD
ENDBRANCH  15  16
ENDBRANCH  13  15
ENDBRANCH   1   7
BRANCH   4  20
HETATM   20  C11 UNL     1      22.213  47.263   1.506  1.00  0.00     0.237 C 
BRANCH  20  21
HETATM   21  N3  UNL     1      23.160  46.267   1.910  1.00  0.00    -0.071 N 
ATOM     22  H32 UNL     1      23.252  45.531   1.210  1.00  0.00     0.277 HD
ATOM     23  H31 UNL     1      24.114  46.626   1.887  1.00  0.00     0.277 HD
BRANCH  21  24
HETATM   24  C12 UNL     1      22.832  45.739   3.183  1.00  0.00     0.186 A 
HETATM   25  C13 UNL     1      22.645  46.571   4.393  1.00  0.00     0.035 A 
HETATM   26  C14 UNL     1      23.905  45.801   4.246  1.00  0.00     0.035 A 
ENDBRANCH  21  24
ENDBRANCH  20  21
ENDBRANCH   4  20
TORSDOF 6
ENDMDL
MODEL 3
REMARK VINA RESULT: -6.396858583      1.329      1.422
REMARK  6 active torsions:
REMARK  status: ('A' for Active; 'I' for Inactive)
REMARK    1  A    between atoms: N1_1  and  C1_5 
REMARK    2  A    between atoms: C1_5  and  C2_6 
REMARK       I    between atoms: N2_10  and  C6_11 
REMARK    3  A    between atoms: C6_11  and  C7_13 
REMARK    4  A    between atoms: C10_16  and  C11_17 
REMARK    5  A    between atoms: C11_17  and  N3_18 
REMARK    6  A    between atoms: N3_18  and  C12_21 
ROOT
HETATM    1  C7  UNL     1      24.394  49.705  -0.785  1.00  0.00     0.078 C 
HETATM    2  C8  UNL     1      25.257  49.305   0.365  1.00  0.00     0.014 C 
HETATM    3  C9  UNL     1      24.722  48.076   1.114  1.00  0.00     0.007 C 
HETATM    4  C10 UNL     1      23.338  48.408   1.561  1.00  0.00     0.011 C 
HETATM    5  C15 UNL     1      22.506  48.504   0.273  1.00  0.00     0.007 C 
HETATM    6  C16 UNL     1      22.927  49.774  -0.389  1.00  0.00     0.014 C 
ENDROOT
BRANCH   1   7
HETATM    7  C6  UNL     1      24.765  51.053  -1.269  1.00  0.00     0.224 C 
HETATM    8  N2  UNL     1      24.712  51.415  -2.628  1.00  0.00    -0.351 N 
HETATM    9  C5  UNL     1      25.119  52.752  -3.023  1.00  0.00     0.126 C 
HETATM   10  C17 UNL     1      24.243  50.469  -3.608  1.00  0.00     0.132 C 
HETATM   11  C4  UNL     1      24.013  53.466  -3.771  1.00  0.00     0.020 C 
HETATM   12  C3  UNL     1      22.939  52.517  -4.238  1.00  0.00     0.009 C 
HETATM   13  C2  UNL     1      23.492  51.195  -4.712  1.00  0.00     0.029 C 
HETATM   14  O1  UNL     1      25.160  51.948  -0.428  1.00  0.00    -0.273 OA
BRANCH  13  15
HETATM   15  C1  UNL     1      24.345  51.325  -5.933  1.00  0.00     0.235 C 
BRANCH  15  16
HETATM   16  N1  UNL     1      23.604  51.080  -7.136  1.00  0.00    -0.079 N 
ATOM     17  H13 UNL     1      24.130  51.371  -7.961  1.00  0.00     0.274 HD
ATOM     18  H12 UNL     1      23.537  50.081  -7.332  1.00  0.00     0.274 HD
ATOM     19  H11 UNL     1      22.682  51.515  -7.112  1.00  0.00     0.274 HD
ENDBRANCH  15  16
ENDBRANCH  13  15
ENDBRANCH   1   7
BRANCH   4  20
HETATM   20  C11 UNL     1      22.696  47.332   2.408  1.00  0.00     0.237 C 
BRANCH  20  21
HETATM   21  N3  UNL     1      23.636  46.347   2.852  1.00  0.00    -0.071 N 
ATOM     22  H32 UNL     1      23.349  45.406   2.583  1.00  0.00     0.277 HD
ATOM     23  H31 UNL     1      24.509  46.399   2.327  1.00  0.00     0.277 HD
BRANCH  21  24
HETATM   24  C12 UNL     1      23.859  46.447   4.247  1.00  0.00     0.186 A 
HETATM   25  C13 UNL     1      25.086  47.023   4.843  1.00  0.00     0.035 A 
HETATM   26  C14 UNL     1      24.920  45.547   4.837  1.00  0.00     0.035 A 
ENDBRANCH  21  24
ENDBRANCH  20  21
ENDBRANCH   4  20
TORSDOF 6
ENDMDL
MODEL 4
REMARK VINA RESULT: -6.392201930      4.014      6.596
REMARK  6 active torsions:
REMARK  status: ('A' for Active; 'I' for Inactive)
REMARK    1  A    between atoms: N1_1  and  C1_5 
REMARK    2  A    between atoms: C1_5  and  C2_6 
REMARK       I    between atoms: N2_10  and  C6_11 
REMARK    3  A    between atoms: C6_11  and  C7_13 
REMARK    4  A    between atoms: C10_16  and  C11_17 
REMARK    5  A    between atoms: C11_17  and  N3_18 
REMARK    6  A    between atoms: N3_18  and  C12_21 
ROOT
HETATM    1  C7  UNL     1      27.034  50.129  -0.661  1.00  0.00     0.078 C 
HETATM    2  C8  UNL     1      28.100  50.806  -1.456  1.00  0.00     0.014 C 
HETATM    3  C9  UNL     1      29.466  50.797  -0.754  1.00  0.00     0.007 C 
HETATM    4  C10 UNL     1      29.276  51.452   0.573  1.00  0.00     0.011 C 
HETATM    5  C15 UNL     1      28.389  50.492   1.379  1.00  0.00     0.007 C 
HETATM    6  C16 UNL     1      27.024  50.603   0.784  1.00  0.00     0.014 C 
ENDROOT
BRANCH   1   7
HETATM    7  C6  UNL     1      25.697  50.435  -1.217  1.00  0.00     0.224 C 
HETATM    8  N2  UNL     1      24.523  49.804  -0.767  1.00  0.00    -0.351 N 
HETATM    9  C5  UNL     1      23.252  50.144  -1.383  1.00  0.00     0.126 C 
HETATM   10  C17 UNL     1      24.586  48.843   0.306  1.00  0.00     0.132 C 
HETATM   11  C4  UNL     1      22.252  50.626  -0.355  1.00  0.00     0.020 C 
HETATM   12  C3  UNL     1      22.676  50.288   1.052  1.00  0.00     0.009 C 
HETATM   13  C2  UNL     1      23.329  48.931   1.156  1.00  0.00     0.029 C 
HETATM   14  O1  UNL     1      25.581  51.312  -2.155  1.00  0.00    -0.273 OA
BRANCH  13  15
HETATM   15  C1  UNL     1      22.395  47.808   0.835  1.00  0.00     0.235 C 
BRANCH  15  16
HETATM   16  N1  UNL     1      21.632  47.399   1.977  1.00  0.00    -0.079 N 
ATOM     17  H13 UNL     1      22.206  46.871   2.636  1.00  0.00     0.274 HD
ATOM     18  H12 UNL     1      21.398  48.196   2.571  1.00  0.00     0.274 HD
ATOM     19  H11 UNL     1      20.797  46.878   1.712  1.00  0.00     0.274 HD
ENDBRANCH  15  16
ENDBRANCH  13  15
ENDBRANCH   1   7
BRANCH   4  20
HETATM   20  C11 UNL     1      30.557  51.617   1.361  1.00  0.00     0.237 C 
BRANCH  20  21
HETATM   21  N3  UNL     1      30.682  52.921   1.940  1.00  0.00    -0.071 N 
ATOM     22  H32 UNL     1      31.511  53.406   1.597  1.00  0.00     0.277 HD
ATOM     23  H31 UNL     1      29.970  53.559   1.585  1.00  0.00     0.277 HD
BRANCH  21  24
HETATM   24  C12 UNL     1      30.664  52.854   3.355  1.00  0.00     0.186 A 
HETATM   25  C13 UNL     1      29.423  52.783   4.158  1.00  0.00     0.035 A 
HETATM   26  C14 UNL     1      30.157  54.072   4.091  1.00  0.00     0.035 A 
ENDBRANCH  21  24
ENDBRANCH  20  21
ENDBRANCH   4  20
TORSDOF 6
ENDMDL
MODEL 5
REMARK VINA RESULT: -6.348277913      2.194      3.145
REMARK  6 active torsions:
REMARK  status: ('A' for Active; 'I' for Inactive)
REMARK    1  A    between atoms: N1_1  and  C1_5 
REMARK    2  A    between atoms: C1_5  and  C2_6 
REMARK       I    between atoms: N2_10  and  C6_11 
REMARK    3  A    between atoms: C6_11  and  C7_13 
REMARK    4  A    between atoms: C10_16  and  C11_17 
REMARK    5  A    between atoms: C11_17  and  N3_18 
REMARK    6  A    between atoms: N3_18  and  C12_21 
ROOT
HETATM    1  C7  UNL     1      24.706  50.899  -1.198  1.00  0.00     0.078 C 
HETATM    2  C8  UNL     1      23.299  50.565  -1.567  1.00  0.00     0.014 C 
HETATM    3  C9  UNL     1      22.464  50.085  -0.371  1.00  0.00     0.007 C 
HETATM    4  C10 UNL     1      23.172  48.905   0.206  1.00  0.00     0.011 C 
HETATM    5  C15 UNL     1      24.473  49.461   0.804  1.00  0.00     0.007 C 
HETATM    6  C16 UNL     1      25.343  49.800  -0.361  1.00  0.00     0.014 C 
ENDROOT
BRANCH   1   7
HETATM    7  C6  UNL     1      25.541  51.046  -2.410  1.00  0.00     0.224 C 
HETATM    8  N2  UNL     1      25.527  52.204  -3.209  1.00  0.00    -0.351 N 
HETATM    9  C5  UNL     1      26.359  52.258  -4.398  1.00  0.00     0.126 C 
HETATM   10  C17 UNL     1      24.705  53.327  -2.835  1.00  0.00     0.132 C 
HETATM   11  C4  UNL     1      27.297  53.446  -4.361  1.00  0.00     0.020 C 
HETATM   12  C3  UNL     1      26.890  54.458  -3.320  1.00  0.00     0.009 C 
HETATM   13  C2  UNL     1      25.394  54.626  -3.221  1.00  0.00     0.029 C 
HETATM   14  O1  UNL     1      26.320  50.083  -2.770  1.00  0.00    -0.273 OA
BRANCH  13  15
HETATM   15  C1  UNL     1      24.787  55.196  -4.463  1.00  0.00     0.235 C 
BRANCH  15  16
HETATM   16  N1  UNL     1      24.653  56.622  -4.391  1.00  0.00    -0.079 N 
ATOM     17  H13 UNL     1      24.375  56.921  -3.456  1.00  0.00     0.274 HD
ATOM     18  H12 UNL     1      25.562  57.082  -4.443  1.00  0.00     0.274 HD
ATOM     19  H11 UNL     1      24.014  56.982  -5.100  1.00  0.00     0.274 HD
ENDBRANCH  15  16
ENDBRANCH  13  15
ENDBRANCH   1   7
BRANCH   4  20
HETATM   20  C11 UNL     1      22.425  48.242   1.343  1.00  0.00     0.237 C 
BRANCH  20  21
HETATM   21  N3  UNL     1      23.028  47.009   1.752  1.00  0.00    -0.071 N 
ATOM     22  H32 UNL     1      22.619  46.212   1.264  1.00  0.00     0.277 HD
ATOM     23  H31 UNL     1      23.985  46.928   1.409  1.00  0.00     0.277 HD
BRANCH  21  24
HETATM   24  C12 UNL     1      22.962  46.851   3.158  1.00  0.00     0.186 A 
HETATM   25  C13 UNL     1      24.092  46.366   3.983  1.00  0.00     0.035 A 
HETATM   26  C14 UNL     1      22.973  45.436   3.688  1.00  0.00     0.035 A 
ENDBRANCH  21  24
ENDBRANCH  20  21
ENDBRANCH   4  20
TORSDOF 6
ENDMDL
