MODEL 1
REMARK VINA RESULT: -7.355923416      0.000      0.000
REMARK  5 active torsions:
REMARK  status: ('A' for Active; 'I' for Inactive)
REMARK    1  A    between atoms: C1_2  and  C2_3 
REMARK       I    between atoms: C1_2  and  N1_18 
REMARK    2  A    between atoms: C2_3  and  C3_4 
REMARK    3  A    between atoms: C6_7  and  C7_8 
REMARK    4  A    between atoms: C6_7  and  C8_11 
REMARK    5  A    between atoms: C7_8  and  O2_9 
ROOT
HETATM    1  C3  UNL     1      23.089  48.549   0.022  1.00  0.00     0.132 C 
HETATM    2  C4  UNL     1      22.187  49.533   0.693  1.00  0.00     0.036 C 
HETATM    3  C5  UNL     1      23.114  50.633   1.087  1.00  0.00     0.047 C 
HETATM    4  C6  UNL     1      24.368  50.377   0.224  1.00  0.00     0.100 C 
HETATM    5  O3  UNL     1      24.383  48.989   0.236  1.00  0.00    -0.368 OA
ENDROOT
BRANCH   4   6
HETATM    6  C7  UNL     1      25.488  50.847   1.079  1.00  0.00     0.206 C 
BRANCH   6   7
HETATM    7  O2  UNL     1      26.425  49.878   1.418  1.00  0.00    -0.398 OA
ATOM      8  H2  UNL     1      26.719  49.893   2.322  1.00  0.00     0.209 HD
ENDBRANCH   6   7
ENDBRANCH   4   6
BRANCH   4   9
HETATM    9  C8  UNL     1      24.109  51.006  -1.059  1.00  0.00     0.016 C 
HETATM   10  C9  UNL     1      25.082  51.269  -2.098  1.00  0.00    -0.081 C 
HETATM   11  C10 UNL     1      25.843  50.120  -2.691  1.00  0.00     0.034 C 
HETATM   12  C13 UNL     1      26.073  52.383  -1.917  1.00  0.00     0.034 C 
HETATM   13  C11 UNL     1      27.283  50.288  -2.183  1.00  0.00     0.005 C 
HETATM   14  C12 UNL     1      27.423  51.716  -1.731  1.00  0.00     0.005 C 
ENDBRANCH   4   9
BRANCH   1  15
HETATM   15  C2  UNL     1      22.851  47.154   0.482  1.00  0.00     0.135 C 
BRANCH  15  16
HETATM   16  C1  UNL     1      22.308  47.008   1.834  1.00  0.00     0.222 C 
HETATM   17  O1  UNL     1      21.076  47.052   2.069  1.00  0.00    -0.273 OA
HETATM   18  N1  UNL     1      23.184  46.813   2.927  1.00  0.00    -0.352 N 
HETATM   19  C14 UNL     1      24.624  46.740   2.827  1.00  0.00     0.126 C 
HETATM   20  C17 UNL     1      22.822  46.649   4.337  1.00  0.00     0.126 C 
HETATM   21  C15 UNL     1      25.171  46.767   4.214  1.00  0.00     0.021 C 
HETATM   22  C16 UNL     1      24.047  46.092   5.006  1.00  0.00     0.021 C 
ENDBRANCH  15  16
ENDBRANCH   1  15
TORSDOF 5
ENDMDL
MODEL 2
REMARK VINA RESULT: -7.216417476      1.815      3.081
REMARK  5 active torsions:
REMARK  status: ('A' for Active; 'I' for Inactive)
REMARK    1  A    between atoms: C1_2  and  C2_3 
REMARK       I    between atoms: C1_2  and  N1_18 
REMARK    2  A    between atoms: C2_3  and  C3_4 
REMARK    3  A    between atoms: C6_7  and  C7_8 
REMARK    4  A    between atoms: C6_7  and  C8_11 
REMARK    5  A    between atoms: C7_8  and  O2_9 
ROOT
HETATM    1  C3  UNL     1      25.582  49.762   0.144  1.00  0.00     0.132 C 
HETATM    2  C4  UNL     1      26.842  50.317   0.722  1.00  0.00     0.036 C 
HETATM    3  C5  UNL     1      27.585  50.802  -0.477  1.00  0.00     0.047 C 
HETATM    4  C6  UNL     1      26.498  50.876  -1.571  1.00  0.00     0.100 C 
HETATM    5  O3  UNL     1      25.744  49.760  -1.230  1.00  0.00    -0.368 OA
ENDROOT
BRANCH   4   6
HETATM    6  C7  UNL     1      27.232  50.558  -2.821  1.00  0.00     0.206 C 
BRANCH   6   7
HETATM    7  O2  UNL     1      28.334  49.723  -2.671  1.00  0.00    -0.398 OA
ATOM      8  H2  UNL     1      29.162  50.164  -2.524  1.00  0.00     0.209 HD
ENDBRANCH   6   7
ENDBRANCH   4   6
BRANCH   4   9
HETATM    9  C8  UNL     1      25.848  52.164  -1.407  1.00  0.00     0.016 C 
HETATM   10  C9  UNL     1      24.801  52.710  -2.244  1.00  0.00    -0.081 C 
HETATM   11  C10 UNL     1      23.512  51.955  -2.384  1.00  0.00     0.034 C 
HETATM   12  C13 UNL     1      25.142  53.220  -3.615  1.00  0.00     0.034 C 
HETATM   13  C11 UNL     1      23.512  51.424  -3.826  1.00  0.00     0.005 C 
HETATM   14  C12 UNL     1      24.514  52.245  -4.593  1.00  0.00     0.005 C 
ENDBRANCH   4   9
BRANCH   1  15
HETATM   15  C2  UNL     1      25.239  48.427   0.705  1.00  0.00     0.135 C 
BRANCH  15  16
HETATM   16  C1  UNL     1      23.811  48.129   0.823  1.00  0.00     0.222 C 
HETATM   17  O1  UNL     1      22.970  48.542  -0.012  1.00  0.00    -0.273 OA
HETATM   18  N1  UNL     1      23.340  47.351   1.906  1.00  0.00    -0.352 N 
HETATM   19  C14 UNL     1      24.175  46.802   2.950  1.00  0.00     0.126 C 
HETATM   20  C17 UNL     1      21.956  46.957   2.182  1.00  0.00     0.126 C 
HETATM   21  C15 UNL     1      23.272  46.262   4.007  1.00  0.00     0.021 C 
HETATM   22  C16 UNL     1      22.047  45.844   3.189  1.00  0.00     0.021 C 
ENDBRANCH  15  16
ENDBRANCH   1  15
TORSDOF 5
ENDMDL
MODEL 3
REMARK VINA RESULT: -6.885405648      1.292      1.503
REMARK  5 active torsions:
REMARK  status: ('A' for Active; 'I' for Inactive)
REMARK    1  A    between atoms: C1_2  and  C2_3 
REMARK       I    between atoms: C1_2  and  N1_18 
REMARK    2  A    between atoms: C2_3  and  C3_4 
REMARK    3  A    between atoms: C6_7  and  C7_8 
REMARK    4  A    between atoms: C6_7  and  C8_11 
REMARK    5  A    between atoms: C7_8  and  O2_9 
ROOT
HETATM    1  C3  UNL     1      23.135  48.964  -0.098  1.00  0.00     0.132 C 
HETATM    2  C4  UNL     1      22.937  49.933   1.022  1.00  0.00     0.036 C 
HETATM    3  C5  UNL     1      23.988  50.962   0.775  1.00  0.00     0.047 C 
HETATM    4  C6  UNL     1      24.394  50.720  -0.694  1.00  0.00     0.100 C 
HETATM    5  O3  UNL     1      24.305  49.334  -0.738  1.00  0.00    -0.368 OA
ENDROOT
BRANCH   4   6
HETATM    6  C7  UNL     1      25.835  51.078  -0.727  1.00  0.00     0.206 C 
BRANCH   6   7
HETATM    7  O2  UNL     1      26.686  50.086  -1.200  1.00  0.00    -0.398 OA
ATOM      8  H2  UNL     1      27.587  50.147  -0.904  1.00  0.00     0.209 HD
ENDBRANCH   6   7
ENDBRANCH   4   6
BRANCH   4   9
HETATM    9  C8  UNL     1      23.436  51.450  -1.504  1.00  0.00     0.016 C 
HETATM   10  C9  UNL     1      23.593  51.823  -2.894  1.00  0.00    -0.081 C 
HETATM   11  C10 UNL     1      23.801  50.746  -3.917  1.00  0.00     0.034 C 
HETATM   12  C13 UNL     1      24.531  52.938  -3.258  1.00  0.00     0.034 C 
HETATM   13  C11 UNL     1      25.261  50.899  -4.371  1.00  0.00     0.005 C 
HETATM   14  C12 UNL     1      25.696  52.286  -3.980  1.00  0.00     0.005 C 
ENDBRANCH   4   9
BRANCH   1  15
HETATM   15  C2  UNL     1      23.131  47.550   0.365  1.00  0.00     0.135 C 
BRANCH  15  16
HETATM   16  C1  UNL     1      22.443  47.293   1.632  1.00  0.00     0.222 C 
HETATM   17  O1  UNL     1      21.196  47.380   1.745  1.00  0.00    -0.273 OA
HETATM   18  N1  UNL     1      23.189  46.933   2.778  1.00  0.00    -0.352 N 
HETATM   19  C14 UNL     1      24.627  46.790   2.814  1.00  0.00     0.126 C 
HETATM   20  C17 UNL     1      22.673  46.641   4.118  1.00  0.00     0.126 C 
HETATM   21  C15 UNL     1      25.025  46.638   4.243  1.00  0.00     0.021 C 
HETATM   22  C16 UNL     1      23.795  45.947   4.840  1.00  0.00     0.021 C 
ENDBRANCH  15  16
ENDBRANCH   1  15
TORSDOF 5
ENDMDL
MODEL 4
REMARK VINA RESULT: -6.825518802      1.542      2.131
REMARK  5 active torsions:
REMARK  status: ('A' for Active; 'I' for Inactive)
REMARK    1  A    between atoms: C1_2  and  C2_3 
REMARK       I    between atoms: C1_2  and  N1_18 
REMARK    2  A    between atoms: C2_3  and  C3_4 
REMARK    3  A    between atoms: C6_7  and  C7_8 
REMARK    4  A    between atoms: C6_7  and  C8_11 
REMARK    5  A    between atoms: C7_8  and  O2_9 
ROOT
HETATM    1  C3  UNL     1      23.233  49.360  -0.289  1.00  0.00     0.132 C 
HETATM    2  C4  UNL     1      23.091  50.413   0.760  1.00  0.00     0.036 C 
HETATM    3  C5  UNL     1      24.211  51.352   0.459  1.00  0.00     0.047 C 
HETATM    4  C6  UNL     1      24.613  50.983  -0.985  1.00  0.00     0.100 C 
HETATM    5  O3  UNL     1      24.431  49.607  -0.937  1.00  0.00    -0.368 OA
ENDROOT
BRANCH   4   6
HETATM    6  C7  UNL     1      26.074  51.242  -1.023  1.00  0.00     0.206 C 
BRANCH   6   7
HETATM    7  O2  UNL     1      26.855  50.366  -0.277  1.00  0.00    -0.398 OA
ATOM      8  H2  UNL     1      27.733  50.669  -0.080  1.00  0.00     0.209 HD
ENDBRANCH   6   7
ENDBRANCH   4   6
BRANCH   4   9
HETATM    9  C8  UNL     1      23.713  51.719  -1.855  1.00  0.00     0.016 C 
HETATM   10  C9  UNL     1      23.854  51.897  -3.285  1.00  0.00    -0.081 C 
HETATM   11  C10 UNL     1      23.892  50.685  -4.169  1.00  0.00     0.034 C 
HETATM   12  C13 UNL     1      24.900  52.838  -3.812  1.00  0.00     0.034 C 
HETATM   13  C11 UNL     1      25.340  50.605  -4.677  1.00  0.00     0.005 C 
HETATM   14  C12 UNL     1      25.949  51.967  -4.477  1.00  0.00     0.005 C 
ENDBRANCH   4   9
BRANCH   1  15
HETATM   15  C2  UNL     1      23.129  47.984   0.268  1.00  0.00     0.135 C 
BRANCH  15  16
HETATM   16  C1  UNL     1      24.146  47.614   1.254  1.00  0.00     0.222 C 
HETATM   17  O1  UNL     1      25.365  47.860   1.083  1.00  0.00    -0.273 OA
HETATM   18  N1  UNL     1      23.764  46.956   2.446  1.00  0.00    -0.352 N 
HETATM   19  C14 UNL     1      22.407  46.602   2.793  1.00  0.00     0.126 C 
HETATM   20  C17 UNL     1      24.638  46.515   3.536  1.00  0.00     0.126 C 
HETATM   21  C15 UNL     1      22.468  45.725   3.998  1.00  0.00     0.021 C 
HETATM   22  C16 UNL     1      23.726  46.244   4.700  1.00  0.00     0.021 C 
ENDBRANCH  15  16
ENDBRANCH   1  15
TORSDOF 5
ENDMDL
MODEL 5
REMARK VINA RESULT: -6.755268369      2.256      3.622
REMARK  5 active torsions:
REMARK  status: ('A' for Active; 'I' for Inactive)
REMARK    1  A    between atoms: C1_2  and  C2_3 
REMARK       I    between atoms: C1_2  and  N1_18 
REMARK    2  A    between atoms: C2_3  and  C3_4 
REMARK    3  A    between atoms: C6_7  and  C7_8 
REMARK    4  A    between atoms: C6_7  and  C8_11 
REMARK    5  A    between atoms: C7_8  and  O2_9 
ROOT
HETATM    1  C3  UNL     1      24.846  50.547  -1.360  1.00  0.00     0.132 C 
HETATM    2  C4  UNL     1      23.793  50.114  -2.327  1.00  0.00     0.036 C 
HETATM    3  C5  UNL     1      24.093  50.921  -3.545  1.00  0.00     0.047 C 
HETATM    4  C6  UNL     1      25.539  51.408  -3.309  1.00  0.00     0.100 C 
HETATM    5  O3  UNL     1      25.495  51.624  -1.938  1.00  0.00    -0.368 OA
ENDROOT
BRANCH   4   6
HETATM    6  C7  UNL     1      25.578  52.736  -3.972  1.00  0.00     0.206 C 
BRANCH   6   7
HETATM    7  O2  UNL     1      26.176  53.753  -3.236  1.00  0.00    -0.398 OA
ATOM      8  H2  UNL     1      25.599  54.460  -2.974  1.00  0.00     0.209 HD
ENDBRANCH   6   7
ENDBRANCH   4   6
BRANCH   4   9
HETATM    9  C8  UNL     1      26.405  50.335  -3.762  1.00  0.00     0.016 C 
HETATM   10  C9  UNL     1      27.833  50.236  -3.550  1.00  0.00    -0.081 C 
HETATM   11  C10 UNL     1      28.361  50.216  -2.146  1.00  0.00     0.034 C 
HETATM   12  C13 UNL     1      28.760  51.119  -4.337  1.00  0.00     0.034 C 
HETATM   13  C11 UNL     1      29.070  51.567  -1.964  1.00  0.00     0.005 C 
HETATM   14  C12 UNL     1      29.341  52.106  -3.342  1.00  0.00     0.005 C 
ENDBRANCH   4   9
BRANCH   1  15
HETATM   15  C2  UNL     1      24.292  50.839  -0.010  1.00  0.00     0.135 C 
BRANCH  15  16
HETATM   16  C1  UNL     1      23.131  50.044   0.392  1.00  0.00     0.222 C 
HETATM   17  O1  UNL     1      21.954  50.426   0.186  1.00  0.00    -0.273 OA
HETATM   18  N1  UNL     1      23.319  48.799   1.038  1.00  0.00    -0.352 N 
HETATM   19  C14 UNL     1      24.605  48.218   1.348  1.00  0.00     0.126 C 
HETATM   20  C17 UNL     1      22.282  47.876   1.507  1.00  0.00     0.126 C 
HETATM   21  C15 UNL     1      24.361  47.037   2.226  1.00  0.00     0.021 C 
HETATM   22  C16 UNL     1      22.984  46.569   1.747  1.00  0.00     0.021 C 
ENDBRANCH  15  16
ENDBRANCH   1  15
TORSDOF 5
ENDMDL
