MODEL 1
REMARK VINA RESULT: -7.055203160      0.000      0.000
REMARK  9 active torsions:
REMARK  status: ('A' for Active; 'I' for Inactive)
REMARK    1  A    between atoms: C2_2  and  N1_3 
REMARK    2  A    between atoms: N1_3  and  C3_4 
REMARK    3  A    between atoms: N1_3  and  C5_6 
REMARK    4  A    between atoms: C5_6  and  C6_7 
REMARK    5  A    between atoms: C7_8  and  C8_9 
REMARK    6  A    between atoms: C9_10  and  C10_11 
REMARK    7  A    between atoms: C11_12  and  C12_13 
REMARK    8  A    between atoms: C12_13  and  C15_16 
REMARK    9  A    between atoms: C17_20  and  N3_21 
ROOT
HETATM    1  C12 UNL     1      23.634  49.594   0.322  1.00  0.00     0.046 C 
HETATM    2  C13 UNL     1      22.738  50.808   0.646  1.00  0.00     0.034 C 
HETATM    3  C14 UNL     1      23.428  49.367  -1.172  1.00  0.00     0.034 C 
ENDROOT
BRANCH   1   4
HETATM    4  C11 UNL     1      25.025  49.908   0.629  1.00  0.00    -0.087 C 
HETATM    5  C10 UNL     1      26.191  50.169   0.913  1.00  0.00    -0.077 C 
BRANCH   5   6
HETATM    6  C9  UNL     1      27.555  50.470   1.279  1.00  0.00     0.073 C 
HETATM    7  C8  UNL     1      28.464  50.841   0.411  1.00  0.00     0.073 C 
BRANCH   7   8
HETATM    8  C7  UNL     1      29.811  51.147   0.718  1.00  0.00    -0.076 C 
HETATM    9  C6  UNL     1      30.964  51.397   1.026  1.00  0.00    -0.072 C 
BRANCH   9  10
HETATM   10  C5  UNL     1      32.317  51.688   1.451  1.00  0.00     0.366 C 
BRANCH  10  11
HETATM   11  N1  UNL     1      32.475  51.623   2.885  1.00  0.00     0.098 N 
BRANCH  11  12
HETATM   12  C2  UNL     1      33.835  51.137   3.206  1.00  0.00     0.269 C 
HETATM   13  C1  UNL     1      34.091  49.832   2.468  1.00  0.00     0.037 C 
ENDBRANCH  11  12
BRANCH  11  14
HETATM   14  C3  UNL     1      32.369  52.999   3.408  1.00  0.00     0.269 C 
HETATM   15  C4  UNL     1      31.178  53.028   4.345  1.00  0.00     0.037 C 
ENDBRANCH  11  14
ENDBRANCH  10  11
ENDBRANCH   9  10
ENDBRANCH   7   8
ENDBRANCH   5   6
ENDBRANCH   1   4
BRANCH   1  16
HETATM   16  C15 UNL     1      23.228  48.427   1.108  1.00  0.00    -0.006 A 
HETATM   17  C16 UNL     1      24.160  47.592   1.687  1.00  0.00     0.116 A 
HETATM   18  N2  UNL     1      23.768  46.543   2.429  1.00  0.00    -0.202 N 
HETATM   19  C17 UNL     1      22.479  46.247   2.645  1.00  0.00     0.675 A 
ATOM     20  H2  UNL     1      24.482  45.946   2.845  1.00  0.00     0.183 HD
HETATM   21  N4  UNL     1      21.552  47.042   2.092  1.00  0.00    -0.202 N 
HETATM   22  C18 UNL     1      21.913  48.112   1.336  1.00  0.00     0.116 A 
ATOM     23  H4  UNL     1      20.562  46.841   2.240  1.00  0.00     0.183 HD
BRANCH  19  24
HETATM   24  N3  UNL     1      22.199  45.222   3.382  1.00  0.00    -0.234 N 
ATOM     25  H32 UNL     1      21.570  44.473   3.092  1.00  0.00     0.174 HD
ATOM     26  H31 UNL     1      22.621  45.159   4.309  1.00  0.00     0.174 HD
ENDBRANCH  19  24
ENDBRANCH   1  16
TORSDOF 9
ENDMDL
MODEL 2
REMARK VINA RESULT: -6.927728881      0.873      1.663
REMARK  9 active torsions:
REMARK  status: ('A' for Active; 'I' for Inactive)
REMARK    1  A    between atoms: C2_2  and  N1_3 
REMARK    2  A    between atoms: N1_3  and  C3_4 
REMARK    3  A    between atoms: N1_3  and  C5_6 
REMARK    4  A    between atoms: C5_6  and  C6_7 
REMARK    5  A    between atoms: C7_8  and  C8_9 
REMARK    6  A    between atoms: C9_10  and  C10_11 
REMARK    7  A    between atoms: C11_12  and  C12_13 
REMARK    8  A    between atoms: C12_13  and  C15_16 
REMARK    9  A    between atoms: C17_20  and  N3_21 
ROOT
HETATM    1  C12 UNL     1      23.669  49.581   0.331  1.00  0.00     0.046 C 
HETATM    2  C13 UNL     1      22.780  50.791   0.686  1.00  0.00     0.034 C 
HETATM    3  C14 UNL     1      23.429  49.367  -1.160  1.00  0.00     0.034 C 
ENDROOT
BRANCH   1   4
HETATM    4  C11 UNL     1      25.066  49.893   0.609  1.00  0.00    -0.087 C 
HETATM    5  C10 UNL     1      26.235  50.169   0.864  1.00  0.00    -0.077 C 
BRANCH   5   6
HETATM    6  C9  UNL     1      27.600  50.509   1.193  1.00  0.00     0.073 C 
HETATM    7  C8  UNL     1      28.478  50.893   0.299  1.00  0.00     0.073 C 
BRANCH   7   8
HETATM    8  C7  UNL     1      29.824  51.236   0.569  1.00  0.00    -0.076 C 
HETATM    9  C6  UNL     1      30.970  51.575   0.811  1.00  0.00    -0.072 C 
BRANCH   9  10
HETATM   10  C5  UNL     1      32.311  52.038   1.097  1.00  0.00     0.366 C 
BRANCH  10  11
HETATM   11  N1  UNL     1      32.338  53.094   2.081  1.00  0.00     0.098 N 
BRANCH  11  12
HETATM   12  C2  UNL     1      31.346  54.129   1.716  1.00  0.00     0.269 C 
HETATM   13  C1  UNL     1      30.615  54.590   2.969  1.00  0.00     0.037 C 
ENDBRANCH  11  12
BRANCH  11  14
HETATM   14  C3  UNL     1      31.909  52.514   3.369  1.00  0.00     0.269 C 
HETATM   15  C4  UNL     1      33.167  52.145   4.130  1.00  0.00     0.037 C 
ENDBRANCH  11  14
ENDBRANCH  10  11
ENDBRANCH   9  10
ENDBRANCH   7   8
ENDBRANCH   5   6
ENDBRANCH   1   4
BRANCH   1  16
HETATM   16  C15 UNL     1      23.282  48.407   1.115  1.00  0.00    -0.006 A 
HETATM   17  C16 UNL     1      24.227  47.572   1.673  1.00  0.00     0.116 A 
HETATM   18  N2  UNL     1      23.852  46.516   2.414  1.00  0.00    -0.202 N 
HETATM   19  C17 UNL     1      22.569  46.212   2.649  1.00  0.00     0.675 A 
ATOM     20  H2  UNL     1      24.576  45.920   2.814  1.00  0.00     0.183 HD
HETATM   21  N4  UNL     1      21.628  47.006   2.117  1.00  0.00    -0.202 N 
HETATM   22  C18 UNL     1      21.972  48.084   1.363  1.00  0.00     0.116 A 
ATOM     23  H4  UNL     1      20.643  46.799   2.280  1.00  0.00     0.183 HD
BRANCH  19  24
HETATM   24  N3  UNL     1      22.305  45.180   3.383  1.00  0.00    -0.234 N 
ATOM     25  H32 UNL     1      22.760  44.275   3.270  1.00  0.00     0.174 HD
ATOM     26  H31 UNL     1      21.597  45.271   4.112  1.00  0.00     0.174 HD
ENDBRANCH  19  24
ENDBRANCH   1  16
TORSDOF 9
ENDMDL
MODEL 3
REMARK VINA RESULT: -6.896074578      0.578      1.579
REMARK  9 active torsions:
REMARK  status: ('A' for Active; 'I' for Inactive)
REMARK    1  A    between atoms: C2_2  and  N1_3 
REMARK    2  A    between atoms: N1_3  and  C3_4 
REMARK    3  A    between atoms: N1_3  and  C5_6 
REMARK    4  A    between atoms: C5_6  and  C6_7 
REMARK    5  A    between atoms: C7_8  and  C8_9 
REMARK    6  A    between atoms: C9_10  and  C10_11 
REMARK    7  A    between atoms: C11_12  and  C12_13 
REMARK    8  A    between atoms: C12_13  and  C15_16 
REMARK    9  A    between atoms: C17_20  and  N3_21 
ROOT
HETATM    1  C12 UNL     1      23.696  49.571   0.343  1.00  0.00     0.046 C 
HETATM    2  C13 UNL     1      22.819  50.795   0.681  1.00  0.00     0.034 C 
HETATM    3  C14 UNL     1      23.473  49.353  -1.150  1.00  0.00     0.034 C 
ENDROOT
BRANCH   1   4
HETATM    4  C11 UNL     1      25.094  49.866   0.638  1.00  0.00    -0.087 C 
HETATM    5  C10 UNL     1      26.268  50.138   0.878  1.00  0.00    -0.077 C 
BRANCH   5   6
HETATM    6  C9  UNL     1      27.641  50.490   1.149  1.00  0.00     0.073 C 
HETATM    7  C8  UNL     1      28.444  50.993   0.243  1.00  0.00     0.073 C 
BRANCH   7   8
HETATM    8  C7  UNL     1      29.796  51.355   0.458  1.00  0.00    -0.076 C 
HETATM    9  C6  UNL     1      30.950  51.709   0.629  1.00  0.00    -0.072 C 
BRANCH   9  10
HETATM   10  C5  UNL     1      32.306  52.182   0.802  1.00  0.00     0.366 C 
BRANCH  10  11
HETATM   11  N1  UNL     1      32.825  51.918   2.124  1.00  0.00     0.098 N 
BRANCH  11  12
HETATM   12  C2  UNL     1      31.835  52.352   3.134  1.00  0.00     0.269 C 
HETATM   13  C1  UNL     1      32.556  52.701   4.428  1.00  0.00     0.037 C 
ENDBRANCH  11  12
BRANCH  11  14
HETATM   14  C3  UNL     1      32.974  50.456   2.260  1.00  0.00     0.269 C 
HETATM   15  C4  UNL     1      34.409  50.121   1.905  1.00  0.00     0.037 C 
ENDBRANCH  11  14
ENDBRANCH  10  11
ENDBRANCH   9  10
ENDBRANCH   7   8
ENDBRANCH   5   6
ENDBRANCH   1   4
BRANCH   1  16
HETATM   16  C15 UNL     1      23.283  48.407   1.129  1.00  0.00    -0.006 A 
HETATM   17  C16 UNL     1      24.209  47.577   1.725  1.00  0.00     0.116 A 
HETATM   18  N2  UNL     1      23.810  46.531   2.466  1.00  0.00    -0.202 N 
HETATM   19  C17 UNL     1      22.519  46.231   2.665  1.00  0.00     0.675 A 
ATOM     20  H2  UNL     1      24.520  45.938   2.895  1.00  0.00     0.183 HD
HETATM   21  N4  UNL     1      21.597  47.021   2.094  1.00  0.00    -0.202 N 
HETATM   22  C18 UNL     1      21.966  48.089   1.339  1.00  0.00     0.116 A 
ATOM     23  H4  UNL     1      20.606  46.817   2.229  1.00  0.00     0.183 HD
BRANCH  19  24
HETATM   24  N3  UNL     1      22.231  45.208   3.402  1.00  0.00    -0.234 N 
ATOM     25  H32 UNL     1      22.835  44.859   4.146  1.00  0.00     0.174 HD
ATOM     26  H31 UNL     1      21.355  44.715   3.227  1.00  0.00     0.174 HD
ENDBRANCH  19  24
ENDBRANCH   1  16
TORSDOF 9
ENDMDL
MODEL 4
REMARK VINA RESULT: -6.356136681      6.322      7.586
REMARK  9 active torsions:
REMARK  status: ('A' for Active; 'I' for Inactive)
REMARK    1  A    between atoms: C2_2  and  N1_3 
REMARK    2  A    between atoms: N1_3  and  C3_4 
REMARK    3  A    between atoms: N1_3  and  C5_6 
REMARK    4  A    between atoms: C5_6  and  C6_7 
REMARK    5  A    between atoms: C7_8  and  C8_9 
REMARK    6  A    between atoms: C9_10  and  C10_11 
REMARK    7  A    between atoms: C11_12  and  C12_13 
REMARK    8  A    between atoms: C12_13  and  C15_16 
REMARK    9  A    between atoms: C17_20  and  N3_21 
ROOT
HETATM    1  C12 UNL     1      24.728  51.074  -1.866  1.00  0.00     0.046 C 
HETATM    2  C13 UNL     1      25.311  52.429  -1.412  1.00  0.00     0.034 C 
HETATM    3  C14 UNL     1      23.306  51.408  -2.306  1.00  0.00     0.034 C 
ENDROOT
BRANCH   1   4
HETATM    4  C11 UNL     1      25.518  50.540  -2.970  1.00  0.00    -0.087 C 
HETATM    5  C10 UNL     1      26.204  50.101  -3.889  1.00  0.00    -0.077 C 
BRANCH   5   6
HETATM    6  C9  UNL     1      27.039  49.600  -4.956  1.00  0.00     0.073 C 
HETATM    7  C8  UNL     1      28.261  49.167  -4.765  1.00  0.00     0.073 C 
BRANCH   7   8
HETATM    8  C7  UNL     1      29.118  48.667  -5.774  1.00  0.00    -0.076 C 
HETATM    9  C6  UNL     1      29.837  48.263  -6.673  1.00  0.00    -0.072 C 
BRANCH   9  10
HETATM   10  C5  UNL     1      30.652  47.814  -7.781  1.00  0.00     0.366 C 
BRANCH  10  11
HETATM   11  N1  UNL     1      31.249  46.520  -7.546  1.00  0.00     0.098 N 
BRANCH  11  12
HETATM   12  C2  UNL     1      31.117  45.691  -8.764  1.00  0.00     0.269 C 
HETATM   13  C1  UNL     1      30.111  44.578  -8.509  1.00  0.00     0.037 C 
ENDBRANCH  11  12
BRANCH  11  14
HETATM   14  C3  UNL     1      32.691  46.730  -7.315  1.00  0.00     0.269 C 
HETATM   15  C4  UNL     1      33.240  45.440  -6.739  1.00  0.00     0.037 C 
ENDBRANCH  11  14
ENDBRANCH  10  11
ENDBRANCH   9  10
ENDBRANCH   7   8
ENDBRANCH   5   6
ENDBRANCH   1   4
BRANCH   1  16
HETATM   16  C15 UNL     1      24.743  50.110  -0.764  1.00  0.00    -0.006 A 
HETATM   17  C16 UNL     1      23.631  49.355  -0.456  1.00  0.00     0.116 A 
HETATM   18  N2  UNL     1      23.672  48.456   0.540  1.00  0.00    -0.202 N 
HETATM   19  C17 UNL     1      24.767  48.241   1.281  1.00  0.00     0.675 A 
ATOM     20  H2  UNL     1      22.833  47.913   0.742  1.00  0.00     0.183 HD
HETATM   21  N4  UNL     1      25.863  48.963   1.004  1.00  0.00    -0.202 N 
HETATM   22  C18 UNL     1      25.857  49.882   0.002  1.00  0.00     0.116 A 
ATOM     23  H4  UNL     1      26.712  48.821   1.552  1.00  0.00     0.183 HD
BRANCH  19  24
HETATM   24  N3  UNL     1      24.714  47.346   2.213  1.00  0.00    -0.234 N 
ATOM     25  H32 UNL     1      25.263  47.391   3.072  1.00  0.00     0.174 HD
ATOM     26  H31 UNL     1      24.097  46.545   2.082  1.00  0.00     0.174 HD
ENDBRANCH  19  24
ENDBRANCH   1  16
TORSDOF 9
ENDMDL
MODEL 5
REMARK VINA RESULT: -6.090416581      6.058      7.092
REMARK  9 active torsions:
REMARK  status: ('A' for Active; 'I' for Inactive)
REMARK    1  A    between atoms: C2_2  and  N1_3 
REMARK    2  A    between atoms: N1_3  and  C3_4 
REMARK    3  A    between atoms: N1_3  and  C5_6 
REMARK    4  A    between atoms: C5_6  and  C6_7 
REMARK    5  A    between atoms: C7_8  and  C8_9 
REMARK    6  A    between atoms: C9_10  and  C10_11 
REMARK    7  A    between atoms: C11_12  and  C12_13 
REMARK    8  A    between atoms: C12_13  and  C15_16 
REMARK    9  A    between atoms: C17_20  and  N3_21 
ROOT
HETATM    1  C12 UNL     1      24.708  50.949  -1.714  1.00  0.00     0.046 C 
HETATM    2  C13 UNL     1      25.279  52.287  -1.199  1.00  0.00     0.034 C 
HETATM    3  C14 UNL     1      23.295  51.297  -2.169  1.00  0.00     0.034 C 
ENDROOT
BRANCH   1   4
HETATM    4  C11 UNL     1      25.521  50.456  -2.820  1.00  0.00    -0.087 C 
HETATM    5  C10 UNL     1      26.212  50.065  -3.757  1.00  0.00    -0.077 C 
BRANCH   5   6
HETATM    6  C9  UNL     1      27.035  49.638  -4.864  1.00  0.00     0.073 C 
HETATM    7  C8  UNL     1      28.249  49.166  -4.714  1.00  0.00     0.073 C 
BRANCH   7   8
HETATM    8  C7  UNL     1      29.094  48.734  -5.763  1.00  0.00    -0.076 C 
HETATM    9  C6  UNL     1      29.797  48.325  -6.671  1.00  0.00    -0.072 C 
BRANCH   9  10
HETATM   10  C5  UNL     1      30.603  47.783  -7.745  1.00  0.00     0.366 C 
BRANCH  10  11
HETATM   11  N1  UNL     1      31.864  47.253  -7.281  1.00  0.00     0.098 N 
BRANCH  11  12
HETATM   12  C2  UNL     1      31.924  45.804  -7.573  1.00  0.00     0.269 C 
HETATM   13  C1  UNL     1      33.103  45.190  -6.834  1.00  0.00     0.037 C 
ENDBRANCH  11  12
BRANCH  11  14
HETATM   14  C3  UNL     1      32.934  47.900  -8.065  1.00  0.00     0.269 C 
HETATM   15  C4  UNL     1      33.180  49.260  -7.442  1.00  0.00     0.037 C 
ENDBRANCH  11  14
ENDBRANCH  10  11
ENDBRANCH   9  10
ENDBRANCH   7   8
ENDBRANCH   5   6
ENDBRANCH   1   4
BRANCH   1  16
HETATM   16  C15 UNL     1      24.702  49.946  -0.648  1.00  0.00    -0.006 A 
HETATM   17  C16 UNL     1      25.821  49.712   0.124  1.00  0.00     0.116 A 
HETATM   18  N2  UNL     1      25.787  48.807   1.116  1.00  0.00    -0.202 N 
HETATM   19  C17 UNL     1      24.694  48.090   1.410  1.00  0.00     0.675 A 
ATOM     20  H2  UNL     1      26.630  48.659   1.670  1.00  0.00     0.183 HD
HETATM   21  N4  UNL     1      23.592  48.296   0.673  1.00  0.00    -0.202 N 
HETATM   22  C18 UNL     1      23.591  49.204  -0.338  1.00  0.00     0.116 A 
ATOM     23  H4  UNL     1      22.745  47.765   0.874  1.00  0.00     0.183 HD
BRANCH  19  24
HETATM   24  N3  UNL     1      24.754  47.249   2.390  1.00  0.00    -0.234 N 
ATOM     25  H32 UNL     1      25.233  47.440   3.270  1.00  0.00     0.174 HD
ATOM     26  H31 UNL     1      24.306  46.339   2.278  1.00  0.00     0.174 HD
ENDBRANCH  19  24
ENDBRANCH   1  16
TORSDOF 9
ENDMDL
