MODEL 1
REMARK VINA RESULT: -7.334560676      0.000      0.000
REMARK  5 active torsions:
REMARK  status: ('A' for Active; 'I' for Inactive)
REMARK    1  A    between atoms: C2_2  and  N1_4 
REMARK    2  A    between atoms: C2_2  and  C12_15 
REMARK       I    between atoms: N1_4  and  C4_6 
REMARK    3  A    between atoms: C4_6  and  C5_8 
REMARK    4  A    between atoms: C5_8  and  C6_9 
REMARK       I    between atoms: C12_15  and  N2_17 
REMARK    5  A    between atoms: N2_17  and  C13_19 
ROOT
HETATM    1  C1  UNL     1      22.352  50.735  -0.041  1.00  0.00     0.048 C 
HETATM    2  C2  UNL     1      23.710  50.025  -0.128  1.00  0.00     0.106 C 
HETATM    3  C3  UNL     1      24.731  50.656   0.772  1.00  0.00     0.048 C 
ENDROOT
BRANCH   2   4
HETATM    4  N1  UNL     1      24.163  50.004  -1.500  1.00  0.00    -0.344 N 
HETATM    5  C4  UNL     1      24.672  51.162  -2.151  1.00  0.00     0.218 C 
HETATM    6  O1  UNL     1      24.711  52.214  -1.483  1.00  0.00    -0.274 OA
ATOM      7  H1  UNL     1      24.116  49.127  -2.019  1.00  0.00     0.163 HD
BRANCH   5   8
HETATM    8  C5  UNL     1      25.124  51.107  -3.539  1.00  0.00     0.107 C 
BRANCH   8   9
HETATM    9  C6  UNL     1      26.020  49.970  -3.889  1.00  0.00    -0.006 C 
HETATM   10  C7  UNL     1      26.234  49.820  -5.366  1.00  0.00     0.005 C 
HETATM   11  C8  UNL     1      27.336  48.826  -5.674  1.00  0.00     0.000 C 
HETATM   12  C9  UNL     1      28.618  49.312  -5.050  1.00  0.00     0.000 C 
HETATM   13  C10 UNL     1      28.404  49.228  -3.535  1.00  0.00     0.000 C 
HETATM   14  C11 UNL     1      27.355  50.240  -3.203  1.00  0.00     0.005 C 
ENDBRANCH   8   9
ENDBRANCH   5   8
ENDBRANCH   2   4
BRANCH   2  15
HETATM   15  C12 UNL     1      23.453  48.627   0.376  1.00  0.00     0.245 C 
HETATM   16  O2  UNL     1      22.726  47.818  -0.276  1.00  0.00    -0.271 OA
HETATM   17  N2  UNL     1      24.037  48.213   1.603  1.00  0.00    -0.352 N 
ATOM     18  H2  UNL     1      24.621  48.866   2.125  1.00  0.00     0.163 HD
BRANCH  17  19
HETATM   19  C13 UNL     1      23.820  46.896   2.120  1.00  0.00     0.110 C 
HETATM   20  C14 UNL     1      22.393  46.769   2.650  1.00  0.00     0.053 C 
HETATM   21  C15 UNL     1      22.613  45.636   3.651  1.00  0.00     0.169 C 
HETATM   22  O3  UNL     1      23.839  45.857   4.213  1.00  0.00    -0.389 OA
HETATM   23  C16 UNL     1      24.603  46.629   3.384  1.00  0.00     0.192 C 
ENDBRANCH  17  19
ENDBRANCH   2  15
TORSDOF 5
ENDMDL
MODEL 2
REMARK VINA RESULT: -7.274617576      1.853      7.513
REMARK  5 active torsions:
REMARK  status: ('A' for Active; 'I' for Inactive)
REMARK    1  A    between atoms: C2_2  and  N1_4 
REMARK    2  A    between atoms: C2_2  and  C12_15 
REMARK       I    between atoms: N1_4  and  C4_6 
REMARK    3  A    between atoms: C4_6  and  C5_8 
REMARK    4  A    between atoms: C5_8  and  C6_9 
REMARK       I    between atoms: C12_15  and  N2_17 
REMARK    5  A    between atoms: N2_17  and  C13_19 
ROOT
HETATM    1  C1  UNL     1      24.951  51.179  -0.533  1.00  0.00     0.048 C 
HETATM    2  C2  UNL     1      23.898  50.547  -1.453  1.00  0.00     0.106 C 
HETATM    3  C3  UNL     1      22.680  51.413  -1.589  1.00  0.00     0.048 C 
ENDROOT
BRANCH   2   4
HETATM    4  N1  UNL     1      23.553  49.231  -0.968  1.00  0.00    -0.344 N 
HETATM    5  C4  UNL     1      22.960  49.021   0.308  1.00  0.00     0.218 C 
HETATM    6  O1  UNL     1      22.748  50.033   1.005  1.00  0.00    -0.274 OA
ATOM      7  H1  UNL     1      23.741  48.423  -1.563  1.00  0.00     0.163 HD
BRANCH   5   8
HETATM    8  C5  UNL     1      22.621  47.677   0.768  1.00  0.00     0.107 C 
BRANCH   8   9
HETATM    9  C6  UNL     1      22.804  47.421   2.224  1.00  0.00    -0.006 C 
HETATM   10  C7  UNL     1      21.930  46.317   2.743  1.00  0.00     0.005 C 
HETATM   11  C8  UNL     1      22.315  45.915   4.153  1.00  0.00     0.000 C 
HETATM   12  C9  UNL     1      23.743  45.434   4.149  1.00  0.00     0.000 C 
HETATM   13  C10 UNL     1      24.597  46.666   3.829  1.00  0.00     0.000 C 
HETATM   14  C11 UNL     1      24.269  47.049   2.421  1.00  0.00     0.005 C 
ENDBRANCH   8   9
ENDBRANCH   5   8
ENDBRANCH   2   4
BRANCH   2  15
HETATM   15  C12 UNL     1      24.559  50.467  -2.806  1.00  0.00     0.245 C 
HETATM   16  O2  UNL     1      23.881  50.570  -3.874  1.00  0.00    -0.271 OA
HETATM   17  N2  UNL     1      25.963  50.274  -2.883  1.00  0.00    -0.352 N 
ATOM     18  H2  UNL     1      26.505  50.191  -2.023  1.00  0.00     0.163 HD
BRANCH  17  19
HETATM   19  C13 UNL     1      26.633  50.192  -4.146  1.00  0.00     0.110 C 
HETATM   20  C14 UNL     1      27.860  49.291  -4.032  1.00  0.00     0.053 C 
HETATM   21  C15 UNL     1      28.680  49.861  -5.189  1.00  0.00     0.169 C 
HETATM   22  O3  UNL     1      28.464  51.211  -5.179  1.00  0.00    -0.389 OA
HETATM   23  C16 UNL     1      27.287  51.494  -4.545  1.00  0.00     0.192 C 
ENDBRANCH  17  19
ENDBRANCH   2  15
TORSDOF 5
ENDMDL
MODEL 3
REMARK VINA RESULT: -7.165704970      1.969      7.372
REMARK  5 active torsions:
REMARK  status: ('A' for Active; 'I' for Inactive)
REMARK    1  A    between atoms: C2_2  and  N1_4 
REMARK    2  A    between atoms: C2_2  and  C12_15 
REMARK       I    between atoms: N1_4  and  C4_6 
REMARK    3  A    between atoms: C4_6  and  C5_8 
REMARK    4  A    between atoms: C5_8  and  C6_9 
REMARK       I    between atoms: C12_15  and  N2_17 
REMARK    5  A    between atoms: N2_17  and  C13_19 
ROOT
HETATM    1  C1  UNL     1      24.897  51.490  -0.174  1.00  0.00     0.048 C 
HETATM    2  C2  UNL     1      23.995  50.511  -0.937  1.00  0.00     0.106 C 
HETATM    3  C3  UNL     1      22.607  51.053  -1.117  1.00  0.00     0.048 C 
ENDROOT
BRANCH   2   4
HETATM    4  N1  UNL     1      23.975  49.236  -0.258  1.00  0.00    -0.344 N 
HETATM    5  C4  UNL     1      25.088  48.752   0.484  1.00  0.00     0.218 C 
HETATM    6  O1  UNL     1      26.099  49.481   0.526  1.00  0.00    -0.274 OA
ATOM      7  H1  UNL     1      23.133  48.663  -0.313  1.00  0.00     0.163 HD
BRANCH   5   8
HETATM    8  C5  UNL     1      25.036  47.458   1.161  1.00  0.00     0.107 C 
BRANCH   8   9
HETATM    9  C6  UNL     1      24.017  47.328   2.240  1.00  0.00    -0.006 C 
HETATM   10  C7  UNL     1      22.838  46.490   1.839  1.00  0.00     0.005 C 
HETATM   11  C8  UNL     1      21.951  46.171   3.025  1.00  0.00     0.000 C 
HETATM   12  C9  UNL     1      22.756  45.408   4.045  1.00  0.00     0.000 C 
HETATM   13  C10 UNL     1      23.803  46.396   4.574  1.00  0.00     0.000 C 
HETATM   14  C11 UNL     1      24.722  46.685   3.429  1.00  0.00     0.005 C 
ENDBRANCH   8   9
ENDBRANCH   5   8
ENDBRANCH   2   4
BRANCH   2  15
HETATM   15  C12 UNL     1      24.620  50.386  -2.303  1.00  0.00     0.245 C 
HETATM   16  O2  UNL     1      23.904  50.311  -3.347  1.00  0.00    -0.271 OA
HETATM   17  N2  UNL     1      26.035  50.351  -2.419  1.00  0.00    -0.352 N 
ATOM     18  H2  UNL     1      26.608  50.411  -1.577  1.00  0.00     0.163 HD
BRANCH  17  19
HETATM   19  C13 UNL     1      26.672  50.233  -3.695  1.00  0.00     0.110 C 
HETATM   20  C14 UNL     1      28.025  49.542  -3.545  1.00  0.00     0.053 C 
HETATM   21  C15 UNL     1      28.714  50.098  -4.790  1.00  0.00     0.169 C 
HETATM   22  O3  UNL     1      28.295  51.393  -4.910  1.00  0.00    -0.389 OA
HETATM   23  C16 UNL     1      27.108  51.566  -4.256  1.00  0.00     0.192 C 
ENDBRANCH  17  19
ENDBRANCH   2  15
TORSDOF 5
ENDMDL
MODEL 4
REMARK VINA RESULT: -7.075913859      2.012      7.529
REMARK  5 active torsions:
REMARK  status: ('A' for Active; 'I' for Inactive)
REMARK    1  A    between atoms: C2_2  and  N1_4 
REMARK    2  A    between atoms: C2_2  and  C12_15 
REMARK       I    between atoms: N1_4  and  C4_6 
REMARK    3  A    between atoms: C4_6  and  C5_8 
REMARK    4  A    between atoms: C5_8  and  C6_9 
REMARK       I    between atoms: C12_15  and  N2_17 
REMARK    5  A    between atoms: N2_17  and  C13_19 
ROOT
HETATM    1  C1  UNL     1      24.557  51.380   0.459  1.00  0.00     0.048 C 
HETATM    2  C2  UNL     1      24.675  50.291  -0.615  1.00  0.00     0.106 C 
HETATM    3  C3  UNL     1      23.800  50.575  -1.801  1.00  0.00     0.048 C 
ENDROOT
BRANCH   2   4
HETATM    4  N1  UNL     1      24.374  49.001  -0.039  1.00  0.00    -0.344 N 
HETATM    5  C4  UNL     1      23.045  48.598   0.272  1.00  0.00     0.218 C 
HETATM    6  O1  UNL     1      22.135  49.415   0.026  1.00  0.00    -0.274 OA
ATOM      7  H1  UNL     1      25.141  48.357   0.152  1.00  0.00     0.163 HD
BRANCH   5   8
HETATM    8  C5  UNL     1      22.773  47.286   0.853  1.00  0.00     0.107 C 
BRANCH   8   9
HETATM    9  C6  UNL     1      22.923  47.183   2.331  1.00  0.00    -0.006 C 
HETATM   10  C7  UNL     1      22.088  46.092   2.935  1.00  0.00     0.005 C 
HETATM   11  C8  UNL     1      22.449  45.850   4.386  1.00  0.00     0.000 C 
HETATM   12  C9  UNL     1      23.898  45.445   4.467  1.00  0.00     0.000 C 
HETATM   13  C10 UNL     1      24.701  46.683   4.048  1.00  0.00     0.000 C 
HETATM   14  C11 UNL     1      24.398  46.908   2.601  1.00  0.00     0.005 C 
ENDBRANCH   8   9
ENDBRANCH   5   8
ENDBRANCH   2   4
BRANCH   2  15
HETATM   15  C12 UNL     1      26.109  50.353  -1.077  1.00  0.00     0.245 C 
HETATM   16  O2  UNL     1      27.066  50.360  -0.245  1.00  0.00    -0.271 OA
HETATM   17  N2  UNL     1      26.389  50.403  -2.469  1.00  0.00    -0.352 N 
ATOM     18  H2  UNL     1      25.618  50.397  -3.135  1.00  0.00     0.163 HD
BRANCH  17  19
HETATM   19  C13 UNL     1      27.735  50.463  -2.952  1.00  0.00     0.110 C 
HETATM   20  C14 UNL     1      27.897  51.641  -3.911  1.00  0.00     0.053 C 
HETATM   21  C15 UNL     1      29.087  51.127  -4.719  1.00  0.00     0.169 C 
HETATM   22  O3  UNL     1      28.898  49.781  -4.861  1.00  0.00    -0.389 OA
HETATM   23  C16 UNL     1      28.077  49.315  -3.874  1.00  0.00     0.192 C 
ENDBRANCH  17  19
ENDBRANCH   2  15
TORSDOF 5
ENDMDL
MODEL 5
REMARK VINA RESULT: -7.030646389      2.631      6.436
REMARK  5 active torsions:
REMARK  status: ('A' for Active; 'I' for Inactive)
REMARK    1  A    between atoms: C2_2  and  N1_4 
REMARK    2  A    between atoms: C2_2  and  C12_15 
REMARK       I    between atoms: N1_4  and  C4_6 
REMARK    3  A    between atoms: C4_6  and  C5_8 
REMARK    4  A    between atoms: C5_8  and  C6_9 
REMARK       I    between atoms: C12_15  and  N2_17 
REMARK    5  A    between atoms: N2_17  and  C13_19 
ROOT
HETATM    1  C1  UNL     1      24.189  52.395  -2.521  1.00  0.00     0.048 C 
HETATM    2  C2  UNL     1      24.282  50.928  -2.960  1.00  0.00     0.106 C 
HETATM    3  C3  UNL     1      23.969  50.759  -4.418  1.00  0.00     0.048 C 
ENDROOT
BRANCH   2   4
HETATM    4  N1  UNL     1      23.414  50.117  -2.140  1.00  0.00    -0.344 N 
HETATM    5  C4  UNL     1      23.277  50.324  -0.739  1.00  0.00     0.218 C 
HETATM    6  O1  UNL     1      23.949  51.247  -0.237  1.00  0.00    -0.274 OA
ATOM      7  H1  UNL     1      22.879  49.369  -2.581  1.00  0.00     0.163 HD
BRANCH   5   8
HETATM    8  C5  UNL     1      22.388  49.487   0.063  1.00  0.00     0.107 C 
BRANCH   8   9
HETATM    9  C6  UNL     1      22.954  48.188   0.522  1.00  0.00    -0.006 C 
HETATM   10  C7  UNL     1      24.375  48.297   0.992  1.00  0.00     0.005 C 
HETATM   11  C8  UNL     1      24.835  47.028   1.681  1.00  0.00     0.000 C 
HETATM   12  C9  UNL     1      23.953  46.775   2.875  1.00  0.00     0.000 C 
HETATM   13  C10 UNL     1      22.565  46.451   2.309  1.00  0.00     0.000 C 
HETATM   14  C11 UNL     1      22.071  47.709   1.669  1.00  0.00     0.005 C 
ENDBRANCH   8   9
ENDBRANCH   5   8
ENDBRANCH   2   4
BRANCH   2  15
HETATM   15  C12 UNL     1      25.727  50.550  -2.754  1.00  0.00     0.245 C 
HETATM   16  O2  UNL     1      26.351  49.852  -3.610  1.00  0.00    -0.271 OA
HETATM   17  N2  UNL     1      26.398  50.984  -1.580  1.00  0.00    -0.352 N 
ATOM     18  H2  UNL     1      25.894  51.545  -0.894  1.00  0.00     0.163 HD
BRANCH  17  19
HETATM   19  C13 UNL     1      27.770  50.649  -1.343  1.00  0.00     0.110 C 
HETATM   20  C14 UNL     1      28.066  50.681   0.154  1.00  0.00     0.053 C 
HETATM   21  C15 UNL     1      29.571  50.938   0.092  1.00  0.00     0.169 C 
HETATM   22  O3  UNL     1      29.767  51.796  -0.954  1.00  0.00    -0.389 OA
HETATM   23  C16 UNL     1      28.724  51.713  -1.832  1.00  0.00     0.192 C 
ENDBRANCH  17  19
ENDBRANCH   2  15
TORSDOF 5
ENDMDL
