MODEL 1
REMARK VINA RESULT: -5.804572345      0.000      0.000
REMARK  5 active torsions:
REMARK  status: ('A' for Active; 'I' for Inactive)
REMARK    1  A    between atoms: C2_2  and  C3_3 
REMARK    2  A    between atoms: C2_2  and  N2_10 
REMARK    3  A    between atoms: C2_2  and  C14_21 
REMARK    4  A    between atoms: C3_3  and  N1_4 
REMARK       I    between atoms: N2_10  and  C8_12 
REMARK       I    between atoms: C8_12  and  N3_14 
REMARK    5  A    between atoms: N3_14  and  C9_16 
ROOT
HETATM    1  C1  UNL     1      23.543  50.698  -5.296  1.00  0.00     0.045 C 
HETATM    2  C2  UNL     1      23.914  51.271  -3.908  1.00  0.00     0.066 C 
ENDROOT
BRANCH   2   3
HETATM    3  C3  UNL     1      25.371  51.635  -3.911  1.00  0.00     0.089 C 
BRANCH   3   4
HETATM    4  N1  UNL     1      26.347  50.687  -4.113  1.00  0.00    -0.387 N 
HETATM    5  C4  UNL     1      27.150  50.094  -3.152  1.00  0.00     0.148 C 
HETATM    6  C5  UNL     1      28.344  50.958  -2.735  1.00  0.00     0.187 C 
HETATM    7  O1  UNL     1      29.094  51.276  -3.847  1.00  0.00    -0.388 OA
HETATM    8  C6  UNL     1      28.336  51.921  -4.797  1.00  0.00     0.187 C 
HETATM    9  C7  UNL     1      27.177  51.072  -5.260  1.00  0.00     0.148 C 
ENDBRANCH   3   4
ENDBRANCH   2   3
BRANCH   2  10
HETATM   10  N2  UNL     1      23.562  50.260  -2.947  1.00  0.00    -0.329 N 
HETATM   11  C8  UNL     1      23.688  50.367  -1.556  1.00  0.00     0.317 C 
HETATM   12  O2  UNL     1      24.138  51.394  -0.966  1.00  0.00    -0.247 OA
HETATM   13  N3  UNL     1      23.308  49.297  -0.682  1.00  0.00    -0.339 N 
ATOM     14  H3  UNL     1      22.938  48.443  -1.099  1.00  0.00     0.164 HD
ATOM     15  H2  UNL     1      23.186  49.385  -3.311  1.00  0.00     0.165 HD
BRANCH  13  16
HETATM   16  C9  UNL     1      23.418  49.357   0.753  1.00  0.00     0.086 C 
HETATM   17  C10 UNL     1      24.677  48.597   1.194  1.00  0.00     0.025 C 
HETATM   18  C11 UNL     1      24.286  47.181   0.842  1.00  0.00     0.002 C 
HETATM   19  C12 UNL     1      22.811  47.102   1.155  1.00  0.00     0.002 C 
HETATM   20  C13 UNL     1      22.336  48.515   1.397  1.00  0.00     0.025 C 
ENDBRANCH  13  16
ENDBRANCH   2  10
BRANCH   2  21
HETATM   21  C14 UNL     1      23.085  52.517  -3.689  1.00  0.00     0.019 A 
HETATM   22  C15 UNL     1      22.748  53.330  -4.917  1.00  0.00     0.008 A 
HETATM   23  C16 UNL     1      21.689  52.561  -4.211  1.00  0.00     0.008 A 
ENDBRANCH   2  21
TORSDOF 5
ENDMDL
MODEL 2
REMARK VINA RESULT: -5.762546065      1.027      1.241
REMARK  5 active torsions:
REMARK  status: ('A' for Active; 'I' for Inactive)
REMARK    1  A    between atoms: C2_2  and  C3_3 
REMARK    2  A    between atoms: C2_2  and  N2_10 
REMARK    3  A    between atoms: C2_2  and  C14_21 
REMARK    4  A    between atoms: C3_3  and  N1_4 
REMARK       I    between atoms: N2_10  and  C8_12 
REMARK       I    between atoms: C8_12  and  N3_14 
REMARK    5  A    between atoms: N3_14  and  C9_16 
ROOT
HETATM    1  C1  UNL     1      23.591  50.791  -5.125  1.00  0.00     0.045 C 
HETATM    2  C2  UNL     1      24.215  51.156  -3.757  1.00  0.00     0.066 C 
ENDROOT
BRANCH   2   3
HETATM    3  C3  UNL     1      25.711  51.087  -3.876  1.00  0.00     0.089 C 
BRANCH   3   4
HETATM    4  N1  UNL     1      26.319  50.624  -5.019  1.00  0.00    -0.387 N 
HETATM    5  C4  UNL     1      26.887  49.376  -5.219  1.00  0.00     0.148 C 
HETATM    6  C5  UNL     1      28.302  49.250  -4.644  1.00  0.00     0.187 C 
HETATM    7  O1  UNL     1      29.108  50.228  -5.186  1.00  0.00    -0.388 OA
HETATM    8  C6  UNL     1      28.599  51.485  -4.951  1.00  0.00     0.187 C 
HETATM    9  C7  UNL     1      27.222  51.653  -5.548  1.00  0.00     0.148 C 
ENDBRANCH   3   4
ENDBRANCH   2   3
BRANCH   2  10
HETATM   10  N2  UNL     1      23.659  50.236  -2.801  1.00  0.00    -0.329 N 
HETATM   11  C8  UNL     1      23.855  50.270  -1.415  1.00  0.00     0.317 C 
HETATM   12  O2  UNL     1      24.565  51.139  -0.825  1.00  0.00    -0.247 OA
HETATM   13  N3  UNL     1      23.254  49.303  -0.545  1.00  0.00    -0.339 N 
ATOM     14  H3  UNL     1      22.671  48.577  -0.963  1.00  0.00     0.164 HD
ATOM     15  H2  UNL     1      23.067  49.490  -3.166  1.00  0.00     0.165 HD
BRANCH  13  16
HETATM   16  C9  UNL     1      23.425  49.294   0.884  1.00  0.00     0.086 C 
HETATM   17  C10 UNL     1      24.681  48.485   1.237  1.00  0.00     0.025 C 
HETATM   18  C11 UNL     1      24.240  47.097   0.839  1.00  0.00     0.002 C 
HETATM   19  C12 UNL     1      22.778  47.038   1.211  1.00  0.00     0.002 C 
HETATM   20  C13 UNL     1      22.350  48.449   1.536  1.00  0.00     0.025 C 
ENDBRANCH  13  16
ENDBRANCH   2  10
BRANCH   2  21
HETATM   21  C14 UNL     1      23.802  52.573  -3.427  1.00  0.00     0.019 A 
HETATM   22  C15 UNL     1      24.915  53.560  -3.167  1.00  0.00     0.008 A 
HETATM   23  C16 UNL     1      24.096  53.660  -4.403  1.00  0.00     0.008 A 
ENDBRANCH   2  21
TORSDOF 5
ENDMDL
MODEL 3
REMARK VINA RESULT: -5.745410263      1.915      3.591
REMARK  5 active torsions:
REMARK  status: ('A' for Active; 'I' for Inactive)
REMARK    1  A    between atoms: C2_2  and  C3_3 
REMARK    2  A    between atoms: C2_2  and  N2_10 
REMARK    3  A    between atoms: C2_2  and  C14_21 
REMARK    4  A    between atoms: C3_3  and  N1_4 
REMARK       I    between atoms: N2_10  and  C8_12 
REMARK       I    between atoms: C8_12  and  N3_14 
REMARK    5  A    between atoms: N3_14  and  C9_16 
ROOT
HETATM    1  C1  UNL     1      25.732  52.741  -2.656  1.00  0.00     0.045 C 
HETATM    2  C2  UNL     1      26.119  51.325  -3.147  1.00  0.00     0.066 C 
ENDROOT
BRANCH   2   3
HETATM    3  C3  UNL     1      25.998  51.284  -4.643  1.00  0.00     0.089 C 
BRANCH   3   4
HETATM    4  N1  UNL     1      25.344  50.257  -5.282  1.00  0.00    -0.387 N 
HETATM    5  C4  UNL     1      25.839  49.449  -6.293  1.00  0.00     0.148 C 
HETATM    6  C5  UNL     1      25.774  50.098  -7.680  1.00  0.00     0.187 C 
HETATM    7  O1  UNL     1      24.473  50.460  -7.958  1.00  0.00    -0.388 OA
HETATM    8  C6  UNL     1      23.973  51.312  -7.000  1.00  0.00     0.187 C 
HETATM    9  C7  UNL     1      23.982  50.680  -5.629  1.00  0.00     0.148 C 
ENDBRANCH   3   4
ENDBRANCH   2   3
BRANCH   2  10
HETATM   10  N2  UNL     1      25.250  50.408  -2.460  1.00  0.00    -0.329 N 
HETATM   11  C8  UNL     1      25.018  50.370  -1.080  1.00  0.00     0.317 C 
HETATM   12  O2  UNL     1      25.562  51.160  -0.252  1.00  0.00    -0.247 OA
HETATM   13  N3  UNL     1      24.129  49.411  -0.492  1.00  0.00    -0.339 N 
ATOM     14  H3  UNL     1      23.662  48.747  -1.110  1.00  0.00     0.164 HD
ATOM     15  H2  UNL     1      24.756  49.722  -3.031  1.00  0.00     0.165 HD
BRANCH  13  16
HETATM   16  C9  UNL     1      23.858  49.330   0.919  1.00  0.00     0.086 C 
HETATM   17  C10 UNL     1      24.717  48.217   1.535  1.00  0.00     0.025 C 
HETATM   18  C11 UNL     1      24.094  46.998   0.897  1.00  0.00     0.002 C 
HETATM   19  C12 UNL     1      22.619  47.312   0.832  1.00  0.00     0.002 C 
HETATM   20  C13 UNL     1      22.466  48.779   1.155  1.00  0.00     0.025 C 
ENDBRANCH  13  16
ENDBRANCH   2  10
BRANCH   2  21
HETATM   21  C14 UNL     1      27.559  51.082  -2.753  1.00  0.00     0.019 A 
HETATM   22  C15 UNL     1      28.107  49.698  -3.012  1.00  0.00     0.008 A 
HETATM   23  C16 UNL     1      28.575  50.855  -3.819  1.00  0.00     0.008 A 
ENDBRANCH   2  21
TORSDOF 5
ENDMDL
MODEL 4
REMARK VINA RESULT: -5.694378814      3.574      6.516
REMARK  5 active torsions:
REMARK  status: ('A' for Active; 'I' for Inactive)
REMARK    1  A    between atoms: C2_2  and  C3_3 
REMARK    2  A    between atoms: C2_2  and  N2_10 
REMARK    3  A    between atoms: C2_2  and  C14_21 
REMARK    4  A    between atoms: C3_3  and  N1_4 
REMARK       I    between atoms: N2_10  and  C8_12 
REMARK       I    between atoms: C8_12  and  N3_14 
REMARK    5  A    between atoms: N3_14  and  C9_16 
ROOT
HETATM    1  C1  UNL     1      26.867  52.249  -3.171  1.00  0.00     0.045 C 
HETATM    2  C2  UNL     1      27.110  51.177  -2.082  1.00  0.00     0.066 C 
ENDROOT
BRANCH   2   3
HETATM    3  C3  UNL     1      25.929  51.157  -1.154  1.00  0.00     0.089 C 
BRANCH   3   4
HETATM    4  N1  UNL     1      24.940  50.209  -1.271  1.00  0.00    -0.387 N 
HETATM    5  C4  UNL     1      23.787  50.292  -2.035  1.00  0.00     0.148 C 
HETATM    6  C5  UNL     1      22.669  51.100  -1.369  1.00  0.00     0.187 C 
HETATM    7  O1  UNL     1      22.380  50.557  -0.135  1.00  0.00    -0.388 OA
HETATM    8  C6  UNL     1      23.496  50.516   0.670  1.00  0.00     0.187 C 
HETATM    9  C7  UNL     1      24.599  49.687   0.057  1.00  0.00     0.148 C 
ENDBRANCH   3   4
ENDBRANCH   2   3
BRANCH   2  10
HETATM   10  N2  UNL     1      28.352  51.521  -1.446  1.00  0.00    -0.329 N 
HETATM   11  C8  UNL     1      28.755  51.136  -0.161  1.00  0.00     0.317 C 
HETATM   12  O2  UNL     1      28.051  50.419   0.612  1.00  0.00    -0.247 OA
HETATM   13  N3  UNL     1      30.019  51.535   0.383  1.00  0.00    -0.339 N 
ATOM     14  H3  UNL     1      30.629  52.115  -0.193  1.00  0.00     0.164 HD
ATOM     15  H2  UNL     1      29.001  52.100  -1.980  1.00  0.00     0.165 HD
BRANCH  13  16
HETATM   16  C9  UNL     1      30.478  51.166   1.697  1.00  0.00     0.086 C 
HETATM   17  C10 UNL     1      30.189  52.316   2.673  1.00  0.00     0.025 C 
HETATM   18  C11 UNL     1      31.141  53.367   2.155  1.00  0.00     0.002 C 
HETATM   19  C12 UNL     1      32.366  52.597   1.726  1.00  0.00     0.002 C 
HETATM   20  C13 UNL     1      31.992  51.134   1.734  1.00  0.00     0.025 C 
ENDBRANCH  13  16
ENDBRANCH   2  10
BRANCH   2  21
HETATM   21  C14 UNL     1      27.226  49.837  -2.775  1.00  0.00     0.019 A 
HETATM   22  C15 UNL     1      26.978  49.822  -4.265  1.00  0.00     0.008 A 
HETATM   23  C16 UNL     1      28.348  49.609  -3.729  1.00  0.00     0.008 A 
ENDBRANCH   2  21
TORSDOF 5
ENDMDL
MODEL 5
REMARK VINA RESULT: -5.662659113      2.402      4.117
REMARK  5 active torsions:
REMARK  status: ('A' for Active; 'I' for Inactive)
REMARK    1  A    between atoms: C2_2  and  C3_3 
REMARK    2  A    between atoms: C2_2  and  N2_10 
REMARK    3  A    between atoms: C2_2  and  C14_21 
REMARK    4  A    between atoms: C3_3  and  N1_4 
REMARK       I    between atoms: N2_10  and  C8_12 
REMARK       I    between atoms: C8_12  and  N3_14 
REMARK    5  A    between atoms: N3_14  and  C9_16 
ROOT
HETATM    1  C1  UNL     1      27.027  52.299  -3.879  1.00  0.00     0.045 C 
HETATM    2  C2  UNL     1      26.674  50.839  -4.250  1.00  0.00     0.066 C 
ENDROOT
BRANCH   2   3
HETATM    3  C3  UNL     1      26.301  50.787  -5.704  1.00  0.00     0.089 C 
BRANCH   3   4
HETATM    4  N1  UNL     1      25.032  50.446  -6.107  1.00  0.00    -0.387 N 
HETATM    5  C4  UNL     1      24.675  49.428  -6.978  1.00  0.00     0.148 C 
HETATM    6  C5  UNL     1      24.838  49.802  -8.454  1.00  0.00     0.187 C 
HETATM    7  O1  UNL     1      24.103  50.936  -8.726  1.00  0.00    -0.388 OA
HETATM    8  C6  UNL     1      24.477  51.983  -7.917  1.00  0.00     0.187 C 
HETATM    9  C7  UNL     1      24.283  51.659  -6.455  1.00  0.00     0.148 C 
ENDBRANCH   3   4
ENDBRANCH   2   3
BRANCH   2  10
HETATM   10  N2  UNL     1      25.619  50.440  -3.358  1.00  0.00    -0.329 N 
HETATM   11  C8  UNL     1      25.639  50.541  -1.961  1.00  0.00     0.317 C 
HETATM   12  O2  UNL     1      26.615  51.009  -1.302  1.00  0.00    -0.247 OA
HETATM   13  N3  UNL     1      24.531  50.112  -1.159  1.00  0.00    -0.339 N 
ATOM     14  H3  UNL     1      23.715  49.726  -1.634  1.00  0.00     0.164 HD
ATOM     15  H2  UNL     1      24.778  50.047  -3.781  1.00  0.00     0.165 HD
BRANCH  13  16
HETATM   16  C9  UNL     1      24.503  50.194   0.278  1.00  0.00     0.086 C 
HETATM   17  C10 UNL     1      24.702  48.790   0.867  1.00  0.00     0.025 C 
HETATM   18  C11 UNL     1      23.417  48.123   0.440  1.00  0.00     0.002 C 
HETATM   19  C12 UNL     1      22.368  49.203   0.554  1.00  0.00     0.002 C 
HETATM   20  C13 UNL     1      23.100  50.508   0.758  1.00  0.00     0.025 C 
ENDBRANCH  13  16
ENDBRANCH   2  10
BRANCH   2  21
HETATM   21  C14 UNL     1      27.908  49.996  -4.017  1.00  0.00     0.019 A 
HETATM   22  C15 UNL     1      27.890  48.598  -4.588  1.00  0.00     0.008 A 
HETATM   23  C16 UNL     1      28.773  49.639  -5.178  1.00  0.00     0.008 A 
ENDBRANCH   2  21
TORSDOF 5
ENDMDL
