MODEL 1
REMARK VINA RESULT: -6.627135739      0.000      0.000
REMARK  5 active torsions:
REMARK  status: ('A' for Active; 'I' for Inactive)
REMARK    1  A    between atoms: C2_2  and  C4_4 
REMARK    2  A    between atoms: C4_4  and  N1_5 
REMARK    3  A    between atoms: C4_4  and  C10_14 
REMARK       I    between atoms: N1_5  and  C5_7 
REMARK    4  A    between atoms: C5_7  and  C6_9 
REMARK       I    between atoms: C10_14  and  N2_16 
REMARK    5  A    between atoms: N2_16  and  C11_18 
ROOT
HETATM    1  C4  UNL     1      24.169  50.187  -0.389  1.00  0.00     0.180 C 
ENDROOT
BRANCH   1   2
HETATM    2  C2  UNL     1      23.020  50.688  -1.197  1.00  0.00     0.009 C 
HETATM    3  C1  UNL     1      23.398  51.721  -2.209  1.00  0.00     0.012 C 
HETATM    4  C3  UNL     1      21.948  51.332  -0.315  1.00  0.00     0.012 C 
ENDBRANCH   1   2
BRANCH   1   5
HETATM    5  N1  UNL     1      25.390  50.063  -1.133  1.00  0.00    -0.345 N 
HETATM    6  C5  UNL     1      26.681  50.192  -0.601  1.00  0.00     0.247 C 
HETATM    7  O1  UNL     1      26.851  50.432   0.610  1.00  0.00    -0.271 OA
ATOM      8  H1  UNL     1      25.313  49.865  -2.131  1.00  0.00     0.163 HD
BRANCH   6   9
HETATM    9  C6  UNL     1      27.908  50.051  -1.454  1.00  0.00     0.213 C 
HETATM   10  C7  UNL     1      28.816  51.234  -1.359  1.00  0.00     0.043 C 
HETATM   11  C8  UNL     1      28.504  51.982  -2.622  1.00  0.00     0.029 C 
HETATM   12  C9  UNL     1      27.853  50.952  -3.481  1.00  0.00     0.168 C 
HETATM   13  O2  UNL     1      27.622  49.821  -2.768  1.00  0.00    -0.376 OA
ENDBRANCH   6   9
ENDBRANCH   1   5
BRANCH   1  14
HETATM   14  C10 UNL     1      23.825  48.841   0.162  1.00  0.00     0.241 C 
HETATM   15  O3  UNL     1      23.026  48.102  -0.524  1.00  0.00    -0.271 OA
HETATM   16  N2  UNL     1      24.337  48.386   1.380  1.00  0.00    -0.355 N 
ATOM     17  H2  UNL     1      24.961  49.017   1.884  1.00  0.00     0.162 HD
BRANCH  16  18
HETATM   18  C11 UNL     1      24.063  47.095   1.997  1.00  0.00     0.084 C 
HETATM   19  C12 UNL     1      22.586  47.192   2.409  1.00  0.00     0.025 C 
HETATM   20  C13 UNL     1      22.125  45.920   3.058  1.00  0.00     0.002 C 
HETATM   21  C14 UNL     1      23.083  45.341   4.038  1.00  0.00     0.000 C 
HETATM   22  C15 UNL     1      24.284  46.174   4.343  1.00  0.00     0.002 C 
HETATM   23  C16 UNL     1      24.843  47.005   3.260  1.00  0.00     0.025 C 
ENDBRANCH  16  18
ENDBRANCH   1  14
TORSDOF 5
ENDMDL
MODEL 2
REMARK VINA RESULT: -6.575678404      1.564      2.305
REMARK  5 active torsions:
REMARK  status: ('A' for Active; 'I' for Inactive)
REMARK    1  A    between atoms: C2_2  and  C4_4 
REMARK    2  A    between atoms: C4_4  and  N1_5 
REMARK    3  A    between atoms: C4_4  and  C10_14 
REMARK       I    between atoms: N1_5  and  C5_7 
REMARK    4  A    between atoms: C5_7  and  C6_9 
REMARK       I    between atoms: C10_14  and  N2_16 
REMARK    5  A    between atoms: N2_16  and  C11_18 
ROOT
HETATM    1  C4  UNL     1      24.840  51.041  -1.332  1.00  0.00     0.180 C 
ENDROOT
BRANCH   1   2
HETATM    2  C2  UNL     1      23.745  50.671  -2.275  1.00  0.00     0.009 C 
HETATM    3  C1  UNL     1      24.189  50.548  -3.697  1.00  0.00     0.012 C 
HETATM    4  C3  UNL     1      22.622  51.710  -2.270  1.00  0.00     0.012 C 
ENDBRANCH   1   2
BRANCH   1   5
HETATM    5  N1  UNL     1      26.134  50.566  -1.732  1.00  0.00    -0.345 N 
HETATM    6  C5  UNL     1      27.154  51.357  -2.279  1.00  0.00     0.247 C 
HETATM    7  O1  UNL     1      26.989  52.579  -2.458  1.00  0.00    -0.271 OA
ATOM      8  H1  UNL     1      26.328  49.572  -1.607  1.00  0.00     0.163 HD
BRANCH   6   9
HETATM    9  C6  UNL     1      28.481  50.776  -2.675  1.00  0.00     0.213 C 
HETATM   10  C7  UNL     1      29.101  51.490  -3.833  1.00  0.00     0.043 C 
HETATM   11  C8  UNL     1      28.800  50.568  -4.978  1.00  0.00     0.029 C 
HETATM   12  C9  UNL     1      28.494  49.272  -4.307  1.00  0.00     0.168 C 
HETATM   13  O2  UNL     1      28.417  49.444  -2.963  1.00  0.00    -0.376 OA
ENDBRANCH   6   9
ENDBRANCH   1   5
BRANCH   1  14
HETATM   14  C10 UNL     1      24.534  50.469   0.015  1.00  0.00     0.241 C 
HETATM   15  O3  UNL     1      24.915  51.135   1.047  1.00  0.00    -0.271 OA
HETATM   16  N2  UNL     1      23.864  49.251   0.167  1.00  0.00    -0.355 N 
ATOM     17  H2  UNL     1      23.591  48.763  -0.686  1.00  0.00     0.162 HD
BRANCH  16  18
HETATM   18  C11 UNL     1      23.521  48.615   1.432  1.00  0.00     0.084 C 
HETATM   19  C12 UNL     1      24.596  47.530   1.600  1.00  0.00     0.025 C 
HETATM   20  C13 UNL     1      24.399  46.773   2.881  1.00  0.00     0.002 C 
HETATM   21  C14 UNL     1      22.988  46.403   3.173  1.00  0.00     0.000 C 
HETATM   22  C15 UNL     1      22.001  46.703   2.093  1.00  0.00     0.002 C 
HETATM   23  C16 UNL     1      22.229  47.897   1.259  1.00  0.00     0.025 C 
ENDBRANCH  16  18
ENDBRANCH   1  14
TORSDOF 5
ENDMDL
MODEL 3
REMARK VINA RESULT: -6.504348853      1.996      3.282
REMARK  5 active torsions:
REMARK  status: ('A' for Active; 'I' for Inactive)
REMARK    1  A    between atoms: C2_2  and  C4_4 
REMARK    2  A    between atoms: C4_4  and  N1_5 
REMARK    3  A    between atoms: C4_4  and  C10_14 
REMARK       I    between atoms: N1_5  and  C5_7 
REMARK    4  A    between atoms: C5_7  and  C6_9 
REMARK       I    between atoms: C10_14  and  N2_16 
REMARK    5  A    between atoms: N2_16  and  C11_18 
ROOT
HETATM    1  C4  UNL     1      25.966  51.335  -1.853  1.00  0.00     0.180 C 
ENDROOT
BRANCH   1   2
HETATM    2  C2  UNL     1      24.863  52.296  -2.146  1.00  0.00     0.009 C 
HETATM    3  C1  UNL     1      24.078  51.960  -3.372  1.00  0.00     0.012 C 
HETATM    4  C3  UNL     1      25.394  53.716  -2.358  1.00  0.00     0.012 C 
ENDBRANCH   1   2
BRANCH   1   5
HETATM    5  N1  UNL     1      26.177  50.364  -2.890  1.00  0.00    -0.345 N 
HETATM    6  C5  UNL     1      27.426  49.975  -3.393  1.00  0.00     0.247 C 
HETATM    7  O1  UNL     1      28.478  50.473  -2.948  1.00  0.00    -0.271 OA
ATOM      8  H1  UNL     1      25.351  49.921  -3.291  1.00  0.00     0.163 HD
BRANCH   6   9
HETATM    9  C6  UNL     1      27.557  48.951  -4.484  1.00  0.00     0.213 C 
HETATM   10  C7  UNL     1      28.932  48.901  -5.066  1.00  0.00     0.043 C 
HETATM   11  C8  UNL     1      28.769  49.668  -6.345  1.00  0.00     0.029 C 
HETATM   12  C9  UNL     1      27.296  49.646  -6.576  1.00  0.00     0.168 C 
HETATM   13  O2  UNL     1      26.658  49.129  -5.495  1.00  0.00    -0.376 OA
ENDBRANCH   6   9
ENDBRANCH   1   5
BRANCH   1  14
HETATM   14  C10 UNL     1      25.648  50.602  -0.590  1.00  0.00     0.241 C 
HETATM   15  O3  UNL     1      26.585  50.484   0.283  1.00  0.00    -0.271 OA
HETATM   16  N2  UNL     1      24.386  50.050  -0.352  1.00  0.00    -0.355 N 
ATOM     17  H2  UNL     1      23.684  50.168  -1.083  1.00  0.00     0.162 HD
BRANCH  16  18
HETATM   18  C11 UNL     1      23.981  49.322   0.842  1.00  0.00     0.084 C 
HETATM   19  C12 UNL     1      24.738  47.989   0.733  1.00  0.00     0.025 C 
HETATM   20  C13 UNL     1      24.443  47.106   1.911  1.00  0.00     0.002 C 
HETATM   21  C14 UNL     1      23.010  47.060   2.309  1.00  0.00     0.000 C 
HETATM   22  C15 UNL     1      22.061  47.772   1.402  1.00  0.00     0.002 C 
HETATM   23  C16 UNL     1      22.536  48.990   0.722  1.00  0.00     0.025 C 
ENDBRANCH  16  18
ENDBRANCH   1  14
TORSDOF 5
ENDMDL
MODEL 4
REMARK VINA RESULT: -6.445173061      2.486      4.234
REMARK  5 active torsions:
REMARK  status: ('A' for Active; 'I' for Inactive)
REMARK    1  A    between atoms: C2_2  and  C4_4 
REMARK    2  A    between atoms: C4_4  and  N1_5 
REMARK    3  A    between atoms: C4_4  and  C10_14 
REMARK       I    between atoms: N1_5  and  C5_7 
REMARK    4  A    between atoms: C5_7  and  C6_9 
REMARK       I    between atoms: C10_14  and  N2_16 
REMARK    5  A    between atoms: N2_16  and  C11_18 
ROOT
HETATM    1  C4  UNL     1      26.003  50.565  -1.832  1.00  0.00     0.180 C 
ENDROOT
BRANCH   1   2
HETATM    2  C2  UNL     1      26.790  51.824  -1.682  1.00  0.00     0.009 C 
HETATM    3  C1  UNL     1      26.082  53.042  -2.182  1.00  0.00     0.012 C 
HETATM    4  C3  UNL     1      28.112  51.757  -2.448  1.00  0.00     0.012 C 
ENDBRANCH   1   2
BRANCH   1   5
HETATM    5  N1  UNL     1      24.835  50.707  -2.655  1.00  0.00    -0.345 N 
HETATM    6  C5  UNL     1      24.788  50.495  -4.040  1.00  0.00     0.247 C 
HETATM    7  O1  UNL     1      25.807  50.151  -4.668  1.00  0.00    -0.271 OA
ATOM      8  H1  UNL     1      23.968  50.986  -2.194  1.00  0.00     0.163 HD
BRANCH   6   9
HETATM    9  C6  UNL     1      23.520  50.670  -4.826  1.00  0.00     0.213 C 
HETATM   10  C7  UNL     1      23.728  50.512  -6.297  1.00  0.00     0.043 C 
HETATM   11  C8  UNL     1      23.755  51.935  -6.773  1.00  0.00     0.029 C 
HETATM   12  C9  UNL     1      23.105  52.684  -5.660  1.00  0.00     0.168 C 
HETATM   13  O2  UNL     1      22.909  51.867  -4.594  1.00  0.00    -0.376 OA
ENDBRANCH   6   9
ENDBRANCH   1   5
BRANCH   1  14
HETATM   14  C10 UNL     1      25.563  50.104  -0.480  1.00  0.00     0.241 C 
HETATM   15  O3  UNL     1      26.295  50.424   0.527  1.00  0.00    -0.271 OA
HETATM   16  N2  UNL     1      24.404  49.344  -0.299  1.00  0.00    -0.355 N 
ATOM     17  H2  UNL     1      23.865  49.114  -1.135  1.00  0.00     0.162 HD
BRANCH  16  18
HETATM   18  C11 UNL     1      23.893  48.850   0.973  1.00  0.00     0.084 C 
HETATM   19  C12 UNL     1      24.630  47.517   1.171  1.00  0.00     0.025 C 
HETATM   20  C13 UNL     1      24.228  46.868   2.463  1.00  0.00     0.002 C 
HETATM   21  C14 UNL     1      22.768  46.903   2.747  1.00  0.00     0.000 C 
HETATM   22  C15 UNL     1      21.906  47.440   1.652  1.00  0.00     0.002 C 
HETATM   23  C16 UNL     1      22.455  48.510   0.800  1.00  0.00     0.025 C 
ENDBRANCH  16  18
ENDBRANCH   1  14
TORSDOF 5
ENDMDL
MODEL 5
REMARK VINA RESULT: -6.422302128      3.098      5.009
REMARK  5 active torsions:
REMARK  status: ('A' for Active; 'I' for Inactive)
REMARK    1  A    between atoms: C2_2  and  C4_4 
REMARK    2  A    between atoms: C4_4  and  N1_5 
REMARK    3  A    between atoms: C4_4  and  C10_14 
REMARK       I    between atoms: N1_5  and  C5_7 
REMARK    4  A    between atoms: C5_7  and  C6_9 
REMARK       I    between atoms: C10_14  and  N2_16 
REMARK    5  A    between atoms: N2_16  and  C11_18 
ROOT
HETATM    1  C4  UNL     1      24.010  50.436  -2.534  1.00  0.00     0.180 C 
ENDROOT
BRANCH   1   2
HETATM    2  C2  UNL     1      25.468  50.734  -2.436  1.00  0.00     0.009 C 
HETATM    3  C1  UNL     1      25.780  52.188  -2.291  1.00  0.00     0.012 C 
HETATM    4  C3  UNL     1      26.226  50.260  -3.678  1.00  0.00     0.012 C 
ENDBRANCH   1   2
BRANCH   1   5
HETATM    5  N1  UNL     1      23.228  51.532  -3.035  1.00  0.00    -0.345 N 
HETATM    6  C5  UNL     1      22.900  51.745  -4.381  1.00  0.00     0.247 C 
HETATM    7  O1  UNL     1      23.284  50.956  -5.265  1.00  0.00    -0.271 OA
ATOM      8  H1  UNL     1      22.884  52.210  -2.355  1.00  0.00     0.163 HD
BRANCH   6   9
HETATM    9  C6  UNL     1      22.078  52.923  -4.819  1.00  0.00     0.213 C 
HETATM   10  C7  UNL     1      20.736  52.965  -4.164  1.00  0.00     0.043 C 
HETATM   11  C8  UNL     1      19.835  52.436  -5.241  1.00  0.00     0.029 C 
HETATM   12  C9  UNL     1      20.643  52.606  -6.482  1.00  0.00     0.168 C 
HETATM   13  O2  UNL     1      21.909  52.983  -6.171  1.00  0.00    -0.376 OA
ENDBRANCH   6   9
ENDBRANCH   1   5
BRANCH   1  14
HETATM   14  C10 UNL     1      23.494  50.083  -1.177  1.00  0.00     0.241 C 
HETATM   15  O3  UNL     1      22.460  50.716  -0.748  1.00  0.00    -0.271 OA
HETATM   16  N2  UNL     1      24.104  49.107  -0.384  1.00  0.00    -0.355 N 
ATOM     17  H2  UNL     1      24.925  48.641  -0.772  1.00  0.00     0.162 HD
BRANCH  16  18
HETATM   18  C11 UNL     1      23.677  48.693   0.946  1.00  0.00     0.084 C 
HETATM   19  C12 UNL     1      24.637  47.547   1.299  1.00  0.00     0.025 C 
HETATM   20  C13 UNL     1      24.343  47.003   2.667  1.00  0.00     0.002 C 
HETATM   21  C14 UNL     1      22.897  46.813   2.962  1.00  0.00     0.000 C 
HETATM   22  C15 UNL     1      21.965  47.047   1.820  1.00  0.00     0.002 C 
HETATM   23  C16 UNL     1      22.324  48.083   0.834  1.00  0.00     0.025 C 
ENDBRANCH  16  18
ENDBRANCH   1  14
TORSDOF 5
ENDMDL
