MODEL 1
REMARK VINA RESULT: -5.998863707      0.000      0.000
REMARK  10 active torsions:
REMARK  status: ('A' for Active; 'I' for Inactive)
REMARK    1  A    between atoms: N1_2  and  C2_3 
REMARK    2  A    between atoms: N1_2  and  C5_10 
REMARK    3  A    between atoms: C2_3  and  C3_4 
REMARK    4  A    between atoms: C3_4  and  O1_5 
REMARK    5  A    between atoms: C3_4  and  C4_7 
REMARK    6  A    between atoms: C4_7  and  O2_8 
REMARK    7  A    between atoms: C10_18  and  N3_19 
REMARK    8  A    between atoms: N3_19  and  C11_21 
REMARK    9  A    between atoms: C11_21  and  C14_24 
REMARK   10  A    between atoms: C14_24  and  O4_25 
ROOT
HETATM    1  C5  UNL     1      -5.581   6.932  11.835  1.00  0.00     0.050 A 
HETATM    2  C6  UNL     1      -6.778   6.432  11.258  1.00  0.00     0.104 A 
HETATM    3  C7  UNL     1      -7.569   7.194  10.504  1.00  0.00     0.247 A 
HETATM    4  O3  UNL     1      -8.637   6.745   9.992  1.00  0.00    -0.268 OA
HETATM    5  N2  UNL     1      -7.266   8.491  10.248  1.00  0.00    -0.322 N 
ATOM      6  H2  UNL     1      -7.882   9.059   9.667  1.00  0.00     0.169 HD
HETATM    7  C8  UNL     1      -6.166   9.014  10.758  1.00  0.00     0.068 A 
HETATM    8  C9  UNL     1      -5.272   8.240  11.586  1.00  0.00     0.045 A 
HETATM    9  C10 UNL     1      -4.117   8.793  12.072  1.00  0.00     0.045 A 
HETATM   10  C15 UNL     1      -3.842  10.121  11.716  1.00  0.00     0.061 A 
HETATM   11  C16 UNL     1      -4.659  10.881  10.932  1.00  0.00     0.058 A 
HETATM   12  C17 UNL     1      -5.846  10.318  10.444  1.00  0.00     0.087 A 
HETATM   13  C18 UNL     1      -6.666  11.083   9.661  1.00  0.00     0.266 A 
HETATM   14  O5  UNL     1      -7.732  10.738   9.161  1.00  0.00    -0.267 OA
HETATM   15  N4  UNL     1      -6.265  12.371   9.403  1.00  0.00    -0.270 N 
HETATM   16  C19 UNL     1      -7.109  13.219   8.573  1.00  0.00     0.164 C 
HETATM   17  C20 UNL     1      -5.120  12.885   9.886  1.00  0.00     0.331 A 
HETATM   18  O6  UNL     1      -4.790  14.083   9.622  1.00  0.00    -0.246 OA
HETATM   19  N5  UNL     1      -4.304  12.155  10.653  1.00  0.00    -0.303 N 
HETATM   20  C21 UNL     1      -3.046  12.683  11.200  1.00  0.00     0.161 C 
ENDROOT
BRANCH   1  21
HETATM   21  N1  UNL     1      -4.789   5.967  12.451  1.00  0.00    -0.382 N 
HETATM   22  C1  UNL     1      -5.003   5.723  13.879  1.00  0.00     0.150 C 
BRANCH  21  23
HETATM   23  C2  UNL     1      -3.685   5.282  11.882  1.00  0.00     0.156 C 
BRANCH  23  24
HETATM   24  C3  UNL     1      -3.898   4.247  10.858  1.00  0.00     0.159 C 
BRANCH  24  25
HETATM   25  O1  UNL     1      -3.199   4.297   9.698  1.00  0.00    -0.392 OA
ATOM     26  H1  UNL     1      -3.192   3.543   9.121  1.00  0.00     0.210 HD
ENDBRANCH  24  25
BRANCH  24  27
HETATM   27  C4  UNL     1      -3.534   2.907  11.527  1.00  0.00     0.197 C 
BRANCH  27  28
HETATM   28  O2  UNL     1      -2.379   3.133  12.268  1.00  0.00    -0.398 OA
ATOM     29  H2  UNL     1      -2.211   2.338  12.758  1.00  0.00     0.209 HD
ENDBRANCH  27  28
ENDBRANCH  24  27
ENDBRANCH  23  24
ENDBRANCH  21  23
ENDBRANCH   1  21
BRANCH   9  30
HETATM   30  N3  UNL     1      -3.310   8.199  13.052  1.00  0.00    -0.378 N 
ATOM     31  H3  UNL     1      -3.774   7.651  13.777  1.00  0.00     0.160 HD
BRANCH  30  32
HETATM   32  C11 UNL     1      -1.845   8.306  13.117  1.00  0.00     0.044 C 
HETATM   33  C12 UNL     1      -1.420   7.254  14.191  1.00  0.00     0.040 C 
HETATM   34  C13 UNL     1      -1.120   7.962  11.889  1.00  0.00     0.040 C 
BRANCH  32  35
HETATM   35  C14 UNL     1      -1.443   9.602  13.769  1.00  0.00     0.194 C 
BRANCH  35  36
HETATM   36  O4  UNL     1      -0.729  10.411  12.851  1.00  0.00    -0.398 OA
ATOM     37  H4  UNL     1      -0.510  11.246  13.250  1.00  0.00     0.209 HD
ENDBRANCH  35  36
ENDBRANCH  32  35
ENDBRANCH  30  32
ENDBRANCH   9  30
TORSDOF 10
ENDMDL
MODEL 2
REMARK VINA RESULT: -5.990877733      1.573      2.250
REMARK  10 active torsions:
REMARK  status: ('A' for Active; 'I' for Inactive)
REMARK    1  A    between atoms: N1_2  and  C2_3 
REMARK    2  A    between atoms: N1_2  and  C5_10 
REMARK    3  A    between atoms: C2_3  and  C3_4 
REMARK    4  A    between atoms: C3_4  and  O1_5 
REMARK    5  A    between atoms: C3_4  and  C4_7 
REMARK    6  A    between atoms: C4_7  and  O2_8 
REMARK    7  A    between atoms: C10_18  and  N3_19 
REMARK    8  A    between atoms: N3_19  and  C11_21 
REMARK    9  A    between atoms: C11_21  and  C14_24 
REMARK   10  A    between atoms: C14_24  and  O4_25 
ROOT
HETATM    1  C5  UNL     1      -5.582   7.009  11.912  1.00  0.00     0.050 A 
HETATM    2  C6  UNL     1      -6.770   6.484  11.339  1.00  0.00     0.104 A 
HETATM    3  C7  UNL     1      -7.566   7.223  10.567  1.00  0.00     0.247 A 
HETATM    4  O3  UNL     1      -8.628   6.754  10.060  1.00  0.00    -0.268 OA
HETATM    5  N2  UNL     1      -7.276   8.519  10.289  1.00  0.00    -0.322 N 
ATOM      6  H2  UNL     1      -7.896   9.069   9.695  1.00  0.00     0.169 HD
HETATM    7  C8  UNL     1      -6.184   9.064  10.793  1.00  0.00     0.068 A 
HETATM    8  C9  UNL     1      -5.286   8.316  11.640  1.00  0.00     0.045 A 
HETATM    9  C10 UNL     1      -4.140   8.890  12.120  1.00  0.00     0.045 A 
HETATM   10  C15 UNL     1      -3.878  10.214  11.741  1.00  0.00     0.061 A 
HETATM   11  C16 UNL     1      -4.699  10.950  10.938  1.00  0.00     0.058 A 
HETATM   12  C17 UNL     1      -5.877  10.365  10.456  1.00  0.00     0.087 A 
HETATM   13  C18 UNL     1      -6.702  11.106   9.656  1.00  0.00     0.266 A 
HETATM   14  O5  UNL     1      -7.762  10.740   9.157  1.00  0.00    -0.267 OA
HETATM   15  N4  UNL     1      -6.314  12.394   9.376  1.00  0.00    -0.270 N 
HETATM   16  C19 UNL     1      -7.164  13.216   8.526  1.00  0.00     0.164 C 
HETATM   17  C20 UNL     1      -5.178  12.929   9.854  1.00  0.00     0.331 A 
HETATM   18  O6  UNL     1      -4.860  14.126   9.569  1.00  0.00    -0.246 OA
HETATM   19  N5  UNL     1      -4.356  12.223  10.637  1.00  0.00    -0.303 N 
HETATM   20  C21 UNL     1      -3.107  12.774  11.180  1.00  0.00     0.161 C 
ENDROOT
BRANCH   1  21
HETATM   21  N1  UNL     1      -4.782   6.064  12.549  1.00  0.00    -0.382 N 
HETATM   22  C1  UNL     1      -3.859   5.285  11.719  1.00  0.00     0.150 C 
BRANCH  21  23
HETATM   23  C2  UNL     1      -4.855   5.662  13.907  1.00  0.00     0.156 C 
BRANCH  23  24
HETATM   24  C3  UNL     1      -5.778   6.336  14.834  1.00  0.00     0.159 C 
BRANCH  24  25
HETATM   25  O1  UNL     1      -6.815   5.646  15.367  1.00  0.00    -0.392 OA
ATOM     26  H1  UNL     1      -6.874   5.540  16.309  1.00  0.00     0.210 HD
ENDBRANCH  24  25
BRANCH  24  27
HETATM   27  C4  UNL     1      -4.915   6.810  16.021  1.00  0.00     0.197 C 
BRANCH  27  28
HETATM   28  O2  UNL     1      -4.572   8.131  15.758  1.00  0.00    -0.398 OA
ATOM     29  H2  UNL     1      -4.673   8.605  16.575  1.00  0.00     0.209 HD
ENDBRANCH  27  28
ENDBRANCH  24  27
ENDBRANCH  23  24
ENDBRANCH  21  23
ENDBRANCH   1  21
BRANCH   9  30
HETATM   30  N3  UNL     1      -3.330   8.323  13.115  1.00  0.00    -0.378 N 
ATOM     31  H3  UNL     1      -3.796   7.879  13.905  1.00  0.00     0.160 HD
BRANCH  30  32
HETATM   32  C11 UNL     1      -1.860   8.321  13.106  1.00  0.00     0.044 C 
HETATM   33  C12 UNL     1      -1.461   7.192  14.110  1.00  0.00     0.040 C 
HETATM   34  C13 UNL     1      -1.224   7.985  11.828  1.00  0.00     0.040 C 
BRANCH  32  35
HETATM   35  C14 UNL     1      -1.331   9.553  13.792  1.00  0.00     0.194 C 
BRANCH  35  36
HETATM   36  O4  UNL     1      -0.748  10.430  12.843  1.00  0.00    -0.398 OA
ATOM     37  H4  UNL     1      -0.260  11.115  13.285  1.00  0.00     0.209 HD
ENDBRANCH  35  36
ENDBRANCH  32  35
ENDBRANCH  30  32
ENDBRANCH   9  30
TORSDOF 10
ENDMDL
MODEL 3
REMARK VINA RESULT: -5.893961836      2.005      3.189
REMARK  10 active torsions:
REMARK  status: ('A' for Active; 'I' for Inactive)
REMARK    1  A    between atoms: N1_2  and  C2_3 
REMARK    2  A    between atoms: N1_2  and  C5_10 
REMARK    3  A    between atoms: C2_3  and  C3_4 
REMARK    4  A    between atoms: C3_4  and  O1_5 
REMARK    5  A    between atoms: C3_4  and  C4_7 
REMARK    6  A    between atoms: C4_7  and  O2_8 
REMARK    7  A    between atoms: C10_18  and  N3_19 
REMARK    8  A    between atoms: N3_19  and  C11_21 
REMARK    9  A    between atoms: C11_21  and  C14_24 
REMARK   10  A    between atoms: C14_24  and  O4_25 
ROOT
HETATM    1  C5  UNL     1      -6.272   8.734  11.534  1.00  0.00     0.050 A 
HETATM    2  C6  UNL     1      -7.438   7.925  11.566  1.00  0.00     0.104 A 
HETATM    3  C7  UNL     1      -8.580   8.311  10.998  1.00  0.00     0.247 A 
HETATM    4  O3  UNL     1      -9.620   7.588  11.030  1.00  0.00    -0.268 OA
HETATM    5  N2  UNL     1      -8.682   9.502  10.357  1.00  0.00    -0.322 N 
ATOM      6  H2  UNL     1      -9.564   9.780   9.927  1.00  0.00     0.169 HD
HETATM    7  C8  UNL     1      -7.632  10.299  10.294  1.00  0.00     0.068 A 
HETATM    8  C9  UNL     1      -6.369   9.938  10.894  1.00  0.00     0.045 A 
HETATM    9  C10 UNL     1      -5.283  10.763  10.783  1.00  0.00     0.045 A 
HETATM   10  C15 UNL     1      -5.450  11.950  10.055  1.00  0.00     0.061 A 
HETATM   11  C16 UNL     1      -6.625  12.322   9.470  1.00  0.00     0.058 A 
HETATM   12  C17 UNL     1      -7.739  11.481   9.593  1.00  0.00     0.087 A 
HETATM   13  C18 UNL     1      -8.917  11.858   9.009  1.00  0.00     0.266 A 
HETATM   14  O5  UNL     1      -9.975  11.237   9.026  1.00  0.00    -0.267 OA
HETATM   15  N4  UNL     1      -8.928  13.054   8.332  1.00  0.00    -0.270 N 
HETATM   16  C19 UNL     1     -10.163  13.491   7.695  1.00  0.00     0.164 C 
HETATM   17  C20 UNL     1      -7.843  13.840   8.232  1.00  0.00     0.331 A 
HETATM   18  O6  UNL     1      -7.900  14.939   7.596  1.00  0.00    -0.246 OA
HETATM   19  N5  UNL     1      -6.681  13.492   8.794  1.00  0.00    -0.303 N 
HETATM   20  C21 UNL     1      -5.474  14.326   8.706  1.00  0.00     0.161 C 
ENDROOT
BRANCH   1  21
HETATM   21  N1  UNL     1      -5.125   8.115  12.023  1.00  0.00    -0.382 N 
HETATM   22  C1  UNL     1      -5.017   7.933  13.473  1.00  0.00     0.150 C 
BRANCH  21  23
HETATM   23  C2  UNL     1      -3.967   7.761  11.285  1.00  0.00     0.156 C 
BRANCH  23  24
HETATM   24  C3  UNL     1      -2.809   7.156  11.961  1.00  0.00     0.159 C 
BRANCH  24  25
HETATM   25  O1  UNL     1      -2.613   5.818  11.889  1.00  0.00    -0.392 OA
ATOM     26  H1  UNL     1      -2.209   5.361  12.617  1.00  0.00     0.210 HD
ENDBRANCH  24  25
BRANCH  24  27
HETATM   27  C4  UNL     1      -1.562   7.812  11.335  1.00  0.00     0.197 C 
BRANCH  27  28
HETATM   28  O2  UNL     1      -2.022   8.836  10.514  1.00  0.00    -0.398 OA
ATOM     29  H2  UNL     1      -1.254   9.301  10.204  1.00  0.00     0.209 HD
ENDBRANCH  27  28
ENDBRANCH  24  27
ENDBRANCH  23  24
ENDBRANCH  21  23
ENDBRANCH   1  21
BRANCH   9  30
HETATM   30  N3  UNL     1      -4.094  10.606  11.510  1.00  0.00    -0.378 N 
ATOM     31  H3  UNL     1      -3.404   9.948  11.147  1.00  0.00     0.160 HD
BRANCH  30  32
HETATM   32  C11 UNL     1      -3.767  11.314  12.755  1.00  0.00     0.044 C 
HETATM   33  C12 UNL     1      -3.062  12.629  12.288  1.00  0.00     0.040 C 
HETATM   34  C13 UNL     1      -4.907  11.725  13.581  1.00  0.00     0.040 C 
BRANCH  32  35
HETATM   35  C14 UNL     1      -2.657  10.605  13.484  1.00  0.00     0.194 C 
BRANCH  35  36
HETATM   36  O4  UNL     1      -1.449  11.340  13.373  1.00  0.00    -0.398 OA
ATOM     37  H4  UNL     1      -0.794  10.987  13.964  1.00  0.00     0.209 HD
ENDBRANCH  35  36
ENDBRANCH  32  35
ENDBRANCH  30  32
ENDBRANCH   9  30
TORSDOF 10
ENDMDL
MODEL 4
REMARK VINA RESULT: -5.865449690      3.027      6.420
REMARK  10 active torsions:
REMARK  status: ('A' for Active; 'I' for Inactive)
REMARK    1  A    between atoms: N1_2  and  C2_3 
REMARK    2  A    between atoms: N1_2  and  C5_10 
REMARK    3  A    between atoms: C2_3  and  C3_4 
REMARK    4  A    between atoms: C3_4  and  O1_5 
REMARK    5  A    between atoms: C3_4  and  C4_7 
REMARK    6  A    between atoms: C4_7  and  O2_8 
REMARK    7  A    between atoms: C10_18  and  N3_19 
REMARK    8  A    between atoms: N3_19  and  C11_21 
REMARK    9  A    between atoms: C11_21  and  C14_24 
REMARK   10  A    between atoms: C14_24  and  O4_25 
ROOT
HETATM    1  C5  UNL     1      -5.667  12.033   9.939  1.00  0.00     0.050 A 
HETATM    2  C6  UNL     1      -4.902  13.195   9.659  1.00  0.00     0.104 A 
HETATM    3  C7  UNL     1      -5.424  14.247   9.030  1.00  0.00     0.247 A 
HETATM    4  O3  UNL     1      -4.739  15.283   8.779  1.00  0.00    -0.268 OA
HETATM    5  N2  UNL     1      -6.720  14.258   8.626  1.00  0.00    -0.322 N 
ATOM      6  H2  UNL     1      -7.102  15.073   8.147  1.00  0.00     0.169 HD
HETATM    7  C8  UNL     1      -7.481  13.205   8.858  1.00  0.00     0.068 A 
HETATM    8  C9  UNL     1      -6.972  12.034   9.531  1.00  0.00     0.045 A 
HETATM    9  C10 UNL     1      -7.791  10.969   9.794  1.00  0.00     0.045 A 
HETATM   10  C15 UNL     1      -9.132  11.078   9.399  1.00  0.00     0.061 A 
HETATM   11  C16 UNL     1      -9.650  12.170   8.768  1.00  0.00     0.058 A 
HETATM   12  C17 UNL     1      -8.809  13.254   8.489  1.00  0.00     0.087 A 
HETATM   13  C18 UNL     1      -9.330  14.346   7.851  1.00  0.00     0.266 A 
HETATM   14  O5  UNL     1      -8.727  15.369   7.538  1.00  0.00    -0.267 OA
HETATM   15  N4  UNL     1     -10.663  14.304   7.521  1.00  0.00    -0.270 N 
HETATM   16  C19 UNL     1     -11.257  15.447   6.841  1.00  0.00     0.164 C 
HETATM   17  C20 UNL     1     -11.446  13.248   7.800  1.00  0.00     0.331 A 
HETATM   18  O6  UNL     1     -12.674  13.253   7.475  1.00  0.00    -0.246 OA
HETATM   19  N5  UNL     1     -10.958  12.170   8.424  1.00  0.00    -0.303 N 
HETATM   20  C21 UNL     1     -11.783  10.997   8.745  1.00  0.00     0.161 C 
ENDROOT
BRANCH   1  21
HETATM   21  N1  UNL     1      -5.024  11.099  10.747  1.00  0.00    -0.382 N 
HETATM   22  C1  UNL     1      -4.970  11.367  12.186  1.00  0.00     0.150 C 
BRANCH  21  23
HETATM   23  C2  UNL     1      -4.280   9.969  10.317  1.00  0.00     0.156 C 
BRANCH  23  24
HETATM   24  C3  UNL     1      -2.814  10.037  10.220  1.00  0.00     0.159 C 
BRANCH  24  25
HETATM   25  O1  UNL     1      -2.177  11.203  10.487  1.00  0.00    -0.392 OA
ATOM     26  H1  UNL     1      -1.493  11.225  11.146  1.00  0.00     0.210 HD
ENDBRANCH  24  25
BRANCH  24  27
HETATM   27  C4  UNL     1      -2.274   9.006  11.230  1.00  0.00     0.197 C 
BRANCH  27  28
HETATM   28  O2  UNL     1      -1.226   9.622  11.905  1.00  0.00    -0.398 OA
ATOM     29  H2  UNL     1      -1.449   9.602  12.828  1.00  0.00     0.209 HD
ENDBRANCH  27  28
ENDBRANCH  24  27
ENDBRANCH  23  24
ENDBRANCH  21  23
ENDBRANCH   1  21
BRANCH   9  30
HETATM   30  N3  UNL     1      -7.340   9.717  10.237  1.00  0.00    -0.378 N 
ATOM     31  H3  UNL     1      -6.568   9.287   9.728  1.00  0.00     0.160 HD
BRANCH  30  32
HETATM   32  C11 UNL     1      -7.895   8.977  11.379  1.00  0.00     0.044 C 
HETATM   33  C12 UNL     1      -6.750   8.006  11.814  1.00  0.00     0.040 C 
HETATM   34  C13 UNL     1      -8.233   9.776  12.561  1.00  0.00     0.040 C 
BRANCH  32  35
HETATM   35  C14 UNL     1      -8.959   8.019  10.914  1.00  0.00     0.194 C 
BRANCH  35  36
HETATM   36  O4  UNL     1      -8.389   7.011  10.097  1.00  0.00    -0.398 OA
ATOM     37  H4  UNL     1      -7.496   6.833  10.369  1.00  0.00     0.209 HD
ENDBRANCH  35  36
ENDBRANCH  32  35
ENDBRANCH  30  32
ENDBRANCH   9  30
TORSDOF 10
ENDMDL
MODEL 5
REMARK VINA RESULT: -5.781895359      4.813      8.468
REMARK  10 active torsions:
REMARK  status: ('A' for Active; 'I' for Inactive)
REMARK    1  A    between atoms: N1_2  and  C2_3 
REMARK    2  A    between atoms: N1_2  and  C5_10 
REMARK    3  A    between atoms: C2_3  and  C3_4 
REMARK    4  A    between atoms: C3_4  and  O1_5 
REMARK    5  A    between atoms: C3_4  and  C4_7 
REMARK    6  A    between atoms: C4_7  and  O2_8 
REMARK    7  A    between atoms: C10_18  and  N3_19 
REMARK    8  A    between atoms: N3_19  and  C11_21 
REMARK    9  A    between atoms: C11_21  and  C14_24 
REMARK   10  A    between atoms: C14_24  and  O4_25 
ROOT
HETATM    1  C5  UNL     1      -6.569  13.579   7.692  1.00  0.00     0.050 A 
HETATM    2  C6  UNL     1      -5.602  14.410   7.066  1.00  0.00     0.104 A 
HETATM    3  C7  UNL     1      -5.942  15.528   6.427  1.00  0.00     0.247 A 
HETATM    4  O3  UNL     1      -5.078  16.267   5.868  1.00  0.00    -0.268 OA
HETATM    5  N2  UNL     1      -7.236  15.930   6.345  1.00  0.00    -0.322 N 
ATOM      6  H2  UNL     1      -7.476  16.790   5.853  1.00  0.00     0.169 HD
HETATM    7  C8  UNL     1      -8.180  15.199   6.907  1.00  0.00     0.068 A 
HETATM    8  C9  UNL     1      -7.875  13.975   7.609  1.00  0.00     0.045 A 
HETATM    9  C10 UNL     1      -8.867  13.254   8.216  1.00  0.00     0.045 A 
HETATM   10  C15 UNL     1     -10.171  13.763   8.139  1.00  0.00     0.061 A 
HETATM   11  C16 UNL     1     -10.496  14.918   7.490  1.00  0.00     0.058 A 
HETATM   12  C17 UNL     1      -9.482  15.650   6.860  1.00  0.00     0.087 A 
HETATM   13  C18 UNL     1      -9.812  16.805   6.206  1.00  0.00     0.266 A 
HETATM   14  O5  UNL     1      -9.044  17.554   5.609  1.00  0.00    -0.267 OA
HETATM   15  N4  UNL     1     -11.135  17.174   6.211  1.00  0.00    -0.270 N 
HETATM   16  C19 UNL     1     -11.527  18.399   5.527  1.00  0.00     0.164 C 
HETATM   17  C20 UNL     1     -12.087  16.450   6.824  1.00  0.00     0.331 A 
HETATM   18  O6  UNL     1     -13.299  16.830   6.802  1.00  0.00    -0.246 OA
HETATM   19  N5  UNL     1     -11.788  15.318   7.470  1.00  0.00    -0.303 N 
HETATM   20  C21 UNL     1     -12.802  14.500   8.150  1.00  0.00     0.161 C 
ENDROOT
BRANCH   1  21
HETATM   21  N1  UNL     1      -6.035  12.545   8.456  1.00  0.00    -0.382 N 
HETATM   22  C1  UNL     1      -6.004  11.206   7.860  1.00  0.00     0.150 C 
BRANCH  21  23
HETATM   23  C2  UNL     1      -5.641  12.607   9.817  1.00  0.00     0.156 C 
BRANCH  23  24
HETATM   24  C3  UNL     1      -4.255  12.302  10.205  1.00  0.00     0.159 C 
BRANCH  24  25
HETATM   25  O1  UNL     1      -3.405  13.312  10.506  1.00  0.00    -0.392 OA
ATOM     26  H1  UNL     1      -2.593  13.124  10.962  1.00  0.00     0.210 HD
ENDBRANCH  24  25
BRANCH  24  27
HETATM   27  C4  UNL     1      -4.353  11.424  11.469  1.00  0.00     0.197 C 
BRANCH  27  28
HETATM   28  O2  UNL     1      -5.578  11.714  12.060  1.00  0.00    -0.398 OA
ATOM     29  H2  UNL     1      -6.009  12.344  11.496  1.00  0.00     0.209 HD
ENDBRANCH  27  28
ENDBRANCH  24  27
ENDBRANCH  23  24
ENDBRANCH  21  23
ENDBRANCH   1  21
BRANCH   9  30
HETATM   30  N3  UNL     1      -8.702  11.957   8.724  1.00  0.00    -0.378 N 
ATOM     31  H3  UNL     1      -8.274  11.262   8.111  1.00  0.00     0.160 HD
BRANCH  30  32
HETATM   32  C11 UNL     1      -9.098  11.521  10.070  1.00  0.00     0.044 C 
HETATM   33  C12 UNL     1     -10.620  11.185   9.945  1.00  0.00     0.040 C 
HETATM   34  C13 UNL     1      -8.445  10.307  10.572  1.00  0.00     0.040 C 
BRANCH  32  35
HETATM   35  C14 UNL     1      -9.112  12.692  11.017  1.00  0.00     0.194 C 
BRANCH  35  36
HETATM   36  O4  UNL     1      -8.407  12.370  12.204  1.00  0.00    -0.398 OA
ATOM     37  H4  UNL     1      -8.929  12.594  12.966  1.00  0.00     0.209 HD
ENDBRANCH  35  36
ENDBRANCH  32  35
ENDBRANCH  30  32
ENDBRANCH   9  30
TORSDOF 10
ENDMDL
