MODEL 1
REMARK VINA RESULT: -7.528556828      0.000      0.000
REMARK  9 active torsions:
REMARK  status: ('A' for Active; 'I' for Inactive)
REMARK    1  A    between atoms: C2_3  and  C3_4 
REMARK    2  A    between atoms: C3_4  and  S1_5 
REMARK    3  A    between atoms: S1_5  and  C4_6 
REMARK    4  A    between atoms: C5_9  and  C6_10 
REMARK    5  A    between atoms: C8_18  and  C9_19 
REMARK    6  A    between atoms: C9_19  and  O5_20 
REMARK    7  A    between atoms: C10_22  and  O6_23 
REMARK    8  A    between atoms: C12_29  and  C13_30 
REMARK    9  A    between atoms: C14_31  and  C15_32 
ROOT
HETATM    1  N1  UNL     1      -5.829   8.681  10.976  1.00  0.00    -0.196 NA
HETATM    2  C1  UNL     1      -5.475   9.587  10.349  1.00  0.00     0.072 C 
HETATM    3  C2  UNL     1      -5.076  10.737   9.595  1.00  0.00     0.082 C 
HETATM    4  C7  UNL     1      -5.782  10.635   8.230  1.00  0.00     0.193 C 
HETATM    5  O4  UNL     1      -6.756  11.619   8.195  1.00  0.00    -0.381 OA
HETATM    6  C8  UNL     1      -6.162  12.653   8.897  1.00  0.00     0.163 C 
HETATM    7  C16 UNL     1      -5.767  12.017  10.159  1.00  0.00     0.062 C 
ENDROOT
BRANCH   3   8
HETATM    8  C3  UNL     1      -3.629  10.969   9.444  1.00  0.00     0.110 C 
BRANCH   8   9
HETATM    9  S1  UNL     1      -2.711  11.759  10.721  1.00  0.00    -0.083 SA
BRANCH   9  10
HETATM   10  C4  UNL     1      -2.117  10.670  11.971  1.00  0.00     0.210 A 
HETATM   11  N2  UNL     1      -2.068   9.334  12.056  1.00  0.00    -0.308 N 
HETATM   12  C5  UNL     1      -1.523   8.929  13.214  1.00  0.00     0.206 A 
ATOM     13  H2  UNL     1      -2.405   8.701  11.330  1.00  0.00     0.170 HD
HETATM   14  N3  UNL     1      -1.227  10.086  13.859  1.00  0.00    -0.236 N 
HETATM   15  O3  UNL     1      -1.578  11.090  13.125  1.00  0.00    -0.210 OA
ATOM     16  H3  UNL     1      -0.795  10.154  14.781  1.00  0.00     0.197 HD
BRANCH  12  17
HETATM   17  C6  UNL     1      -1.279   7.589  13.725  1.00  0.00     0.247 C 
HETATM   18  O1  UNL     1      -0.908   6.661  12.943  1.00  0.00    -0.642 OA
HETATM   19  O2  UNL     1      -1.439   7.291  15.054  1.00  0.00    -0.642 OA
ENDBRANCH  12  17
ENDBRANCH   9  10
ENDBRANCH   8   9
ENDBRANCH   3   8
BRANCH   6  20
HETATM   20  C9  UNL     1      -6.915  13.937   8.930  1.00  0.00     0.142 C 
HETATM   21  C10 UNL     1      -8.218  13.906   9.645  1.00  0.00     0.258 C 
HETATM   22  N4  UNL     1      -9.206  13.648   8.658  1.00  0.00    -0.331 N 
HETATM   23  C11 UNL     1      -8.787  14.386   7.524  1.00  0.00     0.230 C 
ATOM     24  H4  UNL     1     -10.035  13.061   8.747  1.00  0.00     0.165 HD
HETATM   25  O7  UNL     1      -9.474  15.011   6.694  1.00  0.00    -0.273 OA
HETATM   26  C12 UNL     1      -7.271  14.256   7.523  1.00  0.00     0.142 C 
BRANCH  20  27
HETATM   27  O5  UNL     1      -6.086  14.872   9.541  1.00  0.00    -0.381 OA
ATOM     28  H5  UNL     1      -6.214  15.694   9.081  1.00  0.00     0.211 HD
ENDBRANCH  20  27
BRANCH  21  29
HETATM   29  O6  UNL     1      -8.299  13.151  10.778  1.00  0.00    -0.373 OA
ATOM     30  H6  UNL     1      -9.057  12.587  10.877  1.00  0.00     0.212 HD
ENDBRANCH  21  29
BRANCH  26  31
HETATM   31  C13 UNL     1      -6.657  15.306   6.790  1.00  0.00    -0.003 C 
HETATM   32  C14 UNL     1      -5.667  15.308   5.964  1.00  0.00     0.081 C 
BRANCH  32  33
HETATM   33  C15 UNL     1      -5.217  16.577   5.321  1.00  0.00     0.198 C 
HETATM   34  O8  UNL     1      -5.749  17.637   5.693  1.00  0.00    -0.645 OA
HETATM   35  O9  UNL     1      -4.247  16.588   4.346  1.00  0.00    -0.645 OA
ENDBRANCH  32  33
ENDBRANCH  26  31
ENDBRANCH   6  20
TORSDOF 9
ENDMDL
MODEL 2
REMARK VINA RESULT: -7.300893296      4.911      7.862
REMARK  9 active torsions:
REMARK  status: ('A' for Active; 'I' for Inactive)
REMARK    1  A    between atoms: C2_3  and  C3_4 
REMARK    2  A    between atoms: C3_4  and  S1_5 
REMARK    3  A    between atoms: S1_5  and  C4_6 
REMARK    4  A    between atoms: C5_9  and  C6_10 
REMARK    5  A    between atoms: C8_18  and  C9_19 
REMARK    6  A    between atoms: C9_19  and  O5_20 
REMARK    7  A    between atoms: C10_22  and  O6_23 
REMARK    8  A    between atoms: C12_29  and  C13_30 
REMARK    9  A    between atoms: C14_31  and  C15_32 
ROOT
HETATM    1  N1  UNL     1      -6.187  11.846  10.517  1.00  0.00    -0.196 NA
HETATM    2  C1  UNL     1      -6.475  12.590   9.679  1.00  0.00     0.072 C 
HETATM    3  C2  UNL     1      -6.877  13.521   8.668  1.00  0.00     0.082 C 
HETATM    4  C7  UNL     1      -7.610  12.708   7.585  1.00  0.00     0.193 C 
HETATM    5  O4  UNL     1      -8.953  13.036   7.661  1.00  0.00    -0.381 OA
HETATM    6  C8  UNL     1      -8.914  14.379   7.996  1.00  0.00     0.163 C 
HETATM    7  C16 UNL     1      -8.056  14.402   9.185  1.00  0.00     0.062 C 
ENDROOT
BRANCH   3   8
HETATM    8  C3  UNL     1      -5.826  14.375   8.089  1.00  0.00     0.110 C 
BRANCH   8   9
HETATM    9  S1  UNL     1      -5.718  14.607   6.347  1.00  0.00    -0.083 SA
BRANCH   9  10
HETATM   10  C4  UNL     1      -5.957  16.269   5.816  1.00  0.00     0.210 A 
HETATM   11  N2  UNL     1      -5.127  17.172   5.275  1.00  0.00    -0.308 N 
HETATM   12  C5  UNL     1      -5.752  18.333   5.026  1.00  0.00     0.206 A 
ATOM     13  H2  UNL     1      -4.142  16.997   5.077  1.00  0.00     0.170 HD
HETATM   14  N3  UNL     1      -7.027  18.116   5.440  1.00  0.00    -0.236 N 
HETATM   15  O3  UNL     1      -7.131  16.912   5.897  1.00  0.00    -0.210 OA
ATOM     16  H3  UNL     1      -7.785  18.796   5.397  1.00  0.00     0.197 HD
BRANCH  12  17
HETATM   17  C6  UNL     1      -5.248  19.572   4.456  1.00  0.00     0.247 C 
HETATM   18  O1  UNL     1      -5.498  20.685   5.013  1.00  0.00    -0.642 OA
HETATM   19  O2  UNL     1      -4.491  19.577   3.311  1.00  0.00    -0.642 OA
ENDBRANCH  12  17
ENDBRANCH   9  10
ENDBRANCH   8   9
ENDBRANCH   3   8
BRANCH   6  20
HETATM   20  C9  UNL     1     -10.226  15.083   8.027  1.00  0.00     0.142 C 
HETATM   21  C10 UNL     1     -11.354  14.325   8.631  1.00  0.00     0.258 C 
HETATM   22  N4  UNL     1     -12.017  13.676   7.556  1.00  0.00    -0.331 N 
HETATM   23  C11 UNL     1     -11.992  14.614   6.495  1.00  0.00     0.230 C 
ATOM     24  H4  UNL     1     -12.423  12.740   7.550  1.00  0.00     0.165 HD
HETATM   25  O7  UNL     1     -12.866  14.859   5.641  1.00  0.00    -0.273 OA
HETATM   26  C12 UNL     1     -10.631  15.285   6.612  1.00  0.00     0.142 C 
BRANCH  20  27
HETATM   27  O5  UNL     1     -10.034  16.258   8.745  1.00  0.00    -0.381 OA
ATOM     28  H5  UNL     1      -9.096  16.406   8.781  1.00  0.00     0.211 HD
ENDBRANCH  20  27
BRANCH  21  29
HETATM   29  O6  UNL     1     -11.081  13.546   9.717  1.00  0.00    -0.373 OA
ATOM     30  H6  UNL     1     -11.642  13.642  10.478  1.00  0.00     0.212 HD
ENDBRANCH  21  29
BRANCH  26  31
HETATM   31  C13 UNL     1     -10.622  16.557   5.980  1.00  0.00    -0.003 C 
HETATM   32  C14 UNL     1     -10.492  16.897   4.743  1.00  0.00     0.081 C 
BRANCH  32  33
HETATM   33  C15 UNL     1     -10.518  18.335   4.344  1.00  0.00     0.198 C 
HETATM   34  O8  UNL     1     -11.524  19.001   4.640  1.00  0.00    -0.645 OA
HETATM   35  O9  UNL     1      -9.471  18.916   3.667  1.00  0.00    -0.645 OA
ENDBRANCH  32  33
ENDBRANCH  26  31
ENDBRANCH   6  20
TORSDOF 9
ENDMDL
MODEL 3
REMARK VINA RESULT: -7.241986475      2.872      9.233
REMARK  9 active torsions:
REMARK  status: ('A' for Active; 'I' for Inactive)
REMARK    1  A    between atoms: C2_3  and  C3_4 
REMARK    2  A    between atoms: C3_4  and  S1_5 
REMARK    3  A    between atoms: S1_5  and  C4_6 
REMARK    4  A    between atoms: C5_9  and  C6_10 
REMARK    5  A    between atoms: C8_18  and  C9_19 
REMARK    6  A    between atoms: C9_19  and  O5_20 
REMARK    7  A    between atoms: C10_22  and  O6_23 
REMARK    8  A    between atoms: C12_29  and  C13_30 
REMARK    9  A    between atoms: C14_31  and  C15_32 
ROOT
HETATM    1  N1  UNL     1      -7.093   7.009  15.716  1.00  0.00    -0.196 NA
HETATM    2  C1  UNL     1      -6.552   7.897  15.209  1.00  0.00     0.072 C 
HETATM    3  C2  UNL     1      -5.837   8.966  14.578  1.00  0.00     0.082 C 
HETATM    4  C7  UNL     1      -5.261   9.839  15.707  1.00  0.00     0.193 C 
HETATM    5  O4  UNL     1      -3.889   9.648  15.718  1.00  0.00    -0.381 OA
HETATM    6  C8  UNL     1      -3.599   9.499  14.372  1.00  0.00     0.163 C 
HETATM    7  C16 UNL     1      -4.514   8.432  13.949  1.00  0.00     0.062 C 
ENDROOT
BRANCH   3   8
HETATM    8  C3  UNL     1      -6.576   9.772  13.590  1.00  0.00     0.110 C 
BRANCH   8   9
HETATM    9  S1  UNL     1      -6.285   9.563  11.866  1.00  0.00    -0.083 SA
BRANCH   9  10
HETATM   10  C4  UNL     1      -5.562  10.959  11.073  1.00  0.00     0.210 A 
HETATM   11  N2  UNL     1      -6.011  11.791  10.123  1.00  0.00    -0.308 N 
HETATM   12  C5  UNL     1      -5.103  12.731   9.817  1.00  0.00     0.206 A 
ATOM     13  H2  UNL     1      -6.930  11.718   9.686  1.00  0.00     0.170 HD
HETATM   14  N3  UNL     1      -4.052  12.449  10.629  1.00  0.00    -0.236 N 
HETATM   15  O3  UNL     1      -4.333  11.416  11.353  1.00  0.00    -0.210 OA
ATOM     16  H3  UNL     1      -3.176  12.970  10.663  1.00  0.00     0.197 HD
BRANCH  12  17
HETATM   17  C6  UNL     1      -5.160  13.820   8.855  1.00  0.00     0.247 C 
HETATM   18  O1  UNL     1      -5.593  13.617   7.679  1.00  0.00    -0.642 OA
HETATM   19  O2  UNL     1      -4.754  15.088   9.186  1.00  0.00    -0.642 OA
ENDBRANCH  12  17
ENDBRANCH   9  10
ENDBRANCH   8   9
ENDBRANCH   3   8
BRANCH   6  20
HETATM   20  C9  UNL     1      -2.155   9.405  14.023  1.00  0.00     0.142 C 
HETATM   21  C10 UNL     1      -1.642  10.451  13.099  1.00  0.00     0.258 C 
HETATM   22  N4  UNL     1      -1.731   9.905  11.791  1.00  0.00    -0.331 N 
HETATM   23  C11 UNL     1      -1.371   8.543  11.942  1.00  0.00     0.230 C 
ATOM     24  H4  UNL     1      -1.995  10.387  10.932  1.00  0.00     0.165 HD
HETATM   25  O7  UNL     1      -0.709   7.815  11.179  1.00  0.00    -0.273 OA
HETATM   26  C12 UNL     1      -1.981   8.133  13.275  1.00  0.00     0.142 C 
BRANCH  20  27
HETATM   27  O5  UNL     1      -1.447   9.471  15.219  1.00  0.00    -0.381 OA
ATOM     28  H5  UNL     1      -1.379  10.392  15.445  1.00  0.00     0.211 HD
ENDBRANCH  20  27
BRANCH  21  29
HETATM   29  O6  UNL     1      -2.128  11.717  13.248  1.00  0.00    -0.373 OA
ATOM     30  H6  UNL     1      -1.826  12.378  12.636  1.00  0.00     0.212 HD
ENDBRANCH  21  29
BRANCH  26  31
HETATM   31  C13 UNL     1      -1.325   6.998  13.822  1.00  0.00    -0.003 C 
HETATM   32  C14 UNL     1      -1.666   5.756  13.875  1.00  0.00     0.081 C 
BRANCH  32  33
HETATM   33  C15 UNL     1      -0.772   4.750  14.521  1.00  0.00     0.198 C 
HETATM   34  O8  UNL     1       0.025   4.131  13.796  1.00  0.00    -0.645 OA
HETATM   35  O9  UNL     1      -0.820   4.504  15.872  1.00  0.00    -0.645 OA
ENDBRANCH  32  33
ENDBRANCH  26  31
ENDBRANCH   6  20
TORSDOF 9
ENDMDL
MODEL 4
REMARK VINA RESULT: -7.237213769      2.540      9.635
REMARK  9 active torsions:
REMARK  status: ('A' for Active; 'I' for Inactive)
REMARK    1  A    between atoms: C2_3  and  C3_4 
REMARK    2  A    between atoms: C3_4  and  S1_5 
REMARK    3  A    between atoms: S1_5  and  C4_6 
REMARK    4  A    between atoms: C5_9  and  C6_10 
REMARK    5  A    between atoms: C8_18  and  C9_19 
REMARK    6  A    between atoms: C9_19  and  O5_20 
REMARK    7  A    between atoms: C10_22  and  O6_23 
REMARK    8  A    between atoms: C12_29  and  C13_30 
REMARK    9  A    between atoms: C14_31  and  C15_32 
ROOT
HETATM    1  N1  UNL     1      -5.942  12.351  14.772  1.00  0.00    -0.196 NA
HETATM    2  C1  UNL     1      -5.395  11.883  13.866  1.00  0.00     0.072 C 
HETATM    3  C2  UNL     1      -4.693  11.269  12.779  1.00  0.00     0.082 C 
HETATM    4  C7  UNL     1      -3.421  12.105  12.548  1.00  0.00     0.193 C 
HETATM    5  O4  UNL     1      -2.344  11.341  12.966  1.00  0.00    -0.381 OA
HETATM    6  C8  UNL     1      -2.732  10.060  12.615  1.00  0.00     0.163 C 
HETATM    7  C16 UNL     1      -4.051   9.926  13.243  1.00  0.00     0.062 C 
ENDROOT
BRANCH   3   8
HETATM    8  C3  UNL     1      -5.445  11.064  11.529  1.00  0.00     0.110 C 
BRANCH   8   9
HETATM    9  S1  UNL     1      -4.666  11.299   9.967  1.00  0.00    -0.083 SA
BRANCH   9  10
HETATM   10  C4  UNL     1      -5.106  12.796   9.151  1.00  0.00     0.210 A 
HETATM   11  N2  UNL     1      -5.487  13.060   7.894  1.00  0.00    -0.308 N 
HETATM   12  C5  UNL     1      -5.726  14.369   7.713  1.00  0.00     0.206 A 
ATOM     13  H2  UNL     1      -5.585  12.354   7.165  1.00  0.00     0.170 HD
HETATM   14  N3  UNL     1      -5.474  14.920   8.928  1.00  0.00    -0.236 N 
HETATM   15  O3  UNL     1      -5.115  13.994   9.754  1.00  0.00    -0.210 OA
ATOM     16  H3  UNL     1      -5.556  15.911   9.155  1.00  0.00     0.197 HD
BRANCH  12  17
HETATM   17  C6  UNL     1      -6.150  15.095   6.527  1.00  0.00     0.247 C 
HETATM   18  O1  UNL     1      -5.340  15.294   5.570  1.00  0.00    -0.642 OA
HETATM   19  O2  UNL     1      -7.428  15.581   6.405  1.00  0.00    -0.642 OA
ENDBRANCH  12  17
ENDBRANCH   9  10
ENDBRANCH   8   9
ENDBRANCH   3   8
BRANCH   6  20
HETATM   20  C9  UNL     1      -1.714   8.991  12.815  1.00  0.00     0.142 C 
HETATM   21  C10 UNL     1      -1.488   8.087  11.658  1.00  0.00     0.258 C 
HETATM   22  N4  UNL     1      -2.333   6.964  11.860  1.00  0.00    -0.331 N 
HETATM   23  C11 UNL     1      -2.281   6.718  13.254  1.00  0.00     0.230 C 
ATOM     24  H4  UNL     1      -2.860   6.447  11.156  1.00  0.00     0.165 HD
HETATM   25  O7  UNL     1      -2.272   5.630  13.862  1.00  0.00    -0.273 OA
HETATM   26  C12 UNL     1      -2.238   8.102  13.884  1.00  0.00     0.142 C 
BRANCH  20  27
HETATM   27  O5  UNL     1      -0.519   9.630  13.131  1.00  0.00    -0.381 OA
ATOM     28  H5  UNL     1      -0.556   9.838  14.057  1.00  0.00     0.211 HD
ENDBRANCH  20  27
BRANCH  21  29
HETATM   29  O6  UNL     1      -1.521   8.637  10.410  1.00  0.00    -0.373 OA
ATOM     30  H6  UNL     1      -0.690   8.842   9.998  1.00  0.00     0.212 HD
ENDBRANCH  21  29
BRANCH  26  31
HETATM   31  C13 UNL     1      -1.689   8.063  15.194  1.00  0.00    -0.003 C 
HETATM   32  C14 UNL     1      -2.089   8.581  16.305  1.00  0.00     0.081 C 
BRANCH  32  33
HETATM   33  C15 UNL     1      -1.308   8.381  17.561  1.00  0.00     0.198 C 
HETATM   34  O8  UNL     1      -0.784   9.379  18.083  1.00  0.00    -0.645 OA
HETATM   35  O9  UNL     1      -1.163   7.139  18.130  1.00  0.00    -0.645 OA
ENDBRANCH  32  33
ENDBRANCH  26  31
ENDBRANCH   6  20
TORSDOF 9
ENDMDL
MODEL 5
REMARK VINA RESULT: -7.220071101      2.518      8.504
REMARK  9 active torsions:
REMARK  status: ('A' for Active; 'I' for Inactive)
REMARK    1  A    between atoms: C2_3  and  C3_4 
REMARK    2  A    between atoms: C3_4  and  S1_5 
REMARK    3  A    between atoms: S1_5  and  C4_6 
REMARK    4  A    between atoms: C5_9  and  C6_10 
REMARK    5  A    between atoms: C8_18  and  C9_19 
REMARK    6  A    between atoms: C9_19  and  O5_20 
REMARK    7  A    between atoms: C10_22  and  O6_23 
REMARK    8  A    between atoms: C12_29  and  C13_30 
REMARK    9  A    between atoms: C14_31  and  C15_32 
ROOT
HETATM    1  N1  UNL     1      -8.785   8.551  10.547  1.00  0.00    -0.196 NA
HETATM    2  C1  UNL     1      -8.239   9.570  10.503  1.00  0.00     0.072 C 
HETATM    3  C2  UNL     1      -7.518  10.807  10.464  1.00  0.00     0.082 C 
HETATM    4  C7  UNL     1      -7.731  11.485  11.829  1.00  0.00     0.193 C 
HETATM    5  O4  UNL     1      -6.527  11.426  12.511  1.00  0.00    -0.381 OA
HETATM    6  C8  UNL     1      -5.600  11.579  11.494  1.00  0.00     0.163 C 
HETATM    7  C16 UNL     1      -5.984  10.538  10.534  1.00  0.00     0.062 C 
ENDROOT
BRANCH   3   8
HETATM    8  C3  UNL     1      -7.820  11.722   9.349  1.00  0.00     0.110 C 
BRANCH   8   9
HETATM    9  S1  UNL     1      -6.737  11.834   7.965  1.00  0.00    -0.083 SA
BRANCH   9  10
HETATM   10  C4  UNL     1      -6.184  13.466   7.603  1.00  0.00     0.210 A 
HETATM   11  N2  UNL     1      -6.185  14.190   6.475  1.00  0.00    -0.308 N 
HETATM   12  C5  UNL     1      -5.653  15.408   6.667  1.00  0.00     0.206 A 
ATOM     13  H2  UNL     1      -6.545  13.857   5.581  1.00  0.00     0.170 HD
HETATM   14  N3  UNL     1      -5.315  15.415   7.982  1.00  0.00    -0.236 N 
HETATM   15  O3  UNL     1      -5.629  14.280   8.513  1.00  0.00    -0.210 OA
ATOM     16  H3  UNL     1      -4.880  16.195   8.475  1.00  0.00     0.197 HD
BRANCH  12  17
HETATM   17  C6  UNL     1      -5.451  16.506   5.736  1.00  0.00     0.247 C 
HETATM   18  O1  UNL     1      -6.179  17.544   5.798  1.00  0.00    -0.642 OA
HETATM   19  O2  UNL     1      -4.475  16.456   4.772  1.00  0.00    -0.642 OA
ENDBRANCH  12  17
ENDBRANCH   9  10
ENDBRANCH   8   9
ENDBRANCH   3   8
BRANCH   6  20
HETATM   20  C9  UNL     1      -4.178  11.694  11.919  1.00  0.00     0.142 C 
HETATM   21  C10 UNL     1      -3.241  12.242  10.903  1.00  0.00     0.258 C 
HETATM   22  N4  UNL     1      -2.682  11.122  10.232  1.00  0.00    -0.331 N 
HETATM   23  C11 UNL     1      -2.488  10.152  11.246  1.00  0.00     0.230 C 
ATOM     24  H4  UNL     1      -2.468  11.036   9.239  1.00  0.00     0.165 HD
HETATM   25  O7  UNL     1      -1.556   9.338  11.388  1.00  0.00    -0.273 OA
HETATM   26  C12 UNL     1      -3.694  10.311  12.161  1.00  0.00     0.142 C 
BRANCH  20  27
HETATM   27  O5  UNL     1      -4.160  12.516  13.041  1.00  0.00    -0.381 OA
ATOM     28  H5  UNL     1      -4.082  11.945  13.797  1.00  0.00     0.211 HD
ENDBRANCH  20  27
BRANCH  21  29
HETATM   29  O6  UNL     1      -3.696  13.248  10.101  1.00  0.00    -0.373 OA
ATOM     30  H6  UNL     1      -4.601  13.205   9.815  1.00  0.00     0.212 HD
ENDBRANCH  21  29
BRANCH  26  31
HETATM   31  C13 UNL     1      -3.434   9.800  13.460  1.00  0.00    -0.003 C 
HETATM   32  C14 UNL     1      -4.222   9.346  14.375  1.00  0.00     0.081 C 
BRANCH  32  33
HETATM   33  C15 UNL     1      -3.675   8.862  15.676  1.00  0.00     0.198 C 
HETATM   34  O8  UNL     1      -3.004   7.816  15.671  1.00  0.00    -0.645 OA
HETATM   35  O9  UNL     1      -3.901   9.540  16.851  1.00  0.00    -0.645 OA
ENDBRANCH  32  33
ENDBRANCH  26  31
ENDBRANCH   6  20
TORSDOF 9
ENDMDL
