MODEL 1
REMARK VINA RESULT: -6.373376366      0.000      0.000
REMARK  11 active torsions:
REMARK  status: ('A' for Active; 'I' for Inactive)
REMARK    1  A    between atoms: C2_2  and  O1_4 
REMARK    2  A    between atoms: O1_4  and  C4_5 
REMARK    3  A    between atoms: C8_10  and  O3_11 
REMARK    4  A    between atoms: O3_11  and  C9_12 
REMARK    5  A    between atoms: C10_13  and  N1_14 
REMARK    6  A    between atoms: C12_19  and  N2_20 
REMARK    7  A    between atoms: C13_24  and  O4_25 
REMARK    8  A    between atoms: O4_25  and  C14_26 
REMARK    9  A    between atoms: C16_28  and  N3_29 
REMARK   10  A    between atoms: C17_33  and  O5_34 
REMARK   11  A    between atoms: C20_39  and  O7_40 
ROOT
HETATM    1  C9  UNL     1      -3.511   9.976  13.439  1.00  0.00     0.186 C 
HETATM    2  C10 UNL     1      -4.283   9.449  12.255  1.00  0.00     0.217 C 
HETATM    3  C11 UNL     1      -3.321   9.343  11.103  1.00  0.00     0.071 C 
HETATM    4  C12 UNL     1      -2.924  10.727  10.639  1.00  0.00     0.217 C 
HETATM    5  C13 UNL     1      -3.156  11.769  11.703  1.00  0.00     0.186 C 
HETATM    6  C20 UNL     1      -2.911  11.286  13.085  1.00  0.00     0.180 C 
ENDROOT
BRANCH   5   7
HETATM    7  O4  UNL     1      -4.357  12.404  11.486  1.00  0.00    -0.351 OA
BRANCH   7   8
HETATM    8  C14 UNL     1      -4.738  12.476  10.157  1.00  0.00     0.263 C 
HETATM    9  C15 UNL     1      -4.902  13.920   9.731  1.00  0.00     0.096 C 
HETATM   10  C16 UNL     1      -5.707  14.062   8.480  1.00  0.00     0.219 C 
HETATM   11  C17 UNL     1      -5.925  12.759   7.746  1.00  0.00     0.177 C 
HETATM   12  C18 UNL     1      -6.273  11.622   8.643  1.00  0.00     0.151 C 
HETATM   13  C19 UNL     1      -5.708  10.314   8.124  1.00  0.00     0.042 C 
HETATM   14  O6  UNL     1      -5.959  11.843   9.971  1.00  0.00    -0.354 OA
BRANCH  10  15
HETATM   15  N3  UNL     1      -7.018  14.660   8.717  1.00  0.00    -0.072 N 
ATOM     16  H33 UNL     1      -7.049  15.125   9.625  1.00  0.00     0.274 HD
ATOM     17  H32 UNL     1      -7.167  15.467   8.112  1.00  0.00     0.274 HD
ATOM     18  H31 UNL     1      -7.779  13.988   8.624  1.00  0.00     0.274 HD
ENDBRANCH  10  15
BRANCH  11  19
HETATM   19  O5  UNL     1      -6.955  12.957   6.827  1.00  0.00    -0.391 OA
ATOM     20  H5  UNL     1      -7.751  12.601   7.204  1.00  0.00     0.210 HD
ENDBRANCH  11  19
ENDBRANCH   7   8
ENDBRANCH   5   7
BRANCH   4  21
HETATM   21  N2  UNL     1      -1.566  10.799  10.199  1.00  0.00    -0.072 N 
ATOM     22  H23 UNL     1      -0.932  10.438  10.912  1.00  0.00     0.274 HD
ATOM     23  H22 UNL     1      -1.386  10.122   9.458  1.00  0.00     0.274 HD
ATOM     24  H21 UNL     1      -1.291  11.738   9.909  1.00  0.00     0.274 HD
ENDBRANCH   4  21
BRANCH   6  25
HETATM   25  O7  UNL     1      -1.529  11.300  13.402  1.00  0.00    -0.390 OA
ATOM     26  H7  UNL     1      -1.112  12.069  13.033  1.00  0.00     0.210 HD
ENDBRANCH   6  25
BRANCH   1  27
HETATM   27  O3  UNL     1      -4.294   9.996  14.592  1.00  0.00    -0.349 OA
BRANCH  27  28
HETATM   28  C8  UNL     1      -3.837   9.079  15.529  1.00  0.00     0.289 C 
HETATM   29  C4  UNL     1      -2.460   8.566  15.319  1.00  0.00     0.179 C 
HETATM   30  C5  UNL     1      -1.965   8.284  16.724  1.00  0.00     0.068 C 
HETATM   31  C6  UNL     1      -2.989   8.935  17.587  1.00  0.00     0.123 C 
HETATM   32  C7  UNL     1      -3.788   7.912  18.364  1.00  0.00     0.040 C 
HETATM   33  O2  UNL     1      -3.833   9.697  16.796  1.00  0.00    -0.354 OA
BRANCH  29  34
HETATM   34  O1  UNL     1      -2.454   7.472  14.511  1.00  0.00    -0.376 OA
BRANCH  34  35
HETATM   35  C2  UNL     1      -1.204   7.084  14.059  1.00  0.00     0.114 C 
HETATM   36  C1  UNL     1      -0.881   7.434  12.655  1.00  0.00     0.039 C 
HETATM   37  C3  UNL     1      -1.218   5.545  14.146  1.00  0.00     0.039 C 
ENDBRANCH  34  35
ENDBRANCH  29  34
ENDBRANCH  27  28
ENDBRANCH   1  27
BRANCH   2  38
HETATM   38  N1  UNL     1      -4.903   8.171  12.537  1.00  0.00    -0.072 N 
ATOM     39  H13 UNL     1      -4.265   7.399  12.341  1.00  0.00     0.274 HD
ATOM     40  H12 UNL     1      -5.021   8.031  13.541  1.00  0.00     0.274 HD
ATOM     41  H11 UNL     1      -5.786   8.057  12.041  1.00  0.00     0.274 HD
ENDBRANCH   2  38
TORSDOF 11
ENDMDL
MODEL 2
REMARK VINA RESULT: -6.173444437      2.107      2.792
REMARK  11 active torsions:
REMARK  status: ('A' for Active; 'I' for Inactive)
REMARK    1  A    between atoms: C2_2  and  O1_4 
REMARK    2  A    between atoms: O1_4  and  C4_5 
REMARK    3  A    between atoms: C8_10  and  O3_11 
REMARK    4  A    between atoms: O3_11  and  C9_12 
REMARK    5  A    between atoms: C10_13  and  N1_14 
REMARK    6  A    between atoms: C12_19  and  N2_20 
REMARK    7  A    between atoms: C13_24  and  O4_25 
REMARK    8  A    between atoms: O4_25  and  C14_26 
REMARK    9  A    between atoms: C16_28  and  N3_29 
REMARK   10  A    between atoms: C17_33  and  O5_34 
REMARK   11  A    between atoms: C20_39  and  O7_40 
ROOT
HETATM    1  C9  UNL     1      -5.526   9.964  13.337  1.00  0.00     0.186 C 
HETATM    2  C10 UNL     1      -6.800  10.770  13.331  1.00  0.00     0.217 C 
HETATM    3  C11 UNL     1      -7.762  10.083  12.401  1.00  0.00     0.071 C 
HETATM    4  C12 UNL     1      -7.284  10.226  10.973  1.00  0.00     0.217 C 
HETATM    5  C13 UNL     1      -5.811  10.533  10.898  1.00  0.00     0.186 C 
HETATM    6  C20 UNL     1      -5.001   9.872  11.952  1.00  0.00     0.180 C 
ENDROOT
BRANCH   5   7
HETATM    7  O4  UNL     1      -5.619  11.887  10.745  1.00  0.00    -0.351 OA
BRANCH   7   8
HETATM    8  C14 UNL     1      -6.267  12.440   9.654  1.00  0.00     0.263 C 
HETATM    9  C15 UNL     1      -5.262  13.011   8.675  1.00  0.00     0.096 C 
HETATM   10  C16 UNL     1      -5.879  13.978   7.717  1.00  0.00     0.219 C 
HETATM   11  C17 UNL     1      -7.390  13.957   7.719  1.00  0.00     0.177 C 
HETATM   12  C18 UNL     1      -7.982  13.894   9.085  1.00  0.00     0.151 C 
HETATM   13  C19 UNL     1      -9.269  13.092   9.094  1.00  0.00     0.042 C 
HETATM   14  O6  UNL     1      -7.094  13.478  10.060  1.00  0.00    -0.354 OA
BRANCH  10  15
HETATM   15  N3  UNL     1      -5.457  15.355   7.957  1.00  0.00    -0.072 N 
ATOM     16  H33 UNL     1      -6.097  15.829   8.595  1.00  0.00     0.274 HD
ATOM     17  H32 UNL     1      -4.608  15.385   8.522  1.00  0.00     0.274 HD
ATOM     18  H31 UNL     1      -5.340  15.887   7.095  1.00  0.00     0.274 HD
ENDBRANCH  10  15
BRANCH  11  19
HETATM   19  O5  UNL     1      -7.832  15.112   7.075  1.00  0.00    -0.391 OA
ATOM     20  H5  UNL     1      -8.363  14.845   6.335  1.00  0.00     0.210 HD
ENDBRANCH  11  19
ENDBRANCH   7   8
ENDBRANCH   5   7
BRANCH   4  21
HETATM   21  N2  UNL     1      -7.565   9.074  10.173  1.00  0.00    -0.072 N 
ATOM     22  H23 UNL     1      -8.461   8.661  10.432  1.00  0.00     0.274 HD
ATOM     23  H22 UNL     1      -7.777   9.341   9.212  1.00  0.00     0.274 HD
ATOM     24  H21 UNL     1      -6.820   8.378  10.203  1.00  0.00     0.274 HD
ENDBRANCH   4  21
BRANCH   6  25
HETATM   25  O7  UNL     1      -4.716   8.524  11.618  1.00  0.00    -0.390 OA
ATOM     26  H7  UNL     1      -3.785   8.351  11.699  1.00  0.00     0.210 HD
ENDBRANCH   6  25
BRANCH   1  27
HETATM   27  O3  UNL     1      -4.612  10.458  14.265  1.00  0.00    -0.349 OA
BRANCH  27  28
HETATM   28  C8  UNL     1      -4.003   9.429  14.972  1.00  0.00     0.289 C 
HETATM   29  C4  UNL     1      -2.538   9.289  14.783  1.00  0.00     0.179 C 
HETATM   30  C5  UNL     1      -2.057   8.734  16.110  1.00  0.00     0.068 C 
HETATM   31  C6  UNL     1      -3.240   8.894  16.999  1.00  0.00     0.123 C 
HETATM   32  C7  UNL     1      -3.822   7.553  17.392  1.00  0.00     0.040 C 
HETATM   33  O2  UNL     1      -4.198   9.656  16.351  1.00  0.00    -0.354 OA
BRANCH  29  34
HETATM   34  O1  UNL     1      -2.247   8.490  13.723  1.00  0.00    -0.376 OA
BRANCH  34  35
HETATM   35  C2  UNL     1      -1.241   8.957  12.894  1.00  0.00     0.114 C 
HETATM   36  C1  UNL     1      -1.482  10.273  12.254  1.00  0.00     0.039 C 
HETATM   37  C3  UNL     1      -1.153   7.916  11.761  1.00  0.00     0.039 C 
ENDBRANCH  34  35
ENDBRANCH  29  34
ENDBRANCH  27  28
ENDBRANCH   1  27
BRANCH   2  38
HETATM   38  N1  UNL     1      -7.363  10.904  14.659  1.00  0.00    -0.072 N 
ATOM     39  H13 UNL     1      -8.365  11.091  14.619  1.00  0.00     0.274 HD
ATOM     40  H12 UNL     1      -7.385  10.007  15.144  1.00  0.00     0.274 HD
ATOM     41  H11 UNL     1      -6.877  11.611  15.210  1.00  0.00     0.274 HD
ENDBRANCH   2  38
TORSDOF 11
ENDMDL
MODEL 3
REMARK VINA RESULT: -6.115434751      3.328      5.720
REMARK  11 active torsions:
REMARK  status: ('A' for Active; 'I' for Inactive)
REMARK    1  A    between atoms: C2_2  and  O1_4 
REMARK    2  A    between atoms: O1_4  and  C4_5 
REMARK    3  A    between atoms: C8_10  and  O3_11 
REMARK    4  A    between atoms: O3_11  and  C9_12 
REMARK    5  A    between atoms: C10_13  and  N1_14 
REMARK    6  A    between atoms: C12_19  and  N2_20 
REMARK    7  A    between atoms: C13_24  and  O4_25 
REMARK    8  A    between atoms: O4_25  and  C14_26 
REMARK    9  A    between atoms: C16_28  and  N3_29 
REMARK   10  A    between atoms: C17_33  and  O5_34 
REMARK   11  A    between atoms: C20_39  and  O7_40 
ROOT
HETATM    1  C9  UNL     1      -5.881  12.580   9.464  1.00  0.00     0.186 C 
HETATM    2  C10 UNL     1      -6.848  11.868   8.551  1.00  0.00     0.217 C 
HETATM    3  C11 UNL     1      -6.589  12.358   7.153  1.00  0.00     0.071 C 
HETATM    4  C12 UNL     1      -7.030  13.800   7.027  1.00  0.00     0.217 C 
HETATM    5  C13 UNL     1      -7.114  14.485   8.366  1.00  0.00     0.186 C 
HETATM    6  C20 UNL     1      -6.079  14.044   9.336  1.00  0.00     0.180 C 
ENDROOT
BRANCH   5   7
HETATM    7  O4  UNL     1      -8.413  14.477   8.819  1.00  0.00    -0.351 OA
BRANCH   7   8
HETATM    8  C14 UNL     1      -9.370  14.444   7.820  1.00  0.00     0.263 C 
HETATM    9  C15 UNL     1      -9.747  15.850   7.402  1.00  0.00     0.096 C 
HETATM   10  C16 UNL     1     -11.045  15.901   6.663  1.00  0.00     0.219 C 
HETATM   11  C17 UNL     1     -11.550  14.545   6.225  1.00  0.00     0.177 C 
HETATM   12  C18 UNL     1     -11.413  13.494   7.271  1.00  0.00     0.151 C 
HETATM   13  C19 UNL     1     -11.124  12.137   6.658  1.00  0.00     0.042 C 
HETATM   14  O6  UNL     1     -10.522  13.820   8.277  1.00  0.00    -0.354 OA
BRANCH  10  15
HETATM   15  N3  UNL     1     -12.108  16.540   7.433  1.00  0.00    -0.072 N 
ATOM     16  H33 UNL     1     -11.896  16.526   8.431  1.00  0.00     0.274 HD
ATOM     17  H32 UNL     1     -12.116  17.548   7.280  1.00  0.00     0.274 HD
ATOM     18  H31 UNL     1     -13.025  16.135   7.249  1.00  0.00     0.274 HD
ENDBRANCH  10  15
BRANCH  11  19
HETATM   19  O5  UNL     1     -12.893  14.684   5.879  1.00  0.00    -0.391 OA
ATOM     20  H5  UNL     1     -13.386  14.819   6.679  1.00  0.00     0.210 HD
ENDBRANCH  11  19
ENDBRANCH   7   8
ENDBRANCH   5   7
BRANCH   4  21
HETATM   21  N2  UNL     1      -6.190  14.566   6.159  1.00  0.00    -0.072 N 
ATOM     22  H23 UNL     1      -5.675  15.273   6.682  1.00  0.00     0.274 HD
ATOM     23  H22 UNL     1      -5.408  14.005   5.822  1.00  0.00     0.274 HD
ATOM     24  H21 UNL     1      -6.700  14.986   5.382  1.00  0.00     0.274 HD
ENDBRANCH   4  21
BRANCH   6  25
HETATM   25  O7  UNL     1      -4.841  14.694   9.104  1.00  0.00    -0.390 OA
ATOM     26  H7  UNL     1      -4.943  15.383   8.458  1.00  0.00     0.210 HD
ENDBRANCH   6  25
BRANCH   1  27
HETATM   27  O3  UNL     1      -5.963  12.101  10.770  1.00  0.00    -0.349 OA
BRANCH  27  28
HETATM   28  C8  UNL     1      -4.755  11.557  11.186  1.00  0.00     0.289 C 
HETATM   29  C4  UNL     1      -3.915  10.951  10.124  1.00  0.00     0.179 C 
HETATM   30  C5  UNL     1      -2.499  11.164  10.622  1.00  0.00     0.068 C 
HETATM   31  C6  UNL     1      -2.672  12.116  11.753  1.00  0.00     0.123 C 
HETATM   32  C7  UNL     1      -2.345  11.464  13.079  1.00  0.00     0.040 C 
HETATM   33  O2  UNL     1      -3.976  12.582  11.762  1.00  0.00    -0.354 OA
BRANCH  29  34
HETATM   34  O1  UNL     1      -4.230   9.643   9.925  1.00  0.00    -0.376 OA
BRANCH  34  35
HETATM   35  C2  UNL     1      -4.272   8.869  11.072  1.00  0.00     0.114 C 
HETATM   36  C1  UNL     1      -3.163   7.900  11.247  1.00  0.00     0.039 C 
HETATM   37  C3  UNL     1      -5.570   8.048  10.942  1.00  0.00     0.039 C 
ENDBRANCH  34  35
ENDBRANCH  29  34
ENDBRANCH  27  28
ENDBRANCH   1  27
BRANCH   2  38
HETATM   38  N1  UNL     1      -6.711  10.428   8.633  1.00  0.00    -0.072 N 
ATOM     39  H13 UNL     1      -7.618   9.976   8.748  1.00  0.00     0.274 HD
ATOM     40  H12 UNL     1      -6.445  10.030   7.733  1.00  0.00     0.274 HD
ATOM     41  H11 UNL     1      -6.062  10.147   9.368  1.00  0.00     0.274 HD
ENDBRANCH   2  38
TORSDOF 11
ENDMDL
MODEL 4
REMARK VINA RESULT: -6.063877266      3.116      8.960
REMARK  11 active torsions:
REMARK  status: ('A' for Active; 'I' for Inactive)
REMARK    1  A    between atoms: C2_2  and  O1_4 
REMARK    2  A    between atoms: O1_4  and  C4_5 
REMARK    3  A    between atoms: C8_10  and  O3_11 
REMARK    4  A    between atoms: O3_11  and  C9_12 
REMARK    5  A    between atoms: C10_13  and  N1_14 
REMARK    6  A    between atoms: C12_19  and  N2_20 
REMARK    7  A    between atoms: C13_24  and  O4_25 
REMARK    8  A    between atoms: O4_25  and  C14_26 
REMARK    9  A    between atoms: C16_28  and  N3_29 
REMARK   10  A    between atoms: C17_33  and  O5_34 
REMARK   11  A    between atoms: C20_39  and  O7_40 
ROOT
HETATM    1  C9  UNL     1      -7.185  13.129   9.307  1.00  0.00     0.186 C 
HETATM    2  C10 UNL     1      -5.867  13.814   9.052  1.00  0.00     0.217 C 
HETATM    3  C11 UNL     1      -4.979  12.830   8.339  1.00  0.00     0.071 C 
HETATM    4  C12 UNL     1      -4.587  11.717   9.285  1.00  0.00     0.217 C 
HETATM    5  C13 UNL     1      -5.537  11.602  10.449  1.00  0.00     0.186 C 
HETATM    6  C20 UNL     1      -6.951  11.902  10.107  1.00  0.00     0.180 C 
ENDROOT
BRANCH   5   7
HETATM    7  O4  UNL     1      -5.025  12.260  11.543  1.00  0.00    -0.351 OA
BRANCH   7   8
HETATM    8  C14 UNL     1      -4.395  11.441  12.464  1.00  0.00     0.263 C 
HETATM    9  C15 UNL     1      -2.941  11.837  12.618  1.00  0.00     0.096 C 
HETATM   10  C16 UNL     1      -2.116  10.761  13.246  1.00  0.00     0.219 C 
HETATM   11  C17 UNL     1      -2.933   9.650  13.864  1.00  0.00     0.177 C 
HETATM   12  C18 UNL     1      -4.077   9.211  13.017  1.00  0.00     0.151 C 
HETATM   13  C19 UNL     1      -5.262   8.787  13.863  1.00  0.00     0.042 C 
HETATM   14  O6  UNL     1      -4.427  10.121  12.036  1.00  0.00    -0.354 OA
BRANCH  10  15
HETATM   15  N3  UNL     1      -1.178  10.150  12.308  1.00  0.00    -0.072 N 
ATOM     16  H33 UNL     1      -1.664   9.535  11.654  1.00  0.00     0.274 HD
ATOM     17  H32 UNL     1      -0.817  10.840  11.650  1.00  0.00     0.274 HD
ATOM     18  H31 UNL     1      -0.417   9.658  12.776  1.00  0.00     0.274 HD
ENDBRANCH  10  15
BRANCH  11  19
HETATM   19  O5  UNL     1      -2.081   8.570  14.088  1.00  0.00    -0.391 OA
ATOM     20  H5  UNL     1      -2.181   8.305  14.994  1.00  0.00     0.210 HD
ENDBRANCH  11  19
ENDBRANCH   7   8
ENDBRANCH   5   7
BRANCH   4  21
HETATM   21  N2  UNL     1      -4.481  10.447   8.638  1.00  0.00    -0.072 N 
ATOM     22  H23 UNL     1      -4.850   9.704   9.230  1.00  0.00     0.274 HD
ATOM     23  H22 UNL     1      -5.135  10.379   7.858  1.00  0.00     0.274 HD
ATOM     24  H21 UNL     1      -3.530  10.234   8.335  1.00  0.00     0.274 HD
ENDBRANCH   4  21
BRANCH   6  25
HETATM   25  O7  UNL     1      -7.586  10.788   9.504  1.00  0.00    -0.390 OA
ATOM     26  H7  UNL     1      -7.447  10.004  10.023  1.00  0.00     0.210 HD
ENDBRANCH   6  25
BRANCH   1  27
HETATM   27  O3  UNL     1      -8.118  14.004   9.859  1.00  0.00    -0.349 OA
BRANCH  27  28
HETATM   28  C8  UNL     1      -9.314  13.981   9.153  1.00  0.00     0.289 C 
HETATM   29  C4  UNL     1      -9.199  14.081   7.677  1.00  0.00     0.179 C 
HETATM   30  C5  UNL     1     -10.392  13.293   7.171  1.00  0.00     0.068 C 
HETATM   31  C6  UNL     1     -10.883  12.591   8.388  1.00  0.00     0.123 C 
HETATM   32  C7  UNL     1     -12.237  13.113   8.820  1.00  0.00     0.040 C 
HETATM   33  O2  UNL     1      -9.963  12.755   9.411  1.00  0.00    -0.354 OA
BRANCH  29  34
HETATM   34  O1  UNL     1      -9.191  15.377   7.265  1.00  0.00    -0.376 OA
BRANCH  34  35
HETATM   35  C2  UNL     1     -10.389  15.836   6.745  1.00  0.00     0.114 C 
HETATM   36  C1  UNL     1     -10.306  16.546   5.446  1.00  0.00     0.039 C 
HETATM   37  C3  UNL     1     -10.901  16.854   7.782  1.00  0.00     0.039 C 
ENDBRANCH  34  35
ENDBRANCH  29  34
ENDBRANCH  27  28
ENDBRANCH   1  27
BRANCH   2  38
HETATM   38  N1  UNL     1      -6.027  15.028   8.278  1.00  0.00    -0.072 N 
ATOM     39  H13 UNL     1      -6.769  14.930   7.585  1.00  0.00     0.274 HD
ATOM     40  H12 UNL     1      -6.431  15.776   8.843  1.00  0.00     0.274 HD
ATOM     41  H11 UNL     1      -5.152  15.324   7.845  1.00  0.00     0.274 HD
ENDBRANCH   2  38
TORSDOF 11
ENDMDL
MODEL 5
REMARK VINA RESULT: -6.010673104      3.308      8.809
REMARK  11 active torsions:
REMARK  status: ('A' for Active; 'I' for Inactive)
REMARK    1  A    between atoms: C2_2  and  O1_4 
REMARK    2  A    between atoms: O1_4  and  C4_5 
REMARK    3  A    between atoms: C8_10  and  O3_11 
REMARK    4  A    between atoms: O3_11  and  C9_12 
REMARK    5  A    between atoms: C10_13  and  N1_14 
REMARK    6  A    between atoms: C12_19  and  N2_20 
REMARK    7  A    between atoms: C13_24  and  O4_25 
REMARK    8  A    between atoms: O4_25  and  C14_26 
REMARK    9  A    between atoms: C16_28  and  N3_29 
REMARK   10  A    between atoms: C17_33  and  O5_34 
REMARK   11  A    between atoms: C20_39  and  O7_40 
ROOT
HETATM    1  C9  UNL     1      -7.141  13.249   9.349  1.00  0.00     0.186 C 
HETATM    2  C10 UNL     1      -5.792  13.820   8.994  1.00  0.00     0.217 C 
HETATM    3  C11 UNL     1      -5.015  12.738   8.294  1.00  0.00     0.071 C 
HETATM    4  C12 UNL     1      -4.655  11.648   9.279  1.00  0.00     0.217 C 
HETATM    5  C13 UNL     1      -5.550  11.662  10.491  1.00  0.00     0.186 C 
HETATM    6  C20 UNL     1      -6.954  12.049  10.202  1.00  0.00     0.180 C 
ENDROOT
BRANCH   5   7
HETATM    7  O4  UNL     1      -4.935  12.334  11.522  1.00  0.00    -0.351 OA
BRANCH   7   8
HETATM    8  C14 UNL     1      -4.334  11.517  12.464  1.00  0.00     0.263 C 
HETATM    9  C15 UNL     1      -2.860  11.844  12.584  1.00  0.00     0.096 C 
HETATM   10  C16 UNL     1      -2.081  10.751  13.240  1.00  0.00     0.219 C 
HETATM   11  C17 UNL     1      -2.944   9.705  13.909  1.00  0.00     0.177 C 
HETATM   12  C18 UNL     1      -4.121   9.295  13.094  1.00  0.00     0.151 C 
HETATM   13  C19 UNL     1      -5.314   8.963  13.970  1.00  0.00     0.042 C 
HETATM   14  O6  UNL     1      -4.439  10.187  12.085  1.00  0.00    -0.354 OA
BRANCH  10  15
HETATM   15  N3  UNL     1      -1.190  10.059  12.313  1.00  0.00    -0.072 N 
ATOM     16  H33 UNL     1      -1.592  10.024  11.376  1.00  0.00     0.274 HD
ATOM     17  H32 UNL     1      -0.361  10.619  12.116  1.00  0.00     0.274 HD
ATOM     18  H31 UNL     1      -0.932   9.127  12.636  1.00  0.00     0.274 HD
ENDBRANCH  10  15
BRANCH  11  19
HETATM   19  O5  UNL     1      -2.144   8.592  14.160  1.00  0.00    -0.391 OA
ATOM     20  H5  UNL     1      -2.542   7.845  13.727  1.00  0.00     0.210 HD
ENDBRANCH  11  19
ENDBRANCH   7   8
ENDBRANCH   5   7
BRANCH   4  21
HETATM   21  N2  UNL     1      -4.674  10.342   8.696  1.00  0.00    -0.072 N 
ATOM     22  H23 UNL     1      -5.456   9.795   9.055  1.00  0.00     0.274 HD
ATOM     23  H22 UNL     1      -4.940  10.386   7.712  1.00  0.00     0.274 HD
ATOM     24  H21 UNL     1      -3.793   9.842   8.814  1.00  0.00     0.274 HD
ENDBRANCH   4  21
BRANCH   6  25
HETATM   25  O7  UNL     1      -7.698  10.957   9.691  1.00  0.00    -0.390 OA
ATOM     26  H7  UNL     1      -7.560  10.182  10.224  1.00  0.00     0.210 HD
ENDBRANCH   6  25
BRANCH   1  27
HETATM   27  O3  UNL     1      -7.979  14.217   9.897  1.00  0.00    -0.349 OA
BRANCH  27  28
HETATM   28  C8  UNL     1      -9.206  14.252   9.247  1.00  0.00     0.289 C 
HETATM   29  C4  UNL     1     -10.090  15.393   9.590  1.00  0.00     0.179 C 
HETATM   30  C5  UNL     1     -10.877  15.631   8.315  1.00  0.00     0.068 C 
HETATM   31  C6  UNL     1     -10.158  14.805   7.307  1.00  0.00     0.123 C 
HETATM   32  C7  UNL     1     -11.004  13.641   6.840  1.00  0.00     0.040 C 
HETATM   33  O2  UNL     1      -8.975  14.341   7.859  1.00  0.00    -0.354 OA
BRANCH  29  34
HETATM   34  O1  UNL     1     -10.872  15.112  10.666  1.00  0.00    -0.376 OA
BRANCH  34  35
HETATM   35  C2  UNL     1     -10.738  15.986  11.732  1.00  0.00     0.114 C 
HETATM   36  C1  UNL     1      -9.960  17.221  11.470  1.00  0.00     0.039 C 
HETATM   37  C3  UNL     1      -9.965  15.186  12.798  1.00  0.00     0.039 C 
ENDBRANCH  34  35
ENDBRANCH  29  34
ENDBRANCH  27  28
ENDBRANCH   1  27
BRANCH   2  38
HETATM   38  N1  UNL     1      -5.904  15.002   8.165  1.00  0.00    -0.072 N 
ATOM     39  H13 UNL     1      -6.771  14.996   7.627  1.00  0.00     0.274 HD
ATOM     40  H12 UNL     1      -6.071  15.836   8.730  1.00  0.00     0.274 HD
ATOM     41  H11 UNL     1      -5.093  15.123   7.559  1.00  0.00     0.274 HD
ENDBRANCH   2  38
TORSDOF 11
ENDMDL
