MODEL 1
REMARK VINA RESULT: -6.149291712      0.000      0.000
REMARK  13 active torsions:
REMARK  status: ('A' for Active; 'I' for Inactive)
REMARK    1  A    between atoms: O1_2  and  C2_3 
REMARK    2  A    between atoms: C2_3  and  C3_5 
REMARK    3  A    between atoms: C3_5  and  C5_7 
REMARK    4  A    between atoms: C3_5  and  O6_37 
REMARK    5  A    between atoms: C6_8  and  C7_9 
REMARK    6  A    between atoms: C16_18  and  C17_19 
REMARK    7  A    between atoms: C16_18  and  C18_22 
REMARK    8  A    between atoms: C17_19  and  O3_20 
REMARK    9  A    between atoms: C18_22  and  O4_23 
REMARK   10  A    between atoms: C19_25  and  C20_26 
REMARK   11  A    between atoms: C20_26  and  C21_27 
REMARK   12  A    between atoms: C21_27  and  O5_30 
REMARK   13  A    between atoms: O6_37  and  O7_38 
ROOT
HETATM    1  C7  UNL     1      -0.190  23.799  21.148  1.00  0.00     0.017 C 
HETATM    2  C8  UNL     1       0.715  22.678  21.549  1.00  0.00     0.009 C 
HETATM    3  C9  UNL     1       1.967  23.243  22.125  1.00  0.00     0.001 C 
HETATM    4  C10 UNL     1       2.080  24.705  21.829  1.00  0.00     0.010 C 
HETATM    5  C11 UNL     1       1.807  25.019  20.352  1.00  0.00    -0.032 C 
HETATM    6  C12 UNL     1       2.821  24.148  19.593  1.00  0.00     0.016 C 
HETATM    7  C13 UNL     1       2.239  26.433  20.142  1.00  0.00    -0.001 C 
HETATM    8  C14 UNL     1       2.841  26.673  18.787  1.00  0.00     0.007 C 
HETATM    9  C15 UNL     1       3.218  28.072  18.543  1.00  0.00     0.014 C 
HETATM   10  C16 UNL     1       2.398  29.159  19.136  1.00  0.00     0.006 C 
HETATM   11  C19 UNL     1       1.657  28.776  20.392  1.00  0.00     0.005 C 
HETATM   12  C24 UNL     1       1.099  27.412  20.373  1.00  0.00    -0.005 C 
HETATM   13  C25 UNL     1       0.064  27.075  19.377  1.00  0.00     0.006 C 
HETATM   14  C26 UNL     1      -0.558  25.761  19.796  1.00  0.00     0.011 C 
HETATM   15  C27 UNL     1       0.420  24.664  20.036  1.00  0.00    -0.029 C 
HETATM   16  C28 UNL     1       0.385  23.768  18.787  1.00  0.00     0.016 C 
ENDROOT
BRANCH   1  17
HETATM   17  C6  UNL     1      -1.545  23.324  20.751  1.00  0.00    -0.022 C 
HETATM   18  C5  UNL     1      -2.239  22.463  21.479  1.00  0.00     0.020 C 
BRANCH  18  19
HETATM   19  C3  UNL     1      -3.590  22.036  21.013  1.00  0.00     0.197 C 
HETATM   20  C4  UNL     1      -4.593  23.166  21.209  1.00  0.00     0.065 C 
BRANCH  19  21
HETATM   21  C2  UNL     1      -3.586  21.543  19.635  1.00  0.00     0.300 C 
HETATM   22  O2  UNL     1      -4.234  22.150  18.747  1.00  0.00    -0.261 OA
BRANCH  21  23
HETATM   23  O1  UNL     1      -2.886  20.412  19.252  1.00  0.00    -0.324 OA
HETATM   24  C1  UNL     1      -1.902  20.458  18.219  1.00  0.00     0.213 C 
ENDBRANCH  21  23
ENDBRANCH  19  21
BRANCH  19  25
HETATM   25  O6  UNL     1      -3.993  21.013  21.885  1.00  0.00    -0.218 OA
BRANCH  25  26
HETATM   26  O7  UNL     1      -4.989  20.323  21.333  1.00  0.00    -0.249 OA
ATOM     27  H7  UNL     1      -4.719  19.421  21.206  1.00  0.00     0.253 HD
ENDBRANCH  25  26
ENDBRANCH  19  25
ENDBRANCH  18  19
ENDBRANCH   1  17
BRANCH  11  28
HETATM   28  C20 UNL     1       0.710  29.837  20.823  1.00  0.00     0.043 C 
BRANCH  28  29
HETATM   29  C21 UNL     1       0.902  30.358  22.226  1.00  0.00     0.051 C 
HETATM   30  C22 UNL     1       2.111  29.772  22.916  1.00  0.00     0.045 C 
HETATM   31  C23 UNL     1       1.269  31.862  22.050  1.00  0.00     0.045 C 
BRANCH  29  32
HETATM   32  O5  UNL     1      -0.206  30.356  23.020  1.00  0.00    -0.391 OA
ATOM     33  H5  UNL     1      -0.684  31.176  23.069  1.00  0.00     0.210 HD
ENDBRANCH  29  32
ENDBRANCH  28  29
ENDBRANCH  11  28
BRANCH  10  34
HETATM   34  C17 UNL     1       1.497  29.831  18.124  1.00  0.00     0.176 C 
BRANCH  34  35
HETATM   35  O3  UNL     1       1.830  29.431  16.820  1.00  0.00    -0.400 OA
ATOM     36  H3  UNL     1       2.726  29.670  16.613  1.00  0.00     0.209 HD
ENDBRANCH  34  35
ENDBRANCH  10  34
BRANCH  10  37
HETATM   37  C18 UNL     1       3.397  30.258  19.550  1.00  0.00     0.176 C 
BRANCH  37  38
HETATM   38  O4  UNL     1       3.153  31.347  18.716  1.00  0.00    -0.400 OA
ATOM     39  H4  UNL     1       3.603  32.089  19.104  1.00  0.00     0.209 HD
ENDBRANCH  37  38
ENDBRANCH  10  37
TORSDOF 13
ENDMDL
MODEL 2
REMARK VINA RESULT: -5.667435485      5.588      8.357
REMARK  13 active torsions:
REMARK  status: ('A' for Active; 'I' for Inactive)
REMARK    1  A    between atoms: O1_2  and  C2_3 
REMARK    2  A    between atoms: C2_3  and  C3_5 
REMARK    3  A    between atoms: C3_5  and  C5_7 
REMARK    4  A    between atoms: C3_5  and  O6_37 
REMARK    5  A    between atoms: C6_8  and  C7_9 
REMARK    6  A    between atoms: C16_18  and  C17_19 
REMARK    7  A    between atoms: C16_18  and  C18_22 
REMARK    8  A    between atoms: C17_19  and  O3_20 
REMARK    9  A    between atoms: C18_22  and  O4_23 
REMARK   10  A    between atoms: C19_25  and  C20_26 
REMARK   11  A    between atoms: C20_26  and  C21_27 
REMARK   12  A    between atoms: C21_27  and  O5_30 
REMARK   13  A    between atoms: O6_37  and  O7_38 
ROOT
HETATM    1  C7  UNL     1       7.024  24.279  18.645  1.00  0.00     0.017 C 
HETATM    2  C8  UNL     1       8.304  24.935  19.054  1.00  0.00     0.009 C 
HETATM    3  C9  UNL     1       8.092  25.664  20.335  1.00  0.00     0.001 C 
HETATM    4  C10 UNL     1       6.633  25.798  20.640  1.00  0.00     0.010 C 
HETATM    5  C11 UNL     1       5.834  26.298  19.429  1.00  0.00    -0.032 C 
HETATM    6  C12 UNL     1       6.517  27.623  19.054  1.00  0.00     0.016 C 
HETATM    7  C13 UNL     1       4.482  26.664  19.948  1.00  0.00    -0.001 C 
HETATM    8  C14 UNL     1       3.884  27.855  19.255  1.00  0.00     0.007 C 
HETATM    9  C15 UNL     1       2.529  28.192  19.714  1.00  0.00     0.014 C 
HETATM   10  C16 UNL     1       1.610  27.101  20.127  1.00  0.00     0.006 C 
HETATM   11  C19 UNL     1       2.295  25.853  20.623  1.00  0.00     0.005 C 
HETATM   12  C24 UNL     1       3.513  25.494  19.874  1.00  0.00    -0.005 C 
HETATM   13  C25 UNL     1       3.400  25.148  18.445  1.00  0.00     0.006 C 
HETATM   14  C26 UNL     1       4.704  24.505  18.029  1.00  0.00     0.011 C 
HETATM   15  C27 UNL     1       5.918  25.304  18.355  1.00  0.00    -0.029 C 
HETATM   16  C28 UNL     1       6.356  25.985  17.049  1.00  0.00     0.016 C 
ENDROOT
BRANCH   1  17
HETATM   17  C6  UNL     1       7.199  23.362  17.483  1.00  0.00    -0.022 C 
HETATM   18  C5  UNL     1       8.308  22.666  17.287  1.00  0.00     0.020 C 
BRANCH  18  19
HETATM   19  C3  UNL     1       8.406  21.770  16.099  1.00  0.00     0.197 C 
HETATM   20  C4  UNL     1       8.079  22.545  14.828  1.00  0.00     0.065 C 
BRANCH  19  21
HETATM   21  C2  UNL     1       9.699  21.090  16.005  1.00  0.00     0.300 C 
HETATM   22  O2  UNL     1      10.105  20.658  14.899  1.00  0.00    -0.261 OA
BRANCH  21  23
HETATM   23  O1  UNL     1      10.517  20.896  17.104  1.00  0.00    -0.324 OA
HETATM   24  C1  UNL     1      11.927  21.103  17.030  1.00  0.00     0.213 C 
ENDBRANCH  21  23
ENDBRANCH  19  21
BRANCH  19  25
HETATM   25  O6  UNL     1       7.379  20.825  16.244  1.00  0.00    -0.218 OA
BRANCH  25  26
HETATM   26  O7  UNL     1       7.883  19.685  16.710  1.00  0.00    -0.249 OA
ATOM     27  H7  UNL     1       7.295  19.318  17.360  1.00  0.00     0.253 HD
ENDBRANCH  25  26
ENDBRANCH  19  25
ENDBRANCH  18  19
ENDBRANCH   1  17
BRANCH  11  28
HETATM   28  C20 UNL     1       1.335  24.739  20.834  1.00  0.00     0.043 C 
BRANCH  28  29
HETATM   29  C21 UNL     1       1.759  23.687  21.830  1.00  0.00     0.051 C 
HETATM   30  C22 UNL     1       0.593  23.041  22.541  1.00  0.00     0.045 C 
HETATM   31  C23 UNL     1       2.350  22.532  20.966  1.00  0.00     0.045 C 
BRANCH  29  32
HETATM   32  O5  UNL     1       2.762  24.040  22.682  1.00  0.00    -0.391 OA
ATOM     33  H5  UNL     1       3.155  23.331  23.177  1.00  0.00     0.210 HD
ENDBRANCH  29  32
ENDBRANCH  28  29
ENDBRANCH  11  28
BRANCH  10  34
HETATM   34  C17 UNL     1       0.556  26.798  19.085  1.00  0.00     0.176 C 
BRANCH  34  35
HETATM   35  O3  UNL     1       0.559  27.776  18.077  1.00  0.00    -0.400 OA
ATOM     36  H3  UNL     1       1.141  27.527  17.369  1.00  0.00     0.209 HD
ENDBRANCH  34  35
ENDBRANCH  10  34
BRANCH  10  37
HETATM   37  C18 UNL     1       0.815  27.656  21.326  1.00  0.00     0.176 C 
BRANCH  37  38
HETATM   38  O4  UNL     1      -0.390  28.131  20.816  1.00  0.00    -0.400 OA
ATOM     39  H4  UNL     1      -1.020  28.086  21.526  1.00  0.00     0.209 HD
ENDBRANCH  37  38
ENDBRANCH  10  37
TORSDOF 13
ENDMDL
MODEL 3
REMARK VINA RESULT: -5.641076030      3.240      8.527
REMARK  13 active torsions:
REMARK  status: ('A' for Active; 'I' for Inactive)
REMARK    1  A    between atoms: O1_2  and  C2_3 
REMARK    2  A    between atoms: C2_3  and  C3_5 
REMARK    3  A    between atoms: C3_5  and  C5_7 
REMARK    4  A    between atoms: C3_5  and  O6_37 
REMARK    5  A    between atoms: C6_8  and  C7_9 
REMARK    6  A    between atoms: C16_18  and  C17_19 
REMARK    7  A    between atoms: C16_18  and  C18_22 
REMARK    8  A    between atoms: C17_19  and  O3_20 
REMARK    9  A    between atoms: C18_22  and  O4_23 
REMARK   10  A    between atoms: C19_25  and  C20_26 
REMARK   11  A    between atoms: C20_26  and  C21_27 
REMARK   12  A    between atoms: C21_27  and  O5_30 
REMARK   13  A    between atoms: O6_37  and  O7_38 
ROOT
HETATM    1  C7  UNL     1       2.442  26.428  19.908  1.00  0.00     0.017 C 
HETATM    2  C8  UNL     1       2.340  27.835  19.412  1.00  0.00     0.009 C 
HETATM    3  C9  UNL     1       0.905  28.233  19.365  1.00  0.00     0.001 C 
HETATM    4  C10 UNL     1       0.013  27.038  19.500  1.00  0.00     0.010 C 
HETATM    5  C11 UNL     1       0.435  25.895  18.568  1.00  0.00    -0.032 C 
HETATM    6  C12 UNL     1       0.420  26.530  17.168  1.00  0.00     0.016 C 
HETATM    7  C13 UNL     1      -0.688  24.910  18.586  1.00  0.00    -0.001 C 
HETATM    8  C14 UNL     1      -0.907  24.238  17.261  1.00  0.00     0.007 C 
HETATM    9  C15 UNL     1      -1.970  23.223  17.277  1.00  0.00     0.014 C 
HETATM   10  C16 UNL     1      -2.185  22.416  18.505  1.00  0.00     0.006 C 
HETATM   11  C19 UNL     1      -1.748  23.084  19.784  1.00  0.00     0.005 C 
HETATM   12  C24 UNL     1      -0.498  23.857  19.666  1.00  0.00    -0.005 C 
HETATM   13  C25 UNL     1       0.752  23.151  19.331  1.00  0.00     0.006 C 
HETATM   14  C26 UNL     1       1.897  24.098  19.610  1.00  0.00     0.011 C 
HETATM   15  C27 UNL     1       1.770  25.429  18.954  1.00  0.00    -0.029 C 
HETATM   16  C28 UNL     1       2.688  25.398  17.721  1.00  0.00     0.016 C 
ENDROOT
BRANCH   1  17
HETATM   17  C6  UNL     1       3.850  26.020  20.179  1.00  0.00    -0.022 C 
HETATM   18  C5  UNL     1       4.884  26.787  19.871  1.00  0.00     0.020 C 
BRANCH  18  19
HETATM   19  C3  UNL     1       6.263  26.307  20.174  1.00  0.00     0.197 C 
HETATM   20  C4  UNL     1       7.009  26.002  18.879  1.00  0.00     0.065 C 
BRANCH  19  21
HETATM   21  C2  UNL     1       7.012  27.231  21.028  1.00  0.00     0.300 C 
HETATM   22  O2  UNL     1       6.682  28.440  21.089  1.00  0.00    -0.261 OA
BRANCH  21  23
HETATM   23  O1  UNL     1       8.094  26.825  21.791  1.00  0.00    -0.324 OA
HETATM   24  C1  UNL     1       9.425  27.225  21.468  1.00  0.00     0.213 C 
ENDBRANCH  21  23
ENDBRANCH  19  21
BRANCH  19  25
HETATM   25  O6  UNL     1       6.109  25.073  20.824  1.00  0.00    -0.218 OA
BRANCH  25  26
HETATM   26  O7  UNL     1       7.103  24.258  20.478  1.00  0.00    -0.249 OA
ATOM     27  H7  UNL     1       6.769  23.569  19.915  1.00  0.00     0.253 HD
ENDBRANCH  25  26
ENDBRANCH  19  25
ENDBRANCH  18  19
ENDBRANCH   1  17
BRANCH  11  28
HETATM   28  C20 UNL     1      -1.808  22.158  20.943  1.00  0.00     0.043 C 
BRANCH  28  29
HETATM   29  C21 UNL     1      -2.640  22.622  22.114  1.00  0.00     0.051 C 
HETATM   30  C22 UNL     1      -3.362  23.922  21.849  1.00  0.00     0.045 C 
HETATM   31  C23 UNL     1      -3.789  21.577  22.229  1.00  0.00     0.045 C 
BRANCH  29  32
HETATM   32  O5  UNL     1      -2.023  22.604  23.329  1.00  0.00    -0.391 OA
ATOM     33  H5  UNL     1      -2.259  23.304  23.925  1.00  0.00     0.210 HD
ENDBRANCH  29  32
ENDBRANCH  28  29
ENDBRANCH  11  28
BRANCH  10  34
HETATM   34  C17 UNL     1      -1.643  21.009  18.382  1.00  0.00     0.176 C 
BRANCH  34  35
HETATM   35  O3  UNL     1      -2.679  20.067  18.481  1.00  0.00    -0.400 OA
ATOM     36  H3  UNL     1      -2.341  19.224  18.761  1.00  0.00     0.209 HD
ENDBRANCH  34  35
ENDBRANCH  10  34
BRANCH  10  37
HETATM   37  C18 UNL     1      -3.711  22.230  18.621  1.00  0.00     0.176 C 
BRANCH  37  38
HETATM   38  O4  UNL     1      -4.198  22.138  17.320  1.00  0.00    -0.400 OA
ATOM     39  H4  UNL     1      -4.002  22.968  16.900  1.00  0.00     0.209 HD
ENDBRANCH  37  38
ENDBRANCH  10  37
TORSDOF 13
ENDMDL
MODEL 4
REMARK VINA RESULT: -5.569706379      1.575      1.947
REMARK  13 active torsions:
REMARK  status: ('A' for Active; 'I' for Inactive)
REMARK    1  A    between atoms: O1_2  and  C2_3 
REMARK    2  A    between atoms: C2_3  and  C3_5 
REMARK    3  A    between atoms: C3_5  and  C5_7 
REMARK    4  A    between atoms: C3_5  and  O6_37 
REMARK    5  A    between atoms: C6_8  and  C7_9 
REMARK    6  A    between atoms: C16_18  and  C17_19 
REMARK    7  A    between atoms: C16_18  and  C18_22 
REMARK    8  A    between atoms: C17_19  and  O3_20 
REMARK    9  A    between atoms: C18_22  and  O4_23 
REMARK   10  A    between atoms: C19_25  and  C20_26 
REMARK   11  A    between atoms: C20_26  and  C21_27 
REMARK   12  A    between atoms: C21_27  and  O5_30 
REMARK   13  A    between atoms: O6_37  and  O7_38 
ROOT
HETATM    1  C7  UNL     1       0.058  23.855  20.384  1.00  0.00     0.017 C 
HETATM    2  C8  UNL     1       0.683  22.856  21.304  1.00  0.00     0.009 C 
HETATM    3  C9  UNL     1       1.434  23.577  22.370  1.00  0.00     0.001 C 
HETATM    4  C10 UNL     1       1.612  25.020  22.017  1.00  0.00     0.010 C 
HETATM    5  C11 UNL     1       2.119  25.206  20.581  1.00  0.00    -0.032 C 
HETATM    6  C12 UNL     1       3.420  24.388  20.536  1.00  0.00     0.016 C 
HETATM    7  C13 UNL     1       2.528  26.637  20.467  1.00  0.00    -0.001 C 
HETATM    8  C14 UNL     1       3.727  26.842  19.586  1.00  0.00     0.007 C 
HETATM    9  C15 UNL     1       4.107  28.252  19.417  1.00  0.00     0.014 C 
HETATM   10  C16 UNL     1       3.047  29.292  19.394  1.00  0.00     0.006 C 
HETATM   11  C19 UNL     1       1.787  28.925  20.135  1.00  0.00     0.005 C 
HETATM   12  C24 UNL     1       1.385  27.515  19.983  1.00  0.00    -0.005 C 
HETATM   13  C25 UNL     1       1.024  27.013  18.644  1.00  0.00     0.006 C 
HETATM   14  C26 UNL     1       0.340  25.677  18.829  1.00  0.00     0.011 C 
HETATM   15  C27 UNL     1       1.109  24.698  19.647  1.00  0.00    -0.029 C 
HETATM   16  C28 UNL     1       1.762  23.720  18.656  1.00  0.00     0.016 C 
ENDROOT
BRANCH   1  17
HETATM   17  C6  UNL     1      -0.877  23.226  19.409  1.00  0.00    -0.022 C 
HETATM   18  C5  UNL     1      -1.389  22.018  19.593  1.00  0.00     0.020 C 
BRANCH  18  19
HETATM   19  C3  UNL     1      -2.319  21.457  18.571  1.00  0.00     0.197 C 
HETATM   20  C4  UNL     1      -3.614  22.262  18.542  1.00  0.00     0.065 C 
BRANCH  19  21
HETATM   21  C2  UNL     1      -1.711  21.357  17.243  1.00  0.00     0.300 C 
HETATM   22  O2  UNL     1      -2.321  21.790  16.236  1.00  0.00    -0.261 OA
BRANCH  21  23
HETATM   23  O1  UNL     1      -0.463  20.792  17.040  1.00  0.00    -0.324 OA
HETATM   24  C1  UNL     1       0.435  21.305  16.056  1.00  0.00     0.213 C 
ENDBRANCH  21  23
ENDBRANCH  19  21
BRANCH  19  25
HETATM   25  O6  UNL     1      -2.674  20.180  19.032  1.00  0.00    -0.218 OA
BRANCH  25  26
HETATM   26  O7  UNL     1      -2.536  19.296  18.047  1.00  0.00    -0.249 OA
ATOM     27  H7  UNL     1      -3.206  18.627  18.123  1.00  0.00     0.253 HD
ENDBRANCH  25  26
ENDBRANCH  19  25
ENDBRANCH  18  19
ENDBRANCH   1  17
BRANCH  11  28
HETATM   28  C20 UNL     1       0.702  29.916  19.912  1.00  0.00     0.043 C 
BRANCH  28  29
HETATM   29  C21 UNL     1      -0.286  30.074  21.041  1.00  0.00     0.051 C 
HETATM   30  C22 UNL     1       0.375  30.183  22.396  1.00  0.00     0.045 C 
HETATM   31  C23 UNL     1      -0.920  31.481  20.825  1.00  0.00     0.045 C 
BRANCH  29  32
HETATM   32  O5  UNL     1      -1.338  29.208  21.040  1.00  0.00    -0.391 OA
ATOM     33  H5  UNL     1      -2.196  29.596  21.169  1.00  0.00     0.210 HD
ENDBRANCH  29  32
ENDBRANCH  28  29
ENDBRANCH  11  28
BRANCH  10  34
HETATM   34  C17 UNL     1       2.760  29.804  17.999  1.00  0.00     0.176 C 
BRANCH  34  35
HETATM   35  O3  UNL     1       3.722  29.334  17.090  1.00  0.00    -0.400 OA
ATOM     36  H3  UNL     1       3.913  29.993  16.432  1.00  0.00     0.209 HD
ENDBRANCH  34  35
ENDBRANCH  10  34
BRANCH  10  37
HETATM   37  C18 UNL     1       3.638  30.508  20.134  1.00  0.00     0.176 C 
BRANCH  37  38
HETATM   38  O4  UNL     1       3.875  31.482  19.168  1.00  0.00    -0.400 OA
ATOM     39  H4  UNL     1       4.254  31.034  18.421  1.00  0.00     0.209 HD
ENDBRANCH  37  38
ENDBRANCH  10  37
TORSDOF 13
ENDMDL
MODEL 5
REMARK VINA RESULT: -5.499710442      0.891      1.233
REMARK  13 active torsions:
REMARK  status: ('A' for Active; 'I' for Inactive)
REMARK    1  A    between atoms: O1_2  and  C2_3 
REMARK    2  A    between atoms: C2_3  and  C3_5 
REMARK    3  A    between atoms: C3_5  and  C5_7 
REMARK    4  A    between atoms: C3_5  and  O6_37 
REMARK    5  A    between atoms: C6_8  and  C7_9 
REMARK    6  A    between atoms: C16_18  and  C17_19 
REMARK    7  A    between atoms: C16_18  and  C18_22 
REMARK    8  A    between atoms: C17_19  and  O3_20 
REMARK    9  A    between atoms: C18_22  and  O4_23 
REMARK   10  A    between atoms: C19_25  and  C20_26 
REMARK   11  A    between atoms: C20_26  and  C21_27 
REMARK   12  A    between atoms: C21_27  and  O5_30 
REMARK   13  A    between atoms: O6_37  and  O7_38 
ROOT
HETATM    1  C7  UNL     1      -0.300  23.729  21.296  1.00  0.00     0.017 C 
HETATM    2  C8  UNL     1       0.667  22.632  21.606  1.00  0.00     0.009 C 
HETATM    3  C9  UNL     1       1.960  23.230  22.043  1.00  0.00     0.001 C 
HETATM    4  C10 UNL     1       2.007  24.692  21.728  1.00  0.00     0.010 C 
HETATM    5  C11 UNL     1       1.573  24.987  20.286  1.00  0.00    -0.032 C 
HETATM    6  C12 UNL     1       2.521  24.133  19.429  1.00  0.00     0.016 C 
HETATM    7  C13 UNL     1       1.947  26.408  20.023  1.00  0.00    -0.001 C 
HETATM    8  C14 UNL     1       2.398  26.650  18.611  1.00  0.00     0.007 C 
HETATM    9  C15 UNL     1       2.714  28.056  18.319  1.00  0.00     0.014 C 
HETATM   10  C16 UNL     1       1.935  29.129  18.989  1.00  0.00     0.006 C 
HETATM   11  C19 UNL     1       1.340  28.740  20.318  1.00  0.00     0.005 C 
HETATM   12  C24 UNL     1       0.815  27.363  20.367  1.00  0.00    -0.005 C 
HETATM   13  C25 UNL     1      -0.310  26.994  19.488  1.00  0.00     0.006 C 
HETATM   14  C26 UNL     1      -0.854  25.671  19.978  1.00  0.00     0.011 C 
HETATM   15  C27 UNL     1       0.169  24.598  20.120  1.00  0.00    -0.029 C 
HETATM   16  C28 UNL     1       0.023  23.690  18.888  1.00  0.00     0.016 C 
ENDROOT
BRANCH   1  17
HETATM   17  C6  UNL     1      -1.678  23.220  21.047  1.00  0.00    -0.022 C 
HETATM   18  C5  UNL     1      -1.947  21.931  20.912  1.00  0.00     0.020 C 
BRANCH  18  19
HETATM   19  C3  UNL     1      -3.353  21.501  20.664  1.00  0.00     0.197 C 
HETATM   20  C4  UNL     1      -4.021  21.110  21.978  1.00  0.00     0.065 C 
BRANCH  19  21
HETATM   21  C2  UNL     1      -4.133  22.501  19.934  1.00  0.00     0.300 C 
HETATM   22  O2  UNL     1      -4.848  23.322  20.558  1.00  0.00    -0.261 OA
BRANCH  21  23
HETATM   23  O1  UNL     1      -4.120  22.588  18.552  1.00  0.00    -0.324 OA
HETATM   24  C1  UNL     1      -3.452  23.654  17.879  1.00  0.00     0.213 C 
ENDBRANCH  21  23
ENDBRANCH  19  21
BRANCH  19  25
HETATM   25  O6  UNL     1      -3.269  20.319  19.913  1.00  0.00    -0.218 OA
BRANCH  25  26
HETATM   26  O7  UNL     1      -2.275  20.418  19.034  1.00  0.00    -0.249 OA
ATOM     27  H7  UNL     1      -2.036  19.553  18.722  1.00  0.00     0.253 HD
ENDBRANCH  25  26
ENDBRANCH  19  25
ENDBRANCH  18  19
ENDBRANCH   1  17
BRANCH  11  28
HETATM   28  C20 UNL     1       0.419  29.782  20.841  1.00  0.00     0.043 C 
BRANCH  28  29
HETATM   29  C21 UNL     1       0.754  30.331  22.206  1.00  0.00     0.051 C 
HETATM   30  C22 UNL     1       2.008  29.729  22.795  1.00  0.00     0.045 C 
HETATM   31  C23 UNL     1       1.139  31.819  21.958  1.00  0.00     0.045 C 
BRANCH  29  32
HETATM   32  O5  UNL     1      -0.275  30.376  23.100  1.00  0.00    -0.391 OA
ATOM     33  H5  UNL     1      -1.137  30.185  22.750  1.00  0.00     0.210 HD
ENDBRANCH  29  32
ENDBRANCH  28  29
ENDBRANCH  11  28
BRANCH  10  34
HETATM   34  C17 UNL     1       0.917  29.772  18.073  1.00  0.00     0.176 C 
BRANCH  34  35
HETATM   35  O3  UNL     1       1.183  29.451  16.732  1.00  0.00    -0.400 OA
ATOM     36  H3  UNL     1       0.934  30.168  16.160  1.00  0.00     0.209 HD
ENDBRANCH  34  35
ENDBRANCH  10  34
BRANCH  10  37
HETATM   37  C18 UNL     1       2.946  30.254  19.288  1.00  0.00     0.176 C 
BRANCH  37  38
HETATM   38  O4  UNL     1       2.594  31.328  18.475  1.00  0.00    -0.400 OA
ATOM     39  H4  UNL     1       1.644  31.358  18.464  1.00  0.00     0.209 HD
ENDBRANCH  37  38
ENDBRANCH  10  37
TORSDOF 13
ENDMDL
