MODEL 1
REMARK VINA RESULT: -6.423059700      0.000      0.000
REMARK  12 active torsions:
REMARK  status: ('A' for Active; 'I' for Inactive)
REMARK    1  A    between atoms: C2_2  and  C4_4 
REMARK    2  A    between atoms: C4_4  and  C5_5 
REMARK    3  A    between atoms: C6_6  and  C7_7 
REMARK    4  A    between atoms: C7_7  and  C17_24 
REMARK    5  A    between atoms: C8_8  and  C9_9 
REMARK    6  A    between atoms: C11_11  and  C12_12 
REMARK    7  A    between atoms: C12_12  and  O1_13 
REMARK    8  A    between atoms: C15_18  and  O3_19 
REMARK    9  A    between atoms: C15_18  and  C16_21 
REMARK   10  A    between atoms: C16_21  and  O4_22 
REMARK   11  A    between atoms: C22_31  and  C23_32 
REMARK   12  A    between atoms: C23_32  and  C24_33 
ROOT
HETATM    1  C7  UNL     1      -2.467  25.638  19.512  1.00  0.00    -0.042 C 
HETATM    2  C8  UNL     1      -3.262  26.353  18.869  1.00  0.00     0.018 C 
ENDROOT
BRANCH   1   3
HETATM    3  C6  UNL     1      -1.610  24.867  20.206  1.00  0.00     0.016 C 
HETATM    4  C5  UNL     1      -0.223  25.039  20.249  1.00  0.00     0.051 C 
BRANCH   4   5
HETATM    5  C4  UNL     1       0.584  24.191  20.960  1.00  0.00    -0.152 C 
BRANCH   5   6
HETATM    6  C2  UNL     1       1.323  23.358  21.600  1.00  0.00     0.048 C 
HETATM    7  C1  UNL     1       2.630  22.774  21.378  1.00  0.00     0.022 C 
HETATM    8  C3  UNL     1       0.627  22.875  22.892  1.00  0.00     0.022 C 
ENDBRANCH   5   6
ENDBRANCH   4   5
ENDBRANCH   1   3
BRANCH   1   9
HETATM    9  C17 UNL     1      -3.576  24.249  19.154  1.00  0.00     0.119 C 
HETATM   10  C18 UNL     1      -3.908  23.960  20.537  1.00  0.00     0.142 C 
HETATM   11  O5  UNL     1      -3.899  24.822  21.389  1.00  0.00    -0.297 OA
HETATM   12  C19 UNL     1      -4.278  22.554  20.940  1.00  0.00     0.107 C 
HETATM   13  C20 UNL     1      -3.381  21.611  20.160  1.00  0.00    -0.001 C 
HETATM   14  C21 UNL     1      -2.787  21.946  19.074  1.00  0.00     0.002 C 
HETATM   15  S1  UNL     1      -1.700  21.006  18.009  1.00  0.00    -0.124 SA
HETATM   16  C28 UNL     1      -2.961  23.260  18.388  1.00  0.00    -0.039 C 
HETATM   17  C22 UNL     1      -2.103  21.971  16.502  1.00  0.00     0.069 C 
HETATM   18  C25 UNL     1      -2.179  23.355  17.160  1.00  0.00    -0.009 C 
HETATM   19  C26 UNL     1      -0.777  23.823  17.141  1.00  0.00     0.021 C 
HETATM   20  C27 UNL     1      -2.946  24.178  16.101  1.00  0.00     0.021 C 
BRANCH  17  21
HETATM   21  C23 UNL     1      -3.310  21.515  15.805  1.00  0.00     0.060 C 
BRANCH  21  22
HETATM   22  C24 UNL     1      -2.887  20.577  14.711  1.00  0.00     0.054 C 
HETATM   23  N1  UNL     1      -2.759  19.329  15.056  1.00  0.00    -0.411 N 
ATOM     24  H12 UNL     1      -2.936  19.024  16.013  1.00  0.00     0.155 HD
ATOM     25  H11 UNL     1      -2.472  18.692  14.314  1.00  0.00     0.155 HD
ENDBRANCH  21  22
ENDBRANCH  17  21
ENDBRANCH   1   9
BRANCH   2  26
HETATM   26  C9  UNL     1      -3.208  27.621  18.158  1.00  0.00    -0.017 C 
HETATM   27  C10 UNL     1      -4.321  28.268  17.823  1.00  0.00    -0.009 C 
HETATM   28  C11 UNL     1      -4.406  29.537  17.118  1.00  0.00     0.039 C 
HETATM   29  C13 UNL     1      -3.207  30.007  16.394  1.00  0.00     0.092 C 
HETATM   30  C14 UNL     1      -2.062  29.099  16.557  1.00  0.00     0.168 C 
HETATM   31  O2  UNL     1      -1.201  29.109  15.693  1.00  0.00    -0.294 OA
HETATM   32  C15 UNL     1      -1.921  28.190  17.712  1.00  0.00     0.166 C 
BRANCH  28  33
HETATM   33  C12 UNL     1      -5.659  29.506  16.238  1.00  0.00     0.173 C 
BRANCH  33  34
HETATM   34  O1  UNL     1      -6.617  28.804  16.912  1.00  0.00    -0.400 OA
ATOM     35  H1  UNL     1      -7.426  29.298  16.855  1.00  0.00     0.209 HD
ENDBRANCH  33  34
ENDBRANCH  28  33
BRANCH  32  36
HETATM   36  O3  UNL     1      -1.053  27.159  17.344  1.00  0.00    -0.375 OA
ATOM     37  H3  UNL     1      -1.209  26.399  17.892  1.00  0.00     0.211 HD
ENDBRANCH  32  36
BRANCH  32  38
HETATM   38  C16 UNL     1      -1.360  28.921  18.945  1.00  0.00     0.215 C 
BRANCH  38  39
HETATM   39  O4  UNL     1      -0.382  29.811  18.536  1.00  0.00    -0.397 OA
ATOM     40  H4  UNL     1       0.275  29.341  18.037  1.00  0.00     0.209 HD
ENDBRANCH  38  39
ENDBRANCH  32  38
ENDBRANCH   2  26
TORSDOF 12
ENDMDL
MODEL 2
REMARK VINA RESULT: -6.239804491      3.790      7.546
REMARK  12 active torsions:
REMARK  status: ('A' for Active; 'I' for Inactive)
REMARK    1  A    between atoms: C2_2  and  C4_4 
REMARK    2  A    between atoms: C4_4  and  C5_5 
REMARK    3  A    between atoms: C6_6  and  C7_7 
REMARK    4  A    between atoms: C7_7  and  C17_24 
REMARK    5  A    between atoms: C8_8  and  C9_9 
REMARK    6  A    between atoms: C11_11  and  C12_12 
REMARK    7  A    between atoms: C12_12  and  O1_13 
REMARK    8  A    between atoms: C15_18  and  O3_19 
REMARK    9  A    between atoms: C15_18  and  C16_21 
REMARK   10  A    between atoms: C16_21  and  O4_22 
REMARK   11  A    between atoms: C22_31  and  C23_32 
REMARK   12  A    between atoms: C23_32  and  C24_33 
ROOT
HETATM    1  C7  UNL     1      -0.752  25.595  19.357  1.00  0.00    -0.042 C 
HETATM    2  C8  UNL     1      -1.057  24.737  20.210  1.00  0.00     0.018 C 
ENDROOT
BRANCH   1   3
HETATM    3  C6  UNL     1      -0.424  26.521  18.438  1.00  0.00     0.016 C 
HETATM    4  C5  UNL     1      -0.761  26.468  17.082  1.00  0.00     0.051 C 
BRANCH   4   5
HETATM    5  C4  UNL     1      -0.364  27.441  16.204  1.00  0.00    -0.152 C 
BRANCH   5   6
HETATM    6  C2  UNL     1       0.052  28.356  15.404  1.00  0.00     0.048 C 
HETATM    7  C1  UNL     1      -0.302  28.779  14.065  1.00  0.00     0.022 C 
HETATM    8  C3  UNL     1       1.206  29.166  16.038  1.00  0.00     0.022 C 
ENDBRANCH   5   6
ENDBRANCH   4   5
ENDBRANCH   1   3
BRANCH   1   9
HETATM    9  C17 UNL     1       0.586  26.093  20.475  1.00  0.00     0.119 C 
HETATM   10  C18 UNL     1       0.143  27.465  20.640  1.00  0.00     0.142 C 
HETATM   11  O5  UNL     1      -1.025  27.774  20.548  1.00  0.00    -0.297 OA
HETATM   12  C19 UNL     1       1.153  28.547  20.936  1.00  0.00     0.107 C 
HETATM   13  C20 UNL     1       2.393  28.241  20.118  1.00  0.00    -0.001 C 
HETATM   14  C21 UNL     1       2.661  27.074  19.659  1.00  0.00     0.002 C 
HETATM   15  S1  UNL     1       4.048  26.500  18.686  1.00  0.00    -0.124 SA
HETATM   16  C28 UNL     1       1.848  25.853  19.935  1.00  0.00    -0.039 C 
HETATM   17  C22 UNL     1       3.933  24.767  19.278  1.00  0.00     0.069 C 
HETATM   18  C25 UNL     1       2.402  24.660  19.302  1.00  0.00    -0.009 C 
HETATM   19  C26 UNL     1       2.063  24.260  17.920  1.00  0.00     0.021 C 
HETATM   20  C27 UNL     1       2.176  23.425  20.200  1.00  0.00     0.021 C 
BRANCH  17  21
HETATM   21  C23 UNL     1       4.622  24.522  20.549  1.00  0.00     0.060 C 
BRANCH  21  22
HETATM   22  C24 UNL     1       5.905  25.301  20.538  1.00  0.00     0.054 C 
HETATM   23  N1  UNL     1       6.996  24.592  20.528  1.00  0.00    -0.411 N 
ATOM     24  H12 UNL     1       6.964  23.572  20.528  1.00  0.00     0.155 HD
ATOM     25  H11 UNL     1       7.868  25.121  20.521  1.00  0.00     0.155 HD
ENDBRANCH  21  22
ENDBRANCH  17  21
ENDBRANCH   1   9
BRANCH   2  26
HETATM   26  C9  UNL     1      -1.772  23.472  20.229  1.00  0.00    -0.017 C 
HETATM   27  C10 UNL     1      -1.452  22.488  19.391  1.00  0.00    -0.009 C 
HETATM   28  C11 UNL     1      -2.082  21.180  19.309  1.00  0.00     0.039 C 
HETATM   29  C13 UNL     1      -3.406  21.010  19.945  1.00  0.00     0.092 C 
HETATM   30  C14 UNL     1      -3.862  22.230  20.628  1.00  0.00     0.168 C 
HETATM   31  O2  UNL     1      -5.062  22.379  20.785  1.00  0.00    -0.294 OA
HETATM   32  C15 UNL     1      -2.931  23.264  21.121  1.00  0.00     0.166 C 
BRANCH  28  33
HETATM   33  C12 UNL     1      -2.064  20.738  17.844  1.00  0.00     0.173 C 
BRANCH  33  34
HETATM   34  O1  UNL     1      -2.380  19.411  17.811  1.00  0.00    -0.400 OA
ATOM     35  H1  UNL     1      -2.083  19.066  16.978  1.00  0.00     0.209 HD
ENDBRANCH  33  34
ENDBRANCH  28  33
BRANCH  32  36
HETATM   36  O3  UNL     1      -3.644  24.458  21.251  1.00  0.00    -0.375 OA
ATOM     37  H3  UNL     1      -4.076  24.483  22.097  1.00  0.00     0.211 HD
ENDBRANCH  32  36
BRANCH  32  38
HETATM   38  C16 UNL     1      -2.322  22.879  22.481  1.00  0.00     0.215 C 
BRANCH  38  39
HETATM   39  O4  UNL     1      -3.022  21.804  23.000  1.00  0.00    -0.397 OA
ATOM     40  H4  UNL     1      -2.599  21.516  23.800  1.00  0.00     0.209 HD
ENDBRANCH  38  39
ENDBRANCH  32  38
ENDBRANCH   2  26
TORSDOF 12
ENDMDL
MODEL 3
REMARK VINA RESULT: -6.171361334      2.058      5.672
REMARK  12 active torsions:
REMARK  status: ('A' for Active; 'I' for Inactive)
REMARK    1  A    between atoms: C2_2  and  C4_4 
REMARK    2  A    between atoms: C4_4  and  C5_5 
REMARK    3  A    between atoms: C6_6  and  C7_7 
REMARK    4  A    between atoms: C7_7  and  C17_24 
REMARK    5  A    between atoms: C8_8  and  C9_9 
REMARK    6  A    between atoms: C11_11  and  C12_12 
REMARK    7  A    between atoms: C12_12  and  O1_13 
REMARK    8  A    between atoms: C15_18  and  O3_19 
REMARK    9  A    between atoms: C15_18  and  C16_21 
REMARK   10  A    between atoms: C16_21  and  O4_22 
REMARK   11  A    between atoms: C22_31  and  C23_32 
REMARK   12  A    between atoms: C23_32  and  C24_33 
ROOT
HETATM    1  C7  UNL     1      -2.339  24.758  18.726  1.00  0.00    -0.042 C 
HETATM    2  C8  UNL     1      -1.449  23.976  19.117  1.00  0.00     0.018 C 
ENDROOT
BRANCH   1   3
HETATM    3  C6  UNL     1      -3.298  25.602  18.303  1.00  0.00     0.016 C 
HETATM    4  C5  UNL     1      -3.080  26.899  17.829  1.00  0.00     0.051 C 
BRANCH   4   5
HETATM    5  C4  UNL     1      -4.117  27.705  17.442  1.00  0.00    -0.152 C 
BRANCH   5   6
HETATM    6  C2  UNL     1      -5.073  28.459  17.033  1.00  0.00     0.048 C 
HETATM    7  C1  UNL     1      -6.337  28.231  16.362  1.00  0.00     0.022 C 
HETATM    8  C3  UNL     1      -4.772  29.947  17.323  1.00  0.00     0.022 C 
ENDBRANCH   5   6
ENDBRANCH   4   5
ENDBRANCH   1   3
BRANCH   1   9
HETATM    9  C17 UNL     1      -3.330  23.288  18.344  1.00  0.00     0.119 C 
HETATM   10  C18 UNL     1      -3.583  22.914  19.724  1.00  0.00     0.142 C 
HETATM   11  O5  UNL     1      -3.621  23.738  20.612  1.00  0.00    -0.297 OA
HETATM   12  C19 UNL     1      -3.809  21.465  20.077  1.00  0.00     0.107 C 
HETATM   13  C20 UNL     1      -2.859  20.641  19.228  1.00  0.00    -0.001 C 
HETATM   14  C21 UNL     1      -2.339  21.073  18.138  1.00  0.00     0.002 C 
HETATM   15  S1  UNL     1      -1.211  20.281  16.998  1.00  0.00    -0.124 SA
HETATM   16  C28 UNL     1      -2.657  22.392  17.517  1.00  0.00    -0.039 C 
HETATM   17  C22 UNL     1      -1.755  21.265  15.549  1.00  0.00     0.069 C 
HETATM   18  C25 UNL     1      -1.932  22.609  16.268  1.00  0.00    -0.009 C 
HETATM   19  C26 UNL     1      -0.579  23.204  16.224  1.00  0.00     0.021 C 
HETATM   20  C27 UNL     1      -2.809  23.399  15.273  1.00  0.00     0.021 C 
BRANCH  17  21
HETATM   21  C23 UNL     1      -2.940  20.729  14.872  1.00  0.00     0.060 C 
BRANCH  21  22
HETATM   22  C24 UNL     1      -2.485  20.029  13.624  1.00  0.00     0.054 C 
HETATM   23  N1  UNL     1      -2.477  18.729  13.677  1.00  0.00    -0.411 N 
ATOM     24  H12 UNL     1      -2.765  18.232  14.520  1.00  0.00     0.155 HD
ATOM     25  H11 UNL     1      -2.168  18.254  12.829  1.00  0.00     0.155 HD
ENDBRANCH  21  22
ENDBRANCH  17  21
ENDBRANCH   1   9
BRANCH   2  26
HETATM   26  C9  UNL     1      -0.305  24.037  20.013  1.00  0.00    -0.017 C 
HETATM   27  C10 UNL     1      -0.184  23.190  21.032  1.00  0.00    -0.009 C 
HETATM   28  C11 UNL     1       0.905  23.142  21.994  1.00  0.00     0.039 C 
HETATM   29  C13 UNL     1       1.789  24.322  22.096  1.00  0.00     0.092 C 
HETATM   30  C14 UNL     1       1.435  25.373  21.131  1.00  0.00     0.168 C 
HETATM   31  O2  UNL     1       1.755  26.520  21.396  1.00  0.00    -0.294 OA
HETATM   32  C15 UNL     1       0.718  25.092  19.871  1.00  0.00     0.166 C 
BRANCH  28  33
HETATM   33  C12 UNL     1       0.324  22.714  23.345  1.00  0.00     0.173 C 
BRANCH  33  34
HETATM   34  O1  UNL     1      -1.029  22.617  23.197  1.00  0.00    -0.400 OA
ATOM     35  H1  UNL     1      -1.430  23.105  23.907  1.00  0.00     0.209 HD
ENDBRANCH  33  34
ENDBRANCH  28  33
BRANCH  32  36
HETATM   36  O3  UNL     1       0.115  26.278  19.446  1.00  0.00    -0.375 OA
ATOM     37  H3  UNL     1       0.693  27.012  19.621  1.00  0.00     0.211 HD
ENDBRANCH  32  36
BRANCH  32  38
HETATM   38  C16 UNL     1       1.671  24.578  18.777  1.00  0.00     0.215 C 
BRANCH  38  39
HETATM   39  O4  UNL     1       2.901  25.194  18.925  1.00  0.00    -0.397 OA
ATOM     40  H4  UNL     1       3.571  24.528  19.018  1.00  0.00     0.209 HD
ENDBRANCH  38  39
ENDBRANCH  32  38
ENDBRANCH   2  26
TORSDOF 12
ENDMDL
MODEL 4
REMARK VINA RESULT: -6.171259405      3.495      6.535
REMARK  12 active torsions:
REMARK  status: ('A' for Active; 'I' for Inactive)
REMARK    1  A    between atoms: C2_2  and  C4_4 
REMARK    2  A    between atoms: C4_4  and  C5_5 
REMARK    3  A    between atoms: C6_6  and  C7_7 
REMARK    4  A    between atoms: C7_7  and  C17_24 
REMARK    5  A    between atoms: C8_8  and  C9_9 
REMARK    6  A    between atoms: C11_11  and  C12_12 
REMARK    7  A    between atoms: C12_12  and  O1_13 
REMARK    8  A    between atoms: C15_18  and  O3_19 
REMARK    9  A    between atoms: C15_18  and  C16_21 
REMARK   10  A    between atoms: C16_21  and  O4_22 
REMARK   11  A    between atoms: C22_31  and  C23_32 
REMARK   12  A    between atoms: C23_32  and  C24_33 
ROOT
HETATM    1  C7  UNL     1      -1.156  24.005  17.117  1.00  0.00    -0.042 C 
HETATM    2  C8  UNL     1      -1.712  23.278  16.270  1.00  0.00     0.018 C 
ENDROOT
BRANCH   1   3
HETATM    3  C6  UNL     1      -0.557  24.791  18.030  1.00  0.00     0.016 C 
HETATM    4  C5  UNL     1       0.823  24.883  18.235  1.00  0.00     0.051 C 
BRANCH   4   5
HETATM    5  C4  UNL     1       1.353  25.689  19.207  1.00  0.00    -0.152 C 
BRANCH   5   6
HETATM    6  C2  UNL     1       1.809  26.473  20.117  1.00  0.00     0.048 C 
HETATM    7  C1  UNL     1       1.217  27.421  21.038  1.00  0.00     0.022 C 
HETATM    8  C3  UNL     1       3.347  26.370  20.219  1.00  0.00     0.022 C 
ENDBRANCH   5   6
ENDBRANCH   4   5
ENDBRANCH   1   3
BRANCH   1   9
HETATM    9  C17 UNL     1      -2.807  24.294  17.813  1.00  0.00     0.119 C 
HETATM   10  C18 UNL     1      -2.868  25.704  17.475  1.00  0.00     0.142 C 
HETATM   11  O5  UNL     1      -2.274  26.159  16.522  1.00  0.00    -0.297 OA
HETATM   12  C19 UNL     1      -3.693  26.641  18.323  1.00  0.00     0.107 C 
HETATM   13  C20 UNL     1      -3.519  26.212  19.768  1.00  0.00    -0.001 C 
HETATM   14  C21 UNL     1      -3.135  25.037  20.109  1.00  0.00     0.002 C 
HETATM   15  S1  UNL     1      -2.868  24.328  21.730  1.00  0.00    -0.124 SA
HETATM   16  C28 UNL     1      -2.894  23.918  19.152  1.00  0.00    -0.039 C 
HETATM   17  C22 UNL     1      -3.183  22.604  21.188  1.00  0.00     0.069 C 
HETATM   18  C25 UNL     1      -2.486  22.688  19.824  1.00  0.00    -0.009 C 
HETATM   19  C26 UNL     1      -1.074  22.381  20.138  1.00  0.00     0.021 C 
HETATM   20  C27 UNL     1      -3.064  21.460  19.086  1.00  0.00     0.021 C 
BRANCH  17  21
HETATM   21  C23 UNL     1      -4.601  22.232  21.172  1.00  0.00     0.060 C 
BRANCH  21  22
HETATM   22  C24 UNL     1      -4.754  20.957  21.950  1.00  0.00     0.054 C 
HETATM   23  N1  UNL     1      -5.751  20.197  21.599  1.00  0.00    -0.411 N 
ATOM     24  H12 UNL     1      -6.379  20.466  20.841  1.00  0.00     0.155 HD
ATOM     25  H11 UNL     1      -5.855  19.332  22.127  1.00  0.00     0.155 HD
ENDBRANCH  21  22
ENDBRANCH  17  21
ENDBRANCH   1   9
BRANCH   2  26
HETATM   26  C9  UNL     1      -1.323  22.182  15.397  1.00  0.00    -0.017 C 
HETATM   27  C10 UNL     1      -0.266  22.284  14.595  1.00  0.00    -0.009 C 
HETATM   28  C11 UNL     1       0.229  21.268  13.681  1.00  0.00     0.039 C 
HETATM   29  C13 UNL     1      -0.678  20.156  13.327  1.00  0.00     0.092 C 
HETATM   30  C14 UNL     1      -1.967  20.238  14.029  1.00  0.00     0.168 C 
HETATM   31  O2  UNL     1      -2.929  19.689  13.518  1.00  0.00    -0.294 OA
HETATM   32  C15 UNL     1      -2.134  20.951  15.311  1.00  0.00     0.166 C 
BRANCH  28  33
HETATM   33  C12 UNL     1       0.808  21.978  12.453  1.00  0.00     0.173 C 
BRANCH  33  34
HETATM   34  O1  UNL     1       2.098  22.316  12.745  1.00  0.00    -0.400 OA
ATOM     35  H1  UNL     1       2.292  21.981  13.613  1.00  0.00     0.209 HD
ENDBRANCH  33  34
ENDBRANCH  28  33
BRANCH  32  36
HETATM   36  O3  UNL     1      -3.487  21.269  15.453  1.00  0.00    -0.375 OA
ATOM     37  H3  UNL     1      -3.621  21.745  16.264  1.00  0.00     0.211 HD
ENDBRANCH  32  36
BRANCH  32  38
HETATM   38  C16 UNL     1      -1.680  20.090  16.504  1.00  0.00     0.215 C 
BRANCH  38  39
HETATM   39  O4  UNL     1      -2.390  18.903  16.499  1.00  0.00    -0.397 OA
ATOM     40  H4  UNL     1      -3.086  18.956  17.143  1.00  0.00     0.209 HD
ENDBRANCH  38  39
ENDBRANCH  32  38
ENDBRANCH   2  26
TORSDOF 12
ENDMDL
MODEL 5
REMARK VINA RESULT: -6.171060594      1.252      2.324
REMARK  12 active torsions:
REMARK  status: ('A' for Active; 'I' for Inactive)
REMARK    1  A    between atoms: C2_2  and  C4_4 
REMARK    2  A    between atoms: C4_4  and  C5_5 
REMARK    3  A    between atoms: C6_6  and  C7_7 
REMARK    4  A    between atoms: C7_7  and  C17_24 
REMARK    5  A    between atoms: C8_8  and  C9_9 
REMARK    6  A    between atoms: C11_11  and  C12_12 
REMARK    7  A    between atoms: C12_12  and  O1_13 
REMARK    8  A    between atoms: C15_18  and  O3_19 
REMARK    9  A    between atoms: C15_18  and  C16_21 
REMARK   10  A    between atoms: C16_21  and  O4_22 
REMARK   11  A    between atoms: C22_31  and  C23_32 
REMARK   12  A    between atoms: C23_32  and  C24_33 
ROOT
HETATM    1  C7  UNL     1      -2.229  26.046  19.568  1.00  0.00    -0.042 C 
HETATM    2  C8  UNL     1      -2.981  26.858  18.992  1.00  0.00     0.018 C 
ENDROOT
BRANCH   1   3
HETATM    3  C6  UNL     1      -1.419  25.170  20.190  1.00  0.00     0.016 C 
HETATM    4  C5  UNL     1      -0.031  25.291  20.298  1.00  0.00     0.051 C 
BRANCH   4   5
HETATM    5  C4  UNL     1       0.727  24.339  20.926  1.00  0.00    -0.152 C 
BRANCH   5   6
HETATM    6  C2  UNL     1       1.396  23.419  21.523  1.00  0.00     0.048 C 
HETATM    7  C1  UNL     1       2.666  22.763  21.285  1.00  0.00     0.022 C 
HETATM    8  C3  UNL     1       0.643  22.903  22.769  1.00  0.00     0.022 C 
ENDBRANCH   5   6
ENDBRANCH   4   5
ENDBRANCH   1   3
BRANCH   1   9
HETATM    9  C17 UNL     1      -3.475  24.779  19.201  1.00  0.00     0.119 C 
HETATM   10  C18 UNL     1      -3.839  24.521  20.583  1.00  0.00     0.142 C 
HETATM   11  O5  UNL     1      -3.743  25.375  21.437  1.00  0.00    -0.297 OA
HETATM   12  C19 UNL     1      -4.353  23.159  20.979  1.00  0.00     0.107 C 
HETATM   13  C20 UNL     1      -3.555  22.132  20.199  1.00  0.00    -0.001 C 
HETATM   14  C21 UNL     1      -2.927  22.408  19.115  1.00  0.00     0.002 C 
HETATM   15  S1  UNL     1      -1.939  21.364  18.050  1.00  0.00    -0.124 SA
HETATM   16  C28 UNL     1      -2.963  23.735  18.434  1.00  0.00    -0.039 C 
HETATM   17  C22 UNL     1      -2.236  22.371  16.545  1.00  0.00     0.069 C 
HETATM   18  C25 UNL     1      -2.171  23.753  17.208  1.00  0.00    -0.009 C 
HETATM   19  C26 UNL     1      -0.728  24.074  17.195  1.00  0.00     0.021 C 
HETATM   20  C27 UNL     1      -2.846  24.654  16.151  1.00  0.00     0.021 C 
BRANCH  17  21
HETATM   21  C23 UNL     1      -3.481  22.044  15.843  1.00  0.00     0.060 C 
BRANCH  21  22
HETATM   22  C24 UNL     1      -3.148  21.107  14.718  1.00  0.00     0.054 C 
HETATM   23  N1  UNL     1      -3.356  19.845  14.954  1.00  0.00    -0.411 N 
ATOM     24  H12 UNL     1      -3.723  19.528  15.852  1.00  0.00     0.155 HD
ATOM     25  H11 UNL     1      -3.129  19.209  14.190  1.00  0.00     0.155 HD
ENDBRANCH  21  22
ENDBRANCH  17  21
ENDBRANCH   1   9
BRANCH   2  26
HETATM   26  C9  UNL     1      -2.840  28.146  18.333  1.00  0.00    -0.017 C 
HETATM   27  C10 UNL     1      -1.795  28.933  18.576  1.00  0.00    -0.009 C 
HETATM   28  C11 UNL     1      -1.534  30.236  17.985  1.00  0.00     0.039 C 
HETATM   29  C13 UNL     1      -2.659  30.932  17.326  1.00  0.00     0.092 C 
HETATM   30  C14 UNL     1      -3.894  30.135  17.333  1.00  0.00     0.168 C 
HETATM   31  O2  UNL     1      -4.956  30.730  17.249  1.00  0.00    -0.294 OA
HETATM   32  C15 UNL     1      -3.894  28.662  17.435  1.00  0.00     0.166 C 
BRANCH  28  33
HETATM   33  C12 UNL     1      -0.833  31.100  19.037  1.00  0.00     0.173 C 
BRANCH  33  34
HETATM   34  O1  UNL     1      -1.514  30.952  20.211  1.00  0.00    -0.400 OA
ATOM     35  H1  UNL     1      -1.408  31.756  20.705  1.00  0.00     0.209 HD
ENDBRANCH  33  34
ENDBRANCH  28  33
BRANCH  32  36
HETATM   36  O3  UNL     1      -5.148  28.263  17.904  1.00  0.00    -0.375 OA
ATOM     37  H3  UNL     1      -5.129  27.338  18.122  1.00  0.00     0.211 HD
ENDBRANCH  32  36
BRANCH  32  38
HETATM   38  C16 UNL     1      -3.617  27.997  16.074  1.00  0.00     0.215 C 
BRANCH  38  39
HETATM   39  O4  UNL     1      -4.298  28.689  15.088  1.00  0.00    -0.397 OA
ATOM     40  H4  UNL     1      -3.669  29.093  14.503  1.00  0.00     0.209 HD
ENDBRANCH  38  39
ENDBRANCH  32  38
ENDBRANCH   2  26
TORSDOF 12
ENDMDL
