MODEL 1
REMARK VINA RESULT: -6.366239971      0.000      0.000
REMARK  12 active torsions:
REMARK  status: ('A' for Active; 'I' for Inactive)
REMARK    1  A    between atoms: C3_3  and  O1_4 
REMARK    2  A    between atoms: C5_7  and  O2_8 
REMARK    3  A    between atoms: C9_13  and  C10_14 
REMARK    4  A    between atoms: C12_16  and  O3_17 
REMARK    5  A    between atoms: O3_17  and  C13_18 
REMARK    6  A    between atoms: C15_21  and  C16_22 
REMARK    7  A    between atoms: C17_23  and  C18_24 
REMARK    8  A    between atoms: C18_24  and  C19_25 
REMARK    9  A    between atoms: C19_25  and  C20_26 
REMARK   10  A    between atoms: C25_32  and  C26_33 
REMARK   11  A    between atoms: C26_33  and  O6_35 
REMARK   12  A    between atoms: C28_37  and  O7_38 
ROOT
HETATM    1  C1  UNL     1      -1.613  19.762  13.383  1.00  0.00     0.019 C 
HETATM    2  C2  UNL     1      -1.673  20.806  14.205  1.00  0.00    -0.032 C 
HETATM    3  C3  UNL     1      -0.683  21.893  13.989  1.00  0.00     0.151 C 
HETATM    4  C4  UNL     1       0.572  21.502  14.736  1.00  0.00     0.068 C 
HETATM    5  C5  UNL     1       1.492  22.640  15.028  1.00  0.00     0.128 C 
HETATM    6  C6  UNL     1       0.908  23.718  15.897  1.00  0.00     0.033 C 
HETATM    7  C7  UNL     1       1.597  25.020  15.455  1.00  0.00     0.017 C 
HETATM    8  C8  UNL     1       1.185  23.517  17.344  1.00  0.00    -0.015 C 
HETATM    9  C9  UNL     1       0.309  23.349  18.303  1.00  0.00    -0.054 C 
HETATM   10  C22 UNL     1      -1.162  23.325  18.125  1.00  0.00     0.036 C 
HETATM   11  C23 UNL     1      -1.708  21.923  18.010  1.00  0.00     0.005 C 
HETATM   12  C24 UNL     1      -3.089  21.890  17.399  1.00  0.00     0.010 C 
HETATM   13  C25 UNL     1      -3.045  22.080  15.883  1.00  0.00     0.047 C 
HETATM   14  C28 UNL     1      -2.712  20.781  15.251  1.00  0.00     0.155 C 
ENDROOT
BRANCH   9  15
HETATM   15  C10 UNL     1       0.856  23.164  19.703  1.00  0.00     0.153 C 
HETATM   16  C11 UNL     1       2.357  23.267  19.723  1.00  0.00     0.069 C 
HETATM   17  C12 UNL     1       2.740  24.190  20.832  1.00  0.00     0.136 C 
HETATM   18  C14 UNL     1       1.970  23.713  22.071  1.00  0.00     0.068 C 
HETATM   19  C15 UNL     1       0.520  24.019  21.805  1.00  0.00     0.147 C 
HETATM   20  O5  UNL     1       0.261  24.210  20.447  1.00  0.00    -0.372 OA
BRANCH  17  21
HETATM   21  O3  UNL     1       4.082  24.367  21.055  1.00  0.00    -0.323 OA
BRANCH  21  22
HETATM   22  C13 UNL     1       5.058  24.704  20.155  1.00  0.00     0.398 C 
HETATM   23  O4  UNL     1       6.220  24.302  20.417  1.00  0.00    -0.276 OA
ENDBRANCH  21  22
ENDBRANCH  17  21
BRANCH  19  24
HETATM   24  C16 UNL     1      -0.410  23.006  22.317  1.00  0.00     0.001 C 
HETATM   25  C17 UNL     1      -1.712  23.037  22.212  1.00  0.00    -0.028 C 
BRANCH  25  26
HETATM   26  C18 UNL     1      -2.587  21.980  22.753  1.00  0.00     0.027 C 
BRANCH  26  27
HETATM   27  C19 UNL     1      -3.163  21.109  21.653  1.00  0.00     0.003 C 
BRANCH  27  28
HETATM   28  C20 UNL     1      -4.675  21.336  21.675  1.00  0.00    -0.004 C 
HETATM   29  C21 UNL     1      -5.022  22.536  20.801  1.00  0.00     0.005 C 
ENDBRANCH  27  28
ENDBRANCH  26  27
ENDBRANCH  25  26
ENDBRANCH  19  24
ENDBRANCH   9  15
BRANCH   5  30
HETATM   30  O2  UNL     1       2.605  22.123  15.686  1.00  0.00    -0.395 OA
ATOM     31  H2  UNL     1       2.691  22.586  16.512  1.00  0.00     0.210 HD
ENDBRANCH   5  30
BRANCH  13  32
HETATM   32  C26 UNL     1      -4.369  22.612  15.370  1.00  0.00     0.120 C 
HETATM   33  C27 UNL     1      -4.200  23.393  14.088  1.00  0.00     0.040 C 
BRANCH  32  34
HETATM   34  O6  UNL     1      -5.157  21.498  15.071  1.00  0.00    -0.395 OA
ATOM     35  H6  UNL     1      -5.670  21.312  15.849  1.00  0.00     0.210 HD
ENDBRANCH  32  34
ENDBRANCH  13  32
BRANCH   3  36
HETATM   36  O1  UNL     1      -0.355  21.907  12.609  1.00  0.00    -0.391 OA
ATOM     37  H1  UNL     1      -0.282  22.816  12.339  1.00  0.00     0.210 HD
ENDBRANCH   3  36
BRANCH  14  38
HETATM   38  O7  UNL     1      -2.461  19.763  16.192  1.00  0.00    -0.391 OA
ATOM     39  H7  UNL     1      -1.957  19.056  15.805  1.00  0.00     0.210 HD
ENDBRANCH  14  38
TORSDOF 12
ENDMDL
MODEL 2
REMARK VINA RESULT: -6.096113506      3.449      7.168
REMARK  12 active torsions:
REMARK  status: ('A' for Active; 'I' for Inactive)
REMARK    1  A    between atoms: C3_3  and  O1_4 
REMARK    2  A    between atoms: C5_7  and  O2_8 
REMARK    3  A    between atoms: C9_13  and  C10_14 
REMARK    4  A    between atoms: C12_16  and  O3_17 
REMARK    5  A    between atoms: O3_17  and  C13_18 
REMARK    6  A    between atoms: C15_21  and  C16_22 
REMARK    7  A    between atoms: C17_23  and  C18_24 
REMARK    8  A    between atoms: C18_24  and  C19_25 
REMARK    9  A    between atoms: C19_25  and  C20_26 
REMARK   10  A    between atoms: C25_32  and  C26_33 
REMARK   11  A    between atoms: C26_33  and  O6_35 
REMARK   12  A    between atoms: C28_37  and  O7_38 
ROOT
HETATM    1  C1  UNL     1      -3.493  23.591  18.764  1.00  0.00     0.019 C 
HETATM    2  C2  UNL     1      -2.603  23.975  19.674  1.00  0.00    -0.032 C 
HETATM    3  C3  UNL     1      -2.427  25.437  19.873  1.00  0.00     0.151 C 
HETATM    4  C4  UNL     1      -1.426  25.905  18.839  1.00  0.00     0.068 C 
HETATM    5  C5  UNL     1      -0.776  27.209  19.162  1.00  0.00     0.128 C 
HETATM    6  C6  UNL     1       0.025  27.218  20.433  1.00  0.00     0.033 C 
HETATM    7  C7  UNL     1      -0.069  28.658  20.968  1.00  0.00     0.017 C 
HETATM    8  C8  UNL     1       1.462  26.898  20.221  1.00  0.00    -0.015 C 
HETATM    9  C9  UNL     1       2.132  25.891  20.722  1.00  0.00    -0.054 C 
HETATM   10  C22 UNL     1       1.573  24.850  21.616  1.00  0.00     0.036 C 
HETATM   11  C23 UNL     1       1.160  23.606  20.868  1.00  0.00     0.005 C 
HETATM   12  C24 UNL     1       0.209  22.744  21.665  1.00  0.00     0.010 C 
HETATM   13  C25 UNL     1      -1.210  23.311  21.660  1.00  0.00     0.047 C 
HETATM   14  C28 UNL     1      -1.876  22.914  20.396  1.00  0.00     0.155 C 
ENDROOT
BRANCH   9  15
HETATM   15  C10 UNL     1       3.596  25.791  20.348  1.00  0.00     0.153 C 
HETATM   16  C11 UNL     1       3.874  24.547  19.548  1.00  0.00     0.069 C 
HETATM   17  C12 UNL     1       4.682  24.938  18.356  1.00  0.00     0.136 C 
HETATM   18  C14 UNL     1       5.835  25.803  18.885  1.00  0.00     0.068 C 
HETATM   19  C15 UNL     1       5.208  27.088  19.357  1.00  0.00     0.147 C 
HETATM   20  O5  UNL     1       3.837  26.956  19.583  1.00  0.00    -0.372 OA
BRANCH  17  21
HETATM   21  O3  UNL     1       5.094  23.924  17.527  1.00  0.00    -0.323 OA
BRANCH  21  22
HETATM   22  C13 UNL     1       4.404  23.323  16.510  1.00  0.00     0.398 C 
HETATM   23  O4  UNL     1       3.756  22.288  16.810  1.00  0.00    -0.276 OA
ENDBRANCH  21  22
ENDBRANCH  17  21
BRANCH  19  24
HETATM   24  C16 UNL     1       5.826  27.647  20.566  1.00  0.00     0.001 C 
HETATM   25  C17 UNL     1       5.636  28.850  21.038  1.00  0.00    -0.028 C 
BRANCH  25  26
HETATM   26  C18 UNL     1       6.293  29.345  22.263  1.00  0.00     0.027 C 
BRANCH  26  27
HETATM   27  C19 UNL     1       5.485  30.442  22.930  1.00  0.00     0.003 C 
BRANCH  27  28
HETATM   28  C20 UNL     1       5.377  30.057  24.406  1.00  0.00    -0.004 C 
HETATM   29  C21 UNL     1       3.910  30.019  24.815  1.00  0.00     0.005 C 
ENDBRANCH  27  28
ENDBRANCH  26  27
ENDBRANCH  25  26
ENDBRANCH  19  24
ENDBRANCH   9  15
BRANCH   5  30
HETATM   30  O2  UNL     1       0.089  27.519  18.115  1.00  0.00    -0.395 OA
ATOM     31  H2  UNL     1       0.960  27.621  18.482  1.00  0.00     0.210 HD
ENDBRANCH   5  30
BRANCH  13  32
HETATM   32  C26 UNL     1      -1.989  22.816  22.863  1.00  0.00     0.120 C 
HETATM   33  C27 UNL     1      -3.036  21.799  22.474  1.00  0.00     0.040 C 
BRANCH  32  34
HETATM   34  O6  UNL     1      -1.073  22.165  23.692  1.00  0.00    -0.395 OA
ATOM     35  H6  UNL     1      -1.329  21.251  23.714  1.00  0.00     0.210 HD
ENDBRANCH  32  34
ENDBRANCH  13  32
BRANCH   3  36
HETATM   36  O1  UNL     1      -3.662  26.065  19.564  1.00  0.00    -0.391 OA
ATOM     37  H1  UNL     1      -3.593  26.977  19.821  1.00  0.00     0.210 HD
ENDBRANCH   3  36
BRANCH  14  38
HETATM   38  O7  UNL     1      -1.024  22.202  19.528  1.00  0.00    -0.391 OA
ATOM     39  H7  UNL     1      -0.114  22.423  19.686  1.00  0.00     0.210 HD
ENDBRANCH  14  38
TORSDOF 12
ENDMDL
MODEL 3
REMARK VINA RESULT: -5.976434320      4.024      5.986
REMARK  12 active torsions:
REMARK  status: ('A' for Active; 'I' for Inactive)
REMARK    1  A    between atoms: C3_3  and  O1_4 
REMARK    2  A    between atoms: C5_7  and  O2_8 
REMARK    3  A    between atoms: C9_13  and  C10_14 
REMARK    4  A    between atoms: C12_16  and  O3_17 
REMARK    5  A    between atoms: O3_17  and  C13_18 
REMARK    6  A    between atoms: C15_21  and  C16_22 
REMARK    7  A    between atoms: C17_23  and  C18_24 
REMARK    8  A    between atoms: C18_24  and  C19_25 
REMARK    9  A    between atoms: C19_25  and  C20_26 
REMARK   10  A    between atoms: C25_32  and  C26_33 
REMARK   11  A    between atoms: C26_33  and  O6_35 
REMARK   12  A    between atoms: C28_37  and  O7_38 
ROOT
HETATM    1  C1  UNL     1      -2.164  20.667  16.687  1.00  0.00     0.019 C 
HETATM    2  C2  UNL     1      -2.566  21.687  17.440  1.00  0.00    -0.032 C 
HETATM    3  C3  UNL     1      -3.407  22.721  16.783  1.00  0.00     0.151 C 
HETATM    4  C4  UNL     1      -2.465  23.704  16.125  1.00  0.00     0.068 C 
HETATM    5  C5  UNL     1      -3.076  25.032  15.824  1.00  0.00     0.128 C 
HETATM    6  C6  UNL     1      -3.566  25.790  17.025  1.00  0.00     0.033 C 
HETATM    7  C7  UNL     1      -4.757  26.625  16.526  1.00  0.00     0.017 C 
HETATM    8  C8  UNL     1      -2.550  26.722  17.583  1.00  0.00    -0.015 C 
HETATM    9  C9  UNL     1      -2.025  26.697  18.782  1.00  0.00    -0.054 C 
HETATM   10  C22 UNL     1      -2.348  25.709  19.838  1.00  0.00     0.036 C 
HETATM   11  C23 UNL     1      -1.361  24.568  19.884  1.00  0.00     0.005 C 
HETATM   12  C24 UNL     1      -1.904  23.367  20.622  1.00  0.00     0.010 C 
HETATM   13  C25 UNL     1      -2.895  22.576  19.769  1.00  0.00     0.047 C 
HETATM   14  C28 UNL     1      -2.135  21.695  18.850  1.00  0.00     0.155 C 
ENDROOT
BRANCH   9  15
HETATM   15  C10 UNL     1      -1.004  27.768  19.103  1.00  0.00     0.153 C 
HETATM   16  C11 UNL     1      -1.450  29.118  18.608  1.00  0.00     0.069 C 
HETATM   17  C12 UNL     1      -1.271  30.098  19.720  1.00  0.00     0.136 C 
HETATM   18  C14 UNL     1       0.156  29.889  20.247  1.00  0.00     0.068 C 
HETATM   19  C15 UNL     1       0.158  28.543  20.923  1.00  0.00     0.147 C 
HETATM   20  O5  UNL     1      -0.912  27.745  20.514  1.00  0.00    -0.372 OA
BRANCH  17  21
HETATM   21  O3  UNL     1      -1.567  31.409  19.443  1.00  0.00    -0.323 OA
BRANCH  21  22
HETATM   22  C13 UNL     1      -2.397  31.909  18.476  1.00  0.00     0.398 C 
HETATM   23  O4  UNL     1      -3.555  32.228  18.846  1.00  0.00    -0.276 OA
ENDBRANCH  21  22
ENDBRANCH  17  21
BRANCH  19  24
HETATM   24  C16 UNL     1       1.400  27.783  20.741  1.00  0.00     0.001 C 
HETATM   25  C17 UNL     1       1.531  26.488  20.854  1.00  0.00    -0.028 C 
BRANCH  25  26
HETATM   26  C18 UNL     1       2.815  25.790  20.656  1.00  0.00     0.027 C 
BRANCH  26  27
HETATM   27  C19 UNL     1       2.712  24.317  20.997  1.00  0.00     0.003 C 
BRANCH  27  28
HETATM   28  C20 UNL     1       1.685  24.208  22.125  1.00  0.00    -0.004 C 
HETATM   29  C21 UNL     1       1.219  22.763  22.251  1.00  0.00     0.005 C 
ENDBRANCH  27  28
ENDBRANCH  26  27
ENDBRANCH  25  26
ENDBRANCH  19  24
ENDBRANCH   9  15
BRANCH   5  30
HETATM   30  O2  UNL     1      -2.104  25.811  15.200  1.00  0.00    -0.395 OA
ATOM     31  H2  UNL     1      -2.546  26.546  14.790  1.00  0.00     0.210 HD
ENDBRANCH   5  30
BRANCH  13  32
HETATM   32  C26 UNL     1      -3.833  21.769  20.645  1.00  0.00     0.120 C 
HETATM   33  C27 UNL     1      -3.699  22.144  22.102  1.00  0.00     0.040 C 
BRANCH  32  34
HETATM   34  O6  UNL     1      -5.131  22.103  20.253  1.00  0.00    -0.395 OA
ATOM     35  H6  UNL     1      -5.231  23.034  20.410  1.00  0.00     0.210 HD
ENDBRANCH  32  34
ENDBRANCH  13  32
BRANCH   3  36
HETATM   36  O1  UNL     1      -4.133  22.087  15.742  1.00  0.00    -0.391 OA
ATOM     37  H1  UNL     1      -3.540  21.491  15.299  1.00  0.00     0.210 HD
ENDBRANCH   3  36
BRANCH  14  38
HETATM   38  O7  UNL     1      -0.741  21.869  18.954  1.00  0.00    -0.391 OA
ATOM     39  H7  UNL     1      -0.299  21.034  19.059  1.00  0.00     0.210 HD
ENDBRANCH  14  38
TORSDOF 12
ENDMDL
MODEL 4
REMARK VINA RESULT: -5.952798013      2.736      6.032
REMARK  12 active torsions:
REMARK  status: ('A' for Active; 'I' for Inactive)
REMARK    1  A    between atoms: C3_3  and  O1_4 
REMARK    2  A    between atoms: C5_7  and  O2_8 
REMARK    3  A    between atoms: C9_13  and  C10_14 
REMARK    4  A    between atoms: C12_16  and  O3_17 
REMARK    5  A    between atoms: O3_17  and  C13_18 
REMARK    6  A    between atoms: C15_21  and  C16_22 
REMARK    7  A    between atoms: C17_23  and  C18_24 
REMARK    8  A    between atoms: C18_24  and  C19_25 
REMARK    9  A    between atoms: C19_25  and  C20_26 
REMARK   10  A    between atoms: C25_32  and  C26_33 
REMARK   11  A    between atoms: C26_33  and  O6_35 
REMARK   12  A    between atoms: C28_37  and  O7_38 
ROOT
HETATM    1  C1  UNL     1       0.617  22.365  12.466  1.00  0.00     0.019 C 
HETATM    2  C2  UNL     1       0.700  22.272  13.790  1.00  0.00    -0.032 C 
HETATM    3  C3  UNL     1       0.269  20.990  14.406  1.00  0.00     0.151 C 
HETATM    4  C4  UNL     1      -1.228  21.076  14.604  1.00  0.00     0.068 C 
HETATM    5  C5  UNL     1      -1.770  20.114  15.607  1.00  0.00     0.128 C 
HETATM    6  C6  UNL     1      -1.237  20.287  17.001  1.00  0.00     0.033 C 
HETATM    7  C7  UNL     1      -1.254  18.881  17.625  1.00  0.00     0.017 C 
HETATM    8  C8  UNL     1      -2.082  21.176  17.844  1.00  0.00    -0.015 C 
HETATM    9  C9  UNL     1      -1.730  22.306  18.404  1.00  0.00    -0.054 C 
HETATM   10  C22 UNL     1      -0.391  22.932  18.301  1.00  0.00     0.036 C 
HETATM   11  C23 UNL     1      -0.325  23.982  17.218  1.00  0.00     0.005 C 
HETATM   12  C24 UNL     1       1.094  24.299  16.810  1.00  0.00     0.010 C 
HETATM   13  C25 UNL     1       1.680  23.217  15.904  1.00  0.00     0.047 C 
HETATM   14  C28 UNL     1       1.207  23.450  14.518  1.00  0.00     0.155 C 
ENDROOT
BRANCH   9  15
HETATM   15  C10 UNL     1      -2.786  23.022  19.219  1.00  0.00     0.153 C 
HETATM   16  C11 UNL     1      -3.869  22.077  19.665  1.00  0.00     0.069 C 
HETATM   17  C12 UNL     1      -4.100  22.299  21.124  1.00  0.00     0.136 C 
HETATM   18  C14 UNL     1      -4.258  23.815  21.306  1.00  0.00     0.068 C 
HETATM   19  C15 UNL     1      -2.900  24.410  21.042  1.00  0.00     0.147 C 
HETATM   20  O5  UNL     1      -2.074  23.544  20.325  1.00  0.00    -0.372 OA
BRANCH  17  21
HETATM   21  O3  UNL     1      -5.103  21.568  21.709  1.00  0.00    -0.323 OA
BRANCH  21  22
HETATM   22  C13 UNL     1      -5.101  20.244  22.056  1.00  0.00     0.398 C 
HETATM   23  O4  UNL     1      -6.215  19.660  22.035  1.00  0.00    -0.276 OA
ENDBRANCH  21  22
ENDBRANCH  17  21
BRANCH  19  24
HETATM   24  C16 UNL     1      -2.938  25.701  20.344  1.00  0.00     0.001 C 
HETATM   25  C17 UNL     1      -1.911  26.330  19.839  1.00  0.00    -0.028 C 
BRANCH  25  26
HETATM   26  C18 UNL     1      -2.024  27.629  19.148  1.00  0.00     0.027 C 
BRANCH  26  27
HETATM   27  C19 UNL     1      -3.216  27.665  18.212  1.00  0.00     0.003 C 
BRANCH  27  28
HETATM   28  C20 UNL     1      -2.791  26.916  16.948  1.00  0.00    -0.004 C 
HETATM   29  C21 UNL     1      -3.728  25.738  16.715  1.00  0.00     0.005 C 
ENDBRANCH  27  28
ENDBRANCH  26  27
ENDBRANCH  25  26
ENDBRANCH  19  24
ENDBRANCH   9  15
BRANCH   5  30
HETATM   30  O2  UNL     1      -3.151  20.291  15.657  1.00  0.00    -0.395 OA
ATOM     31  H2  UNL     1      -3.523  19.861  14.896  1.00  0.00     0.210 HD
ENDBRANCH   5  30
BRANCH  13  32
HETATM   32  C26 UNL     1       3.195  23.225  15.970  1.00  0.00     0.120 C 
HETATM   33  C27 UNL     1       3.722  24.495  16.596  1.00  0.00     0.040 C 
BRANCH  32  34
HETATM   34  O6  UNL     1       3.563  22.171  16.810  1.00  0.00    -0.395 OA
ATOM     35  H6  UNL     1       4.483  22.001  16.645  1.00  0.00     0.210 HD
ENDBRANCH  32  34
ENDBRANCH  13  32
BRANCH   3  36
HETATM   36  O1  UNL     1       0.501  19.959  13.459  1.00  0.00    -0.391 OA
ATOM     37  H1  UNL     1      -0.336  19.732  13.070  1.00  0.00     0.210 HD
ENDBRANCH   3  36
BRANCH  14  38
HETATM   38  O7  UNL     1       0.311  24.532  14.420  1.00  0.00    -0.391 OA
ATOM     39  H7  UNL     1      -0.525  24.321  14.818  1.00  0.00     0.210 HD
ENDBRANCH  14  38
TORSDOF 12
ENDMDL
MODEL 5
REMARK VINA RESULT: -5.944774467      3.043      5.837
REMARK  12 active torsions:
REMARK  status: ('A' for Active; 'I' for Inactive)
REMARK    1  A    between atoms: C3_3  and  O1_4 
REMARK    2  A    between atoms: C5_7  and  O2_8 
REMARK    3  A    between atoms: C9_13  and  C10_14 
REMARK    4  A    between atoms: C12_16  and  O3_17 
REMARK    5  A    between atoms: O3_17  and  C13_18 
REMARK    6  A    between atoms: C15_21  and  C16_22 
REMARK    7  A    between atoms: C17_23  and  C18_24 
REMARK    8  A    between atoms: C18_24  and  C19_25 
REMARK    9  A    between atoms: C19_25  and  C20_26 
REMARK   10  A    between atoms: C25_32  and  C26_33 
REMARK   11  A    between atoms: C26_33  and  O6_35 
REMARK   12  A    between atoms: C28_37  and  O7_38 
ROOT
HETATM    1  C1  UNL     1      -3.790  22.835  16.243  1.00  0.00     0.019 C 
HETATM    2  C2  UNL     1      -2.764  22.497  17.018  1.00  0.00    -0.032 C 
HETATM    3  C3  UNL     1      -3.011  22.452  18.483  1.00  0.00     0.151 C 
HETATM    4  C4  UNL     1      -2.816  23.858  19.006  1.00  0.00     0.068 C 
HETATM    5  C5  UNL     1      -2.561  23.937  20.474  1.00  0.00     0.128 C 
HETATM    6  C6  UNL     1      -1.320  23.231  20.939  1.00  0.00     0.033 C 
HETATM    7  C7  UNL     1      -1.626  22.760  22.371  1.00  0.00     0.017 C 
HETATM    8  C8  UNL     1      -0.127  24.118  20.992  1.00  0.00    -0.015 C 
HETATM    9  C9  UNL     1       0.988  23.987  20.318  1.00  0.00    -0.054 C 
HETATM   10  C22 UNL     1       1.282  22.905  19.349  1.00  0.00     0.036 C 
HETATM   11  C23 UNL     1       1.009  23.315  17.923  1.00  0.00     0.005 C 
HETATM   12  C24 UNL     1       0.876  22.129  16.998  1.00  0.00     0.010 C 
HETATM   13  C25 UNL     1      -0.484  21.445  17.143  1.00  0.00     0.047 C 
HETATM   14  C28 UNL     1      -1.483  22.202  16.350  1.00  0.00     0.155 C 
ENDROOT
BRANCH   9  15
HETATM   15  C10 UNL     1       2.056  25.035  20.555  1.00  0.00     0.153 C 
HETATM   16  C11 UNL     1       3.435  24.469  20.346  1.00  0.00     0.069 C 
HETATM   17  C12 UNL     1       4.191  25.414  19.471  1.00  0.00     0.136 C 
HETATM   18  C14 UNL     1       4.000  26.809  20.083  1.00  0.00     0.068 C 
HETATM   19  C15 UNL     1       2.554  27.165  19.865  1.00  0.00     0.147 C 
HETATM   20  O5  UNL     1       1.767  26.043  19.605  1.00  0.00    -0.372 OA
BRANCH  17  21
HETATM   21  O3  UNL     1       5.503  25.102  19.213  1.00  0.00    -0.323 OA
BRANCH  21  22
HETATM   22  C13 UNL     1       6.488  24.761  20.100  1.00  0.00     0.398 C 
HETATM   23  O4  UNL     1       7.399  24.014  19.662  1.00  0.00    -0.276 OA
ENDBRANCH  21  22
ENDBRANCH  17  21
BRANCH  19  24
HETATM   24  C16 UNL     1       1.947  27.911  20.974  1.00  0.00     0.001 C 
HETATM   25  C17 UNL     1       2.514  28.873  21.652  1.00  0.00    -0.028 C 
BRANCH  25  26
HETATM   26  C18 UNL     1       1.841  29.581  22.758  1.00  0.00     0.027 C 
BRANCH  26  27
HETATM   27  C19 UNL     1       2.713  30.678  23.336  1.00  0.00     0.003 C 
BRANCH  27  28
HETATM   28  C20 UNL     1       3.436  30.064  24.536  1.00  0.00    -0.004 C 
HETATM   29  C21 UNL     1       4.942  30.140  24.315  1.00  0.00     0.005 C 
ENDBRANCH  27  28
ENDBRANCH  26  27
ENDBRANCH  25  26
ENDBRANCH  19  24
ENDBRANCH   9  15
BRANCH   5  30
HETATM   30  O2  UNL     1      -2.433  25.283  20.808  1.00  0.00    -0.395 OA
ATOM     31  H2  UNL     1      -2.000  25.329  21.653  1.00  0.00     0.210 HD
ENDBRANCH   5  30
BRANCH  13  32
HETATM   32  C26 UNL     1      -0.409  20.001  16.688  1.00  0.00     0.120 C 
HETATM   33  C27 UNL     1      -1.348  19.117  17.473  1.00  0.00     0.040 C 
BRANCH  32  34
HETATM   34  O6  UNL     1      -0.839  19.978  15.359  1.00  0.00    -0.395 OA
ATOM     35  H6  UNL     1      -1.416  19.228  15.274  1.00  0.00     0.210 HD
ENDBRANCH  32  34
ENDBRANCH  13  32
BRANCH   3  36
HETATM   36  O1  UNL     1      -4.378  22.126  18.679  1.00  0.00    -0.391 OA
ATOM     37  H1  UNL     1      -4.776  22.837  19.167  1.00  0.00     0.210 HD
ENDBRANCH   3  36
BRANCH  14  38
HETATM   38  O7  UNL     1      -0.945  23.357  15.751  1.00  0.00    -0.391 OA
ATOM     39  H7  UNL     1      -0.221  23.139  15.176  1.00  0.00     0.210 HD
ENDBRANCH  14  38
TORSDOF 12
ENDMDL
