MODEL 1
REMARK VINA RESULT: -6.604283768      0.000      0.000
REMARK  12 active torsions:
REMARK  status: ('A' for Active; 'I' for Inactive)
REMARK    1  A    between atoms: O1_2  and  C2_3 
REMARK    2  A    between atoms: C3_4  and  C4_5 
REMARK    3  A    between atoms: C4_5  and  C5_7 
REMARK    4  A    between atoms: C6_8  and  O3_9 
REMARK    5  A    between atoms: C7_11  and  C8_12 
REMARK    6  A    between atoms: C8_12  and  C9_13 
REMARK    7  A    between atoms: C13_17  and  O4_18 
REMARK    8  A    between atoms: C14_20  and  C15_21 
REMARK    9  A    between atoms: C17_24  and  O6_25 
REMARK   10  A    between atoms: C18_29  and  C19_30 
REMARK   11  A    between atoms: C23_34  and  C24_35 
REMARK   12  A    between atoms: C24_35  and  C25_36 
ROOT
HETATM    1  C25 UNL     1       0.406  23.447  21.292  1.00  0.00    -0.004 C 
HETATM    2  C26 UNL     1       1.604  23.907  21.028  1.00  0.00     0.015 C 
HETATM    3  C27 UNL     1       2.777  23.372  21.747  1.00  0.00     0.060 C 
HETATM    4  C28 UNL     1       1.813  24.936  20.022  1.00  0.00     0.094 C 
HETATM    5  N2  UNL     1       1.989  25.745  19.200  1.00  0.00    -0.192 NA
ENDROOT
BRANCH   1   6
HETATM    6  C24 UNL     1      -0.820  23.941  20.610  1.00  0.00     0.072 C 
BRANCH   6   7
HETATM    7  C23 UNL     1      -1.523  22.854  19.883  1.00  0.00     0.004 A 
HETATM    8  C2  UNL     1      -1.086  22.299  18.692  1.00  0.00     0.107 A 
HETATM    9  C3  UNL     1      -2.021  21.345  18.354  1.00  0.00     0.118 A 
HETATM   10  N1  UNL     1      -2.972  21.335  19.306  1.00  0.00    -0.353 N 
HETATM   11  C18 UNL     1      -2.696  22.243  20.250  1.00  0.00     0.027 A 
ATOM     12  H1  UNL     1      -3.788  20.723  19.308  1.00  0.00     0.166 HD
BRANCH   8  13
HETATM   13  O1  UNL     1       0.046  22.616  17.969  1.00  0.00    -0.353 OA
HETATM   14  C1  UNL     1       0.024  23.620  16.988  1.00  0.00     0.210 C 
ENDBRANCH   8  13
BRANCH   9  15
HETATM   15  C4  UNL     1      -2.043  20.486  17.186  1.00  0.00     0.217 C 
HETATM   16  O2  UNL     1      -2.049  19.215  17.445  1.00  0.00    -0.285 OA
BRANCH  15  17
HETATM   17  C5  UNL     1      -2.063  20.852  15.784  1.00  0.00     0.084 A 
HETATM   18  C6  UNL     1      -3.220  21.368  15.222  1.00  0.00     0.092 A 
HETATM   19  C7  UNL     1      -3.306  21.638  13.843  1.00  0.00     0.014 A 
HETATM   20  C13 UNL     1      -2.240  21.397  13.015  1.00  0.00     0.091 A 
HETATM   21  C14 UNL     1      -1.086  20.883  13.582  1.00  0.00     0.077 A 
HETATM   22  C17 UNL     1      -0.979  20.605  14.954  1.00  0.00     0.099 A 
BRANCH  18  23
HETATM   23  O3  UNL     1      -4.359  21.667  15.930  1.00  0.00    -0.359 OA
ATOM     24  H3  UNL     1      -5.242  21.560  15.595  1.00  0.00     0.217 HD
ENDBRANCH  18  23
BRANCH  19  25
HETATM   25  C8  UNL     1      -4.574  22.213  13.321  1.00  0.00     0.072 C 
BRANCH  25  26
HETATM   26  C9  UNL     1      -5.515  21.200  12.846  1.00  0.00    -0.020 C 
HETATM   27  C10 UNL     1      -6.803  21.265  13.143  1.00  0.00    -0.091 C 
HETATM   28  C11 UNL     1      -7.425  22.334  13.963  1.00  0.00     0.042 C 
HETATM   29  C12 UNL     1      -7.744  20.198  12.641  1.00  0.00     0.042 C 
ENDBRANCH  25  26
ENDBRANCH  19  25
BRANCH  20  30
HETATM   30  O4  UNL     1      -2.417  21.686  11.701  1.00  0.00    -0.359 OA
ATOM     31  H4  UNL     1      -1.819  21.268  11.092  1.00  0.00     0.217 HD
ENDBRANCH  20  30
BRANCH  21  32
HETATM   32  C15 UNL     1       0.065  20.630  12.720  1.00  0.00     0.161 C 
HETATM   33  C16 UNL     1       0.198  19.491  11.781  1.00  0.00     0.097 C 
HETATM   34  O5  UNL     1       1.053  21.422  12.747  1.00  0.00    -0.293 OA
ENDBRANCH  21  32
BRANCH  22  35
HETATM   35  O6  UNL     1       0.187  20.110  15.374  1.00  0.00    -0.359 OA
ATOM     36  H6  UNL     1       0.958  20.025  14.827  1.00  0.00     0.217 HD
ENDBRANCH  22  35
ENDBRANCH  15  17
ENDBRANCH   9  15
BRANCH  11  37
HETATM   37  C19 UNL     1      -3.532  22.515  21.461  1.00  0.00    -0.008 C 
HETATM   38  C20 UNL     1      -4.748  21.610  21.419  1.00  0.00     0.021 C 
HETATM   39  C21 UNL     1      -4.028  23.923  21.541  1.00  0.00     0.021 C 
HETATM   40  C22 UNL     1      -2.769  22.140  22.735  1.00  0.00     0.021 C 
ENDBRANCH  11  37
ENDBRANCH   6   7
ENDBRANCH   1   6
TORSDOF 12
ENDMDL
MODEL 2
REMARK VINA RESULT: -6.601465515      0.978      3.742
REMARK  12 active torsions:
REMARK  status: ('A' for Active; 'I' for Inactive)
REMARK    1  A    between atoms: O1_2  and  C2_3 
REMARK    2  A    between atoms: C3_4  and  C4_5 
REMARK    3  A    between atoms: C4_5  and  C5_7 
REMARK    4  A    between atoms: C6_8  and  O3_9 
REMARK    5  A    between atoms: C7_11  and  C8_12 
REMARK    6  A    between atoms: C8_12  and  C9_13 
REMARK    7  A    between atoms: C13_17  and  O4_18 
REMARK    8  A    between atoms: C14_20  and  C15_21 
REMARK    9  A    between atoms: C17_24  and  O6_25 
REMARK   10  A    between atoms: C18_29  and  C19_30 
REMARK   11  A    between atoms: C23_34  and  C24_35 
REMARK   12  A    between atoms: C24_35  and  C25_36 
ROOT
HETATM    1  C25 UNL     1       0.411  23.546  21.302  1.00  0.00    -0.004 C 
HETATM    2  C26 UNL     1       1.585  24.053  21.018  1.00  0.00     0.015 C 
HETATM    3  C27 UNL     1       2.786  23.589  21.741  1.00  0.00     0.060 C 
HETATM    4  C28 UNL     1       1.740  25.066  19.987  1.00  0.00     0.094 C 
HETATM    5  N2  UNL     1       1.873  25.862  19.144  1.00  0.00    -0.192 NA
ENDROOT
BRANCH   1   6
HETATM    6  C24 UNL     1      -0.841  23.967  20.618  1.00  0.00     0.072 C 
BRANCH   6   7
HETATM    7  C23 UNL     1      -1.501  22.831  19.927  1.00  0.00     0.004 A 
HETATM    8  C2  UNL     1      -1.085  22.303  18.716  1.00  0.00     0.107 A 
HETATM    9  C3  UNL     1      -1.967  21.285  18.425  1.00  0.00     0.118 A 
HETATM   10  N1  UNL     1      -2.868  21.214  19.422  1.00  0.00    -0.353 N 
HETATM   11  C18 UNL     1      -2.610  22.142  20.350  1.00  0.00     0.027 A 
ATOM     12  H1  UNL     1      -3.638  20.546  19.464  1.00  0.00     0.166 HD
BRANCH   8  13
HETATM   13  O1  UNL     1      -0.014  22.694  17.939  1.00  0.00    -0.353 OA
HETATM   14  C1  UNL     1      -0.137  23.732  17.002  1.00  0.00     0.210 C 
ENDBRANCH   8  13
BRANCH   9  15
HETATM   15  C4  UNL     1      -1.986  20.422  17.260  1.00  0.00     0.217 C 
HETATM   16  O2  UNL     1      -2.020  19.152  17.524  1.00  0.00    -0.285 OA
BRANCH  15  17
HETATM   17  C5  UNL     1      -1.976  20.782  15.856  1.00  0.00     0.084 A 
HETATM   18  C6  UNL     1      -0.816  20.633  15.114  1.00  0.00     0.092 A 
HETATM   19  C7  UNL     1      -0.742  21.068  13.776  1.00  0.00     0.014 A 
HETATM   20  C13 UNL     1      -1.825  21.651  13.170  1.00  0.00     0.091 A 
HETATM   21  C14 UNL     1      -2.982  21.795  13.915  1.00  0.00     0.077 A 
HETATM   22  C17 UNL     1      -3.078  21.370  15.251  1.00  0.00     0.099 A 
BRANCH  18  23
HETATM   23  O3  UNL     1       0.340  20.061  15.588  1.00  0.00    -0.359 OA
ATOM     24  H3  UNL     1       1.194  20.474  15.559  1.00  0.00     0.217 HD
ENDBRANCH  18  23
BRANCH  19  25
HETATM   25  C8  UNL     1       0.532  20.852  13.041  1.00  0.00     0.072 C 
BRANCH  25  26
HETATM   26  C9  UNL     1       0.456  19.773  12.058  1.00  0.00    -0.020 C 
HETATM   27  C10 UNL     1       1.388  19.622  11.131  1.00  0.00    -0.091 C 
HETATM   28  C11 UNL     1       2.578  20.497  10.982  1.00  0.00     0.042 C 
HETATM   29  C12 UNL     1       1.274  18.501  10.127  1.00  0.00     0.042 C 
ENDBRANCH  25  26
ENDBRANCH  19  25
BRANCH  20  30
HETATM   30  O4  UNL     1      -1.659  22.039  11.881  1.00  0.00    -0.359 OA
ATOM     31  H4  UNL     1      -2.078  22.853  11.627  1.00  0.00     0.217 HD
ENDBRANCH  20  30
BRANCH  21  32
HETATM   32  C15 UNL     1      -4.151  22.402  13.285  1.00  0.00     0.161 C 
HETATM   33  C16 UNL     1      -5.058  21.722  12.329  1.00  0.00     0.097 C 
HETATM   34  O5  UNL     1      -4.449  23.605  13.547  1.00  0.00    -0.293 OA
ENDBRANCH  21  32
BRANCH  22  35
HETATM   35  O6  UNL     1      -4.249  21.567  15.859  1.00  0.00    -0.359 OA
ATOM     36  H6  UNL     1      -4.930  22.142  15.530  1.00  0.00     0.217 HD
ENDBRANCH  22  35
ENDBRANCH  15  17
ENDBRANCH   9  15
BRANCH  11  37
HETATM   37  C19 UNL     1      -3.403  22.360  21.601  1.00  0.00    -0.008 C 
HETATM   38  C20 UNL     1      -4.521  21.336  21.646  1.00  0.00     0.021 C 
HETATM   39  C21 UNL     1      -4.036  23.712  21.679  1.00  0.00     0.021 C 
HETATM   40  C22 UNL     1      -2.539  22.098  22.837  1.00  0.00     0.021 C 
ENDBRANCH  11  37
ENDBRANCH   6   7
ENDBRANCH   1   6
TORSDOF 12
ENDMDL
MODEL 3
REMARK VINA RESULT: -6.515408395      0.824      1.252
REMARK  12 active torsions:
REMARK  status: ('A' for Active; 'I' for Inactive)
REMARK    1  A    between atoms: O1_2  and  C2_3 
REMARK    2  A    between atoms: C3_4  and  C4_5 
REMARK    3  A    between atoms: C4_5  and  C5_7 
REMARK    4  A    between atoms: C6_8  and  O3_9 
REMARK    5  A    between atoms: C7_11  and  C8_12 
REMARK    6  A    between atoms: C8_12  and  C9_13 
REMARK    7  A    between atoms: C13_17  and  O4_18 
REMARK    8  A    between atoms: C14_20  and  C15_21 
REMARK    9  A    between atoms: C17_24  and  O6_25 
REMARK   10  A    between atoms: C18_29  and  C19_30 
REMARK   11  A    between atoms: C23_34  and  C24_35 
REMARK   12  A    between atoms: C24_35  and  C25_36 
ROOT
HETATM    1  C25 UNL     1       0.423  23.403  21.293  1.00  0.00    -0.004 C 
HETATM    2  C26 UNL     1       1.616  23.874  21.024  1.00  0.00     0.015 C 
HETATM    3  C27 UNL     1       2.799  23.335  21.723  1.00  0.00     0.060 C 
HETATM    4  C28 UNL     1       1.809  24.919  20.032  1.00  0.00     0.094 C 
HETATM    5  N2  UNL     1       1.971  25.742  19.221  1.00  0.00    -0.192 NA
ENDROOT
BRANCH   1   6
HETATM    6  C24 UNL     1      -0.813  23.900  20.631  1.00  0.00     0.072 C 
BRANCH   6   7
HETATM    7  C23 UNL     1      -1.518  22.820  19.897  1.00  0.00     0.004 A 
HETATM    8  C2  UNL     1      -1.081  22.270  18.703  1.00  0.00     0.107 A 
HETATM    9  C3  UNL     1      -2.018  21.321  18.358  1.00  0.00     0.118 A 
HETATM   10  N1  UNL     1      -2.971  21.309  19.309  1.00  0.00    -0.353 N 
HETATM   11  C18 UNL     1      -2.694  22.210  20.258  1.00  0.00     0.027 A 
ATOM     12  H1  UNL     1      -3.788  20.699  19.306  1.00  0.00     0.166 HD
BRANCH   8  13
HETATM   13  O1  UNL     1       0.053  22.588  17.983  1.00  0.00    -0.353 OA
HETATM   14  C1  UNL     1       0.035  23.597  17.007  1.00  0.00     0.210 C 
ENDBRANCH   8  13
BRANCH   9  15
HETATM   15  C4  UNL     1      -2.042  20.469  17.185  1.00  0.00     0.217 C 
HETATM   16  O2  UNL     1      -2.036  19.197  17.437  1.00  0.00    -0.285 OA
BRANCH  15  17
HETATM   17  C5  UNL     1      -2.074  20.843  15.785  1.00  0.00     0.084 A 
HETATM   18  C6  UNL     1      -3.231  21.376  15.241  1.00  0.00     0.092 A 
HETATM   19  C7  UNL     1      -3.331  21.655  13.864  1.00  0.00     0.014 A 
HETATM   20  C13 UNL     1      -2.278  21.406  13.022  1.00  0.00     0.091 A 
HETATM   21  C14 UNL     1      -1.123  20.876  13.572  1.00  0.00     0.077 A 
HETATM   22  C17 UNL     1      -1.003  20.588  14.942  1.00  0.00     0.099 A 
BRANCH  18  23
HETATM   23  O3  UNL     1      -4.359  21.684  15.963  1.00  0.00    -0.359 OA
ATOM     24  H3  UNL     1      -5.123  22.120  15.605  1.00  0.00     0.217 HD
ENDBRANCH  18  23
BRANCH  19  25
HETATM   25  C8  UNL     1      -4.598  22.248  13.361  1.00  0.00     0.072 C 
BRANCH  25  26
HETATM   26  C9  UNL     1      -4.676  23.695  13.554  1.00  0.00    -0.020 C 
HETATM   27  C10 UNL     1      -5.823  24.288  13.843  1.00  0.00    -0.091 C 
HETATM   28  C11 UNL     1      -7.120  23.583  14.001  1.00  0.00     0.042 C 
HETATM   29  C12 UNL     1      -5.869  25.785  14.029  1.00  0.00     0.042 C 
ENDBRANCH  25  26
ENDBRANCH  19  25
BRANCH  20  30
HETATM   30  O4  UNL     1      -2.466  21.705  11.712  1.00  0.00    -0.359 OA
ATOM     31  H4  UNL     1      -2.703  22.603  11.513  1.00  0.00     0.217 HD
ENDBRANCH  20  30
BRANCH  21  32
HETATM   32  C15 UNL     1       0.015  20.615  12.695  1.00  0.00     0.161 C 
HETATM   33  C16 UNL     1       0.129  19.472  11.758  1.00  0.00     0.097 C 
HETATM   34  O5  UNL     1       1.007  21.402  12.706  1.00  0.00    -0.293 OA
ENDBRANCH  21  32
BRANCH  22  35
HETATM   35  O6  UNL     1       0.163  20.078  15.345  1.00  0.00    -0.359 OA
ATOM     36  H6  UNL     1       0.343  19.148  15.410  1.00  0.00     0.217 HD
ENDBRANCH  22  35
ENDBRANCH  15  17
ENDBRANCH   9  15
BRANCH  11  37
HETATM   37  C19 UNL     1      -3.530  22.476  21.471  1.00  0.00    -0.008 C 
HETATM   38  C20 UNL     1      -4.741  21.565  21.430  1.00  0.00     0.021 C 
HETATM   39  C21 UNL     1      -4.034  23.882  21.551  1.00  0.00     0.021 C 
HETATM   40  C22 UNL     1      -2.764  22.106  22.744  1.00  0.00     0.021 C 
ENDBRANCH  11  37
ENDBRANCH   6   7
ENDBRANCH   1   6
TORSDOF 12
ENDMDL
MODEL 4
REMARK VINA RESULT: -6.396599030      0.730      1.118
REMARK  12 active torsions:
REMARK  status: ('A' for Active; 'I' for Inactive)
REMARK    1  A    between atoms: O1_2  and  C2_3 
REMARK    2  A    between atoms: C3_4  and  C4_5 
REMARK    3  A    between atoms: C4_5  and  C5_7 
REMARK    4  A    between atoms: C6_8  and  O3_9 
REMARK    5  A    between atoms: C7_11  and  C8_12 
REMARK    6  A    between atoms: C8_12  and  C9_13 
REMARK    7  A    between atoms: C13_17  and  O4_18 
REMARK    8  A    between atoms: C14_20  and  C15_21 
REMARK    9  A    between atoms: C17_24  and  O6_25 
REMARK   10  A    between atoms: C18_29  and  C19_30 
REMARK   11  A    between atoms: C23_34  and  C24_35 
REMARK   12  A    between atoms: C24_35  and  C25_36 
ROOT
HETATM    1  C25 UNL     1      -0.505  25.165  20.247  1.00  0.00    -0.004 C 
HETATM    2  C26 UNL     1       0.509  25.934  19.939  1.00  0.00     0.015 C 
HETATM    3  C27 UNL     1       0.274  27.281  19.380  1.00  0.00     0.060 C 
HETATM    4  C28 UNL     1       1.880  25.496  20.147  1.00  0.00     0.094 C 
HETATM    5  N2  UNL     1       2.981  25.159  20.333  1.00  0.00    -0.192 NA
ENDROOT
BRANCH   1   6
HETATM    6  C24 UNL     1      -0.343  23.797  20.810  1.00  0.00     0.072 C 
BRANCH   6   7
HETATM    7  C23 UNL     1      -1.167  22.800  20.082  1.00  0.00     0.004 A 
HETATM    8  C2  UNL     1      -0.812  22.225  18.873  1.00  0.00     0.107 A 
HETATM    9  C3  UNL     1      -1.845  21.376  18.540  1.00  0.00     0.118 A 
HETATM   10  N1  UNL     1      -2.774  21.446  19.513  1.00  0.00    -0.353 N 
HETATM   11  C18 UNL     1      -2.388  22.303  20.464  1.00  0.00     0.027 A 
ATOM     12  H1  UNL     1      -3.646  20.919  19.523  1.00  0.00     0.166 HD
BRANCH   8  13
HETATM   13  O1  UNL     1       0.331  22.439  18.130  1.00  0.00    -0.353 OA
HETATM   14  C1  UNL     1       0.398  23.471  17.180  1.00  0.00     0.210 C 
ENDBRANCH   8  13
BRANCH   9  15
HETATM   15  C4  UNL     1      -1.978  20.545  17.359  1.00  0.00     0.217 C 
HETATM   16  O2  UNL     1      -2.144  19.282  17.599  1.00  0.00    -0.285 OA
BRANCH  15  17
HETATM   17  C5  UNL     1      -1.955  20.932  15.963  1.00  0.00     0.084 A 
HETATM   18  C6  UNL     1      -3.097  21.445  15.370  1.00  0.00     0.092 A 
HETATM   19  C7  UNL     1      -3.140  21.736  13.993  1.00  0.00     0.014 A 
HETATM   20  C13 UNL     1      -2.044  21.518  13.198  1.00  0.00     0.091 A 
HETATM   21  C14 UNL     1      -0.904  21.008  13.796  1.00  0.00     0.077 A 
HETATM   22  C17 UNL     1      -0.840  20.710  15.167  1.00  0.00     0.099 A 
BRANCH  18  23
HETATM   23  O3  UNL     1      -4.263  21.721  16.043  1.00  0.00    -0.359 OA
ATOM     24  H3  UNL     1      -5.131  21.500  15.725  1.00  0.00     0.217 HD
ENDBRANCH  18  23
BRANCH  19  25
HETATM   25  C8  UNL     1      -4.396  22.305  13.437  1.00  0.00     0.072 C 
BRANCH  25  26
HETATM   26  C9  UNL     1      -5.304  21.291  12.904  1.00  0.00    -0.020 C 
HETATM   27  C10 UNL     1      -6.610  21.362  13.108  1.00  0.00    -0.091 C 
HETATM   28  C11 UNL     1      -7.285  22.441  13.872  1.00  0.00     0.042 C 
HETATM   29  C12 UNL     1      -7.516  20.294  12.549  1.00  0.00     0.042 C 
ENDBRANCH  25  26
ENDBRANCH  19  25
BRANCH  20  30
HETATM   30  O4  UNL     1      -2.179  21.826  11.884  1.00  0.00    -0.359 OA
ATOM     31  H4  UNL     1      -2.025  22.732  11.643  1.00  0.00     0.217 HD
ENDBRANCH  20  30
BRANCH  21  32
HETATM   32  C15 UNL     1       0.278  20.780  12.971  1.00  0.00     0.161 C 
HETATM   33  C16 UNL     1       0.487  19.618  12.075  1.00  0.00     0.097 C 
HETATM   34  O5  UNL     1       1.228  21.619  12.992  1.00  0.00    -0.293 OA
ENDBRANCH  21  32
BRANCH  22  35
HETATM   35  O6  UNL     1       0.316  20.221  15.619  1.00  0.00    -0.359 OA
ATOM     36  H6  UNL     1       0.477  19.300  15.787  1.00  0.00     0.217 HD
ENDBRANCH  22  35
ENDBRANCH  15  17
ENDBRANCH   9  15
BRANCH  11  37
HETATM   37  C19 UNL     1      -3.167  22.636  21.699  1.00  0.00    -0.008 C 
HETATM   38  C20 UNL     1      -4.394  21.745  21.747  1.00  0.00     0.021 C 
HETATM   39  C21 UNL     1      -3.644  24.052  21.740  1.00  0.00     0.021 C 
HETATM   40  C22 UNL     1      -2.353  22.304  22.953  1.00  0.00     0.021 C 
ENDBRANCH  11  37
ENDBRANCH   6   7
ENDBRANCH   1   6
TORSDOF 12
ENDMDL
MODEL 5
REMARK VINA RESULT: -6.296391765      1.589      3.985
REMARK  12 active torsions:
REMARK  status: ('A' for Active; 'I' for Inactive)
REMARK    1  A    between atoms: O1_2  and  C2_3 
REMARK    2  A    between atoms: C3_4  and  C4_5 
REMARK    3  A    between atoms: C4_5  and  C5_7 
REMARK    4  A    between atoms: C6_8  and  O3_9 
REMARK    5  A    between atoms: C7_11  and  C8_12 
REMARK    6  A    between atoms: C8_12  and  C9_13 
REMARK    7  A    between atoms: C13_17  and  O4_18 
REMARK    8  A    between atoms: C14_20  and  C15_21 
REMARK    9  A    between atoms: C17_24  and  O6_25 
REMARK   10  A    between atoms: C18_29  and  C19_30 
REMARK   11  A    between atoms: C23_34  and  C24_35 
REMARK   12  A    between atoms: C24_35  and  C25_36 
ROOT
HETATM    1  C25 UNL     1      -0.198  23.513  21.373  1.00  0.00    -0.004 C 
HETATM    2  C26 UNL     1       0.903  24.212  21.259  1.00  0.00     0.015 C 
HETATM    3  C27 UNL     1       2.064  23.913  22.121  1.00  0.00     0.060 C 
HETATM    4  C28 UNL     1       1.020  25.284  20.282  1.00  0.00     0.094 C 
HETATM    5  N2  UNL     1       1.126  26.128  19.484  1.00  0.00    -0.192 NA
ENDROOT
BRANCH   1   6
HETATM    6  C24 UNL     1      -1.406  23.762  20.541  1.00  0.00     0.072 C 
BRANCH   6   7
HETATM    7  C23 UNL     1      -1.849  22.536  19.831  1.00  0.00     0.004 A 
HETATM    8  C2  UNL     1      -1.267  22.049  18.672  1.00  0.00     0.107 A 
HETATM    9  C3  UNL     1      -1.977  20.915  18.340  1.00  0.00     0.118 A 
HETATM   10  N1  UNL     1      -2.940  20.739  19.264  1.00  0.00    -0.353 N 
HETATM   11  C18 UNL     1      -2.886  21.709  20.184  1.00  0.00     0.027 A 
ATOM     12  H1  UNL     1      -3.614  19.974  19.263  1.00  0.00     0.166 HD
BRANCH   8  13
HETATM   13  O1  UNL     1      -0.198  22.569  17.972  1.00  0.00    -0.353 OA
HETATM   14  C1  UNL     1      -0.330  23.741  17.210  1.00  0.00     0.210 C 
ENDBRANCH   8  13
BRANCH   9  15
HETATM   15  C4  UNL     1      -1.785  20.039  17.201  1.00  0.00     0.217 C 
HETATM   16  O2  UNL     1      -1.814  18.772  17.480  1.00  0.00    -0.285 OA
BRANCH  15  17
HETATM   17  C5  UNL     1      -1.570  20.382  15.810  1.00  0.00     0.084 A 
HETATM   18  C6  UNL     1      -0.318  20.798  15.388  1.00  0.00     0.092 A 
HETATM   19  C7  UNL     1      -0.099  21.237  14.067  1.00  0.00     0.014 A 
HETATM   20  C13 UNL     1      -1.127  21.261  13.160  1.00  0.00     0.091 A 
HETATM   21  C14 UNL     1      -2.375  20.843  13.587  1.00  0.00     0.077 A 
HETATM   22  C17 UNL     1      -2.616  20.403  14.899  1.00  0.00     0.099 A 
BRANCH  18  23
HETATM   23  O3  UNL     1       0.802  20.818  16.183  1.00  0.00    -0.359 OA
ATOM     24  H3  UNL     1       1.236  21.610  16.478  1.00  0.00     0.217 HD
ENDBRANCH  18  23
BRANCH  19  25
HETATM   25  C8  UNL     1       1.278  21.645  13.686  1.00  0.00     0.072 C 
BRANCH  25  26
HETATM   26  C9  UNL     1       1.484  23.092  13.728  1.00  0.00    -0.020 C 
HETATM   27  C10 UNL     1       2.421  23.631  14.491  1.00  0.00    -0.091 C 
HETATM   28  C11 UNL     1       3.343  22.860  15.362  1.00  0.00     0.042 C 
HETATM   29  C12 UNL     1       2.601  25.129  14.515  1.00  0.00     0.042 C 
ENDBRANCH  25  26
ENDBRANCH  19  25
BRANCH  20  30
HETATM   30  O4  UNL     1      -0.822  21.701  11.913  1.00  0.00    -0.359 OA
ATOM     31  H4  UNL     1      -1.538  21.732  11.288  1.00  0.00     0.217 HD
ENDBRANCH  20  30
BRANCH  21  32
HETATM   32  C15 UNL     1      -3.481  20.849  12.633  1.00  0.00     0.161 C 
HETATM   33  C16 UNL     1      -3.725  19.816  11.598  1.00  0.00     0.097 C 
HETATM   34  O5  UNL     1      -4.322  21.796  12.656  1.00  0.00    -0.293 OA
ENDBRANCH  21  32
BRANCH  22  35
HETATM   35  O6  UNL     1      -3.865  20.027  15.184  1.00  0.00    -0.359 OA
ATOM     36  H6  UNL     1      -4.623  20.260  14.662  1.00  0.00     0.217 HD
ENDBRANCH  22  35
ENDBRANCH  15  17
ENDBRANCH   9  15
BRANCH  11  37
HETATM   37  C19 UNL     1      -3.801  21.838  21.362  1.00  0.00    -0.008 C 
HETATM   38  C20 UNL     1      -4.742  20.648  21.372  1.00  0.00     0.021 C 
HETATM   39  C21 UNL     1      -4.645  23.071  21.330  1.00  0.00     0.021 C 
HETATM   40  C22 UNL     1      -3.008  21.761  22.669  1.00  0.00     0.021 C 
ENDBRANCH  11  37
ENDBRANCH   6   7
ENDBRANCH   1   6
TORSDOF 12
ENDMDL
