MODEL 1
REMARK VINA RESULT: -8.877825497      0.000      0.000
REMARK  8 active torsions:
REMARK  status: ('A' for Active; 'I' for Inactive)
REMARK    1  A    between atoms: N1_1  and  C1_4 
REMARK    2  A    between atoms: C2_7  and  N3_8 
REMARK    3  A    between atoms: N4_11  and  C5_12 
REMARK    4  A    between atoms: C5_12  and  N5_13 
REMARK    5  A    between atoms: N5_13  and  C6_16 
REMARK    6  A    between atoms: C6_16  and  C7_17 
REMARK    7  A    between atoms: C7_17  and  N6_18 
REMARK    8  A    between atoms: C14_30  and  N9_31 
ROOT
HETATM    1  N3  UNL     1      16.840   9.748  16.842  1.00  0.00    -0.362 N 
HETATM    2  C3  UNL     1      16.529  10.177  15.491  1.00  0.00     0.144 C 
HETATM    3  C4  UNL     1      17.728  10.175  14.584  1.00  0.00     0.138 C 
HETATM    4  N4  UNL     1      18.561   9.039  14.715  1.00  0.00    -0.388 N 
HETATM    5  C12 UNL     1      18.847   8.601  16.057  1.00  0.00     0.138 C 
HETATM    6  C13 UNL     1      18.204   9.459  17.134  1.00  0.00     0.144 C 
ENDROOT
BRANCH   4   7
HETATM    7  C5  UNL     1      19.720   9.023  13.864  1.00  0.00     0.352 C 
BRANCH   7   8
HETATM    8  N5  UNL     1      20.403   7.756  14.060  1.00  0.00    -0.058 N 
ATOM      9  H52 UNL     1      21.413   7.890  14.110  1.00  0.00     0.279 HD
ATOM     10  H51 UNL     1      20.237   7.394  14.999  1.00  0.00     0.279 HD
BRANCH   8  11
HETATM   11  C6  UNL     1      20.062   6.772  13.057  1.00  0.00     0.255 C 
BRANCH  11  12
HETATM   12  C7  UNL     1      21.279   6.392  12.252  1.00  0.00     0.174 C 
BRANCH  12  13
HETATM   13  N6  UNL     1      20.867   6.014  10.905  1.00  0.00    -0.192 N 
HETATM   14  C8  UNL     1      19.561   5.766  10.661  1.00  0.00     0.110 A 
HETATM   15  C9  UNL     1      19.125   5.405   9.396  1.00  0.00     0.035 A 
HETATM   16  C10 UNL     1      20.056   5.306   8.397  1.00  0.00     0.107 A 
HETATM   17  N7  UNL     1      21.347   5.546   8.625  1.00  0.00    -0.202 N 
HETATM   18  C11 UNL     1      21.733   5.900   9.887  1.00  0.00     0.677 A 
ATOM     19  H7  UNL     1      22.032   5.468   7.873  1.00  0.00     0.183 HD
HETATM   20  N8  UNL     1      22.995   6.140  10.084  1.00  0.00    -0.234 N 
ATOM     21  H82 UNL     1      23.283   6.403  11.027  1.00  0.00     0.174 HD
ATOM     22  H81 UNL     1      23.653   6.053   9.310  1.00  0.00     0.174 HD
ENDBRANCH  12  13
ENDBRANCH  11  12
ENDBRANCH   8  11
ENDBRANCH   7   8
ENDBRANCH   4   7
BRANCH   1  23
HETATM   23  C2  UNL     1      15.741   9.658  17.721  1.00  0.00     0.158 A 
HETATM   24  N2  UNL     1      15.165   8.428  17.962  1.00  0.00    -0.174 N 
HETATM   25  C1  UNL     1      14.127   8.241  18.749  1.00  0.00     0.680 A 
ATOM     26  H2  UNL     1      15.568   7.612  17.502  1.00  0.00     0.186 HD
HETATM   27  N10 UNL     1      13.554   9.274  19.384  1.00  0.00    -0.154 N 
HETATM   28  C15 UNL     1      14.069  10.500  19.192  1.00  0.00     0.296 A 
ATOM     29  H10 UNL     1      12.751   9.133  19.996  1.00  0.00     0.187 HD
HETATM   30  C14 UNL     1      15.162  10.716  18.366  1.00  0.00     0.215 A 
HETATM   31  O3  UNL     1      13.528  11.468  19.787  1.00  0.00    -0.265 OA
BRANCH  25  32
HETATM   32  N1  UNL     1      13.672   7.026  18.872  1.00  0.00    -0.234 N 
ATOM     33  H12 UNL     1      14.112   6.351  19.497  1.00  0.00     0.174 HD
ATOM     34  H11 UNL     1      12.847   6.773  18.329  1.00  0.00     0.174 HD
ENDBRANCH  25  32
BRANCH  30  35
HETATM   35  N9  UNL     1      15.663  12.023  18.200  1.00  0.00    -0.106 N 
HETATM   36  O1  UNL     1      15.125  12.747  17.324  1.00  0.00    -0.531 OA
HETATM   37  O2  UNL     1      16.708  12.515  18.938  1.00  0.00    -0.531 OA
ENDBRANCH  30  35
ENDBRANCH   1  23
TORSDOF 8
ENDMDL
MODEL 2
REMARK VINA RESULT: -8.271562353      7.396     10.820
REMARK  8 active torsions:
REMARK  status: ('A' for Active; 'I' for Inactive)
REMARK    1  A    between atoms: N1_1  and  C1_4 
REMARK    2  A    between atoms: C2_7  and  N3_8 
REMARK    3  A    between atoms: N4_11  and  C5_12 
REMARK    4  A    between atoms: C5_12  and  N5_13 
REMARK    5  A    between atoms: N5_13  and  C6_16 
REMARK    6  A    between atoms: C6_16  and  C7_17 
REMARK    7  A    between atoms: C7_17  and  N6_18 
REMARK    8  A    between atoms: C14_30  and  N9_31 
ROOT
HETATM    1  N3  UNL     1      20.319   3.975   9.202  1.00  0.00    -0.362 N 
HETATM    2  C3  UNL     1      21.198   4.981   8.638  1.00  0.00     0.144 C 
HETATM    3  C4  UNL     1      21.623   6.017   9.640  1.00  0.00     0.138 C 
HETATM    4  N4  UNL     1      21.982   5.497  10.906  1.00  0.00    -0.388 N 
HETATM    5  C12 UNL     1      21.120   4.480  11.452  1.00  0.00     0.138 C 
HETATM    6  C13 UNL     1      19.935   4.137  10.565  1.00  0.00     0.144 C 
ENDROOT
BRANCH   4   7
HETATM    7  C5  UNL     1      22.381   6.474  11.883  1.00  0.00     0.352 C 
BRANCH   7   8
HETATM    8  N5  UNL     1      21.585   6.261  13.080  1.00  0.00    -0.058 N 
ATOM      9  H52 UNL     1      21.052   7.099  13.317  1.00  0.00     0.279 HD
ATOM     10  H51 UNL     1      20.813   5.621  12.895  1.00  0.00     0.279 HD
BRANCH   8  11
HETATM   11  C6  UNL     1      22.371   5.812  14.207  1.00  0.00     0.255 C 
BRANCH  11  12
HETATM   12  C7  UNL     1      21.703   4.642  14.885  1.00  0.00     0.174 C 
BRANCH  12  13
HETATM   13  N6  UNL     1      22.646   4.016  15.806  1.00  0.00    -0.192 N 
HETATM   14  C8  UNL     1      23.678   4.745  16.286  1.00  0.00     0.110 A 
HETATM   15  C9  UNL     1      24.596   4.191  17.165  1.00  0.00     0.035 A 
HETATM   16  C10 UNL     1      24.429   2.883  17.533  1.00  0.00     0.107 A 
HETATM   17  N7  UNL     1      23.416   2.155  17.066  1.00  0.00    -0.202 N 
HETATM   18  C11 UNL     1      22.534   2.741  16.202  1.00  0.00     0.677 A 
ATOM     19  H7  UNL     1      23.302   1.181  17.347  1.00  0.00     0.183 HD
HETATM   20  N8  UNL     1      21.548   2.014  15.767  1.00  0.00    -0.234 N 
ATOM     21  H82 UNL     1      20.889   2.452  15.122  1.00  0.00     0.174 HD
ATOM     22  H81 UNL     1      21.463   1.044  16.069  1.00  0.00     0.174 HD
ENDBRANCH  12  13
ENDBRANCH  11  12
ENDBRANCH   8  11
ENDBRANCH   7   8
ENDBRANCH   4   7
BRANCH   1  23
HETATM   23  C2  UNL     1      19.944   2.933   8.329  1.00  0.00     0.158 A 
HETATM   24  N2  UNL     1      20.623   1.732   8.375  1.00  0.00    -0.174 N 
HETATM   25  C1  UNL     1      20.363   0.708   7.591  1.00  0.00     0.680 A 
ATOM     26  H2  UNL     1      21.372   1.632   9.059  1.00  0.00     0.186 HD
HETATM   27  N10 UNL     1      19.387   0.777   6.674  1.00  0.00    -0.154 N 
HETATM   28  C15 UNL     1      18.688   1.920   6.579  1.00  0.00     0.296 A 
ATOM     29  H10 UNL     1      19.182  -0.015   6.066  1.00  0.00     0.187 HD
HETATM   30  C14 UNL     1      18.948   3.010   7.395  1.00  0.00     0.215 A 
HETATM   31  O3  UNL     1      17.774   1.984   5.715  1.00  0.00    -0.265 OA
BRANCH  25  32
HETATM   32  N1  UNL     1      21.096  -0.360   7.730  1.00  0.00    -0.234 N 
ATOM     33  H12 UNL     1      21.232  -0.802   8.639  1.00  0.00     0.174 HD
ATOM     34  H11 UNL     1      21.523  -0.752   6.891  1.00  0.00     0.174 HD
ENDBRANCH  25  32
BRANCH  30  35
HETATM   35  N9  UNL     1      18.181   4.185   7.254  1.00  0.00    -0.106 N 
HETATM   36  O1  UNL     1      18.356   4.874   6.217  1.00  0.00    -0.531 OA
HETATM   37  O2  UNL     1      17.282   4.601   8.200  1.00  0.00    -0.531 OA
ENDBRANCH  30  35
ENDBRANCH   1  23
TORSDOF 8
ENDMDL
MODEL 3
REMARK VINA RESULT: -8.255201437      7.384     10.794
REMARK  8 active torsions:
REMARK  status: ('A' for Active; 'I' for Inactive)
REMARK    1  A    between atoms: N1_1  and  C1_4 
REMARK    2  A    between atoms: C2_7  and  N3_8 
REMARK    3  A    between atoms: N4_11  and  C5_12 
REMARK    4  A    between atoms: C5_12  and  N5_13 
REMARK    5  A    between atoms: N5_13  and  C6_16 
REMARK    6  A    between atoms: C6_16  and  C7_17 
REMARK    7  A    between atoms: C7_17  and  N6_18 
REMARK    8  A    between atoms: C14_30  and  N9_31 
ROOT
HETATM    1  N3  UNL     1      20.279   3.973   9.246  1.00  0.00    -0.362 N 
HETATM    2  C3  UNL     1      21.211   4.953   8.719  1.00  0.00     0.144 C 
HETATM    3  C4  UNL     1      21.617   5.982   9.737  1.00  0.00     0.138 C 
HETATM    4  N4  UNL     1      21.903   5.458  11.019  1.00  0.00    -0.388 N 
HETATM    5  C12 UNL     1      20.990   4.467  11.529  1.00  0.00     0.138 C 
HETATM    6  C13 UNL     1      19.838   4.152  10.588  1.00  0.00     0.144 C 
ENDROOT
BRANCH   4   7
HETATM    7  C5  UNL     1      22.283   6.428  12.011  1.00  0.00     0.352 C 
BRANCH   7   8
HETATM    8  N5  UNL     1      21.744   5.996  13.290  1.00  0.00    -0.058 N 
ATOM      9  H52 UNL     1      21.264   6.764  13.761  1.00  0.00     0.279 HD
ATOM     10  H51 UNL     1      20.956   5.363  13.158  1.00  0.00     0.279 HD
BRANCH   8  11
HETATM   11  C6  UNL     1      22.744   5.405  14.151  1.00  0.00     0.255 C 
BRANCH  11  12
HETATM   12  C7  UNL     1      22.209   5.250  15.553  1.00  0.00     0.174 C 
BRANCH  12  13
HETATM   13  N6  UNL     1      22.780   4.050  16.156  1.00  0.00    -0.192 N 
HETATM   14  C8  UNL     1      22.090   2.890  16.095  1.00  0.00     0.110 A 
HETATM   15  C9  UNL     1      22.596   1.727  16.653  1.00  0.00     0.035 A 
HETATM   16  C10 UNL     1      23.817   1.785  17.269  1.00  0.00     0.107 A 
HETATM   17  N7  UNL     1      24.507   2.922  17.336  1.00  0.00    -0.202 N 
HETATM   18  C11 UNL     1      23.971   4.046  16.772  1.00  0.00     0.677 A 
ATOM     19  H7  UNL     1      25.416   2.954  17.798  1.00  0.00     0.183 HD
HETATM   20  N8  UNL     1      24.666   5.142  16.840  1.00  0.00    -0.234 N 
ATOM     21  H82 UNL     1      24.266   5.981  16.419  1.00  0.00     0.174 HD
ATOM     22  H81 UNL     1      25.572   5.138  17.309  1.00  0.00     0.174 HD
ENDBRANCH  12  13
ENDBRANCH  11  12
ENDBRANCH   8  11
ENDBRANCH   7   8
ENDBRANCH   4   7
BRANCH   1  23
HETATM   23  C2  UNL     1      19.918   2.939   8.359  1.00  0.00     0.158 A 
HETATM   24  N2  UNL     1      20.597   1.738   8.405  1.00  0.00    -0.174 N 
HETATM   25  C1  UNL     1      20.348   0.719   7.610  1.00  0.00     0.680 A 
ATOM     26  H2  UNL     1      21.337   1.633   9.099  1.00  0.00     0.186 HD
HETATM   27  N10 UNL     1      19.385   0.795   6.680  1.00  0.00    -0.154 N 
HETATM   28  C15 UNL     1      18.686   1.938   6.584  1.00  0.00     0.296 A 
ATOM     29  H10 UNL     1      19.189   0.007   6.063  1.00  0.00     0.187 HD
HETATM   30  C14 UNL     1      18.934   3.022   7.413  1.00  0.00     0.215 A 
HETATM   31  O3  UNL     1      17.784   2.008   5.709  1.00  0.00    -0.265 OA
BRANCH  25  32
HETATM   32  N1  UNL     1      21.081  -0.349   7.750  1.00  0.00    -0.234 N 
ATOM     33  H12 UNL     1      20.857  -1.218   7.265  1.00  0.00     0.174 HD
ATOM     34  H11 UNL     1      21.899  -0.286   8.355  1.00  0.00     0.174 HD
ENDBRANCH  25  32
BRANCH  30  35
HETATM   35  N9  UNL     1      18.169   4.197   7.270  1.00  0.00    -0.106 N 
HETATM   36  O1  UNL     1      18.351   4.890   6.236  1.00  0.00    -0.531 OA
HETATM   37  O2  UNL     1      17.263   4.611   8.212  1.00  0.00    -0.531 OA
ENDBRANCH  30  35
ENDBRANCH   1  23
TORSDOF 8
ENDMDL
MODEL 4
REMARK VINA RESULT: -7.945649870      5.492      9.359
REMARK  8 active torsions:
REMARK  status: ('A' for Active; 'I' for Inactive)
REMARK    1  A    between atoms: N1_1  and  C1_4 
REMARK    2  A    between atoms: C2_7  and  N3_8 
REMARK    3  A    between atoms: N4_11  and  C5_12 
REMARK    4  A    between atoms: C5_12  and  N5_13 
REMARK    5  A    between atoms: N5_13  and  C6_16 
REMARK    6  A    between atoms: C6_16  and  C7_17 
REMARK    7  A    between atoms: C7_17  and  N6_18 
REMARK    8  A    between atoms: C14_30  and  N9_31 
ROOT
HETATM    1  N3  UNL     1      22.166   4.785  15.302  1.00  0.00    -0.362 N 
HETATM    2  C3  UNL     1      20.984   5.333  15.940  1.00  0.00     0.144 C 
HETATM    3  C4  UNL     1      20.482   6.581  15.270  1.00  0.00     0.138 C 
HETATM    4  N4  UNL     1      20.473   6.526  13.857  1.00  0.00    -0.388 N 
HETATM    5  C12 UNL     1      21.638   5.959  13.227  1.00  0.00     0.138 C 
HETATM    6  C13 UNL     1      22.712   5.515  14.207  1.00  0.00     0.144 C 
ENDROOT
BRANCH   4   7
HETATM    7  C5  UNL     1      20.006   7.716  13.196  1.00  0.00     0.352 C 
BRANCH   7   8
HETATM    8  N5  UNL     1      20.104   8.818  14.137  1.00  0.00    -0.058 N 
ATOM      9  H52 UNL     1      20.395   8.488  15.058  1.00  0.00     0.279 HD
ATOM     10  H51 UNL     1      20.901   9.416  13.917  1.00  0.00     0.279 HD
BRANCH   8  11
HETATM   11  C6  UNL     1      18.886   9.592  14.227  1.00  0.00     0.255 C 
BRANCH  11  12
HETATM   12  C7  UNL     1      17.863   8.871  15.069  1.00  0.00     0.174 C 
BRANCH  12  13
HETATM   13  N6  UNL     1      17.272   9.809  16.017  1.00  0.00    -0.192 N 
HETATM   14  C8  UNL     1      16.348  10.693  15.581  1.00  0.00     0.110 A 
HETATM   15  C9  UNL     1      15.760  11.601  16.448  1.00  0.00     0.035 A 
HETATM   16  C10 UNL     1      16.143  11.578  17.762  1.00  0.00     0.107 A 
HETATM   17  N7  UNL     1      17.053  10.712  18.205  1.00  0.00    -0.202 N 
HETATM   18  C11 UNL     1      17.607   9.834  17.316  1.00  0.00     0.677 A 
ATOM     19  H7  UNL     1      17.331  10.704  19.187  1.00  0.00     0.183 HD
HETATM   20  N8  UNL     1      18.485   8.991  17.771  1.00  0.00    -0.234 N 
ATOM     21  H82 UNL     1      18.899   8.337  17.107  1.00  0.00     0.174 HD
ATOM     22  H81 UNL     1      18.740   9.010  18.759  1.00  0.00     0.174 HD
ENDBRANCH  12  13
ENDBRANCH  11  12
ENDBRANCH   8  11
ENDBRANCH   7   8
ENDBRANCH   4   7
BRANCH   1  23
HETATM   23  C2  UNL     1      22.643   3.572  15.840  1.00  0.00     0.158 A 
HETATM   24  N2  UNL     1      21.887   2.425  15.701  1.00  0.00    -0.174 N 
HETATM   25  C1  UNL     1      22.234   1.251  16.182  1.00  0.00     0.680 A 
ATOM     26  H2  UNL     1      21.005   2.492  15.193  1.00  0.00     0.186 HD
HETATM   27  N10 UNL     1      23.383   1.099  16.857  1.00  0.00    -0.154 N 
HETATM   28  C15 UNL     1      24.165   2.178  17.026  1.00  0.00     0.296 A 
ATOM     29  H10 UNL     1      23.656   0.190  17.230  1.00  0.00     0.187 HD
HETATM   30  C14 UNL     1      23.816   3.423  16.526  1.00  0.00     0.215 A 
HETATM   31  O3  UNL     1      25.243   2.034  17.661  1.00  0.00    -0.265 OA
BRANCH  25  32
HETATM   32  N1  UNL     1      21.415   0.255  15.994  1.00  0.00    -0.234 N 
ATOM     33  H12 UNL     1      20.743   0.253  15.228  1.00  0.00     0.174 HD
ATOM     34  H11 UNL     1      21.477  -0.535  16.636  1.00  0.00     0.174 HD
ENDBRANCH  25  32
BRANCH  30  35
HETATM   35  N9  UNL     1      24.675   4.522  16.732  1.00  0.00    -0.106 N 
HETATM   36  O1  UNL     1      24.238   5.485  17.412  1.00  0.00    -0.531 OA
HETATM   37  O2  UNL     1      25.941   4.581  16.209  1.00  0.00    -0.531 OA
ENDBRANCH  30  35
ENDBRANCH   1  23
TORSDOF 8
ENDMDL
MODEL 5
REMARK VINA RESULT: -7.847645074      2.197      3.223
REMARK  8 active torsions:
REMARK  status: ('A' for Active; 'I' for Inactive)
REMARK    1  A    between atoms: N1_1  and  C1_4 
REMARK    2  A    between atoms: C2_7  and  N3_8 
REMARK    3  A    between atoms: N4_11  and  C5_12 
REMARK    4  A    between atoms: C5_12  and  N5_13 
REMARK    5  A    between atoms: N5_13  and  C6_16 
REMARK    6  A    between atoms: C6_16  and  C7_17 
REMARK    7  A    between atoms: C7_17  and  N6_18 
REMARK    8  A    between atoms: C14_30  and  N9_31 
ROOT
HETATM    1  N3  UNL     1      16.853   9.751  16.856  1.00  0.00    -0.362 N 
HETATM    2  C3  UNL     1      16.534  10.184  15.509  1.00  0.00     0.144 C 
HETATM    3  C4  UNL     1      17.728  10.186  14.595  1.00  0.00     0.138 C 
HETATM    4  N4  UNL     1      18.562   9.050  14.717  1.00  0.00    -0.388 N 
HETATM    5  C12 UNL     1      18.857   8.608  16.056  1.00  0.00     0.138 C 
HETATM    6  C13 UNL     1      18.219   9.462  17.140  1.00  0.00     0.144 C 
ENDROOT
BRANCH   4   7
HETATM    7  C5  UNL     1      19.717   9.038  13.860  1.00  0.00     0.352 C 
BRANCH   7   8
HETATM    8  N5  UNL     1      20.273   7.696  13.875  1.00  0.00    -0.058 N 
ATOM      9  H52 UNL     1      20.161   7.266  14.794  1.00  0.00     0.279 HD
ATOM     10  H51 UNL     1      19.700   7.058  13.322  1.00  0.00     0.279 HD
BRANCH   8  11
HETATM   11  C6  UNL     1      21.654   7.654  13.449  1.00  0.00     0.255 C 
BRANCH  11  12
HETATM   12  C7  UNL     1      22.025   6.264  12.995  1.00  0.00     0.174 C 
BRANCH  12  13
HETATM   13  N6  UNL     1      22.283   5.429  14.164  1.00  0.00    -0.192 N 
HETATM   14  C8  UNL     1      23.436   5.596  14.850  1.00  0.00     0.110 A 
HETATM   15  C9  UNL     1      23.721   4.826  15.967  1.00  0.00     0.035 A 
HETATM   16  C10 UNL     1      22.802   3.889  16.356  1.00  0.00     0.107 A 
HETATM   17  N7  UNL     1      21.663   3.715  15.688  1.00  0.00    -0.202 N 
HETATM   18  C11 UNL     1      21.422   4.496  14.592  1.00  0.00     0.677 A 
ATOM     19  H7  UNL     1      20.985   3.013  15.987  1.00  0.00     0.183 HD
HETATM   20  N8  UNL     1      20.300   4.316  13.962  1.00  0.00    -0.234 N 
ATOM     21  H82 UNL     1      20.120   4.899  13.144  1.00  0.00     0.174 HD
ATOM     22  H81 UNL     1      19.644   3.606  14.288  1.00  0.00     0.174 HD
ENDBRANCH  12  13
ENDBRANCH  11  12
ENDBRANCH   8  11
ENDBRANCH   7   8
ENDBRANCH   4   7
BRANCH   1  23
HETATM   23  C2  UNL     1      15.760   9.658  17.741  1.00  0.00     0.158 A 
HETATM   24  N2  UNL     1      15.175   8.429  17.969  1.00  0.00    -0.174 N 
HETATM   25  C1  UNL     1      14.141   8.240  18.761  1.00  0.00     0.680 A 
ATOM     26  H2  UNL     1      15.568   7.616  17.495  1.00  0.00     0.186 HD
HETATM   27  N10 UNL     1      13.581   9.268  19.414  1.00  0.00    -0.154 N 
HETATM   28  C15 UNL     1      14.105  10.492  19.236  1.00  0.00     0.296 A 
ATOM     29  H10 UNL     1      12.780   9.125  20.030  1.00  0.00     0.187 HD
HETATM   30  C14 UNL     1      15.194  10.711  18.405  1.00  0.00     0.215 A 
HETATM   31  O3  UNL     1      13.576  11.457  19.848  1.00  0.00    -0.265 OA
BRANCH  25  32
HETATM   32  N1  UNL     1      13.677   7.027  18.869  1.00  0.00    -0.234 N 
ATOM     33  H12 UNL     1      13.439   6.470  18.049  1.00  0.00     0.174 HD
ATOM     34  H11 UNL     1      13.570   6.644  19.808  1.00  0.00     0.174 HD
ENDBRANCH  25  32
BRANCH  30  35
HETATM   35  N9  UNL     1      15.705  12.016  18.256  1.00  0.00    -0.106 N 
HETATM   36  O1  UNL     1      15.186  12.747  17.374  1.00  0.00    -0.531 OA
HETATM   37  O2  UNL     1      16.739  12.499  19.014  1.00  0.00    -0.531 OA
ENDBRANCH  30  35
ENDBRANCH   1  23
TORSDOF 8
ENDMDL
