MODEL 1
REMARK VINA RESULT: -6.970432564      0.000      0.000
REMARK  10 active torsions:
REMARK  status: ('A' for Active; 'I' for Inactive)
REMARK    1  A    between atoms: O1_2  and  C2_3 
REMARK    2  A    between atoms: C2_3  and  C3_5 
REMARK    3  A    between atoms: C3_5  and  O3_6 
REMARK    4  A    between atoms: N2_14  and  C7_15 
REMARK    5  A    between atoms: C7_15  and  C8_16 
REMARK    6  A    between atoms: C8_16  and  C9_17 
REMARK    7  A    between atoms: C8_16  and  C14_29 
REMARK    8  A    between atoms: C9_17  and  O4_18 
REMARK    9  A    between atoms: O4_18  and  C10_19 
REMARK   10  A    between atoms: C11_22  and  N4_23 
ROOT
HETATM    1  C8  UNL     1      21.104   5.692  12.783  1.00  0.00     0.138 C 
ENDROOT
BRANCH   1   2
HETATM    2  C7  UNL     1      21.258   5.664  11.286  1.00  0.00     0.084 C 
BRANCH   2   3
HETATM    3  N2  UNL     1      20.173   5.346  10.506  1.00  0.00    -0.310 N 
HETATM    4  C3  UNL     1      20.498   4.797   9.225  1.00  0.00     0.398 C 
HETATM    5  N1  UNL     1      19.643   5.330   8.187  1.00  0.00    -0.013 N 
HETATM    6  C4  UNL     1      18.281   5.006   8.427  1.00  0.00     0.244 C 
ATOM      7  H12 UNL     1      19.775   6.335   8.072  1.00  0.00     0.283 HD
ATOM      8  H11 UNL     1      19.943   5.026   7.261  1.00  0.00     0.283 HD
HETATM    9  C5  UNL     1      17.858   5.293   9.808  1.00  0.00     0.072 C 
HETATM   10  C6  UNL     1      18.927   5.947  10.652  1.00  0.00     0.070 C 
BRANCH   4  11
HETATM   11  C2  UNL     1      20.554   3.327   9.185  1.00  0.00     0.345 C 
HETATM   12  O2  UNL     1      20.331   2.660  10.211  1.00  0.00    -0.257 OA
BRANCH  11  13
HETATM   13  O1  UNL     1      20.851   2.635   8.027  1.00  0.00    -0.321 OA
HETATM   14  C1  UNL     1      20.136   1.505   7.577  1.00  0.00     0.213 C 
ENDBRANCH  11  13
ENDBRANCH   4  11
BRANCH   4  15
HETATM   15  O3  UNL     1      21.817   5.212   8.842  1.00  0.00    -0.341 OA
ATOM     16  H3  UNL     1      21.891   4.950   7.932  1.00  0.00     0.215 HD
ENDBRANCH   4  15
ENDBRANCH   2   3
ENDBRANCH   1   2
BRANCH   1  17
HETATM   17  C9  UNL     1      22.266   4.902  13.437  1.00  0.00     0.196 C 
BRANCH  17  18
HETATM   18  O4  UNL     1      21.916   4.799  14.785  1.00  0.00    -0.334 OA
BRANCH  18  19
HETATM   19  C10 UNL     1      22.371   3.763  15.640  1.00  0.00     0.157 A 
HETATM   20  N3  UNL     1      21.794   2.592  15.723  1.00  0.00    -0.317 N 
HETATM   21  C11 UNL     1      22.303   1.690  16.558  1.00  0.00     0.144 A 
ATOM     22  H3  UNL     1      20.972   2.375  15.159  1.00  0.00     0.170 HD
HETATM   23  S1  UNL     1      23.631   2.503  17.249  1.00  0.00    -0.055 SA
HETATM   24  C12 UNL     1      23.470   3.989  16.421  1.00  0.00     0.033 A 
HETATM   25  C13 UNL     1      24.310   5.237  16.512  1.00  0.00     0.061 C 
BRANCH  21  26
HETATM   26  N4  UNL     1      21.887   0.466  16.797  1.00  0.00    -0.380 N 
ATOM     27  H42 UNL     1      21.183   0.161  17.469  1.00  0.00     0.158 HD
ATOM     28  H41 UNL     1      22.186  -0.405  16.358  1.00  0.00     0.158 HD
ENDBRANCH  21  26
ENDBRANCH  18  19
ENDBRANCH  17  18
ENDBRANCH   1  17
BRANCH   1  29
HETATM   29  C14 UNL     1      21.329   7.082  13.290  1.00  0.00     0.242 C 
HETATM   30  N5  UNL     1      20.271   7.721  13.963  1.00  0.00    -0.061 NA
HETATM   31  O5  UNL     1      22.434   7.618  13.099  1.00  0.00    -0.276 OA
ENDBRANCH   1  29
TORSDOF 10
ENDMDL
MODEL 2
REMARK VINA RESULT: -6.780706918      1.581      2.291
REMARK  10 active torsions:
REMARK  status: ('A' for Active; 'I' for Inactive)
REMARK    1  A    between atoms: O1_2  and  C2_3 
REMARK    2  A    between atoms: C2_3  and  C3_5 
REMARK    3  A    between atoms: C3_5  and  O3_6 
REMARK    4  A    between atoms: N2_14  and  C7_15 
REMARK    5  A    between atoms: C7_15  and  C8_16 
REMARK    6  A    between atoms: C8_16  and  C9_17 
REMARK    7  A    between atoms: C8_16  and  C14_29 
REMARK    8  A    between atoms: C9_17  and  O4_18 
REMARK    9  A    between atoms: O4_18  and  C10_19 
REMARK   10  A    between atoms: C11_22  and  N4_23 
ROOT
HETATM    1  C8  UNL     1      20.764   5.849  13.562  1.00  0.00     0.138 C 
ENDROOT
BRANCH   1   2
HETATM    2  C7  UNL     1      21.737   5.221  12.600  1.00  0.00     0.084 C 
BRANCH   2   3
HETATM    3  N2  UNL     1      21.619   5.486  11.257  1.00  0.00    -0.310 N 
HETATM    4  C3  UNL     1      20.630   4.706  10.578  1.00  0.00     0.398 C 
HETATM    5  N1  UNL     1      21.100   4.265   9.283  1.00  0.00    -0.013 N 
HETATM    6  C4  UNL     1      21.388   5.371   8.438  1.00  0.00     0.244 C 
ATOM      7  H12 UNL     1      21.901   3.639   9.368  1.00  0.00     0.283 HD
ATOM      8  H11 UNL     1      20.443   3.619   8.845  1.00  0.00     0.283 HD
HETATM    9  C5  UNL     1      22.213   6.397   9.097  1.00  0.00     0.072 C 
HETATM   10  C6  UNL     1      22.650   6.025  10.494  1.00  0.00     0.070 C 
BRANCH   4  11
HETATM   11  C2  UNL     1      19.305   5.339  10.492  1.00  0.00     0.345 C 
HETATM   12  O2  UNL     1      19.116   6.473  10.969  1.00  0.00    -0.257 OA
BRANCH  11  13
HETATM   13  O1  UNL     1      18.231   4.714   9.889  1.00  0.00    -0.321 OA
HETATM   14  C1  UNL     1      17.745   5.041   8.605  1.00  0.00     0.213 C 
ENDBRANCH  11  13
ENDBRANCH   4  11
BRANCH   4  15
HETATM   15  O3  UNL     1      20.396   3.489  11.300  1.00  0.00    -0.341 OA
ATOM     16  H3  UNL     1      20.788   2.815  10.758  1.00  0.00     0.215 HD
ENDBRANCH   4  15
ENDBRANCH   2   3
ENDBRANCH   1   2
BRANCH   1  17
HETATM   17  C9  UNL     1      21.056   5.342  14.997  1.00  0.00     0.196 C 
BRANCH  17  18
HETATM   18  O4  UNL     1      22.238   4.606  14.883  1.00  0.00    -0.334 OA
BRANCH  18  19
HETATM   19  C10 UNL     1      22.654   3.634  15.828  1.00  0.00     0.157 A 
HETATM   20  N3  UNL     1      22.075   2.470  15.967  1.00  0.00    -0.317 N 
HETATM   21  C11 UNL     1      22.545   1.631  16.886  1.00  0.00     0.144 A 
ATOM     22  H3  UNL     1      21.279   2.211  15.384  1.00  0.00     0.170 HD
HETATM   23  S1  UNL     1      23.841   2.494  17.578  1.00  0.00    -0.055 SA
HETATM   24  C12 UNL     1      23.717   3.918  16.641  1.00  0.00     0.033 A 
HETATM   25  C13 UNL     1      24.551   5.172  16.681  1.00  0.00     0.061 C 
BRANCH  21  26
HETATM   26  N4  UNL     1      22.119   0.425  17.191  1.00  0.00    -0.380 N 
ATOM     27  H42 UNL     1      22.397  -0.464  16.777  1.00  0.00     0.158 HD
ATOM     28  H41 UNL     1      21.433   0.152  17.896  1.00  0.00     0.158 HD
ENDBRANCH  21  26
ENDBRANCH  18  19
ENDBRANCH  17  18
ENDBRANCH   1  17
BRANCH   1  29
HETATM   29  C14 UNL     1      21.035   7.316  13.673  1.00  0.00     0.242 C 
HETATM   30  N5  UNL     1      19.950   8.172  13.939  1.00  0.00    -0.061 NA
HETATM   31  O5  UNL     1      22.200   7.723  13.525  1.00  0.00    -0.276 OA
ENDBRANCH   1  29
TORSDOF 10
ENDMDL
MODEL 3
REMARK VINA RESULT: -6.336913065      1.187      1.297
REMARK  10 active torsions:
REMARK  status: ('A' for Active; 'I' for Inactive)
REMARK    1  A    between atoms: O1_2  and  C2_3 
REMARK    2  A    between atoms: C2_3  and  C3_5 
REMARK    3  A    between atoms: C3_5  and  O3_6 
REMARK    4  A    between atoms: N2_14  and  C7_15 
REMARK    5  A    between atoms: C7_15  and  C8_16 
REMARK    6  A    between atoms: C8_16  and  C9_17 
REMARK    7  A    between atoms: C8_16  and  C14_29 
REMARK    8  A    between atoms: C9_17  and  O4_18 
REMARK    9  A    between atoms: O4_18  and  C10_19 
REMARK   10  A    between atoms: C11_22  and  N4_23 
ROOT
HETATM    1  C8  UNL     1      21.174   5.944  12.423  1.00  0.00     0.138 C 
ENDROOT
BRANCH   1   2
HETATM    2  C7  UNL     1      21.239   5.868  10.921  1.00  0.00     0.084 C 
BRANCH   2   3
HETATM    3  N2  UNL     1      20.140   5.429  10.223  1.00  0.00    -0.310 N 
HETATM    4  C3  UNL     1      20.440   4.780   8.983  1.00  0.00     0.398 C 
HETATM    5  N1  UNL     1      19.517   5.175   7.942  1.00  0.00    -0.013 N 
HETATM    6  C4  UNL     1      18.184   4.811   8.272  1.00  0.00     0.244 C 
ATOM      7  H12 UNL     1      19.593   6.171   7.731  1.00  0.00     0.283 HD
ATOM      8  H11 UNL     1      19.794   4.802   7.033  1.00  0.00     0.283 HD
HETATM    9  C5  UNL     1      17.805   5.203   9.639  1.00  0.00     0.072 C 
HETATM   10  C6  UNL     1      18.873   5.982  10.371  1.00  0.00     0.070 C 
BRANCH   4  11
HETATM   11  C2  UNL     1      20.569   3.318   9.073  1.00  0.00     0.345 C 
HETATM   12  O2  UNL     1      20.405   2.736  10.160  1.00  0.00    -0.257 OA
BRANCH  11  13
HETATM   13  O1  UNL     1      20.873   2.539   7.973  1.00  0.00    -0.321 OA
HETATM   14  C1  UNL     1      20.121   1.415   7.569  1.00  0.00     0.213 C 
ENDBRANCH  11  13
ENDBRANCH   4  11
BRANCH   4  15
HETATM   15  O3  UNL     1      21.719   5.220   8.505  1.00  0.00    -0.341 OA
ATOM     16  H3  UNL     1      22.331   4.929   9.170  1.00  0.00     0.215 HD
ENDBRANCH   4  15
ENDBRANCH   2   3
ENDBRANCH   1   2
BRANCH   1  17
HETATM   17  C9  UNL     1      21.930   4.738  13.035  1.00  0.00     0.196 C 
BRANCH  17  18
HETATM   18  O4  UNL     1      22.228   5.129  14.343  1.00  0.00    -0.334 OA
BRANCH  18  19
HETATM   19  C10 UNL     1      22.300   4.228  15.436  1.00  0.00     0.157 A 
HETATM   20  N3  UNL     1      22.997   3.121  15.414  1.00  0.00    -0.317 N 
HETATM   21  C11 UNL     1      22.996   2.346  16.495  1.00  0.00     0.144 A 
ATOM     22  H3  UNL     1      23.529   2.858  14.585  1.00  0.00     0.170 HD
HETATM   23  S1  UNL     1      21.990   3.190  17.580  1.00  0.00    -0.055 SA
HETATM   24  C12 UNL     1      21.609   4.522  16.580  1.00  0.00     0.033 A 
HETATM   25  C13 UNL     1      20.742   5.721  16.862  1.00  0.00     0.061 C 
BRANCH  21  26
HETATM   26  N4  UNL     1      23.618   1.204  16.686  1.00  0.00    -0.380 N 
ATOM     27  H42 UNL     1      23.909   0.786  17.570  1.00  0.00     0.158 HD
ATOM     28  H41 UNL     1      23.927   0.523  15.992  1.00  0.00     0.158 HD
ENDBRANCH  21  26
ENDBRANCH  18  19
ENDBRANCH  17  18
ENDBRANCH   1  17
BRANCH   1  29
HETATM   29  C14 UNL     1      21.976   7.111  12.907  1.00  0.00     0.242 C 
HETATM   30  N5  UNL     1      23.302   7.238  12.452  1.00  0.00    -0.061 NA
HETATM   31  O5  UNL     1      21.446   7.920  13.689  1.00  0.00    -0.276 OA
ENDBRANCH   1  29
TORSDOF 10
ENDMDL
MODEL 4
REMARK VINA RESULT: -6.249479182      1.137      1.149
REMARK  10 active torsions:
REMARK  status: ('A' for Active; 'I' for Inactive)
REMARK    1  A    between atoms: O1_2  and  C2_3 
REMARK    2  A    between atoms: C2_3  and  C3_5 
REMARK    3  A    between atoms: C3_5  and  O3_6 
REMARK    4  A    between atoms: N2_14  and  C7_15 
REMARK    5  A    between atoms: C7_15  and  C8_16 
REMARK    6  A    between atoms: C8_16  and  C9_17 
REMARK    7  A    between atoms: C8_16  and  C14_29 
REMARK    8  A    between atoms: C9_17  and  O4_18 
REMARK    9  A    between atoms: O4_18  and  C10_19 
REMARK   10  A    between atoms: C11_22  and  N4_23 
ROOT
HETATM    1  C8  UNL     1      21.569   6.419  12.483  1.00  0.00     0.138 C 
ENDROOT
BRANCH   1   2
HETATM    2  C7  UNL     1      21.295   5.133  11.750  1.00  0.00     0.084 C 
BRANCH   2   3
HETATM    3  N2  UNL     1      20.220   5.062  10.896  1.00  0.00    -0.310 N 
HETATM    4  C3  UNL     1      20.548   4.702   9.551  1.00  0.00     0.398 C 
HETATM    5  N1  UNL     1      19.798   5.485   8.594  1.00  0.00    -0.013 N 
HETATM    6  C4  UNL     1      18.400   5.269   8.738  1.00  0.00     0.244 C 
ATOM      7  H12 UNL     1      20.032   6.476   8.654  1.00  0.00     0.283 HD
ATOM      8  H11 UNL     1      20.108   5.309   7.639  1.00  0.00     0.283 HD
HETATM    9  C5  UNL     1      17.946   5.366  10.135  1.00  0.00     0.072 C 
HETATM   10  C6  UNL     1      19.034   5.758  11.106  1.00  0.00     0.070 C 
BRANCH   4  11
HETATM   11  C2  UNL     1      20.462   3.261   9.266  1.00  0.00     0.345 C 
HETATM   12  O2  UNL     1      20.083   2.466  10.144  1.00  0.00    -0.257 OA
BRANCH  11  13
HETATM   13  O1  UNL     1      20.792   2.737   8.031  1.00  0.00    -0.321 OA
HETATM   14  C1  UNL     1      20.361   1.475   7.568  1.00  0.00     0.213 C 
ENDBRANCH  11  13
ENDBRANCH   4  11
BRANCH   4  15
HETATM   15  O3  UNL     1      21.917   5.035   9.282  1.00  0.00    -0.341 OA
ATOM     16  H3  UNL     1      22.162   5.613   9.994  1.00  0.00     0.215 HD
ENDBRANCH   4  15
ENDBRANCH   2   3
ENDBRANCH   1   2
BRANCH   1  17
HETATM   17  C9  UNL     1      21.666   6.136  14.003  1.00  0.00     0.196 C 
BRANCH  17  18
HETATM   18  O4  UNL     1      22.715   5.223  14.131  1.00  0.00    -0.334 OA
BRANCH  18  19
HETATM   19  C10 UNL     1      22.847   4.323  15.220  1.00  0.00     0.157 A 
HETATM   20  N3  UNL     1      22.039   3.315  15.424  1.00  0.00    -0.317 N 
HETATM   21  C11 UNL     1      22.253   2.531  16.477  1.00  0.00     0.144 A 
ATOM     22  H3  UNL     1      21.262   3.134  14.789  1.00  0.00     0.170 HD
HETATM   23  S1  UNL     1      23.629   3.223  17.207  1.00  0.00    -0.055 SA
HETATM   24  C12 UNL     1      23.871   4.509  16.108  1.00  0.00     0.033 A 
HETATM   25  C13 UNL     1      24.930   5.581  16.100  1.00  0.00     0.061 C 
BRANCH  21  26
HETATM   26  N4  UNL     1      21.571   1.477  16.867  1.00  0.00    -0.380 N 
ATOM     27  H42 UNL     1      21.437   1.130  17.816  1.00  0.00     0.158 HD
ATOM     28  H41 UNL     1      21.050   0.810  16.297  1.00  0.00     0.158 HD
ENDBRANCH  21  26
ENDBRANCH  18  19
ENDBRANCH  17  18
ENDBRANCH   1  17
BRANCH   1  29
HETATM   29  C14 UNL     1      22.944   6.907  12.154  1.00  0.00     0.242 C 
HETATM   30  N5  UNL     1      23.479   7.955  12.927  1.00  0.00    -0.061 NA
HETATM   31  O5  UNL     1      23.561   6.375  11.214  1.00  0.00    -0.276 OA
ENDBRANCH   1  29
TORSDOF 10
ENDMDL
MODEL 5
REMARK VINA RESULT: -6.101510863      1.357      1.909
REMARK  10 active torsions:
REMARK  status: ('A' for Active; 'I' for Inactive)
REMARK    1  A    between atoms: O1_2  and  C2_3 
REMARK    2  A    between atoms: C2_3  and  C3_5 
REMARK    3  A    between atoms: C3_5  and  O3_6 
REMARK    4  A    between atoms: N2_14  and  C7_15 
REMARK    5  A    between atoms: C7_15  and  C8_16 
REMARK    6  A    between atoms: C8_16  and  C9_17 
REMARK    7  A    between atoms: C8_16  and  C14_29 
REMARK    8  A    between atoms: C9_17  and  O4_18 
REMARK    9  A    between atoms: O4_18  and  C10_19 
REMARK   10  A    between atoms: C11_22  and  N4_23 
ROOT
HETATM    1  C8  UNL     1      20.774   5.743  12.439  1.00  0.00     0.138 C 
ENDROOT
BRANCH   1   2
HETATM    2  C7  UNL     1      20.902   5.908  10.949  1.00  0.00     0.084 C 
BRANCH   2   3
HETATM    3  N2  UNL     1      19.917   5.412  10.130  1.00  0.00    -0.310 N 
HETATM    4  C3  UNL     1      20.393   4.730   8.966  1.00  0.00     0.398 C 
HETATM    5  N1  UNL     1      19.605   5.061   7.799  1.00  0.00    -0.013 N 
HETATM    6  C4  UNL     1      18.249   4.668   7.966  1.00  0.00     0.244 C 
ATOM      7  H12 UNL     1      19.682   6.051   7.562  1.00  0.00     0.283 HD
ATOM      8  H11 UNL     1      20.007   4.665   6.949  1.00  0.00     0.283 HD
HETATM    9  C5  UNL     1      17.684   5.096   9.257  1.00  0.00     0.072 C 
HETATM   10  C6  UNL     1      18.627   5.931  10.091  1.00  0.00     0.070 C 
BRANCH   4  11
HETATM   11  C2  UNL     1      20.545   3.276   9.127  1.00  0.00     0.345 C 
HETATM   12  O2  UNL     1      20.354   2.741  10.234  1.00  0.00    -0.257 OA
BRANCH  11  13
HETATM   13  O1  UNL     1      20.902   2.455   8.076  1.00  0.00    -0.321 OA
HETATM   14  C1  UNL     1      20.136   1.353   7.639  1.00  0.00     0.213 C 
ENDBRANCH  11  13
ENDBRANCH   4  11
BRANCH   4  15
HETATM   15  O3  UNL     1      21.712   5.192   8.642  1.00  0.00    -0.341 OA
ATOM     16  H3  UNL     1      21.651   6.137   8.704  1.00  0.00     0.215 HD
ENDBRANCH   4  15
ENDBRANCH   2   3
ENDBRANCH   1   2
BRANCH   1  17
HETATM   17  C9  UNL     1      21.765   4.654  12.925  1.00  0.00     0.196 C 
BRANCH  17  18
HETATM   18  O4  UNL     1      21.565   4.580  14.306  1.00  0.00    -0.334 OA
BRANCH  18  19
HETATM   19  C10 UNL     1      22.615   4.409  15.245  1.00  0.00     0.157 A 
HETATM   20  N3  UNL     1      23.626   5.231  15.353  1.00  0.00    -0.317 N 
HETATM   21  C11 UNL     1      24.557   4.977  16.269  1.00  0.00     0.144 A 
ATOM     22  H3  UNL     1      23.698   6.050  14.749  1.00  0.00     0.170 HD
HETATM   23  S1  UNL     1      24.002   3.544  17.004  1.00  0.00    -0.055 SA
HETATM   24  C12 UNL     1      22.576   3.332  16.087  1.00  0.00     0.033 A 
HETATM   25  C13 UNL     1      21.532   2.248  16.168  1.00  0.00     0.061 C 
BRANCH  21  26
HETATM   26  N4  UNL     1      25.644   5.663  16.544  1.00  0.00    -0.380 N 
ATOM     27  H42 UNL     1      26.476   5.782  15.967  1.00  0.00     0.158 HD
ATOM     28  H41 UNL     1      25.861   6.202  17.383  1.00  0.00     0.158 HD
ENDBRANCH  21  26
ENDBRANCH  18  19
ENDBRANCH  17  18
ENDBRANCH   1  17
BRANCH   1  29
HETATM   29  C14 UNL     1      21.275   6.971  13.131  1.00  0.00     0.242 C 
HETATM   30  N5  UNL     1      20.353   7.739  13.868  1.00  0.00    -0.061 NA
HETATM   31  O5  UNL     1      22.478   7.269  13.029  1.00  0.00    -0.276 OA
ENDBRANCH   1  29
TORSDOF 10
ENDMDL
