MODEL 1
REMARK VINA RESULT: -8.348216758      0.000      0.000
REMARK  11 active torsions:
REMARK  status: ('A' for Active; 'I' for Inactive)
REMARK    1  A    between atoms: C2_2  and  N1_3 
REMARK    2  A    between atoms: N1_3  and  C4_5 
REMARK    3  A    between atoms: C4_5  and  C5_6 
REMARK    4  A    between atoms: N2_9  and  N3_10 
REMARK    5  A    between atoms: C8_13  and  N4_14 
REMARK    6  A    between atoms: N4_14  and  C9_16 
REMARK    7  A    between atoms: C9_16  and  C10_17 
REMARK    8  A    between atoms: C10_17  and  N5_18 
REMARK    9  A    between atoms: N5_18  and  C11_20 
REMARK   10  A    between atoms: C14_26  and  O2_27 
REMARK   11  A    between atoms: N8_31  and  O3_32 
ROOT
HETATM    1  C5  UNL     1      20.112   5.364   9.353  1.00  0.00     0.066 A 
HETATM    2  C6  UNL     1      21.443   5.713   9.307  1.00  0.00     0.061 A 
HETATM    3  C7  UNL     1      22.168   5.701   8.046  1.00  0.00     0.072 C 
HETATM    4  N2  UNL     1      22.043   6.048  10.452  1.00  0.00    -0.095 N 
HETATM    5  C8  UNL     1      21.465   6.069  11.637  1.00  0.00     0.732 A 
HETATM    6  N8  UNL     1      20.148   5.706  11.697  1.00  0.00    -0.011 N 
HETATM    7  C15 UNL     1      19.492   5.362  10.565  1.00  0.00     0.298 A 
HETATM    8  O4  UNL     1      18.254   5.025  10.652  1.00  0.00    -0.264 OA
ENDROOT
BRANCH   5   9
HETATM    9  N4  UNL     1      21.925   6.562  12.704  1.00  0.00    -0.200 N 
ATOM     10  H4  UNL     1      21.713   7.552  12.827  1.00  0.00     0.183 HD
BRANCH   9  11
HETATM   11  C9  UNL     1      22.656   6.018  13.732  1.00  0.00     0.098 C 
BRANCH  11  12
HETATM   12  C10 UNL     1      21.932   5.642  14.987  1.00  0.00     0.166 C 
BRANCH  12  13
HETATM   13  N5  UNL     1      21.638   4.178  14.887  1.00  0.00    -0.371 N 
ATOM     14  H5  UNL     1      21.047   3.834  14.131  1.00  0.00     0.161 HD
BRANCH  13  15
HETATM   15  C11 UNL     1      22.157   3.287  15.804  1.00  0.00     0.109 A 
HETATM   16  C12 UNL     1      22.938   3.583  16.856  1.00  0.00     0.122 A 
HETATM   17  C13 UNL     1      23.273   2.706  17.898  1.00  0.00     0.251 A 
HETATM   18  O1  UNL     1      23.990   3.030  18.838  1.00  0.00    -0.268 OA
HETATM   19  N6  UNL     1      22.750   1.419  17.835  1.00  0.00    -0.289 N 
HETATM   20  C14 UNL     1      21.971   1.158  16.762  1.00  0.00     0.225 A 
ATOM     21  H6  UNL     1      22.941   0.718  18.551  1.00  0.00     0.172 HD
HETATM   22  N7  UNL     1      21.661   1.976  15.780  1.00  0.00    -0.308 N 
ATOM     23  H7  UNL     1      21.067   1.661  15.012  1.00  0.00     0.171 HD
BRANCH  20  24
HETATM   24  O2  UNL     1      21.493  -0.057  16.735  1.00  0.00    -0.332 OA
ATOM     25  H2  UNL     1      20.674  -0.140  16.261  1.00  0.00     0.221 HD
ENDBRANCH  20  24
ENDBRANCH  13  15
ENDBRANCH  12  13
ENDBRANCH  11  12
ENDBRANCH   9  11
ENDBRANCH   5   9
BRANCH   4  26
HETATM   26  N3  UNL     1      23.376   6.467  10.307  1.00  0.00    -0.324 N 
ATOM     27  H32 UNL     1      23.664   7.388  10.638  1.00  0.00     0.178 HD
ATOM     28  H31 UNL     1      23.974   5.805   9.813  1.00  0.00     0.178 HD
ENDBRANCH   4  26
BRANCH   6  29
HETATM   29  O3  UNL     1      19.441   5.699  12.863  1.00  0.00    -0.266 OA
ATOM     30  H3  UNL     1      19.147   4.896  13.278  1.00  0.00     0.246 HD
ENDBRANCH   6  29
BRANCH   1  31
HETATM   31  C4  UNL     1      19.502   5.017   8.051  1.00  0.00     0.318 C 
BRANCH  31  32
HETATM   32  N1  UNL     1      18.946   3.639   8.070  1.00  0.00     0.088 N 
HETATM   33  C3  UNL     1      18.445   3.260   6.750  1.00  0.00     0.310 C 
BRANCH  32  34
HETATM   34  C2  UNL     1      20.128   2.749   8.198  1.00  0.00     0.268 C 
HETATM   35  C1  UNL     1      19.892   1.358   7.805  1.00  0.00     0.037 C 
ENDBRANCH  32  34
ENDBRANCH  31  32
ENDBRANCH   1  31
TORSDOF 11
ENDMDL
MODEL 2
REMARK VINA RESULT: -8.255188091      1.636      2.214
REMARK  11 active torsions:
REMARK  status: ('A' for Active; 'I' for Inactive)
REMARK    1  A    between atoms: C2_2  and  N1_3 
REMARK    2  A    between atoms: N1_3  and  C4_5 
REMARK    3  A    between atoms: C4_5  and  C5_6 
REMARK    4  A    between atoms: N2_9  and  N3_10 
REMARK    5  A    between atoms: C8_13  and  N4_14 
REMARK    6  A    between atoms: N4_14  and  C9_16 
REMARK    7  A    between atoms: C9_16  and  C10_17 
REMARK    8  A    between atoms: C10_17  and  N5_18 
REMARK    9  A    between atoms: N5_18  and  C11_20 
REMARK   10  A    between atoms: C14_26  and  O2_27 
REMARK   11  A    between atoms: N8_31  and  O3_32 
ROOT
HETATM    1  C5  UNL     1      20.751   5.697   9.634  1.00  0.00     0.066 A 
HETATM    2  C6  UNL     1      19.779   5.728  10.607  1.00  0.00     0.061 A 
HETATM    3  C7  UNL     1      18.407   5.361  10.295  1.00  0.00     0.072 C 
HETATM    4  N2  UNL     1      20.134   6.115  11.836  1.00  0.00    -0.095 N 
HETATM    5  C8  UNL     1      21.349   6.479  12.198  1.00  0.00     0.732 A 
HETATM    6  N8  UNL     1      22.319   6.469  11.234  1.00  0.00    -0.011 N 
HETATM    7  C15 UNL     1      22.013   6.081   9.975  1.00  0.00     0.298 A 
HETATM    8  O4  UNL     1      22.944   6.083   9.089  1.00  0.00    -0.264 OA
ENDROOT
BRANCH   5   9
HETATM    9  N4  UNL     1      21.775   6.659  13.372  1.00  0.00    -0.200 N 
ATOM     10  H4  UNL     1      21.942   7.638  13.605  1.00  0.00     0.183 HD
BRANCH   9  11
HETATM   11  C9  UNL     1      22.057   5.788  14.396  1.00  0.00     0.098 C 
BRANCH  11  12
HETATM   12  C10 UNL     1      20.949   5.425  15.334  1.00  0.00     0.166 C 
BRANCH  12  13
HETATM   13  N5  UNL     1      21.593   4.830  16.546  1.00  0.00    -0.371 N 
ATOM     14  H5  UNL     1      21.536   5.321  17.438  1.00  0.00     0.161 HD
BRANCH  13  15
HETATM   15  C11 UNL     1      22.266   3.627  16.473  1.00  0.00     0.109 A 
HETATM   16  C12 UNL     1      23.482   3.357  16.975  1.00  0.00     0.122 A 
HETATM   17  C13 UNL     1      24.055   2.081  17.087  1.00  0.00     0.251 A 
HETATM   18  O1  UNL     1      25.171   1.890  17.557  1.00  0.00    -0.268 OA
HETATM   19  N6  UNL     1      23.296   1.005  16.640  1.00  0.00    -0.289 N 
HETATM   20  C14 UNL     1      22.080   1.317  16.141  1.00  0.00     0.225 A 
ATOM     21  H6  UNL     1      23.635   0.044  16.686  1.00  0.00     0.172 HD
HETATM   22  N7  UNL     1      21.543   2.511  16.028  1.00  0.00    -0.308 N 
ATOM     23  H7  UNL     1      20.613   2.625  15.622  1.00  0.00     0.171 HD
BRANCH  20  24
HETATM   24  O2  UNL     1      21.392   0.283  15.734  1.00  0.00    -0.332 OA
ATOM     25  H2  UNL     1      20.494   0.485  15.498  1.00  0.00     0.221 HD
ENDBRANCH  20  24
ENDBRANCH  13  15
ENDBRANCH  12  13
ENDBRANCH  11  12
ENDBRANCH   9  11
ENDBRANCH   5   9
BRANCH   4  26
HETATM   26  N3  UNL     1      19.104   6.042  12.787  1.00  0.00    -0.324 N 
ATOM     27  H32 UNL     1      18.179   5.705  12.519  1.00  0.00     0.178 HD
ATOM     28  H31 UNL     1      19.357   6.395  13.710  1.00  0.00     0.178 HD
ENDBRANCH   4  26
BRANCH   6  29
HETATM   29  O3  UNL     1      23.612   6.815  11.491  1.00  0.00    -0.266 OA
ATOM     30  H3  UNL     1      24.291   6.170  11.657  1.00  0.00     0.246 HD
ENDBRANCH   6  29
BRANCH   1  31
HETATM   31  C4  UNL     1      20.298   5.246   8.300  1.00  0.00     0.318 C 
BRANCH  31  32
HETATM   32  N1  UNL     1      19.545   3.968   8.394  1.00  0.00     0.088 N 
HETATM   33  C3  UNL     1      18.760   3.735   7.183  1.00  0.00     0.310 C 
BRANCH  32  34
HETATM   34  C2  UNL     1      20.576   2.905   8.280  1.00  0.00     0.268 C 
HETATM   35  C1  UNL     1      20.056   1.587   7.910  1.00  0.00     0.037 C 
ENDBRANCH  32  34
ENDBRANCH  31  32
ENDBRANCH   1  31
TORSDOF 11
ENDMDL
MODEL 3
REMARK VINA RESULT: -8.159060417      1.741      2.628
REMARK  11 active torsions:
REMARK  status: ('A' for Active; 'I' for Inactive)
REMARK    1  A    between atoms: C2_2  and  N1_3 
REMARK    2  A    between atoms: N1_3  and  C4_5 
REMARK    3  A    between atoms: C4_5  and  C5_6 
REMARK    4  A    between atoms: N2_9  and  N3_10 
REMARK    5  A    between atoms: C8_13  and  N4_14 
REMARK    6  A    between atoms: N4_14  and  C9_16 
REMARK    7  A    between atoms: C9_16  and  C10_17 
REMARK    8  A    between atoms: C10_17  and  N5_18 
REMARK    9  A    between atoms: N5_18  and  C11_20 
REMARK   10  A    between atoms: C14_26  and  O2_27 
REMARK   11  A    between atoms: N8_31  and  O3_32 
ROOT
HETATM    1  C5  UNL     1      20.732   5.681   9.617  1.00  0.00     0.066 A 
HETATM    2  C6  UNL     1      19.814   5.705  10.643  1.00  0.00     0.061 A 
HETATM    3  C7  UNL     1      18.427   5.339  10.404  1.00  0.00     0.072 C 
HETATM    4  N2  UNL     1      20.236   6.084  11.853  1.00  0.00    -0.095 N 
HETATM    5  C8  UNL     1      21.468   6.445  12.150  1.00  0.00     0.732 A 
HETATM    6  N8  UNL     1      22.384   6.443  11.135  1.00  0.00    -0.011 N 
HETATM    7  C15 UNL     1      22.010   6.063   9.892  1.00  0.00     0.298 A 
HETATM    8  O4  UNL     1      22.892   6.071   8.956  1.00  0.00    -0.264 OA
ENDROOT
BRANCH   5   9
HETATM    9  N4  UNL     1      21.958   6.618  13.301  1.00  0.00    -0.200 N 
ATOM     10  H4  UNL     1      21.949   7.590  13.612  1.00  0.00     0.183 HD
BRANCH   9  11
HETATM   11  C9  UNL     1      22.501   5.747  14.213  1.00  0.00     0.098 C 
BRANCH  11  12
HETATM   12  C10 UNL     1      21.722   5.461  15.460  1.00  0.00     0.166 C 
BRANCH  12  13
HETATM   13  N5  UNL     1      22.698   4.921  16.457  1.00  0.00    -0.371 N 
ATOM     14  H5  UNL     1      23.274   5.566  16.997  1.00  0.00     0.161 HD
BRANCH  13  15
HETATM   15  C11 UNL     1      22.828   3.562  16.657  1.00  0.00     0.109 A 
HETATM   16  C12 UNL     1      21.888   2.627  16.444  1.00  0.00     0.122 A 
HETATM   17  C13 UNL     1      22.100   1.240  16.439  1.00  0.00     0.251 A 
HETATM   18  O1  UNL     1      21.204   0.428  16.236  1.00  0.00    -0.268 OA
HETATM   19  N6  UNL     1      23.398   0.798  16.675  1.00  0.00    -0.289 N 
HETATM   20  C14 UNL     1      24.314   1.767  16.886  1.00  0.00     0.225 A 
ATOM     21  H6  UNL     1      23.641  -0.193  16.687  1.00  0.00     0.172 HD
HETATM   22  N7  UNL     1      24.118   3.067  16.898  1.00  0.00    -0.308 N 
ATOM     23  H7  UNL     1      24.891   3.706  17.081  1.00  0.00     0.171 HD
BRANCH  20  24
HETATM   24  O2  UNL     1      25.523   1.318  17.100  1.00  0.00    -0.332 OA
ATOM     25  H2  UNL     1      26.196   1.987  17.061  1.00  0.00     0.221 HD
ENDBRANCH  20  24
ENDBRANCH  13  15
ENDBRANCH  12  13
ENDBRANCH  11  12
ENDBRANCH   9  11
ENDBRANCH   5   9
BRANCH   4  26
HETATM   26  N3  UNL     1      19.259   6.004  12.859  1.00  0.00    -0.324 N 
ATOM     27  H32 UNL     1      18.878   5.099  13.136  1.00  0.00     0.178 HD
ATOM     28  H31 UNL     1      18.953   6.907  13.221  1.00  0.00     0.178 HD
ENDBRANCH   4  26
BRANCH   6  29
HETATM   29  O3  UNL     1      23.690   6.788  11.323  1.00  0.00    -0.266 OA
ATOM     30  H3  UNL     1      23.975   7.340  12.042  1.00  0.00     0.246 HD
ENDBRANCH   6  29
BRANCH   1  31
HETATM   31  C4  UNL     1      20.207   5.239   8.307  1.00  0.00     0.318 C 
BRANCH  31  32
HETATM   32  N1  UNL     1      19.492   3.940   8.427  1.00  0.00     0.088 N 
HETATM   33  C3  UNL     1      18.686   3.677   7.237  1.00  0.00     0.310 C 
BRANCH  32  34
HETATM   34  C2  UNL     1      20.550   2.906   8.295  1.00  0.00     0.268 C 
HETATM   35  C1  UNL     1      20.066   1.584   7.893  1.00  0.00     0.037 C 
ENDBRANCH  32  34
ENDBRANCH  31  32
ENDBRANCH   1  31
TORSDOF 11
ENDMDL
MODEL 4
REMARK VINA RESULT: -8.137898385      1.452      2.196
REMARK  11 active torsions:
REMARK  status: ('A' for Active; 'I' for Inactive)
REMARK    1  A    between atoms: C2_2  and  N1_3 
REMARK    2  A    between atoms: N1_3  and  C4_5 
REMARK    3  A    between atoms: C4_5  and  C5_6 
REMARK    4  A    between atoms: N2_9  and  N3_10 
REMARK    5  A    between atoms: C8_13  and  N4_14 
REMARK    6  A    between atoms: N4_14  and  C9_16 
REMARK    7  A    between atoms: C9_16  and  C10_17 
REMARK    8  A    between atoms: C10_17  and  N5_18 
REMARK    9  A    between atoms: N5_18  and  C11_20 
REMARK   10  A    between atoms: C14_26  and  O2_27 
REMARK   11  A    between atoms: N8_31  and  O3_32 
ROOT
HETATM    1  C5  UNL     1      20.131   5.371   8.961  1.00  0.00     0.066 A 
HETATM    2  C6  UNL     1      19.396   5.485  10.118  1.00  0.00     0.061 A 
HETATM    3  C7  UNL     1      17.974   5.176  10.125  1.00  0.00     0.072 C 
HETATM    4  N2  UNL     1      20.024   5.896  11.223  1.00  0.00    -0.095 N 
HETATM    5  C8  UNL     1      21.302   6.211  11.298  1.00  0.00     0.732 A 
HETATM    6  N8  UNL     1      22.039   6.121  10.150  1.00  0.00    -0.011 N 
HETATM    7  C15 UNL     1      21.451   5.704   9.005  1.00  0.00     0.298 A 
HETATM    8  O4  UNL     1      22.168   5.629   7.940  1.00  0.00    -0.264 OA
ENDROOT
BRANCH   5   9
HETATM    9  N4  UNL     1      21.980   6.411  12.344  1.00  0.00    -0.200 N 
ATOM     10  H4  UNL     1      22.117   7.398  12.565  1.00  0.00     0.183 HD
BRANCH   9  11
HETATM   11  C9  UNL     1      22.568   5.553  13.241  1.00  0.00     0.098 C 
BRANCH  11  12
HETATM   12  C10 UNL     1      22.105   5.599  14.664  1.00  0.00     0.166 C 
BRANCH  12  13
HETATM   13  N5  UNL     1      21.461   4.278  14.945  1.00  0.00    -0.371 N 
ATOM     14  H5  UNL     1      20.579   4.042  14.491  1.00  0.00     0.161 HD
BRANCH  13  15
HETATM   15  C11 UNL     1      22.044   3.375  15.812  1.00  0.00     0.109 A 
HETATM   16  C12 UNL     1      22.870   3.663  16.831  1.00  0.00     0.122 A 
HETATM   17  C13 UNL     1      23.276   2.766  17.831  1.00  0.00     0.251 A 
HETATM   18  O1  UNL     1      24.033   3.082  18.742  1.00  0.00    -0.268 OA
HETATM   19  N6  UNL     1      22.778   1.470  17.759  1.00  0.00    -0.289 N 
HETATM   20  C14 UNL     1      21.953   1.219  16.720  1.00  0.00     0.225 A 
ATOM     21  H6  UNL     1      23.021   0.755  18.445  1.00  0.00     0.172 HD
HETATM   22  N7  UNL     1      21.575   2.055  15.777  1.00  0.00    -0.308 N 
ATOM     23  H7  UNL     1      20.951   1.746  15.031  1.00  0.00     0.171 HD
BRANCH  20  24
HETATM   24  O2  UNL     1      21.500  -0.006  16.685  1.00  0.00    -0.332 OA
ATOM     25  H2  UNL     1      20.629  -0.085  16.314  1.00  0.00     0.221 HD
ENDBRANCH  20  24
ENDBRANCH  13  15
ENDBRANCH  12  13
ENDBRANCH  11  12
ENDBRANCH   9  11
ENDBRANCH   5   9
BRANCH   4  26
HETATM   26  N3  UNL     1      19.222   5.908  12.376  1.00  0.00    -0.324 N 
ATOM     27  H32 UNL     1      18.739   5.060  12.675  1.00  0.00     0.178 HD
ATOM     28  H31 UNL     1      19.141   6.821  12.823  1.00  0.00     0.178 HD
ENDBRANCH   4  26
BRANCH   6  29
HETATM   29  O3  UNL     1      23.370   6.410  10.107  1.00  0.00    -0.266 OA
ATOM     30  H3  UNL     1      23.706   7.221   9.744  1.00  0.00     0.246 HD
ENDBRANCH   6  29
BRANCH   1  31
HETATM   31  C4  UNL     1      19.382   4.898   7.777  1.00  0.00     0.318 C 
BRANCH  31  32
HETATM   32  N1  UNL     1      19.662   3.463   7.504  1.00  0.00     0.088 N 
HETATM   33  C3  UNL     1      20.209   2.804   8.688  1.00  0.00     0.310 C 
BRANCH  32  34
HETATM   34  C2  UNL     1      18.326   2.822   7.407  1.00  0.00     0.268 C 
HETATM   35  C1  UNL     1      18.275   1.641   6.543  1.00  0.00     0.037 C 
ENDBRANCH  32  34
ENDBRANCH  31  32
ENDBRANCH   1  31
TORSDOF 11
ENDMDL
MODEL 5
REMARK VINA RESULT: -7.997226821      0.942      1.591
REMARK  11 active torsions:
REMARK  status: ('A' for Active; 'I' for Inactive)
REMARK    1  A    between atoms: C2_2  and  N1_3 
REMARK    2  A    between atoms: N1_3  and  C4_5 
REMARK    3  A    between atoms: C4_5  and  C5_6 
REMARK    4  A    between atoms: N2_9  and  N3_10 
REMARK    5  A    between atoms: C8_13  and  N4_14 
REMARK    6  A    between atoms: N4_14  and  C9_16 
REMARK    7  A    between atoms: C9_16  and  C10_17 
REMARK    8  A    between atoms: C10_17  and  N5_18 
REMARK    9  A    between atoms: N5_18  and  C11_20 
REMARK   10  A    between atoms: C14_26  and  O2_27 
REMARK   11  A    between atoms: N8_31  and  O3_32 
ROOT
HETATM    1  C5  UNL     1      20.134   5.475   9.456  1.00  0.00     0.066 A 
HETATM    2  C6  UNL     1      21.472   5.793   9.451  1.00  0.00     0.061 A 
HETATM    3  C7  UNL     1      22.238   5.756   8.214  1.00  0.00     0.072 C 
HETATM    4  N2  UNL     1      22.043   6.124  10.613  1.00  0.00    -0.095 N 
HETATM    5  C8  UNL     1      21.427   6.167  11.778  1.00  0.00     0.732 A 
HETATM    6  N8  UNL     1      20.101   5.834  11.798  1.00  0.00    -0.011 N 
HETATM    7  C15 UNL     1      19.474   5.496  10.647  1.00  0.00     0.298 A 
HETATM    8  O4  UNL     1      18.227   5.187  10.696  1.00  0.00    -0.264 OA
ENDROOT
BRANCH   5   9
HETATM    9  N4  UNL     1      21.863   6.657  12.856  1.00  0.00    -0.200 N 
ATOM     10  H4  UNL     1      21.646   7.646  12.977  1.00  0.00     0.183 HD
BRANCH   9  11
HETATM   11  C9  UNL     1      22.574   6.112  13.897  1.00  0.00     0.098 C 
BRANCH  11  12
HETATM   12  C10 UNL     1      21.806   5.474  15.013  1.00  0.00     0.166 C 
BRANCH  12  13
HETATM   13  N5  UNL     1      22.816   5.004  16.012  1.00  0.00    -0.371 N 
ATOM     14  H5  UNL     1      23.454   5.677  16.436  1.00  0.00     0.161 HD
BRANCH  13  15
HETATM   15  C11 UNL     1      22.895   3.673  16.367  1.00  0.00     0.109 A 
HETATM   16  C12 UNL     1      21.943   2.741  16.200  1.00  0.00     0.122 A 
HETATM   17  C13 UNL     1      22.115   1.358  16.360  1.00  0.00     0.251 A 
HETATM   18  O1  UNL     1      21.210   0.549  16.193  1.00  0.00    -0.268 OA
HETATM   19  N6  UNL     1      23.383   0.916  16.723  1.00  0.00    -0.289 N 
HETATM   20  C14 UNL     1      24.313   1.882  16.883  1.00  0.00     0.225 A 
ATOM     21  H6  UNL     1      23.597  -0.072  16.859  1.00  0.00     0.172 HD
HETATM   22  N7  UNL     1      24.153   3.179  16.740  1.00  0.00    -0.308 N 
ATOM     23  H7  UNL     1      24.933   3.818  16.899  1.00  0.00     0.171 HD
BRANCH  20  24
HETATM   24  O2  UNL     1      25.493   1.433  17.219  1.00  0.00    -0.332 OA
ATOM     25  H2  UNL     1      26.085   1.314  16.486  1.00  0.00     0.221 HD
ENDBRANCH  20  24
ENDBRANCH  13  15
ENDBRANCH  12  13
ENDBRANCH  11  12
ENDBRANCH   9  11
ENDBRANCH   5   9
BRANCH   4  26
HETATM   26  N3  UNL     1      23.389   6.512  10.508  1.00  0.00    -0.324 N 
ATOM     27  H32 UNL     1      23.966   6.164   9.743  1.00  0.00     0.178 HD
ATOM     28  H31 UNL     1      23.716   7.105  11.271  1.00  0.00     0.178 HD
ENDBRANCH   4  26
BRANCH   6  29
HETATM   29  O3  UNL     1      19.357   5.851  12.940  1.00  0.00    -0.266 OA
ATOM     30  H3  UNL     1      19.067   6.658  13.349  1.00  0.00     0.246 HD
ENDBRANCH   6  29
BRANCH   1  31
HETATM   31  C4  UNL     1      19.558   5.132   8.137  1.00  0.00     0.318 C 
BRANCH  31  32
HETATM   32  N1  UNL     1      18.983   3.761   8.143  1.00  0.00     0.088 N 
HETATM   33  C3  UNL     1      18.419   3.427   6.837  1.00  0.00     0.310 C 
BRANCH  32  34
HETATM   34  C2  UNL     1      20.156   2.852   8.194  1.00  0.00     0.268 C 
HETATM   35  C1  UNL     1      19.876   1.470   7.801  1.00  0.00     0.037 C 
ENDBRANCH  32  34
ENDBRANCH  31  32
ENDBRANCH   1  31
TORSDOF 11
ENDMDL
