MODEL 1
REMARK VINA RESULT: -7.949218914      0.000      0.000
REMARK  8 active torsions:
REMARK  status: ('A' for Active; 'I' for Inactive)
REMARK    1  A    between atoms: C5_9  and  N3_10 
REMARK    2  A    between atoms: N4_13  and  C6_14 
REMARK    3  A    between atoms: C6_14  and  C7_15 
REMARK    4  A    between atoms: C7_15  and  N5_16 
REMARK    5  A    between atoms: N5_16  and  C8_18 
REMARK    6  A    between atoms: C8_18  and  C9_19 
REMARK    7  A    between atoms: C9_19  and  O2_20 
REMARK    8  A    between atoms: O2_20  and  C10_21 
ROOT
HETATM    1  C1  UNL     1      14.847   8.152  19.390  1.00  0.00     0.164 C 
HETATM    2  N1  UNL     1      15.073   9.275  18.488  1.00  0.00    -0.269 N 
HETATM    3  C2  UNL     1      15.749   9.097  17.333  1.00  0.00     0.282 A 
HETATM    4  O1  UNL     1      16.190   7.959  17.032  1.00  0.00    -0.265 OA
HETATM    5  C3  UNL     1      15.953  10.171  16.490  1.00  0.00     0.164 A 
HETATM    6  C4  UNL     1      15.464  11.431  16.826  1.00  0.00     0.160 A 
HETATM    7  N2  UNL     1      15.795  12.296  15.844  1.00  0.00    -0.174 N 
ATOM      8  H2  UNL     1      15.566  13.290  15.826  1.00  0.00     0.186 HD
HETATM    9  C5  UNL     1      16.475  11.633  14.895  1.00  0.00     0.680 A 
HETATM   10  N4  UNL     1      16.567  10.352  15.290  1.00  0.00    -0.173 N 
HETATM   11  N8  UNL     1      14.801  11.558  17.980  1.00  0.00    -0.287 N 
HETATM   12  C15 UNL     1      14.271  12.857  18.372  1.00  0.00     0.163 C 
HETATM   13  C16 UNL     1      14.610  10.498  18.795  1.00  0.00     0.332 A 
HETATM   14  O4  UNL     1      13.974  10.678  19.875  1.00  0.00    -0.246 OA
ENDROOT
BRANCH  10  15
HETATM   15  C6  UNL     1      17.220   9.257  14.579  1.00  0.00     0.167 C 
BRANCH  15  16
HETATM   16  C7  UNL     1      18.648   9.165  15.019  1.00  0.00     0.134 C 
BRANCH  16  17
HETATM   17  N5  UNL     1      19.259   7.898  14.839  1.00  0.00    -0.418 N 
ATOM     18  H5  UNL     1      19.071   7.122  15.473  1.00  0.00     0.153 HD
BRANCH  17  19
HETATM   19  C8  UNL     1      20.148   7.755  13.731  1.00  0.00     0.140 C 
BRANCH  19  20
HETATM   20  C9  UNL     1      21.001   6.509  13.791  1.00  0.00     0.196 C 
BRANCH  20  21
HETATM   21  O2  UNL     1      21.006   5.845  14.975  1.00  0.00    -0.334 OA
BRANCH  21  22
HETATM   22  C10 UNL     1      21.860   5.001  15.601  1.00  0.00     0.144 A 
HETATM   23  C11 UNL     1      23.085   5.402  16.068  1.00  0.00     0.058 A 
HETATM   24  C12 UNL     1      23.972   4.536  16.719  1.00  0.00     0.036 A 
HETATM   25  C13 UNL     1      23.591   3.244  16.890  1.00  0.00     0.114 A 
HETATM   26  N6  UNL     1      24.437   2.304  17.543  1.00  0.00    -0.097 NA
HETATM   27  C14 UNL     1      22.369   2.840  16.423  1.00  0.00     0.271 A 
HETATM   28  O3  UNL     1      22.042   1.620  16.599  1.00  0.00    -0.266 OA
HETATM   29  N7  UNL     1      21.540   3.684  15.806  1.00  0.00    -0.302 N 
ATOM     30  H7  UNL     1      20.639   3.338  15.478  1.00  0.00     0.171 HD
ENDBRANCH  21  22
ENDBRANCH  20  21
ENDBRANCH  19  20
ENDBRANCH  17  19
ENDBRANCH  16  17
ENDBRANCH  15  16
ENDBRANCH  10  15
BRANCH   9  31
HETATM   31  N3  UNL     1      16.950  12.153  13.793  1.00  0.00    -0.234 N 
ATOM     32  H32 UNL     1      16.452  12.748  13.130  1.00  0.00     0.174 HD
ATOM     33  H31 UNL     1      17.900  12.036  13.442  1.00  0.00     0.174 HD
ENDBRANCH   9  31
TORSDOF 8
ENDMDL
MODEL 2
REMARK VINA RESULT: -7.886470484      3.740      9.758
REMARK  8 active torsions:
REMARK  status: ('A' for Active; 'I' for Inactive)
REMARK    1  A    between atoms: C5_9  and  N3_10 
REMARK    2  A    between atoms: N4_13  and  C6_14 
REMARK    3  A    between atoms: C6_14  and  C7_15 
REMARK    4  A    between atoms: C7_15  and  N5_16 
REMARK    5  A    between atoms: N5_16  and  C8_18 
REMARK    6  A    between atoms: C8_18  and  C9_19 
REMARK    7  A    between atoms: C9_19  and  O2_20 
REMARK    8  A    between atoms: O2_20  and  C10_21 
ROOT
HETATM    1  C1  UNL     1      17.684   5.020   9.518  1.00  0.00     0.164 C 
HETATM    2  N1  UNL     1      19.082   5.382   9.718  1.00  0.00    -0.269 N 
HETATM    3  C2  UNL     1      19.539   5.685  10.952  1.00  0.00     0.282 A 
HETATM    4  O1  UNL     1      18.756   5.659  11.936  1.00  0.00    -0.265 OA
HETATM    5  C3  UNL     1      20.866   6.025  11.125  1.00  0.00     0.164 A 
HETATM    6  C4  UNL     1      21.730   6.054  10.033  1.00  0.00     0.160 A 
HETATM    7  N2  UNL     1      22.958   6.412  10.467  1.00  0.00    -0.174 N 
ATOM      8  H2  UNL     1      23.788   6.515   9.884  1.00  0.00     0.186 HD
HETATM    9  C5  UNL     1      22.906   6.610  11.795  1.00  0.00     0.680 A 
HETATM   10  N4  UNL     1      21.642   6.375  12.185  1.00  0.00    -0.173 N 
HETATM   11  N8  UNL     1      21.232   5.746   8.831  1.00  0.00    -0.287 N 
HETATM   12  C15 UNL     1      22.101   5.763   7.662  1.00  0.00     0.163 C 
HETATM   13  C16 UNL     1      19.932   5.417   8.678  1.00  0.00     0.332 A 
HETATM   14  O4  UNL     1      19.517   5.134   7.516  1.00  0.00    -0.246 OA
ENDROOT
BRANCH  10  15
HETATM   15  C6  UNL     1      21.109   6.464  13.541  1.00  0.00     0.167 C 
BRANCH  15  16
HETATM   16  C7  UNL     1      20.548   7.835  13.761  1.00  0.00     0.134 C 
BRANCH  16  17
HETATM   17  N5  UNL     1      19.179   7.879  14.128  1.00  0.00    -0.418 N 
ATOM     18  H5  UNL     1      18.566   7.075  13.996  1.00  0.00     0.153 HD
BRANCH  17  19
HETATM   19  C8  UNL     1      18.695   9.098  14.692  1.00  0.00     0.140 C 
BRANCH  19  20
HETATM   20  C9  UNL     1      18.310   8.986  16.149  1.00  0.00     0.196 C 
BRANCH  20  21
HETATM   21  O2  UNL     1      16.980   8.914  16.412  1.00  0.00    -0.334 OA
BRANCH  21  22
HETATM   22  C10 UNL     1      16.138   9.520  17.282  1.00  0.00     0.144 A 
HETATM   23  C11 UNL     1      15.446   8.828  18.242  1.00  0.00     0.058 A 
HETATM   24  C12 UNL     1      14.576   9.447  19.148  1.00  0.00     0.036 A 
HETATM   25  C13 UNL     1      14.419  10.794  19.062  1.00  0.00     0.114 A 
HETATM   26  N6  UNL     1      13.554  11.495  19.948  1.00  0.00    -0.097 NA
HETATM   27  C14 UNL     1      15.107  11.487  18.103  1.00  0.00     0.271 A 
HETATM   28  O3  UNL     1      14.937  12.749  18.049  1.00  0.00    -0.266 OA
HETATM   29  N7  UNL     1      15.932  10.874  17.251  1.00  0.00    -0.302 N 
ATOM     30  H7  UNL     1      16.425  11.433  16.555  1.00  0.00     0.171 HD
ENDBRANCH  21  22
ENDBRANCH  20  21
ENDBRANCH  19  20
ENDBRANCH  17  19
ENDBRANCH  16  17
ENDBRANCH  15  16
ENDBRANCH  10  15
BRANCH   9  31
HETATM   31  N3  UNL     1      23.911   6.963  12.552  1.00  0.00    -0.234 N 
ATOM     32  H32 UNL     1      24.461   6.359  13.164  1.00  0.00     0.174 HD
ATOM     33  H31 UNL     1      24.292   7.906  12.634  1.00  0.00     0.174 HD
ENDBRANCH   9  31
TORSDOF 8
ENDMDL
MODEL 3
REMARK VINA RESULT: -7.827871441      3.777      5.307
REMARK  8 active torsions:
REMARK  status: ('A' for Active; 'I' for Inactive)
REMARK    1  A    between atoms: C5_9  and  N3_10 
REMARK    2  A    between atoms: N4_13  and  C6_14 
REMARK    3  A    between atoms: C6_14  and  C7_15 
REMARK    4  A    between atoms: C7_15  and  N5_16 
REMARK    5  A    between atoms: N5_16  and  C8_18 
REMARK    6  A    between atoms: C8_18  and  C9_19 
REMARK    7  A    between atoms: C9_19  and  O2_20 
REMARK    8  A    between atoms: O2_20  and  C10_21 
ROOT
HETATM    1  C1  UNL     1      14.443  12.824  14.203  1.00  0.00     0.164 C 
HETATM    2  N1  UNL     1      15.111  12.096  15.275  1.00  0.00    -0.269 N 
HETATM    3  C2  UNL     1      16.206  11.350  15.015  1.00  0.00     0.282 A 
HETATM    4  O1  UNL     1      16.653  11.279  13.842  1.00  0.00    -0.265 OA
HETATM    5  C3  UNL     1      16.827  10.668  16.042  1.00  0.00     0.164 A 
HETATM    6  C4  UNL     1      16.329  10.749  17.340  1.00  0.00     0.160 A 
HETATM    7  N2  UNL     1      17.110   9.998  18.147  1.00  0.00    -0.174 N 
ATOM      8  H2  UNL     1      16.979   9.873  19.150  1.00  0.00     0.186 HD
HETATM    9  C5  UNL     1      18.086   9.444  17.410  1.00  0.00     0.680 A 
HETATM   10  N4  UNL     1      17.910   9.852  16.142  1.00  0.00    -0.173 N 
HETATM   11  N8  UNL     1      15.243  11.500  17.549  1.00  0.00    -0.287 N 
HETATM   12  C15 UNL     1      14.689  11.614  18.892  1.00  0.00     0.163 C 
HETATM   13  C16 UNL     1      14.646  12.161  16.534  1.00  0.00     0.332 A 
HETATM   14  O4  UNL     1      13.621  12.857  16.792  1.00  0.00    -0.246 OA
ENDROOT
BRANCH  10  15
HETATM   15  C6  UNL     1      18.730   9.506  14.985  1.00  0.00     0.167 C 
BRANCH  15  16
HETATM   16  C7  UNL     1      18.611   8.038  14.718  1.00  0.00     0.134 C 
BRANCH  16  17
HETATM   17  N5  UNL     1      19.840   7.335  14.627  1.00  0.00    -0.418 N 
ATOM     18  H5  UNL     1      20.307   6.970  15.457  1.00  0.00     0.153 HD
BRANCH  17  19
HETATM   19  C8  UNL     1      20.397   7.161  13.325  1.00  0.00     0.140 C 
BRANCH  19  20
HETATM   20  C9  UNL     1      20.616   5.714  12.944  1.00  0.00     0.196 C 
BRANCH  20  21
HETATM   21  O2  UNL     1      20.977   5.484  11.655  1.00  0.00    -0.334 OA
BRANCH  21  22
HETATM   22  C10 UNL     1      20.357   4.998  10.555  1.00  0.00     0.144 A 
HETATM   23  C11 UNL     1      19.186   5.523  10.075  1.00  0.00     0.058 A 
HETATM   24  C12 UNL     1      18.540   5.028   8.935  1.00  0.00     0.036 A 
HETATM   25  C13 UNL     1      19.109   3.981   8.285  1.00  0.00     0.114 A 
HETATM   26  N6  UNL     1      18.515   3.423   7.118  1.00  0.00    -0.097 NA
HETATM   27  C14 UNL     1      20.279   3.453   8.762  1.00  0.00     0.271 A 
HETATM   28  O3  UNL     1      20.787   2.470   8.129  1.00  0.00    -0.266 OA
HETATM   29  N7  UNL     1      20.876   3.943   9.851  1.00  0.00    -0.302 N 
ATOM     30  H7  UNL     1      21.748   3.518  10.168  1.00  0.00     0.171 HD
ENDBRANCH  21  22
ENDBRANCH  20  21
ENDBRANCH  19  20
ENDBRANCH  17  19
ENDBRANCH  16  17
ENDBRANCH  15  16
ENDBRANCH  10  15
BRANCH   9  31
HETATM   31  N3  UNL     1      19.028   8.658  17.860  1.00  0.00    -0.234 N 
ATOM     32  H32 UNL     1      19.318   8.541  18.832  1.00  0.00     0.174 HD
ATOM     33  H31 UNL     1      19.611   8.042  17.293  1.00  0.00     0.174 HD
ENDBRANCH   9  31
TORSDOF 8
ENDMDL
MODEL 4
REMARK VINA RESULT: -7.742616465      3.193      4.461
REMARK  8 active torsions:
REMARK  status: ('A' for Active; 'I' for Inactive)
REMARK    1  A    between atoms: C5_9  and  N3_10 
REMARK    2  A    between atoms: N4_13  and  C6_14 
REMARK    3  A    between atoms: C6_14  and  C7_15 
REMARK    4  A    between atoms: C7_15  and  N5_16 
REMARK    5  A    between atoms: N5_16  and  C8_18 
REMARK    6  A    between atoms: C8_18  and  C9_19 
REMARK    7  A    between atoms: C9_19  and  O2_20 
REMARK    8  A    between atoms: O2_20  and  C10_21 
ROOT
HETATM    1  C1  UNL     1      14.845   8.185  19.446  1.00  0.00     0.164 C 
HETATM    2  N1  UNL     1      15.090   9.271  18.504  1.00  0.00    -0.269 N 
HETATM    3  C2  UNL     1      15.768   9.042  17.359  1.00  0.00     0.282 A 
HETATM    4  O1  UNL     1      16.194   7.887  17.102  1.00  0.00    -0.265 OA
HETATM    5  C3  UNL     1      15.990  10.081  16.478  1.00  0.00     0.164 A 
HETATM    6  C4  UNL     1      15.517  11.359  16.766  1.00  0.00     0.160 A 
HETATM    7  N2  UNL     1      15.863  12.184  15.754  1.00  0.00    -0.174 N 
ATOM      8  H2  UNL     1      15.648  13.179  15.699  1.00  0.00     0.186 HD
HETATM    9  C5  UNL     1      16.538  11.476  14.833  1.00  0.00     0.680 A 
HETATM   10  N4  UNL     1      16.611  10.210  15.275  1.00  0.00    -0.173 N 
HETATM   11  N8  UNL     1      14.851  11.537  17.912  1.00  0.00    -0.287 N 
HETATM   12  C15 UNL     1      14.337  12.857  18.253  1.00  0.00     0.163 C 
HETATM   13  C16 UNL     1      14.642  10.511  18.764  1.00  0.00     0.332 A 
HETATM   14  O4  UNL     1      14.004  10.739  19.833  1.00  0.00    -0.246 OA
ENDROOT
BRANCH  10  15
HETATM   15  C6  UNL     1      17.251   9.081  14.608  1.00  0.00     0.167 C 
BRANCH  15  16
HETATM   16  C7  UNL     1      18.735   9.182  14.782  1.00  0.00     0.134 C 
BRANCH  16  17
HETATM   17  N5  UNL     1      19.445   7.959  14.667  1.00  0.00    -0.418 N 
ATOM     18  H5  UNL     1      19.497   7.299  15.442  1.00  0.00     0.153 HD
BRANCH  17  19
HETATM   19  C8  UNL     1      20.085   7.692  13.419  1.00  0.00     0.140 C 
BRANCH  19  20
HETATM   20  C9  UNL     1      20.465   6.242  13.227  1.00  0.00     0.196 C 
BRANCH  20  21
HETATM   21  O2  UNL     1      20.886   5.895  11.983  1.00  0.00    -0.334 OA
BRANCH  21  22
HETATM   22  C10 UNL     1      20.298   5.377  10.879  1.00  0.00     0.144 A 
HETATM   23  C11 UNL     1      19.138   5.886  10.354  1.00  0.00     0.058 A 
HETATM   24  C12 UNL     1      18.526   5.359   9.209  1.00  0.00     0.036 A 
HETATM   25  C13 UNL     1      19.116   4.297   8.603  1.00  0.00     0.114 A 
HETATM   26  N6  UNL     1      18.556   3.707   7.436  1.00  0.00    -0.097 NA
HETATM   27  C14 UNL     1      20.273   3.786   9.126  1.00  0.00     0.271 A 
HETATM   28  O3  UNL     1      20.802   2.788   8.533  1.00  0.00    -0.266 OA
HETATM   29  N7  UNL     1      20.839   4.307  10.218  1.00  0.00    -0.302 N 
ATOM     30  H7  UNL     1      21.702   3.894  10.570  1.00  0.00     0.171 HD
ENDBRANCH  21  22
ENDBRANCH  20  21
ENDBRANCH  19  20
ENDBRANCH  17  19
ENDBRANCH  16  17
ENDBRANCH  15  16
ENDBRANCH  10  15
BRANCH   9  31
HETATM   31  N3  UNL     1      17.024  11.949  13.715  1.00  0.00    -0.234 N 
ATOM     32  H32 UNL     1      16.681  11.769  12.771  1.00  0.00     0.174 HD
ATOM     33  H31 UNL     1      17.824  12.577  13.634  1.00  0.00     0.174 HD
ENDBRANCH   9  31
TORSDOF 8
ENDMDL
MODEL 5
REMARK VINA RESULT: -7.737597391      3.726      9.730
REMARK  8 active torsions:
REMARK  status: ('A' for Active; 'I' for Inactive)
REMARK    1  A    between atoms: C5_9  and  N3_10 
REMARK    2  A    between atoms: N4_13  and  C6_14 
REMARK    3  A    between atoms: C6_14  and  C7_15 
REMARK    4  A    between atoms: C7_15  and  N5_16 
REMARK    5  A    between atoms: N5_16  and  C8_18 
REMARK    6  A    between atoms: C8_18  and  C9_19 
REMARK    7  A    between atoms: C9_19  and  O2_20 
REMARK    8  A    between atoms: O2_20  and  C10_21 
ROOT
HETATM    1  C1  UNL     1      17.786   4.989   9.586  1.00  0.00     0.164 C 
HETATM    2  N1  UNL     1      19.180   5.369   9.775  1.00  0.00    -0.269 N 
HETATM    3  C2  UNL     1      19.637   5.700  11.002  1.00  0.00     0.282 A 
HETATM    4  O1  UNL     1      18.857   5.685  11.988  1.00  0.00    -0.265 OA
HETATM    5  C3  UNL     1      20.961   6.057  11.164  1.00  0.00     0.164 A 
HETATM    6  C4  UNL     1      21.822   6.074  10.069  1.00  0.00     0.160 A 
HETATM    7  N2  UNL     1      23.047   6.453  10.493  1.00  0.00    -0.174 N 
ATOM      8  H2  UNL     1      23.874   6.553   9.905  1.00  0.00     0.186 HD
HETATM    9  C5  UNL     1      22.997   6.676  11.816  1.00  0.00     0.680 A 
HETATM   10  N4  UNL     1      21.736   6.436  12.215  1.00  0.00    -0.173 N 
HETATM   11  N8  UNL     1      21.324   5.739   8.875  1.00  0.00    -0.287 N 
HETATM   12  C15 UNL     1      22.190   5.741   7.703  1.00  0.00     0.163 C 
HETATM   13  C16 UNL     1      20.027   5.393   8.732  1.00  0.00     0.332 A 
HETATM   14  O4  UNL     1      19.611   5.083   7.577  1.00  0.00    -0.246 OA
ENDROOT
BRANCH  10  15
HETATM   15  C6  UNL     1      21.207   6.545  13.570  1.00  0.00     0.167 C 
BRANCH  15  16
HETATM   16  C7  UNL     1      20.626   7.912  13.764  1.00  0.00     0.134 C 
BRANCH  16  17
HETATM   17  N5  UNL     1      19.329   7.945  14.337  1.00  0.00    -0.418 N 
ATOM     18  H5  UNL     1      18.761   7.103  14.417  1.00  0.00     0.153 HD
BRANCH  17  19
HETATM   19  C8  UNL     1      18.853   9.209  14.798  1.00  0.00     0.140 C 
BRANCH  19  20
HETATM   20  C9  UNL     1      17.568   9.125  15.590  1.00  0.00     0.196 C 
BRANCH  20  21
HETATM   21  O2  UNL     1      17.552   9.789  16.775  1.00  0.00    -0.334 OA
BRANCH  21  22
HETATM   22  C10 UNL     1      16.589  10.282  17.587  1.00  0.00     0.144 A 
HETATM   23  C11 UNL     1      16.669  11.526  18.158  1.00  0.00     0.058 A 
HETATM   24  C12 UNL     1      15.675  12.044  18.997  1.00  0.00     0.036 A 
HETATM   25  C13 UNL     1      14.587  11.271  19.249  1.00  0.00     0.114 A 
HETATM   26  N6  UNL     1      13.534  11.729  20.090  1.00  0.00    -0.097 NA
HETATM   27  C14 UNL     1      14.504  10.028  18.682  1.00  0.00     0.271 A 
HETATM   28  O3  UNL     1      13.470   9.327  18.939  1.00  0.00    -0.266 OA
HETATM   29  N7  UNL     1      15.465   9.556  17.884  1.00  0.00    -0.302 N 
ATOM     30  H7  UNL     1      15.358   8.624  17.483  1.00  0.00     0.171 HD
ENDBRANCH  21  22
ENDBRANCH  20  21
ENDBRANCH  19  20
ENDBRANCH  17  19
ENDBRANCH  16  17
ENDBRANCH  15  16
ENDBRANCH  10  15
BRANCH   9  31
HETATM   31  N3  UNL     1      24.000   7.054  12.564  1.00  0.00    -0.234 N 
ATOM     32  H32 UNL     1      24.873   7.479  12.251  1.00  0.00     0.174 HD
ATOM     33  H31 UNL     1      24.047   6.976  13.581  1.00  0.00     0.174 HD
ENDBRANCH   9  31
TORSDOF 8
ENDMDL
