MODEL 1
REMARK VINA RESULT: -5.826119347      0.000      0.000
REMARK  2 active torsions:
REMARK  status: ('A' for Active; 'I' for Inactive)
REMARK    1  A    between atoms: C2_2  and  C4_4 
REMARK    2  A    between atoms: C4_4  and  C5_5 
ROOT
HETATM    1  C5  UNL     1       2.809 -20.648  -4.773  1.00  0.00     0.172 C 
HETATM    2  N1  UNL     1       1.593 -20.598  -4.051  1.00  0.00    -0.402 N 
ATOM      3  H1  UNL     1       1.121 -21.448  -3.743  1.00  0.00     0.155 HD
HETATM    4  C6  UNL     1       1.060 -19.319  -3.775  1.00  0.00     0.118 C 
HETATM    5  C7  UNL     1       1.177 -18.313  -4.868  1.00  0.00     0.049 C 
HETATM    6  C8  UNL     1       2.430 -18.448  -5.683  1.00  0.00     0.021 C 
HETATM    7  C9  UNL     1       3.134 -17.083  -5.654  1.00  0.00     0.037 C 
HETATM    8  C10 UNL     1       2.026 -18.700  -7.137  1.00  0.00     0.037 C 
HETATM    9  N2  UNL     1       3.352 -19.403  -5.188  1.00  0.00    -0.394 N 
ATOM     10  H2  UNL     1       4.351 -19.207  -5.133  1.00  0.00     0.156 HD
ENDROOT
BRANCH   1  11
HETATM   11  C4  UNL     1       3.900 -21.387  -4.019  1.00  0.00     0.050 C 
BRANCH  11  12
HETATM   12  C2  UNL     1       5.212 -21.366  -4.760  1.00  0.00    -0.019 C 
HETATM   13  C1  UNL     1       6.358 -20.898  -3.899  1.00  0.00     0.009 C 
HETATM   14  C3  UNL     1       5.497 -22.809  -5.168  1.00  0.00     0.009 C 
ENDBRANCH  11  12
ENDBRANCH   1  11
TORSDOF 2
ENDMDL
MODEL 2
REMARK VINA RESULT: -5.445763130      1.121      1.295
REMARK  2 active torsions:
REMARK  status: ('A' for Active; 'I' for Inactive)
REMARK    1  A    between atoms: C2_2  and  C4_4 
REMARK    2  A    between atoms: C4_4  and  C5_5 
ROOT
HETATM    1  C5  UNL     1       3.445 -20.768  -5.940  1.00  0.00     0.172 C 
HETATM    2  N1  UNL     1       2.460 -21.174  -5.009  1.00  0.00    -0.402 N 
ATOM      3  H1  UNL     1       2.198 -22.154  -4.904  1.00  0.00     0.155 HD
HETATM    4  C6  UNL     1       1.854 -20.162  -4.229  1.00  0.00     0.118 C 
HETATM    5  C7  UNL     1       1.554 -18.886  -4.936  1.00  0.00     0.049 C 
HETATM    6  C8  UNL     1       2.562 -18.525  -5.988  1.00  0.00     0.021 C 
HETATM    7  C9  UNL     1       3.065 -17.111  -5.661  1.00  0.00     0.037 C 
HETATM    8  C10 UNL     1       1.834 -18.429  -7.330  1.00  0.00     0.037 C 
HETATM    9  N2  UNL     1       3.696 -19.373  -6.030  1.00  0.00    -0.394 N 
ATOM     10  H2  UNL     1       4.641 -19.001  -6.119  1.00  0.00     0.156 HD
ENDROOT
BRANCH   1  11
HETATM   11  C4  UNL     1       4.780 -21.452  -5.707  1.00  0.00     0.050 C 
BRANCH  11  12
HETATM   12  C2  UNL     1       5.832 -20.488  -5.224  1.00  0.00    -0.019 C 
HETATM   13  C1  UNL     1       6.356 -20.838  -3.854  1.00  0.00     0.009 C 
HETATM   14  C3  UNL     1       6.995 -20.594  -6.207  1.00  0.00     0.009 C 
ENDBRANCH  11  12
ENDBRANCH   1  11
TORSDOF 2
ENDMDL
MODEL 3
REMARK VINA RESULT: -5.336291962      0.507      1.072
REMARK  2 active torsions:
REMARK  status: ('A' for Active; 'I' for Inactive)
REMARK    1  A    between atoms: C2_2  and  C4_4 
REMARK    2  A    between atoms: C4_4  and  C5_5 
ROOT
HETATM    1  C5  UNL     1       2.818 -20.566  -4.579  1.00  0.00     0.172 C 
HETATM    2  N1  UNL     1       1.492 -20.606  -4.089  1.00  0.00    -0.402 N 
ATOM      3  H1  UNL     1       1.060 -21.480  -3.790  1.00  0.00     0.155 HD
HETATM    4  C6  UNL     1       0.789 -19.381  -4.032  1.00  0.00     0.118 C 
HETATM    5  C7  UNL     1       1.003 -18.452  -5.178  1.00  0.00     0.049 C 
HETATM    6  C8  UNL     1       2.392 -18.499  -5.744  1.00  0.00     0.021 C 
HETATM    7  C9  UNL     1       2.935 -17.063  -5.721  1.00  0.00     0.037 C 
HETATM    8  C10 UNL     1       2.290 -18.903  -7.216  1.00  0.00     0.037 C 
HETATM    9  N2  UNL     1       3.298 -19.301  -5.008  1.00  0.00    -0.394 N 
ATOM     10  H2  UNL     1       4.245 -18.985  -4.798  1.00  0.00     0.156 HD
ENDROOT
BRANCH   1  11
HETATM   11  C4  UNL     1       3.822 -21.115  -3.580  1.00  0.00     0.050 C 
BRANCH  11  12
HETATM   12  C2  UNL     1       4.909 -21.912  -4.252  1.00  0.00    -0.019 C 
HETATM   13  C1  UNL     1       4.643 -22.136  -5.719  1.00  0.00     0.009 C 
HETATM   14  C3  UNL     1       6.185 -21.082  -4.133  1.00  0.00     0.009 C 
ENDBRANCH  11  12
ENDBRANCH   1  11
TORSDOF 2
ENDMDL
MODEL 4
REMARK VINA RESULT: -5.327487808      1.345      4.394
REMARK  2 active torsions:
REMARK  status: ('A' for Active; 'I' for Inactive)
REMARK    1  A    between atoms: C2_2  and  C4_4 
REMARK    2  A    between atoms: C4_4  and  C5_5 
ROOT
HETATM    1  C5  UNL     1       2.379 -20.478  -4.636  1.00  0.00     0.172 C 
HETATM    2  N1  UNL     1       2.457 -19.332  -5.462  1.00  0.00    -0.402 N 
ATOM      3  H1  UNL     1       1.644 -18.985  -5.970  1.00  0.00     0.155 HD
HETATM    4  C6  UNL     1       3.712 -18.688  -5.553  1.00  0.00     0.118 C 
HETATM    5  C7  UNL     1       4.902 -19.582  -5.615  1.00  0.00     0.049 C 
HETATM    6  C8  UNL     1       4.757 -20.839  -4.808  1.00  0.00     0.021 C 
HETATM    7  C9  UNL     1       5.957 -20.900  -3.852  1.00  0.00     0.037 C 
HETATM    8  C10 UNL     1       4.895 -22.031  -5.757  1.00  0.00     0.037 C 
HETATM    9  N2  UNL     1       3.585 -20.894  -4.013  1.00  0.00    -0.394 N 
ATOM     10  H2  UNL     1       3.608 -21.215  -3.045  1.00  0.00     0.156 HD
ENDROOT
BRANCH   1  11
HETATM   11  C4  UNL     1       1.333 -20.335  -3.544  1.00  0.00     0.050 C 
BRANCH  11  12
HETATM   12  C2  UNL     1       0.838 -18.918  -3.420  1.00  0.00    -0.019 C 
HETATM   13  C1  UNL     1      -0.447 -18.683  -4.172  1.00  0.00     0.009 C 
HETATM   14  C3  UNL     1       0.555 -18.691  -1.936  1.00  0.00     0.009 C 
ENDBRANCH  11  12
ENDBRANCH   1  11
TORSDOF 2
ENDMDL
MODEL 5
REMARK VINA RESULT: -5.311532930      1.571      4.463
REMARK  2 active torsions:
REMARK  status: ('A' for Active; 'I' for Inactive)
REMARK    1  A    between atoms: C2_2  and  C4_4 
REMARK    2  A    between atoms: C4_4  and  C5_5 
ROOT
HETATM    1  C5  UNL     1       3.398 -20.432  -4.554  1.00  0.00     0.172 C 
HETATM    2  N1  UNL     1       3.644 -21.602  -3.798  1.00  0.00    -0.402 N 
ATOM      3  H1  UNL     1       3.229 -21.738  -2.876  1.00  0.00     0.155 HD
HETATM    4  C6  UNL     1       4.489 -22.577  -4.375  1.00  0.00     0.118 C 
HETATM    5  C7  UNL     1       5.670 -22.058  -5.120  1.00  0.00     0.049 C 
HETATM    6  C8  UNL     1       5.414 -20.763  -5.835  1.00  0.00     0.021 C 
HETATM    7  C9  UNL     1       5.787 -20.983  -7.308  1.00  0.00     0.037 C 
HETATM    8  C10 UNL     1       6.390 -19.719  -5.289  1.00  0.00     0.037 C 
HETATM    9  N2  UNL     1       4.065 -20.333  -5.804  1.00  0.00    -0.394 N 
ATOM     10  H2  UNL     1       3.597 -19.973  -6.636  1.00  0.00     0.156 HD
ENDROOT
BRANCH   1  11
HETATM   11  C4  UNL     1       1.919 -20.208  -4.812  1.00  0.00     0.050 C 
BRANCH  11  12
HETATM   12  C2  UNL     1       1.486 -18.814  -4.442  1.00  0.00    -0.019 C 
HETATM   13  C1  UNL     1       0.601 -18.183  -5.487  1.00  0.00     0.009 C 
HETATM   14  C3  UNL     1       0.668 -18.945  -3.159  1.00  0.00     0.009 C 
ENDBRANCH  11  12
ENDBRANCH   1  11
TORSDOF 2
ENDMDL
