MODEL 1
REMARK VINA RESULT: -5.324584204      0.000      0.000
REMARK  2 active torsions:
REMARK  status: ('A' for Active; 'I' for Inactive)
REMARK    1  A    between atoms: C2_2  and  N1_4 
REMARK    2  A    between atoms: N1_4  and  C4_6 
ROOT
HETATM    1  C4  UNL     1       2.446 -19.368  -4.954  1.00  0.00     0.078 C 
HETATM    2  C5  UNL     1       1.364 -19.997  -4.085  1.00  0.00     0.026 C 
HETATM    3  C6  UNL     1       0.604 -19.009  -3.266  1.00  0.00     0.029 C 
HETATM    4  C7  UNL     1      -0.491 -18.302  -4.006  1.00  0.00     0.232 C 
HETATM    5  N2  UNL     1      -0.455 -18.492  -5.433  1.00  0.00    -0.075 N 
ATOM      6  H21 UNL     1      -1.313 -18.191  -5.896  1.00  0.00     0.277 HD
ATOM      7  H22 UNL     1      -0.493 -19.475  -5.704  1.00  0.00     0.277 HD
HETATM    8  C8  UNL     1       0.715 -17.819  -5.932  1.00  0.00     0.234 C 
HETATM    9  C9  UNL     1       1.754 -18.861  -6.200  1.00  0.00     0.052 C 
ENDROOT
BRANCH   1  10
HETATM   10  N1  UNL     1       3.271 -20.470  -5.383  1.00  0.00    -0.414 N 
ATOM     11  H1  UNL     1       3.107 -20.961  -6.262  1.00  0.00     0.153 HD
BRANCH  10  12
HETATM   12  C2  UNL     1       4.329 -20.826  -4.500  1.00  0.00     0.068 C 
HETATM   13  C1  UNL     1       4.413 -22.289  -4.171  1.00  0.00     0.031 C 
HETATM   14  C3  UNL     1       5.689 -20.336  -4.919  1.00  0.00     0.031 C 
ENDBRANCH  10  12
ENDBRANCH   1  10
TORSDOF 2
ENDMDL
MODEL 2
REMARK VINA RESULT: -5.261163675      1.899      5.085
REMARK  2 active torsions:
REMARK  status: ('A' for Active; 'I' for Inactive)
REMARK    1  A    between atoms: C2_2  and  N1_4 
REMARK    2  A    between atoms: N1_4  and  C4_6 
ROOT
HETATM    1  C4  UNL     1       3.970 -21.289  -5.496  1.00  0.00     0.078 C 
HETATM    2  C5  UNL     1       4.743 -22.343  -4.714  1.00  0.00     0.026 C 
HETATM    3  C6  UNL     1       6.043 -22.720  -5.340  1.00  0.00     0.029 C 
HETATM    4  C7  UNL     1       7.168 -21.773  -5.051  1.00  0.00     0.232 C 
HETATM    5  N2  UNL     1       6.753 -20.531  -4.450  1.00  0.00    -0.075 N 
ATOM      6  H21 UNL     1       7.531 -19.995  -4.066  1.00  0.00     0.277 HD
ATOM      7  H22 UNL     1       6.239 -20.664  -3.579  1.00  0.00     0.277 HD
HETATM    8  C8  UNL     1       6.003 -19.800  -5.436  1.00  0.00     0.234 C 
HETATM    9  C9  UNL     1       4.553 -19.949  -5.102  1.00  0.00     0.052 C 
ENDROOT
BRANCH   1  10
HETATM   10  N1  UNL     1       2.638 -21.315  -4.947  1.00  0.00    -0.414 N 
ATOM     11  H1  UNL     1       1.935 -21.985  -5.257  1.00  0.00     0.153 HD
BRANCH  10  12
HETATM   12  C2  UNL     1       2.367 -20.342  -3.943  1.00  0.00     0.068 C 
HETATM   13  C1  UNL     1       1.190 -19.454  -4.223  1.00  0.00     0.031 C 
HETATM   14  C3  UNL     1       2.247 -20.894  -2.548  1.00  0.00     0.031 C 
ENDBRANCH  10  12
ENDBRANCH   1  10
TORSDOF 2
ENDMDL
MODEL 3
REMARK VINA RESULT: -5.013078218      1.151      2.315
REMARK  2 active torsions:
REMARK  status: ('A' for Active; 'I' for Inactive)
REMARK    1  A    between atoms: C2_2  and  N1_4 
REMARK    2  A    between atoms: N1_4  and  C4_6 
ROOT
HETATM    1  C4  UNL     1       2.686 -20.633  -4.453  1.00  0.00     0.078 C 
HETATM    2  C5  UNL     1       3.113 -19.418  -5.267  1.00  0.00     0.026 C 
HETATM    3  C6  UNL     1       2.151 -19.050  -6.344  1.00  0.00     0.029 C 
HETATM    4  C7  UNL     1       0.976 -18.245  -5.878  1.00  0.00     0.232 C 
HETATM    5  N2  UNL     1       0.832 -18.189  -4.446  1.00  0.00    -0.075 N 
ATOM      6  H21 UNL     1       0.171 -17.475  -4.141  1.00  0.00     0.277 HD
ATOM      7  H22 UNL     1       1.658 -17.817  -3.978  1.00  0.00     0.277 HD
HETATM    8  C8  UNL     1       0.478 -19.508  -3.993  1.00  0.00     0.234 C 
HETATM    9  C9  UNL     1       1.708 -20.131  -3.414  1.00  0.00     0.052 C 
ENDROOT
BRANCH   1  10
HETATM   10  N1  UNL     1       3.864 -21.031  -3.724  1.00  0.00    -0.414 N 
ATOM     11  H1  UNL     1       3.876 -21.102  -2.707  1.00  0.00     0.153 HD
BRANCH  10  12
HETATM   12  C2  UNL     1       5.011 -21.318  -4.518  1.00  0.00     0.068 C 
HETATM   13  C1  UNL     1       6.318 -20.880  -3.923  1.00  0.00     0.031 C 
HETATM   14  C3  UNL     1       5.126 -22.751  -4.961  1.00  0.00     0.031 C 
ENDBRANCH  10  12
ENDBRANCH   1  10
TORSDOF 2
ENDMDL
MODEL 4
REMARK VINA RESULT: -5.012625742      1.257      1.548
REMARK  2 active torsions:
REMARK  status: ('A' for Active; 'I' for Inactive)
REMARK    1  A    between atoms: C2_2  and  N1_4 
REMARK    2  A    between atoms: N1_4  and  C4_6 
ROOT
HETATM    1  C4  UNL     1       3.073 -20.277  -5.058  1.00  0.00     0.078 C 
HETATM    2  C5  UNL     1       1.666 -20.078  -4.510  1.00  0.00     0.026 C 
HETATM    3  C6  UNL     1       1.335 -18.656  -4.208  1.00  0.00     0.029 C 
HETATM    4  C7  UNL     1       0.916 -17.851  -5.400  1.00  0.00     0.232 C 
HETATM    5  N2  UNL     1       1.156 -18.500  -6.664  1.00  0.00    -0.075 N 
ATOM      6  H21 UNL     1       0.677 -18.045  -7.441  1.00  0.00     0.277 HD
ATOM      7  H22 UNL     1       0.698 -19.408  -6.736  1.00  0.00     0.277 HD
HETATM    8  C8  UNL     1       2.580 -18.574  -6.850  1.00  0.00     0.234 C 
HETATM    9  C9  UNL     1       3.003 -19.975  -6.539  1.00  0.00     0.052 C 
ENDROOT
BRANCH   1  10
HETATM   10  N1  UNL     1       3.319 -21.693  -4.957  1.00  0.00    -0.414 N 
ATOM     11  H1  UNL     1       2.637 -22.387  -5.263  1.00  0.00     0.153 HD
BRANCH  10  12
HETATM   12  C2  UNL     1       4.578 -22.061  -4.402  1.00  0.00     0.068 C 
HETATM   13  C1  UNL     1       5.406 -22.973  -5.260  1.00  0.00     0.031 C 
HETATM   14  C3  UNL     1       5.427 -20.905  -3.948  1.00  0.00     0.031 C 
ENDBRANCH  10  12
ENDBRANCH   1  10
TORSDOF 2
ENDMDL
MODEL 5
REMARK VINA RESULT: -5.011761369      1.273      2.074
REMARK  2 active torsions:
REMARK  status: ('A' for Active; 'I' for Inactive)
REMARK    1  A    between atoms: C2_2  and  N1_4 
REMARK    2  A    between atoms: N1_4  and  C4_6 
ROOT
HETATM    1  C4  UNL     1       2.785 -20.216  -4.935  1.00  0.00     0.078 C 
HETATM    2  C5  UNL     1       2.372 -18.768  -5.166  1.00  0.00     0.026 C 
HETATM    3  C6  UNL     1       0.911 -18.593  -5.411  1.00  0.00     0.029 C 
HETATM    4  C7  UNL     1       0.074 -18.565  -4.169  1.00  0.00     0.232 C 
HETATM    5  N2  UNL     1       0.773 -18.977  -2.978  1.00  0.00    -0.075 N 
ATOM      6  H21 UNL     1       0.266 -18.751  -2.122  1.00  0.00     0.277 HD
ATOM      7  H22 UNL     1       1.605 -18.417  -2.793  1.00  0.00     0.277 HD
HETATM    8  C8  UNL     1       1.059 -20.381  -3.105  1.00  0.00     0.234 C 
HETATM    9  C9  UNL     1       2.501 -20.515  -3.479  1.00  0.00     0.052 C 
ENDROOT
BRANCH   1  10
HETATM   10  N1  UNL     1       4.220 -20.223  -5.065  1.00  0.00    -0.414 N 
ATOM     11  H1  UNL     1       4.716 -19.550  -5.648  1.00  0.00     0.153 HD
BRANCH  10  12
HETATM   12  C2  UNL     1       4.900 -21.233  -4.326  1.00  0.00     0.068 C 
HETATM   13  C1  UNL     1       4.956 -22.576  -4.994  1.00  0.00     0.031 C 
HETATM   14  C3  UNL     1       6.280 -20.853  -3.865  1.00  0.00     0.031 C 
ENDBRANCH  10  12
ENDBRANCH   1  10
TORSDOF 2
ENDMDL
