MODEL 1
REMARK VINA RESULT: -6.525691432      0.000      0.000
REMARK  2 active torsions:
REMARK  status: ('A' for Active; 'I' for Inactive)
REMARK    1  A    between atoms: C2_3  and  N2_4 
REMARK    2  A    between atoms: C3_6  and  C4_7 
ROOT
HETATM    1  N1  UNL     1      -7.087  24.347   5.898  1.00  0.00    -0.097 NA
HETATM    2  C1  UNL     1      -6.441  24.149   4.636  1.00  0.00     0.111 A 
HETATM    3  C2  UNL     1      -5.663  23.042   4.409  1.00  0.00     0.060 A 
HETATM    4  C10 UNL     1      -5.058  22.880   3.189  1.00  0.00     0.048 A 
HETATM    5  C11 UNL     1      -5.253  23.847   2.221  1.00  0.00     0.091 A 
HETATM    6  N3  UNL     1      -6.007  24.934   2.423  1.00  0.00    -0.355 N 
ATOM      7  H3  UNL     1      -6.133  25.631   1.689  1.00  0.00     0.166 HD
HETATM    8  C12 UNL     1      -6.589  25.076   3.615  1.00  0.00     0.127 A 
HETATM    9  S1  UNL     1      -7.521  26.405   3.883  1.00  0.00    -0.058 SA
ENDROOT
BRANCH   3  10
HETATM   10  N2  UNL     1      -5.487  22.076   5.419  1.00  0.00    -0.368 N 
HETATM   11  C3  UNL     1      -5.688  20.831   5.184  1.00  0.00     0.066 C 
ATOM     12  H2  UNL     1      -5.195  22.370   6.351  1.00  0.00     0.165 HD
BRANCH  11  13
HETATM   13  C4  UNL     1      -5.520  19.773   6.199  1.00  0.00     0.024 C 
HETATM   14  C5  UNL     1      -4.856  18.533   5.631  1.00  0.00     0.010 C 
HETATM   15  C6  UNL     1      -4.879  17.498   6.718  1.00  0.00     0.001 C 
HETATM   16  C7  UNL     1      -4.122  17.912   7.946  1.00  0.00     0.000 C 
HETATM   17  C8  UNL     1      -4.330  19.318   8.365  1.00  0.00     0.001 C 
HETATM   18  C9  UNL     1      -4.626  20.288   7.286  1.00  0.00     0.010 C 
ENDBRANCH  11  13
ENDBRANCH   3  10
TORSDOF 2
ENDMDL
MODEL 2
REMARK VINA RESULT: -6.492579347      2.276      2.944
REMARK  2 active torsions:
REMARK  status: ('A' for Active; 'I' for Inactive)
REMARK    1  A    between atoms: C2_3  and  N2_4 
REMARK    2  A    between atoms: C3_6  and  C4_7 
ROOT
HETATM    1  N1  UNL     1      -9.145  23.252   7.550  1.00  0.00    -0.097 NA
HETATM    2  C1  UNL     1      -8.631  24.175   6.582  1.00  0.00     0.111 A 
HETATM    3  C2  UNL     1      -7.859  23.739   5.535  1.00  0.00     0.060 A 
HETATM    4  C10 UNL     1      -7.383  24.648   4.624  1.00  0.00     0.048 A 
HETATM    5  C11 UNL     1      -7.700  25.982   4.794  1.00  0.00     0.091 A 
HETATM    6  N3  UNL     1      -8.450  26.427   5.809  1.00  0.00    -0.355 N 
ATOM      7  H3  UNL     1      -8.667  27.418   5.909  1.00  0.00     0.166 HD
HETATM    8  C12 UNL     1      -8.906  25.531   6.685  1.00  0.00     0.127 A 
HETATM    9  S1  UNL     1      -9.831  26.056   7.940  1.00  0.00    -0.058 SA
ENDROOT
BRANCH   3  10
HETATM   10  N2  UNL     1      -7.557  22.371   5.393  1.00  0.00    -0.368 N 
HETATM   11  C3  UNL     1      -6.364  21.937   5.573  1.00  0.00     0.066 C 
ATOM     12  H2  UNL     1      -8.298  21.715   5.145  1.00  0.00     0.165 HD
BRANCH  11  13
HETATM   13  C4  UNL     1      -5.985  20.517   5.440  1.00  0.00     0.024 C 
HETATM   14  C5  UNL     1      -4.979  20.294   4.326  1.00  0.00     0.010 C 
HETATM   15  C6  UNL     1      -4.795  18.809   4.206  1.00  0.00     0.001 C 
HETATM   16  C7  UNL     1      -4.256  18.176   5.454  1.00  0.00     0.000 C 
HETATM   17  C8  UNL     1      -4.858  18.669   6.716  1.00  0.00     0.001 C 
HETATM   18  C9  UNL     1      -5.332  20.072   6.713  1.00  0.00     0.010 C 
ENDBRANCH  11  13
ENDBRANCH   3  10
TORSDOF 2
ENDMDL
MODEL 3
REMARK VINA RESULT: -6.490711280      1.179      1.816
REMARK  2 active torsions:
REMARK  status: ('A' for Active; 'I' for Inactive)
REMARK    1  A    between atoms: C2_3  and  N2_4 
REMARK    2  A    between atoms: C3_6  and  C4_7 
ROOT
HETATM    1  N1  UNL     1      -7.388  22.758   6.129  1.00  0.00    -0.097 NA
HETATM    2  C1  UNL     1      -6.632  23.099   4.961  1.00  0.00     0.111 A 
HETATM    3  C2  UNL     1      -5.715  22.225   4.436  1.00  0.00     0.060 A 
HETATM    4  C10 UNL     1      -5.007  22.581   3.316  1.00  0.00     0.048 A 
HETATM    5  C11 UNL     1      -5.243  23.820   2.751  1.00  0.00     0.091 A 
HETATM    6  N3  UNL     1      -6.132  24.687   3.249  1.00  0.00    -0.355 N 
ATOM      7  H3  UNL     1      -6.285  25.595   2.810  1.00  0.00     0.166 HD
HETATM    8  C12 UNL     1      -6.813  24.325   4.337  1.00  0.00     0.127 A 
HETATM    9  S1  UNL     1      -7.912  25.376   4.965  1.00  0.00    -0.058 SA
ENDROOT
BRANCH   3  10
HETATM   10  N2  UNL     1      -5.501  20.970   5.038  1.00  0.00    -0.368 N 
HETATM   11  C3  UNL     1      -4.338  20.429   5.039  1.00  0.00     0.066 C 
ATOM     12  H2  UNL     1      -6.281  20.484   5.481  1.00  0.00     0.165 HD
BRANCH  11  13
HETATM   13  C4  UNL     1      -4.051  19.118   5.654  1.00  0.00     0.024 C 
HETATM   14  C5  UNL     1      -5.058  18.756   6.729  1.00  0.00     0.010 C 
HETATM   15  C6  UNL     1      -4.571  17.485   7.363  1.00  0.00     0.001 C 
HETATM   16  C7  UNL     1      -4.485  16.338   6.400  1.00  0.00     0.000 C 
HETATM   17  C8  UNL     1      -3.918  16.677   5.072  1.00  0.00     0.001 C 
HETATM   18  C9  UNL     1      -4.143  18.060   4.596  1.00  0.00     0.010 C 
ENDBRANCH  11  13
ENDBRANCH   3  10
TORSDOF 2
ENDMDL
MODEL 4
REMARK VINA RESULT: -6.420604128      1.670      2.769
REMARK  2 active torsions:
REMARK  status: ('A' for Active; 'I' for Inactive)
REMARK    1  A    between atoms: C2_3  and  N2_4 
REMARK    2  A    between atoms: C3_6  and  C4_7 
ROOT
HETATM    1  N1  UNL     1      -6.310  24.311   3.682  1.00  0.00    -0.097 NA
HETATM    2  C1  UNL     1      -7.072  24.584   4.864  1.00  0.00     0.111 A 
HETATM    3  C2  UNL     1      -7.090  23.697   5.911  1.00  0.00     0.060 A 
HETATM    4  C10 UNL     1      -7.828  23.988   7.029  1.00  0.00     0.048 A 
HETATM    5  C11 UNL     1      -8.537  25.174   7.064  1.00  0.00     0.091 A 
HETATM    6  N3  UNL     1      -8.533  26.051   6.053  1.00  0.00    -0.355 N 
ATOM      7  H3  UNL     1      -9.065  26.919   6.107  1.00  0.00     0.166 HD
HETATM    8  C12 UNL     1      -7.809  25.754   4.973  1.00  0.00     0.127 A 
HETATM    9  S1  UNL     1      -7.789  26.819   3.720  1.00  0.00    -0.058 SA
ENDROOT
BRANCH   3  10
HETATM   10  N2  UNL     1      -6.355  22.497   5.841  1.00  0.00    -0.368 N 
HETATM   11  C3  UNL     1      -6.921  21.397   5.503  1.00  0.00     0.066 C 
ATOM     12  H2  UNL     1      -5.359  22.503   6.061  1.00  0.00     0.165 HD
BRANCH  11  13
HETATM   13  C4  UNL     1      -6.205  20.109   5.411  1.00  0.00     0.024 C 
HETATM   14  C5  UNL     1      -5.210  20.087   4.266  1.00  0.00     0.010 C 
HETATM   15  C6  UNL     1      -4.665  18.689   4.198  1.00  0.00     0.001 C 
HETATM   16  C7  UNL     1      -3.949  18.271   5.448  1.00  0.00     0.000 C 
HETATM   17  C8  UNL     1      -4.616  18.662   6.713  1.00  0.00     0.001 C 
HETATM   18  C9  UNL     1      -5.424  19.902   6.673  1.00  0.00     0.010 C 
ENDBRANCH  11  13
ENDBRANCH   3  10
TORSDOF 2
ENDMDL
MODEL 5
REMARK VINA RESULT: -6.362143386      4.880      7.654
REMARK  2 active torsions:
REMARK  status: ('A' for Active; 'I' for Inactive)
REMARK    1  A    between atoms: C2_3  and  N2_4 
REMARK    2  A    between atoms: C3_6  and  C4_7 
ROOT
HETATM    1  N1  UNL     1      -8.164  26.253   3.800  1.00  0.00    -0.097 NA
HETATM    2  C1  UNL     1      -7.574  25.279   4.670  1.00  0.00     0.111 A 
HETATM    3  C2  UNL     1      -8.067  25.075   5.934  1.00  0.00     0.060 A 
HETATM    4  C10 UNL     1      -7.481  24.135   6.743  1.00  0.00     0.048 A 
HETATM    5  C11 UNL     1      -6.404  23.420   6.254  1.00  0.00     0.091 A 
HETATM    6  N3  UNL     1      -5.908  23.606   5.025  1.00  0.00    -0.355 N 
ATOM      7  H3  UNL     1      -5.112  23.064   4.691  1.00  0.00     0.166 HD
HETATM    8  C12 UNL     1      -6.490  24.523   4.251  1.00  0.00     0.127 A 
HETATM    9  S1  UNL     1      -5.896  24.766   2.736  1.00  0.00    -0.058 SA
ENDROOT
BRANCH   3  10
HETATM   10  N2  UNL     1      -9.167  25.821   6.399  1.00  0.00    -0.368 N 
HETATM   11  C3  UNL     1      -9.677  25.595   7.554  1.00  0.00     0.066 C 
ATOM     12  H2  UNL     1      -9.564  26.553   5.810  1.00  0.00     0.165 HD
BRANCH  11  13
HETATM   13  C4  UNL     1     -10.828  26.343   8.097  1.00  0.00     0.024 C 
HETATM   14  C5  UNL     1     -10.451  27.752   8.514  1.00  0.00     0.010 C 
HETATM   15  C6  UNL     1     -11.664  28.343   9.173  1.00  0.00     0.001 C 
HETATM   16  C7  UNL     1     -12.851  28.428   8.260  1.00  0.00     0.000 C 
HETATM   17  C8  UNL     1     -13.074  27.235   7.410  1.00  0.00     0.001 C 
HETATM   18  C9  UNL     1     -11.868  26.468   7.025  1.00  0.00     0.010 C 
ENDBRANCH  11  13
ENDBRANCH   3  10
TORSDOF 2
ENDMDL
