MODEL 1
REMARK VINA RESULT: -7.241998935      0.000      0.000
REMARK  2 active torsions:
REMARK  status: ('A' for Active; 'I' for Inactive)
REMARK    1  A    between atoms: C6_7  and  N1_8 
REMARK    2  A    between atoms: N1_8  and  C7_10 
ROOT
HETATM    1  C1  UNL     1      -4.045  21.659   4.061  1.00  0.00     0.077 C 
HETATM    2  C2  UNL     1      -5.093  22.671   4.435  1.00  0.00     0.057 A 
HETATM    3  O1  UNL     1      -5.666  22.789   5.607  1.00  0.00    -0.313 OA
HETATM    4  C3  UNL     1      -6.539  23.770   5.611  1.00  0.00     0.100 A 
HETATM    5  C4  UNL     1      -7.392  24.296   6.582  1.00  0.00     0.017 A 
HETATM    6  C5  UNL     1      -7.381  23.682   7.918  1.00  0.00     0.055 C 
HETATM    7  C6  UNL     1      -8.229  25.353   6.321  1.00  0.00     0.111 A 
HETATM    8  N2  UNL     1      -8.186  25.864   5.078  1.00  0.00    -0.328 N 
ATOM      9  H2  UNL     1      -8.794  26.651   4.852  1.00  0.00     0.169 HD
HETATM   10  C10 UNL     1      -7.369  25.377   4.113  1.00  0.00     0.114 A 
HETATM   11  N3  UNL     1      -7.358  25.898   2.925  1.00  0.00    -0.385 N 
ATOM     12  H31 UNL     1      -6.743  25.532   2.198  1.00  0.00     0.157 HD
ATOM     13  H32 UNL     1      -7.982  26.683   2.741  1.00  0.00     0.157 HD
HETATM   14  C11 UNL     1      -6.531  24.324   4.359  1.00  0.00     0.050 A 
HETATM   15  C12 UNL     1      -5.607  23.630   3.586  1.00  0.00    -0.016 A 
HETATM   16  C13 UNL     1      -5.274  23.887   2.181  1.00  0.00     0.052 C 
ENDROOT
BRANCH   7  17
HETATM   17  N1  UNL     1      -9.082  25.867   7.333  1.00  0.00    -0.372 N 
ATOM     18  H1  UNL     1      -8.641  26.319   8.134  1.00  0.00     0.161 HD
BRANCH  17  19
HETATM   19  C7  UNL     1     -10.512  25.802   7.322  1.00  0.00     0.075 C 
HETATM   20  C8  UNL     1     -11.036  24.474   7.824  1.00  0.00     0.031 C 
HETATM   21  C9  UNL     1     -11.119  26.875   8.180  1.00  0.00     0.031 C 
ENDBRANCH  17  19
ENDBRANCH   7  17
TORSDOF 2
ENDMDL
MODEL 2
REMARK VINA RESULT: -7.137195953      0.649      1.086
REMARK  2 active torsions:
REMARK  status: ('A' for Active; 'I' for Inactive)
REMARK    1  A    between atoms: C6_7  and  N1_8 
REMARK    2  A    between atoms: N1_8  and  C7_10 
ROOT
HETATM    1  C1  UNL     1      -3.714  21.628   3.830  1.00  0.00     0.077 C 
HETATM    2  C2  UNL     1      -4.797  22.525   4.365  1.00  0.00     0.057 A 
HETATM    3  O1  UNL     1      -5.270  22.517   5.587  1.00  0.00    -0.313 OA
HETATM    4  C3  UNL     1      -6.208  23.422   5.737  1.00  0.00     0.100 A 
HETATM    5  C4  UNL     1      -7.008  23.811   6.813  1.00  0.00     0.017 A 
HETATM    6  C5  UNL     1      -6.833  23.110   8.093  1.00  0.00     0.055 C 
HETATM    7  C6  UNL     1      -7.940  24.813   6.703  1.00  0.00     0.111 A 
HETATM    8  N2  UNL     1      -8.046  25.410   5.502  1.00  0.00    -0.328 N 
ATOM      9  H2  UNL     1      -8.728  26.159   5.388  1.00  0.00     0.169 HD
HETATM   10  C10 UNL     1      -7.285  25.057   4.439  1.00  0.00     0.114 A 
HETATM   11  N3  UNL     1      -7.418  25.657   3.296  1.00  0.00    -0.385 N 
ATOM     12  H31 UNL     1      -6.845  25.391   2.495  1.00  0.00     0.157 HD
ATOM     13  H32 UNL     1      -8.112  26.400   3.225  1.00  0.00     0.157 HD
HETATM   14  C11 UNL     1      -6.354  24.060   4.534  1.00  0.00     0.050 A 
HETATM   15  C12 UNL     1      -5.453  23.495   3.637  1.00  0.00    -0.016 A 
HETATM   16  C13 UNL     1      -5.267  23.874   2.232  1.00  0.00     0.052 C 
ENDROOT
BRANCH   7  17
HETATM   17  N1  UNL     1      -8.736  25.187   7.819  1.00  0.00    -0.372 N 
ATOM     18  H1  UNL     1      -8.281  25.717   8.562  1.00  0.00     0.161 HD
BRANCH  17  19
HETATM   19  C7  UNL     1     -10.124  24.881   7.985  1.00  0.00     0.075 C 
HETATM   20  C8  UNL     1     -11.026  25.904   7.330  1.00  0.00     0.031 C 
HETATM   21  C9  UNL     1     -10.467  23.541   7.400  1.00  0.00     0.031 C 
ENDBRANCH  17  19
ENDBRANCH   7  17
TORSDOF 2
ENDMDL
MODEL 3
REMARK VINA RESULT: -6.930081892      1.464      1.690
REMARK  2 active torsions:
REMARK  status: ('A' for Active; 'I' for Inactive)
REMARK    1  A    between atoms: C6_7  and  N1_8 
REMARK    2  A    between atoms: N1_8  and  C7_10 
ROOT
HETATM    1  C1  UNL     1      -5.187  21.929   3.969  1.00  0.00     0.077 C 
HETATM    2  C2  UNL     1      -6.272  22.864   4.428  1.00  0.00     0.057 A 
HETATM    3  O1  UNL     1      -7.270  22.557   5.219  1.00  0.00    -0.313 OA
HETATM    4  C3  UNL     1      -8.045  23.595   5.430  1.00  0.00     0.100 A 
HETATM    5  C4  UNL     1      -9.207  23.794   6.175  1.00  0.00     0.017 A 
HETATM    6  C5  UNL     1      -9.757  22.650   6.917  1.00  0.00     0.055 C 
HETATM    7  C6  UNL     1      -9.838  25.013   6.229  1.00  0.00     0.111 A 
HETATM    8  N2  UNL     1      -9.280  26.014   5.526  1.00  0.00    -0.328 N 
ATOM      9  H2  UNL     1      -9.723  26.932   5.546  1.00  0.00     0.169 HD
HETATM   10  C10 UNL     1      -8.152  25.854   4.793  1.00  0.00     0.114 A 
HETATM   11  N3  UNL     1      -7.644  26.845   4.127  1.00  0.00    -0.385 N 
ATOM     12  H31 UNL     1      -6.795  26.725   3.575  1.00  0.00     0.157 HD
ATOM     13  H32 UNL     1      -8.120  27.746   4.174  1.00  0.00     0.157 HD
HETATM   14  C11 UNL     1      -7.513  24.646   4.730  1.00  0.00     0.050 A 
HETATM   15  C12 UNL     1      -6.371  24.195   4.077  1.00  0.00    -0.016 A 
HETATM   16  C13 UNL     1      -5.487  24.987   3.215  1.00  0.00     0.052 C 
ENDROOT
BRANCH   7  17
HETATM   17  N1  UNL     1     -11.019  25.182   7.001  1.00  0.00    -0.372 N 
ATOM     18  H1  UNL     1     -11.697  24.420   6.994  1.00  0.00     0.161 HD
BRANCH  17  19
HETATM   19  C7  UNL     1     -11.334  26.335   7.789  1.00  0.00     0.075 C 
HETATM   20  C8  UNL     1     -12.625  26.996   7.357  1.00  0.00     0.031 C 
HETATM   21  C9  UNL     1     -11.474  25.987   9.243  1.00  0.00     0.031 C 
ENDBRANCH  17  19
ENDBRANCH   7  17
TORSDOF 2
ENDMDL
MODEL 4
REMARK VINA RESULT: -6.829929849      2.490      5.437
REMARK  2 active torsions:
REMARK  status: ('A' for Active; 'I' for Inactive)
REMARK    1  A    between atoms: C6_7  and  N1_8 
REMARK    2  A    between atoms: N1_8  and  C7_10 
ROOT
HETATM    1  C1  UNL     1      -9.231  25.774   6.573  1.00  0.00     0.077 C 
HETATM    2  C2  UNL     1      -8.089  24.978   6.003  1.00  0.00     0.057 A 
HETATM    3  O1  UNL     1      -7.544  23.917   6.545  1.00  0.00    -0.313 OA
HETATM    4  C3  UNL     1      -6.568  23.453   5.800  1.00  0.00     0.100 A 
HETATM    5  C4  UNL     1      -5.692  22.374   5.922  1.00  0.00     0.017 A 
HETATM    6  C5  UNL     1      -5.813  21.516   7.110  1.00  0.00     0.055 C 
HETATM    7  C6  UNL     1      -4.735  22.101   4.976  1.00  0.00     0.111 A 
HETATM    8  N2  UNL     1      -4.681  22.927   3.916  1.00  0.00    -0.328 N 
ATOM      9  H2  UNL     1      -3.983  22.751   3.195  1.00  0.00     0.169 HD
HETATM   10  C10 UNL     1      -5.516  23.984   3.767  1.00  0.00     0.114 A 
HETATM   11  N3  UNL     1      -5.432  24.758   2.729  1.00  0.00    -0.385 N 
ATOM     12  H31 UNL     1      -6.060  25.553   2.617  1.00  0.00     0.157 HD
ATOM     13  H32 UNL     1      -4.718  24.547   2.033  1.00  0.00     0.157 HD
HETATM   14  C11 UNL     1      -6.474  24.267   4.702  1.00  0.00     0.050 A 
HETATM   15  C12 UNL     1      -7.445  25.256   4.815  1.00  0.00    -0.016 A 
HETATM   16  C13 UNL     1      -7.702  26.340   3.861  1.00  0.00     0.052 C 
ENDROOT
BRANCH   7  17
HETATM   17  N1  UNL     1      -3.861  20.992   5.129  1.00  0.00    -0.372 N 
ATOM     18  H1  UNL     1      -3.024  21.130   5.695  1.00  0.00     0.161 HD
BRANCH  17  19
HETATM   19  C7  UNL     1      -4.061  19.696   4.556  1.00  0.00     0.075 C 
HETATM   20  C8  UNL     1      -4.087  18.599   5.598  1.00  0.00     0.031 C 
HETATM   21  C9  UNL     1      -5.355  19.622   3.797  1.00  0.00     0.031 C 
ENDBRANCH  17  19
ENDBRANCH   7  17
TORSDOF 2
ENDMDL
MODEL 5
REMARK VINA RESULT: -6.604174558      3.367      5.276
REMARK  2 active torsions:
REMARK  status: ('A' for Active; 'I' for Inactive)
REMARK    1  A    between atoms: C6_7  and  N1_8 
REMARK    2  A    between atoms: N1_8  and  C7_10 
ROOT
HETATM    1  C1  UNL     1      -7.643  26.346   3.713  1.00  0.00     0.077 C 
HETATM    2  C2  UNL     1      -6.901  25.161   4.270  1.00  0.00     0.057 A 
HETATM    3  O1  UNL     1      -7.028  24.672   5.479  1.00  0.00    -0.313 OA
HETATM    4  C3  UNL     1      -6.241  23.636   5.655  1.00  0.00     0.100 A 
HETATM    5  C4  UNL     1      -6.003  22.779   6.731  1.00  0.00     0.017 A 
HETATM    6  C5  UNL     1      -6.747  23.012   7.977  1.00  0.00     0.055 C 
HETATM    7  C6  UNL     1      -5.104  21.745   6.653  1.00  0.00     0.111 A 
HETATM    8  N2  UNL     1      -4.460  21.592   5.483  1.00  0.00    -0.328 N 
ATOM      9  H2  UNL     1      -3.787  20.831   5.391  1.00  0.00     0.169 HD
HETATM   10  C10 UNL     1      -4.668  22.405   4.419  1.00  0.00     0.114 A 
HETATM   11  N3  UNL     1      -4.025  22.224   3.307  1.00  0.00    -0.385 N 
ATOM     12  H31 UNL     1      -4.181  22.837   2.506  1.00  0.00     0.157 HD
ATOM     13  H32 UNL     1      -3.360  21.453   3.259  1.00  0.00     0.157 HD
HETATM   14  C11 UNL     1      -5.560  23.440   4.483  1.00  0.00     0.050 A 
HETATM   15  C12 UNL     1      -5.970  24.413   3.579  1.00  0.00    -0.016 A 
HETATM   16  C13 UNL     1      -5.499  24.578   2.199  1.00  0.00     0.052 C 
ENDROOT
BRANCH   7  17
HETATM   17  N1  UNL     1      -4.889  20.889   7.765  1.00  0.00    -0.372 N 
ATOM     18  H1  UNL     1      -5.450  21.055   8.601  1.00  0.00     0.161 HD
BRANCH  17  19
HETATM   19  C7  UNL     1      -3.948  19.811   7.811  1.00  0.00     0.075 C 
HETATM   20  C8  UNL     1      -3.524  19.471   9.223  1.00  0.00     0.031 C 
HETATM   21  C9  UNL     1      -4.513  18.560   7.201  1.00  0.00     0.031 C 
ENDBRANCH  17  19
ENDBRANCH   7  17
TORSDOF 2
ENDMDL
