MODEL 1
REMARK VINA RESULT: -8.699135018      0.000      0.000
REMARK  4 active torsions:
REMARK  status: ('A' for Active; 'I' for Inactive)
REMARK    1  A    between atoms: C4_5  and  C5_6 
REMARK    2  A    between atoms: C5_6  and  O1_7 
REMARK    3  A    between atoms: O1_7  and  C6_8 
REMARK    4  A    between atoms: C9_12  and  C10_13 
ROOT
HETATM    1  C10 UNL     1      71.092  -7.350  73.196  1.00  0.00     0.070 C 
HETATM    2  C11 UNL     1      71.300  -8.629  73.898  1.00  0.00     0.041 C 
HETATM    3  C12 UNL     1      70.899  -8.758  75.314  1.00  0.00     0.178 C 
HETATM    4  O2  UNL     1      70.152  -7.697  75.859  1.00  0.00    -0.335 OA
HETATM    5  C13 UNL     1      70.201  -6.407  75.336  1.00  0.00     0.159 A 
HETATM    6  C14 UNL     1      70.654  -6.224  74.047  1.00  0.00     0.027 A 
HETATM    7  C15 UNL     1      70.591  -4.871  73.810  1.00  0.00     0.100 A 
HETATM    8  C16 UNL     1      70.954  -4.146  72.603  1.00  0.00     0.104 C 
HETATM    9  N2  UNL     1      71.259  -3.560  71.650  1.00  0.00    -0.191 NA
HETATM   10  C17 UNL     1      70.098  -4.291  74.978  1.00  0.00     0.135 A 
HETATM   11  N3  UNL     1      69.844  -3.008  75.281  1.00  0.00    -0.351 N 
ATOM     12  H3  UNL     1      70.020  -2.283  74.586  1.00  0.00     0.166 HD
HETATM   13  C18 UNL     1      69.365  -2.668  76.481  1.00  0.00     0.091 A 
HETATM   14  C19 UNL     1      69.106  -3.600  77.468  1.00  0.00     0.035 A 
HETATM   15  C20 UNL     1      69.383  -4.912  77.111  1.00  0.00     0.102 A 
HETATM   16  N4  UNL     1      69.863  -5.231  75.899  1.00  0.00    -0.287 N 
ENDROOT
BRANCH   1  17
HETATM   17  C9  UNL     1      70.194  -7.493  71.981  1.00  0.00     0.033 A 
HETATM   18  C8  UNL     1      70.460  -8.195  70.838  1.00  0.00     0.133 A 
HETATM   19  C7  UNL     1      69.508  -8.185  69.874  1.00  0.00     0.087 A 
HETATM   20  F1  UNL     1      71.662  -8.895  70.659  1.00  0.00    -0.205 F 
HETATM   21  C6  UNL     1      68.362  -7.483  70.110  1.00  0.00     0.113 A 
HETATM   22  S1  UNL     1      68.653  -6.848  71.698  1.00  0.00    -0.066 SA
BRANCH  21  23
HETATM   23  O1  UNL     1      67.218  -7.280  69.348  1.00  0.00    -0.343 OA
BRANCH  23  24
HETATM   24  C5  UNL     1      66.433  -6.159  69.314  1.00  0.00     0.181 C 
BRANCH  24  25
HETATM   25  C4  UNL     1      67.065  -5.093  68.454  1.00  0.00     0.013 C 
HETATM   26  C3  UNL     1      67.266  -3.897  69.409  1.00  0.00     0.026 C 
HETATM   27  C2  UNL     1      67.983  -2.801  68.652  1.00  0.00     0.117 C 
HETATM   28  N1  UNL     1      67.273  -2.484  67.456  1.00  0.00    -0.417 N 
HETATM   29  C1  UNL     1      68.077  -2.355  66.284  1.00  0.00     0.143 C 
HETATM   30  C22 UNL     1      66.051  -3.201  67.284  1.00  0.00     0.117 C 
HETATM   31  C21 UNL     1      66.165  -4.689  67.304  1.00  0.00     0.026 C 
ENDBRANCH  24  25
ENDBRANCH  23  24
ENDBRANCH  21  23
ENDBRANCH   1  17
TORSDOF 4
ENDMDL
MODEL 2
REMARK VINA RESULT: -8.267644559      5.238      6.583
REMARK  4 active torsions:
REMARK  status: ('A' for Active; 'I' for Inactive)
REMARK    1  A    between atoms: C4_5  and  C5_6 
REMARK    2  A    between atoms: C5_6  and  O1_7 
REMARK    3  A    between atoms: O1_7  and  C6_8 
REMARK    4  A    between atoms: C9_12  and  C10_13 
ROOT
HETATM    1  C10 UNL     1      74.750  -2.023  70.474  1.00  0.00     0.070 C 
HETATM    2  C11 UNL     1      75.851  -2.900  70.909  1.00  0.00     0.041 C 
HETATM    3  C12 UNL     1      76.784  -2.434  71.956  1.00  0.00     0.178 C 
HETATM    4  O2  UNL     1      76.443  -1.242  72.622  1.00  0.00    -0.335 OA
HETATM    5  C13 UNL     1      75.611  -0.281  72.052  1.00  0.00     0.159 A 
HETATM    6  C14 UNL     1      74.785  -0.646  71.010  1.00  0.00     0.027 A 
HETATM    7  C15 UNL     1      74.094   0.489  70.657  1.00  0.00     0.100 A 
HETATM    8  C16 UNL     1      73.094   0.653  69.614  1.00  0.00     0.104 C 
HETATM    9  N2  UNL     1      72.309   0.794  68.772  1.00  0.00    -0.191 NA
HETATM   10  C17 UNL     1      74.538   1.500  71.510  1.00  0.00     0.135 A 
HETATM   11  N3  UNL     1      74.191   2.793  71.593  1.00  0.00    -0.351 N 
ATOM     12  H3  UNL     1      73.490   3.168  70.954  1.00  0.00     0.166 HD
HETATM   13  C18 UNL     1      74.751   3.598  72.501  1.00  0.00     0.091 A 
HETATM   14  C19 UNL     1      75.707   3.155  73.395  1.00  0.00     0.035 A 
HETATM   15  C20 UNL     1      76.035   1.812  73.273  1.00  0.00     0.102 A 
HETATM   16  N4  UNL     1      75.459   1.022  72.353  1.00  0.00    -0.287 N 
ENDROOT
BRANCH   1  17
HETATM   17  C9  UNL     1      73.386  -2.653  70.689  1.00  0.00     0.033 A 
HETATM   18  C8  UNL     1      72.800  -2.961  71.886  1.00  0.00     0.133 A 
HETATM   19  C7  UNL     1      71.568  -3.522  71.841  1.00  0.00     0.087 A 
HETATM   20  F1  UNL     1      73.437  -2.712  73.110  1.00  0.00    -0.205 F 
HETATM   21  C6  UNL     1      71.004  -3.739  70.618  1.00  0.00     0.113 A 
HETATM   22  S1  UNL     1      72.232  -3.141  69.548  1.00  0.00    -0.066 SA
BRANCH  21  23
HETATM   23  O1  UNL     1      69.784  -4.280  70.235  1.00  0.00    -0.343 OA
BRANCH  23  24
HETATM   24  C5  UNL     1      68.584  -3.628  70.128  1.00  0.00     0.181 C 
BRANCH  24  25
HETATM   25  C4  UNL     1      68.000  -3.814  68.749  1.00  0.00     0.013 C 
HETATM   26  C3  UNL     1      67.783  -2.379  68.225  1.00  0.00     0.026 C 
HETATM   27  C2  UNL     1      67.280  -2.464  66.802  1.00  0.00     0.117 C 
HETATM   28  N1  UNL     1      66.120  -3.293  66.740  1.00  0.00    -0.417 N 
HETATM   29  C1  UNL     1      66.104  -4.243  65.675  1.00  0.00     0.143 C 
HETATM   30  C22 UNL     1      65.672  -3.783  68.003  1.00  0.00     0.117 C 
HETATM   31  C21 UNL     1      66.678  -4.553  68.792  1.00  0.00     0.026 C 
ENDBRANCH  24  25
ENDBRANCH  23  24
ENDBRANCH  21  23
ENDBRANCH   1  17
TORSDOF 4
ENDMDL
MODEL 3
REMARK VINA RESULT: -8.107883616      5.279      7.248
REMARK  4 active torsions:
REMARK  status: ('A' for Active; 'I' for Inactive)
REMARK    1  A    between atoms: C4_5  and  C5_6 
REMARK    2  A    between atoms: C5_6  and  O1_7 
REMARK    3  A    between atoms: O1_7  and  C6_8 
REMARK    4  A    between atoms: C9_12  and  C10_13 
ROOT
HETATM    1  C10 UNL     1      74.625  -2.103  70.407  1.00  0.00     0.070 C 
HETATM    2  C11 UNL     1      75.666  -3.061  70.821  1.00  0.00     0.041 C 
HETATM    3  C12 UNL     1      76.608  -2.695  71.898  1.00  0.00     0.178 C 
HETATM    4  O2  UNL     1      76.327  -1.512  72.608  1.00  0.00    -0.335 OA
HETATM    5  C13 UNL     1      75.563  -0.481  72.066  1.00  0.00     0.159 A 
HETATM    6  C14 UNL     1      74.734  -0.754  70.999  1.00  0.00     0.027 A 
HETATM    7  C15 UNL     1      74.117   0.434  70.684  1.00  0.00     0.100 A 
HETATM    8  C16 UNL     1      73.146   0.699  69.635  1.00  0.00     0.104 C 
HETATM    9  N2  UNL     1      72.384   0.921  68.789  1.00  0.00    -0.191 NA
HETATM   10  C17 UNL     1      74.606   1.381  71.584  1.00  0.00     0.135 A 
HETATM   11  N3  UNL     1      74.335   2.689  71.715  1.00  0.00    -0.351 N 
ATOM     12  H3  UNL     1      73.668   3.130  71.082  1.00  0.00     0.166 HD
HETATM   13  C18 UNL     1      74.927   3.421  72.662  1.00  0.00     0.091 A 
HETATM   14  C19 UNL     1      75.841   2.886  73.551  1.00  0.00     0.035 A 
HETATM   15  C20 UNL     1      76.091   1.532  73.378  1.00  0.00     0.102 A 
HETATM   16  N4  UNL     1      75.484   0.816  72.419  1.00  0.00    -0.287 N 
ENDROOT
BRANCH   1  17
HETATM   17  C9  UNL     1      73.223  -2.659  70.577  1.00  0.00     0.033 A 
HETATM   18  C8  UNL     1      72.564  -2.885  71.754  1.00  0.00     0.133 A 
HETATM   19  C7  UNL     1      71.309  -3.390  71.669  1.00  0.00     0.087 A 
HETATM   20  F1  UNL     1      73.151  -2.612  72.998  1.00  0.00    -0.205 F 
HETATM   21  C6  UNL     1      70.797  -3.634  70.428  1.00  0.00     0.113 A 
HETATM   22  S1  UNL     1      72.105  -3.142  69.399  1.00  0.00    -0.066 SA
BRANCH  21  23
HETATM   23  O1  UNL     1      69.572  -4.134  70.006  1.00  0.00    -0.343 OA
BRANCH  23  24
HETATM   24  C5  UNL     1      68.892  -5.206  70.521  1.00  0.00     0.181 C 
BRANCH  24  25
HETATM   25  C4  UNL     1      69.842  -6.332  70.846  1.00  0.00     0.013 C 
HETATM   26  C3  UNL     1      69.551  -7.403  69.775  1.00  0.00     0.026 C 
HETATM   27  C2  UNL     1      70.526  -8.543  69.967  1.00  0.00     0.117 C 
HETATM   28  N1  UNL     1      70.463  -9.023  71.309  1.00  0.00    -0.417 N 
HETATM   29  C1  UNL     1      71.725  -9.246  71.938  1.00  0.00     0.143 C 
HETATM   30  C22 UNL     1      69.479  -8.386  72.121  1.00  0.00     0.117 C 
HETATM   31  C21 UNL     1      69.589  -6.901  72.227  1.00  0.00     0.026 C 
ENDBRANCH  24  25
ENDBRANCH  23  24
ENDBRANCH  21  23
ENDBRANCH   1  17
TORSDOF 4
ENDMDL
MODEL 4
REMARK VINA RESULT: -8.004233213      1.701      2.107
REMARK  4 active torsions:
REMARK  status: ('A' for Active; 'I' for Inactive)
REMARK    1  A    between atoms: C4_5  and  C5_6 
REMARK    2  A    between atoms: C5_6  and  O1_7 
REMARK    3  A    between atoms: O1_7  and  C6_8 
REMARK    4  A    between atoms: C9_12  and  C10_13 
ROOT
HETATM    1  C10 UNL     1      71.475  -8.712  72.526  1.00  0.00     0.070 C 
HETATM    2  C11 UNL     1      71.514 -10.185  72.498  1.00  0.00     0.041 C 
HETATM    3  C12 UNL     1      71.333 -10.943  73.753  1.00  0.00     0.178 C 
HETATM    4  O2  UNL     1      70.933 -10.207  74.884  1.00  0.00    -0.335 OA
HETATM    5  C13 UNL     1      71.173  -8.841  75.007  1.00  0.00     0.159 A 
HETATM    6  C14 UNL     1      71.436  -8.104  73.872  1.00  0.00     0.027 A 
HETATM    7  C15 UNL     1      71.629  -6.810  74.295  1.00  0.00     0.100 A 
HETATM    8  C16 UNL     1      71.937  -5.633  73.498  1.00  0.00     0.104 C 
HETATM    9  N2  UNL     1      72.200  -4.695  72.870  1.00  0.00    -0.191 NA
HETATM   10  C17 UNL     1      71.472  -6.823  75.681  1.00  0.00     0.135 A 
HETATM   11  N3  UNL     1      71.555  -5.832  76.582  1.00  0.00    -0.351 N 
ATOM     12  H3  UNL     1      71.767  -4.884  76.270  1.00  0.00     0.166 HD
HETATM   13  C18 UNL     1      71.365  -6.070  77.883  1.00  0.00     0.091 A 
HETATM   14  C19 UNL     1      71.076  -7.330  78.373  1.00  0.00     0.035 A 
HETATM   15  C20 UNL     1      71.001  -8.322  77.406  1.00  0.00     0.102 A 
HETATM   16  N4  UNL     1      71.195  -8.060  76.104  1.00  0.00    -0.287 N 
ENDROOT
BRANCH   1  17
HETATM   17  C9  UNL     1      70.380  -8.143  71.642  1.00  0.00     0.033 A 
HETATM   18  C8  UNL     1      70.306  -8.205  70.278  1.00  0.00     0.133 A 
HETATM   19  C7  UNL     1      69.231  -7.625  69.693  1.00  0.00     0.087 A 
HETATM   20  F1  UNL     1      71.294  -8.837  69.510  1.00  0.00    -0.205 F 
HETATM   21  C6  UNL     1      68.307  -7.025  70.498  1.00  0.00     0.113 A 
HETATM   22  S1  UNL     1      68.978  -7.296  72.075  1.00  0.00    -0.066 SA
BRANCH  21  23
HETATM   23  O1  UNL     1      67.120  -6.359  70.221  1.00  0.00    -0.343 OA
BRANCH  23  24
HETATM   24  C5  UNL     1      66.516  -6.213  69.000  1.00  0.00     0.181 C 
BRANCH  24  25
HETATM   25  C4  UNL     1      67.121  -5.055  68.244  1.00  0.00     0.013 C 
HETATM   26  C3  UNL     1      67.262  -3.938  69.299  1.00  0.00     0.026 C 
HETATM   27  C2  UNL     1      67.948  -2.757  68.650  1.00  0.00     0.117 C 
HETATM   28  N1  UNL     1      67.244  -2.366  67.472  1.00  0.00    -0.417 N 
HETATM   29  C1  UNL     1      68.059  -2.109  66.330  1.00  0.00     0.143 C 
HETATM   30  C22 UNL     1      66.053  -3.110  67.218  1.00  0.00     0.117 C 
HETATM   31  C21 UNL     1      66.223  -4.589  67.116  1.00  0.00     0.026 C 
ENDBRANCH  24  25
ENDBRANCH  23  24
ENDBRANCH  21  23
ENDBRANCH   1  17
TORSDOF 4
ENDMDL
MODEL 5
REMARK VINA RESULT: -7.969299791      5.455      6.766
REMARK  4 active torsions:
REMARK  status: ('A' for Active; 'I' for Inactive)
REMARK    1  A    between atoms: C4_5  and  C5_6 
REMARK    2  A    between atoms: C5_6  and  O1_7 
REMARK    3  A    between atoms: O1_7  and  C6_8 
REMARK    4  A    between atoms: C9_12  and  C10_13 
ROOT
HETATM    1  C10 UNL     1      75.109  -1.863  70.469  1.00  0.00     0.070 C 
HETATM    2  C11 UNL     1      76.227  -2.703  70.933  1.00  0.00     0.041 C 
HETATM    3  C12 UNL     1      77.063  -2.245  72.062  1.00  0.00     0.178 C 
HETATM    4  O2  UNL     1      76.615  -1.109  72.762  1.00  0.00    -0.335 OA
HETATM    5  C13 UNL     1      75.769  -0.165  72.185  1.00  0.00     0.159 A 
HETATM    6  C14 UNL     1      75.033  -0.516  71.074  1.00  0.00     0.027 A 
HETATM    7  C15 UNL     1      74.304   0.598  70.732  1.00  0.00     0.100 A 
HETATM    8  C16 UNL     1      73.366   0.765  69.633  1.00  0.00     0.104 C 
HETATM    9  N2  UNL     1      72.631   0.910  68.749  1.00  0.00    -0.191 NA
HETATM   10  C17 UNL     1      74.635   1.584  71.662  1.00  0.00     0.135 A 
HETATM   11  N3  UNL     1      74.212   2.852  71.785  1.00  0.00    -0.351 N 
ATOM     12  H3  UNL     1      73.534   3.222  71.120  1.00  0.00     0.166 HD
HETATM   13  C18 UNL     1      74.667   3.635  72.767  1.00  0.00     0.091 A 
HETATM   14  C19 UNL     1      75.587   3.195  73.701  1.00  0.00     0.035 A 
HETATM   15  C20 UNL     1      75.996   1.880  73.534  1.00  0.00     0.102 A 
HETATM   16  N4  UNL     1      75.526   1.111  72.541  1.00  0.00    -0.287 N 
ENDROOT
BRANCH   1  17
HETATM   17  C9  UNL     1      73.771  -2.573  70.560  1.00  0.00     0.033 A 
HETATM   18  C8  UNL     1      72.904  -2.831  69.534  1.00  0.00     0.133 A 
HETATM   19  C7  UNL     1      71.758  -3.484  69.847  1.00  0.00     0.087 A 
HETATM   20  F1  UNL     1      73.177  -2.442  68.216  1.00  0.00    -0.205 F 
HETATM   21  C6  UNL     1      71.552  -3.833  71.150  1.00  0.00     0.113 A 
HETATM   22  S1  UNL     1      72.990  -3.232  71.912  1.00  0.00    -0.066 SA
BRANCH  21  23
HETATM   23  O1  UNL     1      70.510  -4.496  71.784  1.00  0.00    -0.343 OA
BRANCH  23  24
HETATM   24  C5  UNL     1      69.816  -5.583  71.324  1.00  0.00     0.181 C 
BRANCH  24  25
HETATM   25  C4  UNL     1      68.952  -5.203  70.146  1.00  0.00     0.013 C 
HETATM   26  C3  UNL     1      68.104  -4.020  70.657  1.00  0.00     0.026 C 
HETATM   27  C2  UNL     1      67.264  -3.507  69.509  1.00  0.00     0.117 C 
HETATM   28  N1  UNL     1      66.503  -4.574  68.943  1.00  0.00    -0.417 N 
HETATM   29  C1  UNL     1      66.503  -4.636  67.518  1.00  0.00     0.143 C 
HETATM   30  C22 UNL     1      66.650  -5.826  69.611  1.00  0.00     0.117 C 
HETATM   31  C21 UNL     1      68.047  -6.341  69.721  1.00  0.00     0.026 C 
ENDBRANCH  24  25
ENDBRANCH  23  24
ENDBRANCH  21  23
ENDBRANCH   1  17
TORSDOF 4
ENDMDL
