MODEL 1
REMARK VINA RESULT: -7.226049999      0.000      0.000
REMARK  4 active torsions:
REMARK  status: ('A' for Active; 'I' for Inactive)
REMARK    1  A    between atoms: C2_2  and  C4_5 
REMARK    2  A    between atoms: C5_8  and  N2_9 
REMARK    3  A    between atoms: N3_14  and  C10_15 
REMARK    4  A    between atoms: C10_15  and  C11_16 
ROOT
HETATM    1  N2  UNL     1      74.474  -1.494  68.557  1.00  0.00    -0.214 N 
HETATM    2  C6  UNL     1      73.246  -1.013  69.139  1.00  0.00     0.152 C 
HETATM    3  C7  UNL     1      72.915  -2.377  69.706  1.00  0.00    -0.004 C 
HETATM    4  C8  UNL     1      73.004  -2.515  71.192  1.00  0.00     0.043 C 
HETATM    5  C9  UNL     1      71.639  -2.741  71.781  1.00  0.00     0.273 C 
HETATM    6  N3  UNL     1      71.081  -3.964  71.290  1.00  0.00     0.088 N 
HETATM    7  C16 UNL     1      71.406  -4.283  69.928  1.00  0.00     0.273 C 
HETATM    8  C17 UNL     1      71.667  -3.002  69.166  1.00  0.00     0.043 C 
HETATM    9  C18 UNL     1      74.132  -2.846  68.943  1.00  0.00     0.152 C 
ENDROOT
BRANCH   1  10
HETATM   10  C5  UNL     1      75.568  -0.901  67.883  1.00  0.00     0.703 A 
HETATM   11  N1  UNL     1      76.157  -1.426  66.769  1.00  0.00    -0.189 N 
HETATM   12  C4  UNL     1      77.150  -0.669  66.344  1.00  0.00     0.086 A 
ATOM     13  H1  UNL     1      75.866  -2.295  66.321  1.00  0.00     0.184 HD
HETATM   14  C20 UNL     1      77.180   0.401  67.256  1.00  0.00     0.141 A 
HETATM   15  N4  UNL     1      76.232   0.266  68.181  1.00  0.00    -0.077 N 
HETATM   16  S1  UNL     1      77.919   1.865  67.737  1.00  0.00    -0.061 SA
HETATM   17  N5  UNL     1      76.130   1.166  69.090  1.00  0.00    -0.283 N 
HETATM   18  C19 UNL     1      76.948   2.200  69.105  1.00  0.00     0.160 A 
ATOM     19  H5  UNL     1      75.410   1.081  69.807  1.00  0.00     0.187 HD
BRANCH  12  20
HETATM   20  C2  UNL     1      78.102  -0.749  65.220  1.00  0.00     0.075 C 
HETATM   21  C1  UNL     1      79.475  -1.057  65.833  1.00  0.00     0.039 C 
HETATM   22  C3  UNL     1      77.754  -1.926  64.336  1.00  0.00     0.039 C 
HETATM   23 CL1  UNL     1      78.190   0.731  64.269  1.00  0.00    -0.113 Cl
ENDBRANCH  12  20
ENDBRANCH   1  10
BRANCH   6  24
HETATM   24  C10 UNL     1      69.673  -4.108  71.495  1.00  0.00     0.277 C 
BRANCH  24  25
HETATM   25  C11 UNL     1      68.958  -4.622  70.260  1.00  0.00     0.018 C 
HETATM   26  C12 UNL     1      68.202  -5.894  70.598  1.00  0.00     0.032 C 
HETATM   27  C13 UNL     1      67.512  -6.410  69.363  1.00  0.00     0.168 C 
HETATM   28  O1  UNL     1      66.884  -5.406  68.643  1.00  0.00    -0.391 OA
HETATM   29  C14 UNL     1      66.608  -4.304  69.473  1.00  0.00     0.168 C 
HETATM   30  C15 UNL     1      67.897  -3.600  69.824  1.00  0.00     0.032 C 
ENDBRANCH  24  25
ENDBRANCH   6  24
TORSDOF 4
ENDMDL
MODEL 2
REMARK VINA RESULT: -7.213968220      1.334      1.558
REMARK  4 active torsions:
REMARK  status: ('A' for Active; 'I' for Inactive)
REMARK    1  A    between atoms: C2_2  and  C4_5 
REMARK    2  A    between atoms: C5_8  and  N2_9 
REMARK    3  A    between atoms: N3_14  and  C10_15 
REMARK    4  A    between atoms: C10_15  and  C11_16 
ROOT
HETATM    1  N2  UNL     1      74.569  -1.891  68.771  1.00  0.00    -0.214 N 
HETATM    2  C6  UNL     1      73.333  -1.301  69.218  1.00  0.00     0.152 C 
HETATM    3  C7  UNL     1      72.839  -2.619  69.775  1.00  0.00    -0.004 C 
HETATM    4  C8  UNL     1      72.771  -2.723  71.265  1.00  0.00     0.043 C 
HETATM    5  C9  UNL     1      71.341  -2.826  71.719  1.00  0.00     0.273 C 
HETATM    6  N3  UNL     1      70.738  -4.015  71.198  1.00  0.00     0.088 N 
HETATM    7  C16 UNL     1      71.169  -4.395  69.882  1.00  0.00     0.273 C 
HETATM    8  C17 UNL     1      71.605  -3.160  69.126  1.00  0.00     0.043 C 
HETATM    9  C18 UNL     1      74.085  -3.201  69.147  1.00  0.00     0.152 C 
ENDROOT
BRANCH   1  10
HETATM   10  C5  UNL     1      75.768  -1.402  68.198  1.00  0.00     0.703 A 
HETATM   11  N1  UNL     1      75.901  -1.049  66.886  1.00  0.00    -0.189 N 
HETATM   12  C4  UNL     1      77.121  -0.624  66.621  1.00  0.00     0.086 A 
ATOM     13  H1  UNL     1      75.152  -1.107  66.196  1.00  0.00     0.184 HD
HETATM   14  C20 UNL     1      77.793  -0.719  67.853  1.00  0.00     0.141 A 
HETATM   15  N4  UNL     1      76.984  -1.184  68.803  1.00  0.00    -0.077 N 
HETATM   16  S1  UNL     1      79.246  -0.496  68.724  1.00  0.00    -0.061 SA
HETATM   17  N5  UNL     1      77.451  -1.330  69.989  1.00  0.00    -0.283 N 
HETATM   18  C19 UNL     1      78.705  -1.023  70.259  1.00  0.00     0.160 A 
ATOM     19  H5  UNL     1      76.847  -1.685  70.730  1.00  0.00     0.187 HD
BRANCH  12  20
HETATM   20  C2  UNL     1      77.803  -0.130  65.410  1.00  0.00     0.075 C 
HETATM   21  C1  UNL     1      76.798  -0.266  64.257  1.00  0.00     0.039 C 
HETATM   22  C3  UNL     1      78.094   1.347  65.553  1.00  0.00     0.039 C 
HETATM   23 CL1  UNL     1      79.277  -1.014  65.025  1.00  0.00    -0.113 Cl
ENDBRANCH  12  20
ENDBRANCH   1  10
BRANCH   6  24
HETATM   24  C10 UNL     1      69.310  -4.044  71.264  1.00  0.00     0.277 C 
BRANCH  24  25
HETATM   25  C11 UNL     1      68.685  -4.627  70.011  1.00  0.00     0.018 C 
HETATM   26  C12 UNL     1      67.787  -5.794  70.382  1.00  0.00     0.032 C 
HETATM   27  C13 UNL     1      67.186  -6.380  69.133  1.00  0.00     0.168 C 
HETATM   28  O1  UNL     1      66.729  -5.411  68.253  1.00  0.00    -0.391 OA
HETATM   29  C14 UNL     1      66.468  -4.210  68.937  1.00  0.00     0.168 C 
HETATM   30  C15 UNL     1      67.771  -3.576  69.363  1.00  0.00     0.032 C 
ENDBRANCH  24  25
ENDBRANCH   6  24
TORSDOF 4
ENDMDL
MODEL 3
REMARK VINA RESULT: -7.004394346      8.717     11.737
REMARK  4 active torsions:
REMARK  status: ('A' for Active; 'I' for Inactive)
REMARK    1  A    between atoms: C2_2  and  C4_5 
REMARK    2  A    between atoms: C5_8  and  N2_9 
REMARK    3  A    between atoms: N3_14  and  C10_15 
REMARK    4  A    between atoms: C10_15  and  C11_16 
ROOT
HETATM    1  N2  UNL     1      72.222 -11.277  73.180  1.00  0.00    -0.214 N 
HETATM    2  C6  UNL     1      70.845 -11.007  72.852  1.00  0.00     0.152 C 
HETATM    3  C7  UNL     1      71.148  -9.561  72.523  1.00  0.00    -0.004 C 
HETATM    4  C8  UNL     1      71.066  -9.180  71.080  1.00  0.00     0.043 C 
HETATM    5  C9  UNL     1      69.919  -8.235  70.850  1.00  0.00     0.273 C 
HETATM    6  N3  UNL     1      70.119  -7.022  71.582  1.00  0.00     0.088 N 
HETATM    7  C16 UNL     1      70.762  -7.174  72.856  1.00  0.00     0.273 C 
HETATM    8  C17 UNL     1      70.470  -8.556  73.400  1.00  0.00     0.043 C 
HETATM    9  C18 UNL     1      72.538  -9.874  73.027  1.00  0.00     0.152 C 
ENDROOT
BRANCH   1  10
HETATM   10  C5  UNL     1      72.968 -12.431  73.516  1.00  0.00     0.703 A 
HETATM   11  N1  UNL     1      74.094 -12.418  74.289  1.00  0.00    -0.189 N 
HETATM   12  C4  UNL     1      74.587 -13.630  74.448  1.00  0.00     0.086 A 
ATOM     13  H1  UNL     1      74.503 -11.575  74.694  1.00  0.00     0.184 HD
HETATM   14  C20 UNL     1      73.708 -14.456  73.724  1.00  0.00     0.141 A 
HETATM   15  N4  UNL     1      72.734 -13.740  73.165  1.00  0.00    -0.077 N 
HETATM   16  S1  UNL     1      73.304 -16.036  73.215  1.00  0.00    -0.061 SA
HETATM   17  N5  UNL     1      71.848 -14.352  72.466  1.00  0.00    -0.283 N 
HETATM   18  C19 UNL     1      71.902 -15.660  72.309  1.00  0.00     0.160 A 
ATOM     19  H5  UNL     1      71.094 -13.821  72.029  1.00  0.00     0.187 HD
BRANCH  12  20
HETATM   20  C2  UNL     1      75.750 -14.187  75.165  1.00  0.00     0.075 C 
HETATM   21  C1  UNL     1      76.530 -12.991  75.728  1.00  0.00     0.039 C 
HETATM   22  C3  UNL     1      75.279 -14.990  76.357  1.00  0.00     0.039 C 
HETATM   23 CL1  UNL     1      76.803 -15.162  74.143  1.00  0.00    -0.113 Cl
ENDBRANCH  12  20
ENDBRANCH   1  10
BRANCH   6  24
HETATM   24  C10 UNL     1      68.954  -6.206  71.725  1.00  0.00     0.277 C 
BRANCH  24  25
HETATM   25  C11 UNL     1      68.567  -5.515  70.431  1.00  0.00     0.018 C 
HETATM   26  C12 UNL     1      67.058  -5.540  70.270  1.00  0.00     0.032 C 
HETATM   27  C13 UNL     1      66.683  -4.871  68.973  1.00  0.00     0.168 C 
HETATM   28  O1  UNL     1      67.380  -3.693  68.758  1.00  0.00    -0.391 OA
HETATM   29  C14 UNL     1      67.846  -3.167  69.976  1.00  0.00     0.168 C 
HETATM   30  C15 UNL     1      68.963  -4.033  70.508  1.00  0.00     0.032 C 
ENDBRANCH  24  25
ENDBRANCH   6  24
TORSDOF 4
ENDMDL
MODEL 4
REMARK VINA RESULT: -6.993765921      5.027      9.552
REMARK  4 active torsions:
REMARK  status: ('A' for Active; 'I' for Inactive)
REMARK    1  A    between atoms: C2_2  and  C4_5 
REMARK    2  A    between atoms: C5_8  and  N2_9 
REMARK    3  A    between atoms: N3_14  and  C10_15 
REMARK    4  A    between atoms: C10_15  and  C11_16 
ROOT
HETATM    1  N2  UNL     1      72.020  -2.795  70.617  1.00  0.00    -0.214 N 
HETATM    2  C6  UNL     1      72.391  -1.559  71.259  1.00  0.00     0.152 C 
HETATM    3  C7  UNL     1      73.337  -1.194  70.135  1.00  0.00    -0.004 C 
HETATM    4  C8  UNL     1      72.917  -0.056  69.262  1.00  0.00     0.043 C 
HETATM    5  C9  UNL     1      73.841   1.117  69.447  1.00  0.00     0.273 C 
HETATM    6  N3  UNL     1      75.171   0.769  69.052  1.00  0.00     0.088 N 
HETATM    7  C16 UNL     1      75.561  -0.584  69.336  1.00  0.00     0.273 C 
HETATM    8  C17 UNL     1      74.777  -1.088  70.527  1.00  0.00     0.043 C 
HETATM    9  C18 UNL     1      73.019  -2.569  69.596  1.00  0.00     0.152 C 
ENDROOT
BRANCH   1  10
HETATM   10  C5  UNL     1      71.073  -3.816  70.871  1.00  0.00     0.703 A 
HETATM   11  N1  UNL     1      71.336  -4.940  71.600  1.00  0.00    -0.189 N 
HETATM   12  C4  UNL     1      70.277  -5.721  71.683  1.00  0.00     0.086 A 
ATOM     13  H1  UNL     1      72.239  -5.150  72.026  1.00  0.00     0.184 HD
HETATM   14  C20 UNL     1      69.287  -5.036  70.957  1.00  0.00     0.141 A 
HETATM   15  N4  UNL     1      69.760  -3.891  70.468  1.00  0.00    -0.077 N 
HETATM   16  S1  UNL     1      67.675  -5.006  70.391  1.00  0.00    -0.061 SA
HETATM   17  N5  UNL     1      68.975  -3.148  69.777  1.00  0.00    -0.283 N 
HETATM   18  C19 UNL     1      67.726  -3.512  69.558  1.00  0.00     0.160 A 
ATOM     19  H5  UNL     1      69.319  -2.268  69.394  1.00  0.00     0.187 HD
BRANCH  12  20
HETATM   20  C2  UNL     1      69.998  -7.018  72.328  1.00  0.00     0.075 C 
HETATM   21  C1  UNL     1      71.324  -7.500  72.932  1.00  0.00     0.039 C 
HETATM   22  C3  UNL     1      69.047  -6.819  73.488  1.00  0.00     0.039 C 
HETATM   23 CL1  UNL     1      69.369  -8.233  71.218  1.00  0.00    -0.113 Cl
ENDBRANCH  12  20
ENDBRANCH   1  10
BRANCH   6  24
HETATM   24  C10 UNL     1      76.188   1.667  69.506  1.00  0.00     0.277 C 
BRANCH  24  25
HETATM   25  C11 UNL     1      75.698   2.586  70.609  1.00  0.00     0.018 C 
HETATM   26  C12 UNL     1      76.347   2.196  71.925  1.00  0.00     0.032 C 
HETATM   27  C13 UNL     1      75.841   3.099  73.019  1.00  0.00     0.168 C 
HETATM   28  O1  UNL     1      75.801   4.430  72.638  1.00  0.00    -0.391 OA
HETATM   29  C14 UNL     1      76.692   4.665  71.574  1.00  0.00     0.168 C 
HETATM   30  C15 UNL     1      76.159   4.022  70.316  1.00  0.00     0.032 C 
ENDBRANCH  24  25
ENDBRANCH   6  24
TORSDOF 4
ENDMDL
MODEL 5
REMARK VINA RESULT: -6.938917985      1.215      2.514
REMARK  4 active torsions:
REMARK  status: ('A' for Active; 'I' for Inactive)
REMARK    1  A    between atoms: C2_2  and  C4_5 
REMARK    2  A    between atoms: C5_8  and  N2_9 
REMARK    3  A    between atoms: N3_14  and  C10_15 
REMARK    4  A    between atoms: C10_15  and  C11_16 
ROOT
HETATM    1  N2  UNL     1      74.638  -0.874  68.812  1.00  0.00    -0.214 N 
HETATM    2  C6  UNL     1      73.427  -0.487  69.490  1.00  0.00     0.152 C 
HETATM    3  C7  UNL     1      73.105  -1.921  69.853  1.00  0.00    -0.004 C 
HETATM    4  C8  UNL     1      73.230  -2.281  71.299  1.00  0.00     0.043 C 
HETATM    5  C9  UNL     1      71.879  -2.593  71.881  1.00  0.00     0.273 C 
HETATM    6  N3  UNL     1      71.305  -3.728  71.226  1.00  0.00     0.088 N 
HETATM    7  C16 UNL     1      71.595  -3.839  69.824  1.00  0.00     0.273 C 
HETATM    8  C17 UNL     1      71.842  -2.458  69.257  1.00  0.00     0.043 C 
HETATM    9  C18 UNL     1      74.302  -2.269  68.999  1.00  0.00     0.152 C 
ENDROOT
BRANCH   1  10
HETATM   10  C5  UNL     1      75.717  -0.186  68.208  1.00  0.00     0.703 A 
HETATM   11  N1  UNL     1      76.223   0.997  68.666  1.00  0.00    -0.189 N 
HETATM   12  C4  UNL     1      77.226   1.415  67.919  1.00  0.00     0.086 A 
ATOM     13  H1  UNL     1      75.870   1.495  69.483  1.00  0.00     0.184 HD
HETATM   14  C20 UNL     1      77.353   0.424  66.928  1.00  0.00     0.141 A 
HETATM   15  N4  UNL     1      76.450  -0.539  67.099  1.00  0.00    -0.077 N 
HETATM   16  S1  UNL     1      78.181  -0.128  65.540  1.00  0.00    -0.061 SA
HETATM   17  N5  UNL     1      76.435  -1.519  66.271  1.00  0.00    -0.283 N 
HETATM   18  C19 UNL     1      77.297  -1.569  65.274  1.00  0.00     0.160 A 
ATOM     19  H5  UNL     1      75.750  -2.266  66.384  1.00  0.00     0.187 HD
BRANCH  12  20
HETATM   20  C2  UNL     1      78.118   2.590  67.949  1.00  0.00     0.075 C 
HETATM   21  C1  UNL     1      77.592   3.508  69.061  1.00  0.00     0.039 C 
HETATM   22  C3  UNL     1      79.509   2.166  68.367  1.00  0.00     0.039 C 
HETATM   23 CL1  UNL     1      78.173   3.468  66.423  1.00  0.00    -0.113 Cl
ENDBRANCH  12  20
ENDBRANCH   1  10
BRANCH   6  24
HETATM   24  C10 UNL     1      69.902  -3.903  71.441  1.00  0.00     0.277 C 
BRANCH  24  25
HETATM   25  C11 UNL     1      69.208  -4.538  70.252  1.00  0.00     0.018 C 
HETATM   26  C12 UNL     1      68.618  -5.876  70.659  1.00  0.00     0.032 C 
HETATM   27  C13 UNL     1      67.949  -6.511  69.468  1.00  0.00     0.168 C 
HETATM   28  O1  UNL     1      67.183  -5.612  68.743  1.00  0.00    -0.391 OA
HETATM   29  C14 UNL     1      66.811  -4.521  69.548  1.00  0.00     0.168 C 
HETATM   30  C15 UNL     1      68.021  -3.661  69.827  1.00  0.00     0.032 C 
ENDBRANCH  24  25
ENDBRANCH   6  24
TORSDOF 4
ENDMDL
