MODEL 1
REMARK VINA RESULT: -8.796740416      0.000      0.000
REMARK  4 active torsions:
REMARK  status: ('A' for Active; 'I' for Inactive)
REMARK    1  A    between atoms: C3_6  and  C4_7 
REMARK       I    between atoms: N2_11  and  C8_12 
REMARK    2  A    between atoms: C8_12  and  C9_14 
REMARK    3  A    between atoms: C9_14  and  C10_15 
REMARK    4  A    between atoms: C15_22  and  C16_23 
ROOT
HETATM    1  C10 UNL     1      71.855  -3.628  71.875  1.00  0.00     0.143 C 
HETATM    2  O3  UNL     1      72.473  -2.399  72.001  1.00  0.00    -0.349 OA
HETATM    3  C11 UNL     1      73.075  -1.930  70.866  1.00  0.00     0.157 C 
HETATM    4  C12 UNL     1      74.458  -2.540  70.723  1.00  0.00     0.078 C 
HETATM    5  C13 UNL     1      73.316  -0.427  71.081  1.00  0.00     0.078 C 
HETATM    6  O4  UNL     1      72.339  -2.032  69.701  1.00  0.00    -0.355 OA
HETATM    7  C14 UNL     1      71.802  -3.304  69.513  1.00  0.00     0.182 C 
HETATM    8  C15 UNL     1      70.866  -3.503  70.723  1.00  0.00     0.062 C 
ENDROOT
BRANCH   1   9
HETATM    9  C9  UNL     1      71.234  -4.077  73.141  1.00  0.00     0.135 C 
BRANCH   9  10
HETATM   10  C8  UNL     1      72.151  -4.994  73.852  1.00  0.00     0.223 C 
HETATM   11  N2  UNL     1      71.900  -6.410  73.918  1.00  0.00    -0.340 N 
HETATM   12  C4  UNL     1      70.787  -7.139  73.341  1.00  0.00     0.164 C 
HETATM   13  C7  UNL     1      72.718  -7.403  74.580  1.00  0.00     0.127 C 
HETATM   14  C5  UNL     1      71.502  -8.370  72.777  1.00  0.00     0.035 C 
HETATM   15  C6  UNL     1      72.643  -8.635  73.722  1.00  0.00     0.022 C 
HETATM   16  O2  UNL     1      73.174  -4.544  74.418  1.00  0.00    -0.273 OA
BRANCH  12  17
HETATM   17  C3  UNL     1      69.883  -7.649  74.411  1.00  0.00     0.171 A 
HETATM   18  O1  UNL     1      69.367  -8.831  74.592  1.00  0.00    -0.221 OA
HETATM   19  N1  UNL     1      68.621  -8.865  75.662  1.00  0.00    -0.247 N 
HETATM   20  C2  UNL     1      68.636  -7.659  76.223  1.00  0.00     0.100 A 
ATOM     21  H1  UNL     1      68.113  -9.679  76.009  1.00  0.00     0.196 HD
HETATM   22  C1  UNL     1      67.918  -7.273  77.457  1.00  0.00     0.091 C 
HETATM   23  N3  UNL     1      69.424  -6.890  75.447  1.00  0.00    -0.325 N 
ATOM     24  H3  UNL     1      69.641  -5.906  75.607  1.00  0.00     0.169 HD
ENDBRANCH  12  17
ENDBRANCH   9  10
ENDBRANCH   1   9
BRANCH   8  25
HETATM   25  C16 UNL     1      70.127  -4.741  70.484  1.00  0.00    -0.012 C 
HETATM   26  C17 UNL     1      68.947  -4.733  69.900  1.00  0.00    -0.050 C 
HETATM   27  C18 UNL     1      68.245  -6.067  69.692  1.00  0.00     0.037 C 
HETATM   28  C22 UNL     1      68.322  -3.485  69.447  1.00  0.00     0.199 C 
HETATM   29  C19 UNL     1      66.774  -5.734  69.982  1.00  0.00     0.004 C 
HETATM   30  C20 UNL     1      66.312  -4.895  68.813  1.00  0.00     0.003 C 
HETATM   31  C21 UNL     1      67.146  -3.707  68.527  1.00  0.00     0.042 C 
HETATM   32  F1  UNL     1      67.837  -2.799  70.539  1.00  0.00    -0.245 F 
ENDBRANCH   8  25
TORSDOF 4
ENDMDL
MODEL 2
REMARK VINA RESULT: -8.670659430      1.719      1.950
REMARK  4 active torsions:
REMARK  status: ('A' for Active; 'I' for Inactive)
REMARK    1  A    between atoms: C3_6  and  C4_7 
REMARK       I    between atoms: N2_11  and  C8_12 
REMARK    2  A    between atoms: C8_12  and  C9_14 
REMARK    3  A    between atoms: C9_14  and  C10_15 
REMARK    4  A    between atoms: C15_22  and  C16_23 
ROOT
HETATM    1  C10 UNL     1      72.382  -2.531  71.237  1.00  0.00     0.143 C 
HETATM    2  O3  UNL     1      72.698  -1.213  70.970  1.00  0.00    -0.349 OA
HETATM    3  C11 UNL     1      73.256  -0.985  69.743  1.00  0.00     0.157 C 
HETATM    4  C12 UNL     1      74.746  -1.267  69.790  1.00  0.00     0.078 C 
HETATM    5  C13 UNL     1      73.137   0.524  69.476  1.00  0.00     0.078 C 
HETATM    6  O4  UNL     1      72.643  -1.607  68.671  1.00  0.00    -0.355 OA
HETATM    7  C14 UNL     1      72.419  -2.964  68.892  1.00  0.00     0.182 C 
HETATM    8  C15 UNL     1      71.472  -3.000  70.110  1.00  0.00     0.062 C 
ENDROOT
BRANCH   1   9
HETATM    9  C9  UNL     1      71.793  -2.706  72.584  1.00  0.00     0.135 C 
BRANCH   9  10
HETATM   10  C8  UNL     1      72.665  -3.572  73.406  1.00  0.00     0.223 C 
HETATM   11  N2  UNL     1      72.180  -4.796  73.988  1.00  0.00    -0.340 N 
HETATM   12  C4  UNL     1      70.848  -5.359  73.882  1.00  0.00     0.164 C 
HETATM   13  C7  UNL     1      72.933  -5.722  74.807  1.00  0.00     0.127 C 
HETATM   14  C5  UNL     1      71.171  -6.839  73.662  1.00  0.00     0.035 C 
HETATM   15  C6  UNL     1      72.433  -7.091  74.442  1.00  0.00     0.022 C 
HETATM   16  O2  UNL     1      73.857  -3.247  73.611  1.00  0.00    -0.273 OA
BRANCH  12  17
HETATM   17  C3  UNL     1      70.142  -5.287  75.193  1.00  0.00     0.171 A 
HETATM   18  O1  UNL     1      69.559  -6.218  75.893  1.00  0.00    -0.221 OA
HETATM   19  N1  UNL     1      69.055  -5.738  76.997  1.00  0.00    -0.247 N 
HETATM   20  C2  UNL     1      69.310  -4.432  77.041  1.00  0.00     0.100 A 
ATOM     21  H1  UNL     1      68.552  -6.272  77.705  1.00  0.00     0.196 HD
HETATM   22  C1  UNL     1      68.910  -3.513  78.127  1.00  0.00     0.091 C 
HETATM   23  N3  UNL     1      69.991  -4.141  75.916  1.00  0.00    -0.325 N 
ATOM     24  H3  UNL     1      70.335  -3.218  75.649  1.00  0.00     0.169 HD
ENDBRANCH  12  17
ENDBRANCH   9  10
ENDBRANCH   1   9
BRANCH   8  25
HETATM   25  C16 UNL     1      71.047  -4.388  70.273  1.00  0.00    -0.012 C 
HETATM   26  C17 UNL     1      69.777  -4.730  70.205  1.00  0.00    -0.050 C 
HETATM   27  C18 UNL     1      69.423  -6.198  70.389  1.00  0.00     0.037 C 
HETATM   28  C22 UNL     1      68.728  -3.738  69.948  1.00  0.00     0.199 C 
HETATM   29  C19 UNL     1      68.128  -6.142  71.213  1.00  0.00     0.004 C 
HETATM   30  C20 UNL     1      67.069  -5.630  70.265  1.00  0.00     0.003 C 
HETATM   31  C21 UNL     1      67.398  -4.357  69.588  1.00  0.00     0.042 C 
HETATM   32  F1  UNL     1      68.515  -2.998  71.090  1.00  0.00    -0.245 F 
ENDBRANCH   8  25
TORSDOF 4
ENDMDL
MODEL 3
REMARK VINA RESULT: -8.242031734      3.396      7.575
REMARK  4 active torsions:
REMARK  status: ('A' for Active; 'I' for Inactive)
REMARK    1  A    between atoms: C3_6  and  C4_7 
REMARK       I    between atoms: N2_11  and  C8_12 
REMARK    2  A    between atoms: C8_12  and  C9_14 
REMARK    3  A    between atoms: C9_14  and  C10_15 
REMARK    4  A    between atoms: C15_22  and  C16_23 
ROOT
HETATM    1  C10 UNL     1      70.126  -4.680  71.336  1.00  0.00     0.143 C 
HETATM    2  O3  UNL     1      68.920  -4.470  70.696  1.00  0.00    -0.349 OA
HETATM    3  C11 UNL     1      68.100  -5.562  70.626  1.00  0.00     0.157 C 
HETATM    4  C12 UNL     1      68.499  -6.435  69.450  1.00  0.00     0.078 C 
HETATM    5  C13 UNL     1      66.696  -5.040  70.283  1.00  0.00     0.078 C 
HETATM    6  O4  UNL     1      67.958  -6.292  71.791  1.00  0.00    -0.355 OA
HETATM    7  C14 UNL     1      69.180  -6.601  72.385  1.00  0.00     0.182 C 
HETATM    8  C15 UNL     1      69.798  -5.228  72.719  1.00  0.00     0.062 C 
ENDROOT
BRANCH   1   9
HETATM    9  C9  UNL     1      70.965  -3.461  71.367  1.00  0.00     0.135 C 
BRANCH   9  10
HETATM   10  C8  UNL     1      72.001  -3.537  70.314  1.00  0.00     0.223 C 
HETATM   11  N2  UNL     1      73.222  -2.779  70.401  1.00  0.00    -0.340 N 
HETATM   12  C4  UNL     1      73.627  -1.873  71.457  1.00  0.00     0.164 C 
HETATM   13  C7  UNL     1      74.304  -2.770  69.440  1.00  0.00     0.127 C 
HETATM   14  C5  UNL     1      75.101  -2.252  71.622  1.00  0.00     0.035 C 
HETATM   15  C6  UNL     1      75.567  -2.645  70.246  1.00  0.00     0.022 C 
HETATM   16  O2  UNL     1      71.828  -4.273  69.316  1.00  0.00    -0.273 OA
BRANCH  12  17
HETATM   17  C3  UNL     1      73.622  -0.463  70.970  1.00  0.00     0.171 A 
HETATM   18  O1  UNL     1      72.900   0.112  70.052  1.00  0.00    -0.221 OA
HETATM   19  N1  UNL     1      73.206   1.374  69.927  1.00  0.00    -0.247 N 
HETATM   20  C2  UNL     1      74.173   1.658  70.796  1.00  0.00     0.100 A 
ATOM     21  H1  UNL     1      72.778   2.031  69.275  1.00  0.00     0.196 HD
HETATM   22  C1  UNL     1      74.807   2.982  70.978  1.00  0.00     0.091 C 
HETATM   23  N3  UNL     1      74.440   0.514  71.454  1.00  0.00    -0.325 N 
ATOM     24  H3  UNL     1      75.137   0.397  72.190  1.00  0.00     0.169 HD
ENDBRANCH  12  17
ENDBRANCH   9  10
ENDBRANCH   1   9
BRANCH   8  25
HETATM   25  C16 UNL     1      70.995  -5.487  73.516  1.00  0.00    -0.012 C 
HETATM   26  C17 UNL     1      71.148  -4.961  74.714  1.00  0.00    -0.050 C 
HETATM   27  C18 UNL     1      72.425  -5.282  75.475  1.00  0.00     0.037 C 
HETATM   28  C22 UNL     1      70.121  -4.103  75.313  1.00  0.00     0.199 C 
HETATM   29  C19 UNL     1      72.767  -3.948  76.157  1.00  0.00     0.004 C 
HETATM   30  C20 UNL     1      71.732  -3.774  77.244  1.00  0.00     0.003 C 
HETATM   31  C21 UNL     1      70.327  -3.868  76.791  1.00  0.00     0.042 C 
HETATM   32  F1  UNL     1      70.161  -2.863  74.714  1.00  0.00    -0.245 F 
ENDBRANCH   8  25
TORSDOF 4
ENDMDL
MODEL 4
REMARK VINA RESULT: -8.128936987      1.116      1.313
REMARK  4 active torsions:
REMARK  status: ('A' for Active; 'I' for Inactive)
REMARK    1  A    between atoms: C3_6  and  C4_7 
REMARK       I    between atoms: N2_11  and  C8_12 
REMARK    2  A    between atoms: C8_12  and  C9_14 
REMARK    3  A    between atoms: C9_14  and  C10_15 
REMARK    4  A    between atoms: C15_22  and  C16_23 
ROOT
HETATM    1  C10 UNL     1      71.400  -3.662  72.069  1.00  0.00     0.143 C 
HETATM    2  O3  UNL     1      72.063  -2.460  72.222  1.00  0.00    -0.349 OA
HETATM    3  C11 UNL     1      72.923  -2.136  71.210  1.00  0.00     0.157 C 
HETATM    4  C12 UNL     1      74.258  -2.826  71.423  1.00  0.00     0.078 C 
HETATM    5  C13 UNL     1      73.218  -0.633  71.345  1.00  0.00     0.078 C 
HETATM    6  O4  UNL     1      72.445  -2.314  69.926  1.00  0.00    -0.355 OA
HETATM    7  C14 UNL     1      71.871  -3.568  69.733  1.00  0.00     0.182 C 
HETATM    8  C15 UNL     1      70.689  -3.601  70.724  1.00  0.00     0.062 C 
ENDROOT
BRANCH   1   9
HETATM    9  C9  UNL     1      70.495  -3.953  73.204  1.00  0.00     0.135 C 
BRANCH   9  10
HETATM   10  C8  UNL     1      71.280  -4.423  74.365  1.00  0.00     0.223 C 
HETATM   11  N2  UNL     1      71.605  -5.815  74.543  1.00  0.00    -0.340 N 
HETATM   12  C4  UNL     1      71.249  -6.924  73.680  1.00  0.00     0.164 C 
HETATM   13  C7  UNL     1      72.363  -6.393  75.632  1.00  0.00     0.127 C 
HETATM   14  C5  UNL     1      72.558  -7.717  73.664  1.00  0.00     0.035 C 
HETATM   15  C6  UNL     1      73.166  -7.509  75.025  1.00  0.00     0.022 C 
HETATM   16  O2  UNL     1      71.679  -3.605  75.225  1.00  0.00    -0.273 OA
BRANCH  12  17
HETATM   17  C3  UNL     1      70.248  -7.805  74.345  1.00  0.00     0.171 A 
HETATM   18  O1  UNL     1      69.156  -7.510  74.990  1.00  0.00    -0.221 OA
HETATM   19  N1  UNL     1      68.554  -8.584  75.423  1.00  0.00    -0.247 N 
HETATM   20  C2  UNL     1      69.270  -9.643  75.054  1.00  0.00     0.100 A 
ATOM     21  H1  UNL     1      67.683  -8.607  75.953  1.00  0.00     0.196 HD
HETATM   22  C1  UNL     1      68.935 -11.054  75.346  1.00  0.00     0.091 C 
HETATM   23  N3  UNL     1      70.332  -9.166  74.378  1.00  0.00    -0.325 N 
ATOM     24  H3  UNL     1      71.075  -9.727  73.961  1.00  0.00     0.169 HD
ENDBRANCH  12  17
ENDBRANCH   9  10
ENDBRANCH   1   9
BRANCH   8  25
HETATM   25  C16 UNL     1      69.931  -4.817  70.435  1.00  0.00    -0.012 C 
HETATM   26  C17 UNL     1      68.781  -4.773  69.797  1.00  0.00    -0.050 C 
HETATM   27  C18 UNL     1      68.057  -6.086  69.540  1.00  0.00     0.037 C 
HETATM   28  C22 UNL     1      68.209  -3.505  69.330  1.00  0.00     0.199 C 
HETATM   29  C19 UNL     1      66.582  -5.719  69.764  1.00  0.00     0.004 C 
HETATM   30  C20 UNL     1      66.198  -4.857  68.585  1.00  0.00     0.003 C 
HETATM   31  C21 UNL     1      67.073  -3.687  68.353  1.00  0.00     0.042 C 
HETATM   32  F1  UNL     1      67.690  -2.819  70.406  1.00  0.00    -0.245 F 
ENDBRANCH   8  25
TORSDOF 4
ENDMDL
MODEL 5
REMARK VINA RESULT: -7.944737974      3.087      6.665
REMARK  4 active torsions:
REMARK  status: ('A' for Active; 'I' for Inactive)
REMARK    1  A    between atoms: C3_6  and  C4_7 
REMARK       I    between atoms: N2_11  and  C8_12 
REMARK    2  A    between atoms: C8_12  and  C9_14 
REMARK    3  A    between atoms: C9_14  and  C10_15 
REMARK    4  A    between atoms: C15_22  and  C16_23 
ROOT
HETATM    1  C10 UNL     1      70.937  -4.908  72.100  1.00  0.00     0.143 C 
HETATM    2  O3  UNL     1      71.822  -5.849  72.589  1.00  0.00    -0.349 OA
HETATM    3  C11 UNL     1      71.343  -6.626  73.607  1.00  0.00     0.157 C 
HETATM    4  C12 UNL     1      71.488  -5.895  74.929  1.00  0.00     0.078 C 
HETATM    5  C13 UNL     1      72.276  -7.843  73.712  1.00  0.00     0.078 C 
HETATM    6  O4  UNL     1      70.071  -7.139  73.433  1.00  0.00    -0.355 OA
HETATM    7  C14 UNL     1      69.148  -6.170  73.045  1.00  0.00     0.182 C 
HETATM    8  C15 UNL     1      69.680  -5.662  71.689  1.00  0.00     0.062 C 
ENDROOT
BRANCH   1   9
HETATM    9  C9  UNL     1      71.524  -4.098  71.009  1.00  0.00     0.135 C 
BRANCH   9  10
HETATM   10  C8  UNL     1      71.975  -2.793  71.539  1.00  0.00     0.223 C 
HETATM   11  N2  UNL     1      72.788  -1.900  70.754  1.00  0.00    -0.340 N 
HETATM   12  C4  UNL     1      73.273  -2.103  69.403  1.00  0.00     0.164 C 
HETATM   13  C7  UNL     1      73.289  -0.605  71.160  1.00  0.00     0.127 C 
HETATM   14  C5  UNL     1      73.043  -0.717  68.795  1.00  0.00     0.035 C 
HETATM   15  C6  UNL     1      73.255   0.253  69.927  1.00  0.00     0.022 C 
HETATM   16  O2  UNL     1      71.653  -2.441  72.697  1.00  0.00    -0.273 OA
BRANCH  12  17
HETATM   17  C3  UNL     1      74.751  -2.307  69.402  1.00  0.00     0.171 A 
HETATM   18  O1  UNL     1      75.673  -1.813  68.627  1.00  0.00    -0.221 OA
HETATM   19  N1  UNL     1      76.858  -2.245  68.962  1.00  0.00    -0.247 N 
HETATM   20  C2  UNL     1      76.726  -3.063  70.004  1.00  0.00     0.100 A 
ATOM     21  H1  UNL     1      77.734  -1.998  68.504  1.00  0.00     0.196 HD
HETATM   22  C1  UNL     1      77.830  -3.766  70.691  1.00  0.00     0.091 C 
HETATM   23  N3  UNL     1      75.410  -3.108  70.287  1.00  0.00    -0.325 N 
ATOM     24  H3  UNL     1      74.979  -3.649  71.037  1.00  0.00     0.169 HD
ENDBRANCH  12  17
ENDBRANCH   9  10
ENDBRANCH   1   9
BRANCH   8  25
HETATM   25  C16 UNL     1      68.653  -4.780  71.138  1.00  0.00    -0.012 C 
HETATM   26  C17 UNL     1      67.819  -5.196  70.207  1.00  0.00    -0.050 C 
HETATM   27  C18 UNL     1      66.782  -4.211  69.687  1.00  0.00     0.037 C 
HETATM   28  C22 UNL     1      67.870  -6.567  69.687  1.00  0.00     0.199 C 
HETATM   29  C19 UNL     1      66.733  -4.521  68.183  1.00  0.00     0.004 C 
HETATM   30  C20 UNL     1      66.048  -5.862  68.070  1.00  0.00     0.003 C 
HETATM   31  C21 UNL     1      66.650  -6.943  68.880  1.00  0.00     0.042 C 
HETATM   32  F1  UNL     1      68.949  -6.691  68.840  1.00  0.00    -0.245 F 
ENDBRANCH   8  25
TORSDOF 4
ENDMDL
