MODEL 1
REMARK VINA RESULT: -6.799614943      0.000      0.000
REMARK  6 active torsions:
REMARK  status: ('A' for Active; 'I' for Inactive)
REMARK    1  A    between atoms: C2_2  and  S1_3 
REMARK    2  A    between atoms: S1_3  and  C3_4 
REMARK    3  A    between atoms: C3_4  and  N1_6 
REMARK    4  A    between atoms: N2_9  and  C6_10 
REMARK    5  A    between atoms: C10_19  and  C11_20 
REMARK    6  A    between atoms: C11_20  and  C12_22 
ROOT
HETATM    1  C6  UNL     1      71.146  -3.488  70.470  1.00  0.00     0.118 A 
HETATM    2  N3  UNL     1      71.150  -3.091  69.152  1.00  0.00    -0.338 N 
ATOM      3  H3  UNL     1      70.315  -3.286  68.600  1.00  0.00     0.168 HD
HETATM    4  C7  UNL     1      72.147  -2.480  68.551  1.00  0.00     0.182 A 
HETATM    5  N4  UNL     1      73.244  -2.223  69.270  1.00  0.00    -0.346 N 
ATOM      6  H4  UNL     1      74.040  -1.752  68.842  1.00  0.00     0.167 HD
HETATM    7  C8  UNL     1      73.293  -2.598  70.590  1.00  0.00     0.089 A 
HETATM    8  S3  UNL     1      74.522  -2.423  71.762  1.00  0.00    -0.082 SA
HETATM    9  C9  UNL     1      73.766  -3.146  73.066  1.00  0.00     0.068 A 
HETATM   10  C10 UNL     1      72.503  -3.540  72.564  1.00  0.00     0.037 A 
HETATM   11  C15 UNL     1      72.269  -3.243  71.260  1.00  0.00     0.056 A 
ENDROOT
BRANCH   1  12
HETATM   12  N2  UNL     1      69.945  -4.058  70.859  1.00  0.00    -0.363 N 
HETATM   13  C5  UNL     1      68.848  -3.292  71.373  1.00  0.00     0.144 C 
HETATM   14  C4  UNL     1      67.622  -3.446  70.468  1.00  0.00     0.144 C 
HETATM   15  N1  UNL     1      67.492  -4.865  70.024  1.00  0.00    -0.363 N 
HETATM   16  C17 UNL     1      68.214  -5.785  70.852  1.00  0.00     0.144 C 
HETATM   17  C16 UNL     1      69.707  -5.469  70.662  1.00  0.00     0.144 C 
BRANCH  15  18
HETATM   18  C3  UNL     1      66.729  -5.069  68.886  1.00  0.00     0.136 C 
HETATM   19  S2  UNL     1      66.331  -6.685  68.545  1.00  0.00    -0.053 SA
BRANCH  18  20
HETATM   20  S1  UNL     1      66.124  -3.910  67.763  1.00  0.00    -0.101 SA
BRANCH  20  21
HETATM   21  C2  UNL     1      67.144  -3.185  66.537  1.00  0.00     0.077 C 
HETATM   22  C1  UNL     1      67.745  -1.849  66.967  1.00  0.00     0.016 C 
ENDBRANCH  20  21
ENDBRANCH  18  20
ENDBRANCH  15  18
ENDBRANCH   1  12
BRANCH  10  23
HETATM   23  C11 UNL     1      71.661  -4.321  73.496  1.00  0.00     0.184 C 
HETATM   24  O1  UNL     1      71.807  -5.567  73.553  1.00  0.00    -0.287 OA
BRANCH  23  25
HETATM   25  C12 UNL     1      70.674  -3.756  74.363  1.00  0.00     0.074 C 
HETATM   26  C13 UNL     1      70.651  -3.558  75.640  1.00  0.00     0.011 C 
HETATM   27  C14 UNL     1      69.413  -2.927  76.236  1.00  0.00     0.062 C 
HETATM   28 CL1  UNL     1      71.932  -3.901  76.742  1.00  0.00    -0.089 Cl
ENDBRANCH  23  25
ENDBRANCH  10  23
TORSDOF 6
ENDMDL
MODEL 2
REMARK VINA RESULT: -6.483781202      1.387      1.747
REMARK  6 active torsions:
REMARK  status: ('A' for Active; 'I' for Inactive)
REMARK    1  A    between atoms: C2_2  and  S1_3 
REMARK    2  A    between atoms: S1_3  and  C3_4 
REMARK    3  A    between atoms: C3_4  and  N1_6 
REMARK    4  A    between atoms: N2_9  and  C6_10 
REMARK    5  A    between atoms: C10_19  and  C11_20 
REMARK    6  A    between atoms: C11_20  and  C12_22 
ROOT
HETATM    1  C6  UNL     1      71.344  -3.415  70.404  1.00  0.00     0.118 A 
HETATM    2  N3  UNL     1      71.297  -3.019  69.087  1.00  0.00    -0.338 N 
ATOM      3  H3  UNL     1      70.463  -3.261  68.552  1.00  0.00     0.168 HD
HETATM    4  C7  UNL     1      72.245  -2.351  68.466  1.00  0.00     0.182 A 
HETATM    5  N4  UNL     1      73.339  -2.032  69.162  1.00  0.00    -0.346 N 
ATOM      6  H4  UNL     1      74.098  -1.515  68.717  1.00  0.00     0.167 HD
HETATM    7  C8  UNL     1      73.438  -2.403  70.479  1.00  0.00     0.089 A 
HETATM    8  S3  UNL     1      74.679  -2.158  71.626  1.00  0.00    -0.082 SA
HETATM    9  C9  UNL     1      73.994  -2.923  72.944  1.00  0.00     0.068 A 
HETATM   10  C10 UNL     1      72.745  -3.389  72.469  1.00  0.00     0.037 A 
HETATM   11  C15 UNL     1      72.467  -3.106  71.170  1.00  0.00     0.056 A 
ENDROOT
BRANCH   1  12
HETATM   12  N2  UNL     1      70.186  -4.053  70.817  1.00  0.00    -0.363 N 
HETATM   13  C5  UNL     1      69.102  -3.367  71.456  1.00  0.00     0.144 C 
HETATM   14  C4  UNL     1      67.827  -3.491  70.616  1.00  0.00     0.144 C 
HETATM   15  N1  UNL     1      67.710  -4.875  70.069  1.00  0.00    -0.363 N 
HETATM   16  C17 UNL     1      68.508  -5.832  70.775  1.00  0.00     0.144 C 
HETATM   17  C16 UNL     1      69.977  -5.453  70.522  1.00  0.00     0.144 C 
BRANCH  15  18
HETATM   18  C3  UNL     1      66.884  -5.015  68.966  1.00  0.00     0.136 C 
HETATM   19  S2  UNL     1      66.421  -6.605  68.589  1.00  0.00    -0.053 SA
BRANCH  18  20
HETATM   20  S1  UNL     1      66.257  -3.798  67.918  1.00  0.00    -0.101 SA
BRANCH  20  21
HETATM   21  C2  UNL     1      67.199  -3.131  66.601  1.00  0.00     0.077 C 
HETATM   22  C1  UNL     1      67.774  -1.752  66.909  1.00  0.00     0.016 C 
ENDBRANCH  20  21
ENDBRANCH  18  20
ENDBRANCH  15  18
ENDBRANCH   1  12
BRANCH  10  23
HETATM   23  C11 UNL     1      71.969  -4.218  73.417  1.00  0.00     0.184 C 
HETATM   24  O1  UNL     1      71.144  -3.661  74.182  1.00  0.00    -0.287 OA
BRANCH  23  25
HETATM   25  C12 UNL     1      72.082  -5.639  73.529  1.00  0.00     0.074 C 
HETATM   26  C13 UNL     1      71.223  -6.557  73.828  1.00  0.00     0.011 C 
HETATM   27  C14 UNL     1      71.703  -7.991  73.858  1.00  0.00     0.062 C 
HETATM   28 CL1  UNL     1      69.548  -6.312  74.151  1.00  0.00    -0.089 Cl
ENDBRANCH  23  25
ENDBRANCH  10  23
TORSDOF 6
ENDMDL
MODEL 3
REMARK VINA RESULT: -6.393666693      3.106      7.118
REMARK  6 active torsions:
REMARK  status: ('A' for Active; 'I' for Inactive)
REMARK    1  A    between atoms: C2_2  and  S1_3 
REMARK    2  A    between atoms: S1_3  and  C3_4 
REMARK    3  A    between atoms: C3_4  and  N1_6 
REMARK    4  A    between atoms: N2_9  and  C6_10 
REMARK    5  A    between atoms: C10_19  and  C11_20 
REMARK    6  A    between atoms: C11_20  and  C12_22 
ROOT
HETATM    1  C6  UNL     1      69.823  -5.631  71.020  1.00  0.00     0.118 A 
HETATM    2  N3  UNL     1      70.634  -6.657  71.450  1.00  0.00    -0.338 N 
ATOM      3  H3  UNL     1      71.474  -6.407  71.972  1.00  0.00     0.168 HD
HETATM    4  C7  UNL     1      70.409  -7.936  71.238  1.00  0.00     0.182 A 
HETATM    5  N4  UNL     1      69.311  -8.269  70.554  1.00  0.00    -0.346 N 
ATOM      6  H4  UNL     1      69.101  -9.249  70.368  1.00  0.00     0.167 HD
HETATM    7  C8  UNL     1      68.469  -7.285  70.102  1.00  0.00     0.089 A 
HETATM    8  S3  UNL     1      67.014  -7.373  69.212  1.00  0.00    -0.082 SA
HETATM    9  C9  UNL     1      66.663  -5.743  69.092  1.00  0.00     0.068 A 
HETATM   10  C10 UNL     1      67.726  -5.105  69.773  1.00  0.00     0.037 A 
HETATM   11  C15 UNL     1      68.668  -5.931  70.301  1.00  0.00     0.056 A 
ENDROOT
BRANCH   1  12
HETATM   12  N2  UNL     1      70.268  -4.385  71.431  1.00  0.00    -0.363 N 
HETATM   13  C5  UNL     1      70.025  -3.863  72.743  1.00  0.00     0.144 C 
HETATM   14  C4  UNL     1      71.352  -3.603  73.463  1.00  0.00     0.144 C 
HETATM   15  N1  UNL     1      72.338  -3.006  72.515  1.00  0.00    -0.363 N 
HETATM   16  C17 UNL     1      71.729  -2.425  71.356  1.00  0.00     0.144 C 
HETATM   17  C16 UNL     1      71.100  -3.583  70.563  1.00  0.00     0.144 C 
BRANCH  15  18
HETATM   18  C3  UNL     1      73.669  -3.127  72.881  1.00  0.00     0.136 C 
HETATM   19  S2  UNL     1      73.951  -3.683  74.461  1.00  0.00    -0.053 SA
BRANCH  18  20
HETATM   20  S1  UNL     1      75.084  -2.790  71.957  1.00  0.00    -0.101 SA
BRANCH  20  21
HETATM   21  C2  UNL     1      75.191  -3.173  70.250  1.00  0.00     0.077 C 
HETATM   22  C1  UNL     1      76.564  -3.695  69.836  1.00  0.00     0.016 C 
ENDBRANCH  20  21
ENDBRANCH  18  20
ENDBRANCH  15  18
ENDBRANCH   1  12
BRANCH  10  23
HETATM   23  C11 UNL     1      67.726  -3.627  69.717  1.00  0.00     0.184 C 
HETATM   24  O1  UNL     1      67.356  -2.978  70.726  1.00  0.00    -0.287 OA
BRANCH  23  25
HETATM   25  C12 UNL     1      68.131  -2.860  68.580  1.00  0.00     0.074 C 
HETATM   26  C13 UNL     1      67.538  -2.579  67.467  1.00  0.00     0.011 C 
HETATM   27  C14 UNL     1      68.284  -1.726  66.465  1.00  0.00     0.062 C 
HETATM   28 CL1  UNL     1      65.938  -3.043  67.025  1.00  0.00    -0.089 Cl
ENDBRANCH  23  25
ENDBRANCH  10  23
TORSDOF 6
ENDMDL
MODEL 4
REMARK VINA RESULT: -6.047090225      3.133      7.466
REMARK  6 active torsions:
REMARK  status: ('A' for Active; 'I' for Inactive)
REMARK    1  A    between atoms: C2_2  and  S1_3 
REMARK    2  A    between atoms: S1_3  and  C3_4 
REMARK    3  A    between atoms: C3_4  and  N1_6 
REMARK    4  A    between atoms: N2_9  and  C6_10 
REMARK    5  A    between atoms: C10_19  and  C11_20 
REMARK    6  A    between atoms: C11_20  and  C12_22 
ROOT
HETATM    1  C6  UNL     1      69.806  -5.645  71.019  1.00  0.00     0.118 A 
HETATM    2  N3  UNL     1      70.613  -6.675  71.446  1.00  0.00    -0.338 N 
ATOM      3  H3  UNL     1      71.449  -6.429  71.976  1.00  0.00     0.168 HD
HETATM    4  C7  UNL     1      70.390  -7.952  71.223  1.00  0.00     0.182 A 
HETATM    5  N4  UNL     1      69.297  -8.280  70.528  1.00  0.00    -0.346 N 
ATOM      6  H4  UNL     1      69.087  -9.258  70.333  1.00  0.00     0.167 HD
HETATM    7  C8  UNL     1      68.457  -7.292  70.078  1.00  0.00     0.089 A 
HETATM    8  S3  UNL     1      67.009  -7.373  69.177  1.00  0.00    -0.082 SA
HETATM    9  C9  UNL     1      66.660  -5.742  69.067  1.00  0.00     0.068 A 
HETATM   10  C10 UNL     1      67.718  -5.110  69.761  1.00  0.00     0.037 A 
HETATM   11  C15 UNL     1      68.655  -5.939  70.289  1.00  0.00     0.056 A 
ENDROOT
BRANCH   1  12
HETATM   12  N2  UNL     1      70.247  -4.402  71.442  1.00  0.00    -0.363 N 
HETATM   13  C5  UNL     1      69.931  -3.859  72.730  1.00  0.00     0.144 C 
HETATM   14  C4  UNL     1      71.213  -3.614  73.531  1.00  0.00     0.144 C 
HETATM   15  N1  UNL     1      72.270  -3.049  72.641  1.00  0.00    -0.363 N 
HETATM   16  C17 UNL     1      71.748  -2.472  71.438  1.00  0.00     0.144 C 
HETATM   17  C16 UNL     1      71.149  -3.628  70.620  1.00  0.00     0.144 C 
BRANCH  15  18
HETATM   18  C3  UNL     1      73.572  -3.190  73.094  1.00  0.00     0.136 C 
HETATM   19  S2  UNL     1      74.787  -2.751  71.991  1.00  0.00    -0.053 SA
BRANCH  18  20
HETATM   20  S1  UNL     1      74.135  -3.750  74.624  1.00  0.00    -0.101 SA
BRANCH  20  21
HETATM   21  C2  UNL     1      75.712  -3.314  75.250  1.00  0.00     0.077 C 
HETATM   22  C1  UNL     1      75.791  -1.866  75.725  1.00  0.00     0.016 C 
ENDBRANCH  20  21
ENDBRANCH  18  20
ENDBRANCH  15  18
ENDBRANCH   1  12
BRANCH  10  23
HETATM   23  C11 UNL     1      67.718  -3.631  69.716  1.00  0.00     0.184 C 
HETATM   24  O1  UNL     1      67.336  -2.989  70.726  1.00  0.00    -0.287 OA
BRANCH  23  25
HETATM   25  C12 UNL     1      68.136  -2.856  68.589  1.00  0.00     0.074 C 
HETATM   26  C13 UNL     1      67.554  -2.563  67.473  1.00  0.00     0.011 C 
HETATM   27  C14 UNL     1      68.311  -1.704  66.486  1.00  0.00     0.062 C 
HETATM   28 CL1  UNL     1      65.958  -3.020  67.012  1.00  0.00    -0.089 Cl
ENDBRANCH  23  25
ENDBRANCH  10  23
TORSDOF 6
ENDMDL
MODEL 5
REMARK VINA RESULT: -5.830929955      4.360      6.250
REMARK  6 active torsions:
REMARK  status: ('A' for Active; 'I' for Inactive)
REMARK    1  A    between atoms: C2_2  and  S1_3 
REMARK    2  A    between atoms: S1_3  and  C3_4 
REMARK    3  A    between atoms: C3_4  and  N1_6 
REMARK    4  A    between atoms: N2_9  and  C6_10 
REMARK    5  A    between atoms: C10_19  and  C11_20 
REMARK    6  A    between atoms: C11_20  and  C12_22 
ROOT
HETATM    1  C6  UNL     1      74.928  -2.221  69.876  1.00  0.00     0.118 A 
HETATM    2  N3  UNL     1      75.444  -3.489  70.018  1.00  0.00    -0.338 N 
ATOM      3  H3  UNL     1      74.835  -4.204  70.415  1.00  0.00     0.168 HD
HETATM    4  C7  UNL     1      76.664  -3.850  69.681  1.00  0.00     0.182 A 
HETATM    5  N4  UNL     1      77.467  -2.917  69.162  1.00  0.00    -0.346 N 
ATOM      6  H4  UNL     1      78.420  -3.155  68.888  1.00  0.00     0.167 HD
HETATM    7  C8  UNL     1      77.002  -1.636  68.999  1.00  0.00     0.089 A 
HETATM    8  S3  UNL     1      77.760  -0.237  68.379  1.00  0.00    -0.082 SA
HETATM    9  C9  UNL     1      76.505   0.855  68.547  1.00  0.00     0.068 A 
HETATM   10  C10 UNL     1      75.453   0.095  69.110  1.00  0.00     0.037 A 
HETATM   11  C15 UNL     1      75.730  -1.215  69.340  1.00  0.00     0.056 A 
ENDROOT
BRANCH   1  12
HETATM   12  N2  UNL     1      73.599  -2.134  70.258  1.00  0.00    -0.363 N 
HETATM   13  C5  UNL     1      72.511  -2.371  69.356  1.00  0.00     0.144 C 
HETATM   14  C4  UNL     1      71.665  -3.550  69.846  1.00  0.00     0.144 C 
HETATM   15  N1  UNL     1      71.498  -3.478  71.327  1.00  0.00    -0.363 N 
HETATM   16  C17 UNL     1      71.755  -2.174  71.863  1.00  0.00     0.144 C 
HETATM   17  C16 UNL     1      73.250  -1.893  71.639  1.00  0.00     0.144 C 
BRANCH  15  18
HETATM   18  C3  UNL     1      71.154  -4.667  71.949  1.00  0.00     0.136 C 
HETATM   19  S2  UNL     1      72.045  -5.054  73.343  1.00  0.00    -0.053 SA
BRANCH  18  20
HETATM   20  S1  UNL     1      69.946  -5.813  71.507  1.00  0.00    -0.101 SA
BRANCH  20  21
HETATM   21  C2  UNL     1      70.057  -6.759  70.036  1.00  0.00     0.077 C 
HETATM   22  C1  UNL     1      70.309  -8.242  70.291  1.00  0.00     0.016 C 
ENDBRANCH  20  21
ENDBRANCH  18  20
ENDBRANCH  15  18
ENDBRANCH   1  12
BRANCH  10  23
HETATM   23  C11 UNL     1      74.239   0.857  69.476  1.00  0.00     0.184 C 
HETATM   24  O1  UNL     1      73.204   0.731  68.776  1.00  0.00    -0.287 OA
BRANCH  23  25
HETATM   25  C12 UNL     1      74.147   1.743  70.595  1.00  0.00     0.074 C 
HETATM   26  C13 UNL     1      74.370   3.009  70.721  1.00  0.00     0.011 C 
HETATM   27  C14 UNL     1      74.172   3.630  72.085  1.00  0.00     0.062 C 
HETATM   28 CL1  UNL     1      74.832   4.087  69.458  1.00  0.00    -0.089 Cl
ENDBRANCH  23  25
ENDBRANCH  10  23
TORSDOF 6
ENDMDL
