MODEL 1
REMARK VINA RESULT: -8.562518163      0.000      0.000
REMARK  7 active torsions:
REMARK  status: ('A' for Active; 'I' for Inactive)
REMARK    1  A    between atoms: C3_5  and  N2_6 
REMARK    2  A    between atoms: N2_6  and  C4_7 
REMARK    3  A    between atoms: N2_6  and  C11_14 
REMARK    4  A    between atoms: C4_7  and  C5_8 
REMARK    5  A    between atoms: C5_8  and  C6_9 
REMARK    6  A    between atoms: C7_10  and  C8_11 
REMARK    7  A    between atoms: N5_23  and  C16_24 
ROOT
HETATM    1  C11 UNL     1      69.493  -5.585  71.216  1.00  0.00     0.701 A 
HETATM    2  N3  UNL     1      69.901  -6.526  70.327  1.00  0.00    -0.193 N 
ATOM      3  H3  UNL     1      70.025  -6.264  69.349  1.00  0.00     0.184 HD
HETATM    4  C12 UNL     1      70.145  -7.791  70.697  1.00  0.00     0.053 A 
HETATM    5  C13 UNL     1      70.586  -8.800  69.706  1.00  0.00     0.071 C 
HETATM    6  C14 UNL     1      69.964  -8.105  72.042  1.00  0.00     0.101 A 
HETATM    7  N4  UNL     1      70.116  -9.235  72.718  1.00  0.00    -0.348 N 
ATOM      8  H4  UNL     1      70.416 -10.127  72.326  1.00  0.00     0.167 HD
HETATM    9  C15 UNL     1      69.809  -9.009  74.011  1.00  0.00     0.185 A 
HETATM   10  N5  UNL     1      69.455  -7.726  74.187  1.00  0.00    -0.322 N 
HETATM   11  C22 UNL     1      69.550  -7.154  72.948  1.00  0.00     0.153 A 
HETATM   12  N6  UNL     1      69.325  -5.899  72.491  1.00  0.00    -0.173 N 
ATOM     13  H6  UNL     1      69.018  -5.178  73.145  1.00  0.00     0.186 HD
ENDROOT
BRANCH   1  14
HETATM   14  N2  UNL     1      69.267  -4.267  70.697  1.00  0.00    -0.013 N 
BRANCH  14  15
HETATM   15  C3  UNL     1      68.256  -4.152  69.705  1.00  0.00     0.699 A 
HETATM   16  N1  UNL     1      68.252  -3.169  68.786  1.00  0.00    -0.192 N 
HETATM   17  C2  UNL     1      67.313  -3.024  67.837  1.00  0.00     0.062 A 
ATOM     18  H1  UNL     1      69.013  -2.489  68.812  1.00  0.00     0.184 HD
HETATM   19  C1  UNL     1      67.453  -1.902  66.891  1.00  0.00     0.072 C 
HETATM   20  C24 UNL     1      66.277  -3.931  67.787  1.00  0.00     0.154 A 
HETATM   21  C23 UNL     1      66.271  -4.936  68.720  1.00  0.00     0.150 A 
HETATM   22  F1  UNL     1      65.330  -3.785  66.831  1.00  0.00    -0.203 F 
HETATM   23  N7  UNL     1      67.231  -5.041  69.648  1.00  0.00    -0.198 N 
ATOM     24  H7  UNL     1      67.191  -5.803  70.325  1.00  0.00     0.183 HD
ENDBRANCH  14  15
BRANCH  14  25
HETATM   25  C4  UNL     1      70.061  -3.189  71.209  1.00  0.00     0.179 C 
BRANCH  25  26
HETATM   26  C5  UNL     1      71.555  -3.447  71.096  1.00  0.00     0.115 C 
BRANCH  26  27
HETATM   27  C6  UNL     1      72.166  -2.128  70.816  1.00  0.00    -0.105 C 
HETATM   28  C7  UNL     1      72.645  -1.054  70.559  1.00  0.00    -0.102 C 
BRANCH  28  29
HETATM   29  C8  UNL     1      73.204   0.250  70.222  1.00  0.00     0.065 A 
HETATM   30  C9  UNL     1      74.171   0.319  69.061  1.00  0.00     0.018 A 
HETATM   31  C10 UNL     1      72.829   0.941  68.956  1.00  0.00     0.018 A 
ENDBRANCH  28  29
ENDBRANCH  26  27
ENDBRANCH  25  26
ENDBRANCH  14  25
ENDBRANCH   1  14
BRANCH  10  32
HETATM   32  C16 UNL     1      69.056  -7.002  75.336  1.00  0.00     0.097 C 
HETATM   33  C17 UNL     1      68.413  -7.838  76.439  1.00  0.00     0.031 C 
HETATM   34  C18 UNL     1      69.015  -7.138  77.630  1.00  0.00    -0.012 C 
HETATM   35  C19 UNL     1      69.255  -5.696  77.217  1.00  0.00     0.011 C 
HETATM   36  C21 UNL     1      70.502  -7.309  77.273  1.00  0.00     0.011 C 
HETATM   37  C20 UNL     1      70.151  -6.370  76.147  1.00  0.00     0.010 C 
ENDBRANCH  10  32
TORSDOF 7
ENDMDL
MODEL 2
REMARK VINA RESULT: -8.481695323      2.268      3.232
REMARK  7 active torsions:
REMARK  status: ('A' for Active; 'I' for Inactive)
REMARK    1  A    between atoms: C3_5  and  N2_6 
REMARK    2  A    between atoms: N2_6  and  C4_7 
REMARK    3  A    between atoms: N2_6  and  C11_14 
REMARK    4  A    between atoms: C4_7  and  C5_8 
REMARK    5  A    between atoms: C5_8  and  C6_9 
REMARK    6  A    between atoms: C7_10  and  C8_11 
REMARK    7  A    between atoms: N5_23  and  C16_24 
ROOT
HETATM    1  C11 UNL     1      69.350  -6.161  71.275  1.00  0.00     0.701 A 
HETATM    2  N3  UNL     1      70.001  -6.862  70.311  1.00  0.00    -0.193 N 
ATOM      3  H3  UNL     1      70.119  -6.444  69.389  1.00  0.00     0.184 HD
HETATM    4  C12 UNL     1      70.493  -8.087  70.539  1.00  0.00     0.053 A 
HETATM    5  C13 UNL     1      71.196  -8.833  69.469  1.00  0.00     0.071 C 
HETATM    6  C14 UNL     1      70.310  -8.619  71.813  1.00  0.00     0.101 A 
HETATM    7  N4  UNL     1      70.666  -9.776  72.352  1.00  0.00    -0.348 N 
ATOM      8  H4  UNL     1      71.174 -10.522  71.877  1.00  0.00     0.167 HD
HETATM    9  C15 UNL     1      70.246  -9.804  73.633  1.00  0.00     0.185 A 
HETATM   10  N5  UNL     1      69.613  -8.661  73.938  1.00  0.00    -0.322 N 
HETATM   11  C22 UNL     1      69.650  -7.912  72.793  1.00  0.00     0.153 A 
HETATM   12  N6  UNL     1      69.183  -6.679  72.481  1.00  0.00    -0.173 N 
ATOM     13  H6  UNL     1      68.692  -6.138  73.193  1.00  0.00     0.186 HD
ENDROOT
BRANCH   1  14
HETATM   14  N2  UNL     1      68.872  -4.858  70.909  1.00  0.00    -0.013 N 
BRANCH  14  15
HETATM   15  C3  UNL     1      67.948  -4.814  69.830  1.00  0.00     0.699 A 
HETATM   16  N1  UNL     1      67.837  -3.747  69.017  1.00  0.00    -0.192 N 
HETATM   17  C2  UNL     1      66.974  -3.665  67.991  1.00  0.00     0.062 A 
ATOM     18  H1  UNL     1      68.448  -2.948  69.191  1.00  0.00     0.184 HD
HETATM   19  C1  UNL     1      66.978  -2.433  67.180  1.00  0.00     0.072 C 
HETATM   20  C24 UNL     1      66.139  -4.732  67.741  1.00  0.00     0.154 A 
HETATM   21  C23 UNL     1      66.243  -5.823  68.565  1.00  0.00     0.150 A 
HETATM   22  F1  UNL     1      65.268  -4.649  66.707  1.00  0.00    -0.203 F 
HETATM   23  N7  UNL     1      67.121  -5.860  69.576  1.00  0.00    -0.198 N 
ATOM     24  H7  UNL     1      67.169  -6.691  70.167  1.00  0.00     0.183 HD
ENDBRANCH  14  15
BRANCH  14  25
HETATM   25  C4  UNL     1      69.352  -3.726  71.645  1.00  0.00     0.179 C 
BRANCH  25  26
HETATM   26  C5  UNL     1      70.534  -4.060  72.542  1.00  0.00     0.115 C 
BRANCH  26  27
HETATM   27  C6  UNL     1      70.171  -3.546  73.883  1.00  0.00    -0.105 C 
HETATM   28  C7  UNL     1      69.860  -3.102  74.957  1.00  0.00    -0.102 C 
BRANCH  28  29
HETATM   29  C8  UNL     1      69.461  -2.544  76.243  1.00  0.00     0.065 A 
HETATM   30  C9  UNL     1      68.768  -3.464  77.224  1.00  0.00     0.018 A 
HETATM   31  C10 UNL     1      70.135  -2.963  77.504  1.00  0.00     0.018 A 
ENDBRANCH  28  29
ENDBRANCH  26  27
ENDBRANCH  25  26
ENDBRANCH  14  25
ENDBRANCH   1  14
BRANCH  10  32
HETATM   32  C16 UNL     1      69.003  -8.204  75.132  1.00  0.00     0.097 C 
HETATM   33  C17 UNL     1      69.375  -8.985  76.389  1.00  0.00     0.031 C 
HETATM   34  C18 UNL     1      69.448  -7.831  77.356  1.00  0.00    -0.012 C 
HETATM   35  C19 UNL     1      68.476  -6.776  76.854  1.00  0.00     0.011 C 
HETATM   36  C21 UNL     1      70.492  -6.975  76.618  1.00  0.00     0.011 C 
HETATM   37  C20 UNL     1      69.388  -6.831  75.602  1.00  0.00     0.010 C 
ENDBRANCH  10  32
TORSDOF 7
ENDMDL
MODEL 3
REMARK VINA RESULT: -8.471176620      2.278      7.132
REMARK  7 active torsions:
REMARK  status: ('A' for Active; 'I' for Inactive)
REMARK    1  A    between atoms: C3_5  and  N2_6 
REMARK    2  A    between atoms: N2_6  and  C4_7 
REMARK    3  A    between atoms: N2_6  and  C11_14 
REMARK    4  A    between atoms: C4_7  and  C5_8 
REMARK    5  A    between atoms: C5_8  and  C6_9 
REMARK    6  A    between atoms: C7_10  and  C8_11 
REMARK    7  A    between atoms: N5_23  and  C16_24 
ROOT
HETATM    1  C11 UNL     1      70.198  -4.557  71.046  1.00  0.00     0.701 A 
HETATM    2  N3  UNL     1      70.441  -5.847  71.395  1.00  0.00    -0.193 N 
ATOM      3  H3  UNL     1      71.242  -6.056  71.990  1.00  0.00     0.184 HD
HETATM    4  C12 UNL     1      69.658  -6.852  70.979  1.00  0.00     0.053 A 
HETATM    5  C13 UNL     1      69.949  -8.251  71.372  1.00  0.00     0.071 C 
HETATM    6  C14 UNL     1      68.576  -6.521  70.168  1.00  0.00     0.101 A 
HETATM    7  N4  UNL     1      67.631  -7.259  69.602  1.00  0.00    -0.348 N 
ATOM      8  H4  UNL     1      67.542  -8.272  69.679  1.00  0.00     0.167 HD
HETATM    9  C15 UNL     1      66.808  -6.448  68.908  1.00  0.00     0.185 A 
HETATM   10  N5  UNL     1      67.211  -5.172  69.018  1.00  0.00    -0.322 N 
HETATM   11  C22 UNL     1      68.325  -5.215  69.811  1.00  0.00     0.153 A 
HETATM   12  N6  UNL     1      69.165  -4.258  70.274  1.00  0.00    -0.173 N 
ATOM     13  H6  UNL     1      68.997  -3.283  70.022  1.00  0.00     0.186 HD
ENDROOT
BRANCH   1  14
HETATM   14  N2  UNL     1      71.106  -3.571  71.557  1.00  0.00    -0.013 N 
BRANCH  14  15
HETATM   15  C3  UNL     1      71.711  -2.721  70.592  1.00  0.00     0.699 A 
HETATM   16  N1  UNL     1      72.213  -1.512  70.906  1.00  0.00    -0.192 N 
HETATM   17  C2  UNL     1      72.787  -0.679  70.023  1.00  0.00     0.062 A 
ATOM     18  H1  UNL     1      72.153  -1.209  71.879  1.00  0.00     0.184 HD
HETATM   19  C1  UNL     1      73.302   0.609  70.522  1.00  0.00     0.072 C 
HETATM   20  C24 UNL     1      72.875  -1.069  68.705  1.00  0.00     0.154 A 
HETATM   21  C23 UNL     1      72.366  -2.299  68.374  1.00  0.00     0.150 A 
HETATM   22  F1  UNL     1      73.454  -0.229  67.815  1.00  0.00    -0.203 F 
HETATM   23  N7  UNL     1      71.802  -3.098  69.290  1.00  0.00    -0.198 N 
ATOM     24  H7  UNL     1      71.435  -4.005  69.005  1.00  0.00     0.183 HD
ENDBRANCH  14  15
BRANCH  14  25
HETATM   25  C4  UNL     1      71.327  -3.519  72.972  1.00  0.00     0.179 C 
BRANCH  25  26
HETATM   26  C5  UNL     1      70.058  -3.236  73.760  1.00  0.00     0.115 C 
BRANCH  26  27
HETATM   27  C6  UNL     1      69.914  -4.371  74.700  1.00  0.00    -0.105 C 
HETATM   28  C7  UNL     1      69.808  -5.315  75.439  1.00  0.00    -0.102 C 
BRANCH  28  29
HETATM   29  C8  UNL     1      69.697  -6.477  76.312  1.00  0.00     0.065 A 
HETATM   30  C9  UNL     1      68.414  -6.647  77.095  1.00  0.00     0.018 A 
HETATM   31  C10 UNL     1      68.752  -7.586  75.997  1.00  0.00     0.018 A 
ENDBRANCH  28  29
ENDBRANCH  26  27
ENDBRANCH  25  26
ENDBRANCH  14  25
ENDBRANCH   1  14
BRANCH  10  32
HETATM   32  C16 UNL     1      66.691  -3.965  68.490  1.00  0.00     0.097 C 
HETATM   33  C17 UNL     1      67.737  -2.979  67.978  1.00  0.00     0.031 C 
HETATM   34  C18 UNL     1      66.992  -2.472  66.769  1.00  0.00    -0.012 C 
HETATM   35  C19 UNL     1      65.511  -2.577  67.090  1.00  0.00     0.011 C 
HETATM   36  C21 UNL     1      66.759  -3.816  66.060  1.00  0.00     0.011 C 
HETATM   37  C20 UNL     1      65.863  -4.078  67.243  1.00  0.00     0.010 C 
ENDBRANCH  10  32
TORSDOF 7
ENDMDL
MODEL 4
REMARK VINA RESULT: -8.397965256      1.491      2.446
REMARK  7 active torsions:
REMARK  status: ('A' for Active; 'I' for Inactive)
REMARK    1  A    between atoms: C3_5  and  N2_6 
REMARK    2  A    between atoms: N2_6  and  C4_7 
REMARK    3  A    between atoms: N2_6  and  C11_14 
REMARK    4  A    between atoms: C4_7  and  C5_8 
REMARK    5  A    between atoms: C5_8  and  C6_9 
REMARK    6  A    between atoms: C7_10  and  C8_11 
REMARK    7  A    between atoms: N5_23  and  C16_24 
ROOT
HETATM    1  C11 UNL     1      69.518  -5.607  71.148  1.00  0.00     0.701 A 
HETATM    2  N3  UNL     1      69.994  -6.488  70.230  1.00  0.00    -0.193 N 
ATOM      3  H3  UNL     1      70.136  -6.175  69.271  1.00  0.00     0.184 HD
HETATM    4  C12 UNL     1      70.281  -7.757  70.550  1.00  0.00     0.053 A 
HETATM    5  C13 UNL     1      70.795  -8.698  69.528  1.00  0.00     0.071 C 
HETATM    6  C14 UNL     1      70.073  -8.142  71.872  1.00  0.00     0.101 A 
HETATM    7  N4  UNL     1      70.252  -9.295  72.501  1.00  0.00    -0.348 N 
ATOM      8  H4  UNL     1      70.603 -10.154  72.078  1.00  0.00     0.167 HD
HETATM    9  C15 UNL     1      69.896  -9.143  73.792  1.00  0.00     0.185 A 
HETATM   10  N5  UNL     1      69.481  -7.886  74.014  1.00  0.00    -0.322 N 
HETATM   11  C22 UNL     1      69.590  -7.253  72.807  1.00  0.00     0.153 A 
HETATM   12  N6  UNL     1      69.324  -5.988  72.401  1.00  0.00    -0.173 N 
ATOM     13  H6  UNL     1      68.967  -5.313  73.077  1.00  0.00     0.186 HD
ENDROOT
BRANCH   1  14
HETATM   14  N2  UNL     1      69.252  -4.276  70.683  1.00  0.00    -0.013 N 
BRANCH  14  15
HETATM   15  C3  UNL     1      68.265  -4.157  69.667  1.00  0.00     0.699 A 
HETATM   16  N1  UNL     1      68.259  -3.146  68.779  1.00  0.00    -0.192 N 
HETATM   17  C2  UNL     1      67.343  -2.996  67.809  1.00  0.00     0.062 A 
ATOM     18  H1  UNL     1      69.000  -2.447  68.848  1.00  0.00     0.184 HD
HETATM   19  C1  UNL     1      67.478  -1.841  66.903  1.00  0.00     0.072 C 
HETATM   20  C24 UNL     1      66.334  -3.928  67.702  1.00  0.00     0.154 A 
HETATM   21  C23 UNL     1      66.330  -4.962  68.603  1.00  0.00     0.150 A 
HETATM   22  F1  UNL     1      65.409  -3.776  66.724  1.00  0.00    -0.203 F 
HETATM   23  N7  UNL     1      67.266  -5.071  69.554  1.00  0.00    -0.198 N 
ATOM     24  H7  UNL     1      67.229  -5.855  70.205  1.00  0.00     0.183 HD
ENDBRANCH  14  15
BRANCH  14  25
HETATM   25  C4  UNL     1      69.984  -3.192  71.267  1.00  0.00     0.179 C 
BRANCH  25  26
HETATM   26  C5  UNL     1      71.464  -3.222  70.921  1.00  0.00     0.115 C 
BRANCH  26  27
HETATM   27  C6  UNL     1      72.171  -3.382  72.212  1.00  0.00    -0.105 C 
HETATM   28  C7  UNL     1      72.771  -3.526  73.245  1.00  0.00    -0.102 C 
BRANCH  28  29
HETATM   29  C8  UNL     1      73.527  -3.709  74.478  1.00  0.00     0.065 A 
HETATM   30  C9  UNL     1      72.745  -3.876  75.762  1.00  0.00     0.018 A 
HETATM   31  C10 UNL     1      73.513  -5.013  75.200  1.00  0.00     0.018 A 
ENDBRANCH  28  29
ENDBRANCH  26  27
ENDBRANCH  25  26
ENDBRANCH  14  25
ENDBRANCH   1  14
BRANCH  10  32
HETATM   32  C16 UNL     1      69.016  -7.235  75.182  1.00  0.00     0.097 C 
HETATM   33  C17 UNL     1      68.674  -8.159  76.348  1.00  0.00     0.031 C 
HETATM   34  C18 UNL     1      69.188  -7.298  77.473  1.00  0.00    -0.012 C 
HETATM   35  C19 UNL     1      69.052  -5.854  77.019  1.00  0.00     0.011 C 
HETATM   36  C21 UNL     1      70.641  -7.132  76.994  1.00  0.00     0.011 C 
HETATM   37  C20 UNL     1      69.993  -6.339  75.888  1.00  0.00     0.010 C 
ENDBRANCH  10  32
TORSDOF 7
ENDMDL
MODEL 5
REMARK VINA RESULT: -8.351163029      2.441      6.135
REMARK  7 active torsions:
REMARK  status: ('A' for Active; 'I' for Inactive)
REMARK    1  A    between atoms: C3_5  and  N2_6 
REMARK    2  A    between atoms: N2_6  and  C4_7 
REMARK    3  A    between atoms: N2_6  and  C11_14 
REMARK    4  A    between atoms: C4_7  and  C5_8 
REMARK    5  A    between atoms: C5_8  and  C6_9 
REMARK    6  A    between atoms: C7_10  and  C8_11 
REMARK    7  A    between atoms: N5_23  and  C16_24 
ROOT
HETATM    1  C11 UNL     1      70.230  -3.993  70.822  1.00  0.00     0.701 A 
HETATM    2  N3  UNL     1      69.334  -3.280  70.093  1.00  0.00    -0.193 N 
ATOM      3  H3  UNL     1      69.462  -2.273  69.998  1.00  0.00     0.184 HD
HETATM    4  C12 UNL     1      68.286  -3.862  69.495  1.00  0.00     0.053 A 
HETATM    5  C13 UNL     1      67.319  -3.060  68.708  1.00  0.00     0.071 C 
HETATM    6  C14 UNL     1      68.149  -5.239  69.650  1.00  0.00     0.101 A 
HETATM    7  N4  UNL     1      67.247  -6.100  69.199  1.00  0.00    -0.348 N 
ATOM      8  H4  UNL     1      66.443  -5.867  68.617  1.00  0.00     0.167 HD
HETATM    9  C15 UNL     1      67.570  -7.333  69.637  1.00  0.00     0.185 A 
HETATM   10  N5  UNL     1      68.688  -7.285  70.378  1.00  0.00    -0.322 N 
HETATM   11  C22 UNL     1      69.055  -5.967  70.389  1.00  0.00     0.153 A 
HETATM   12  N6  UNL     1      70.087  -5.302  70.961  1.00  0.00    -0.173 N 
ATOM     13  H6  UNL     1      70.771  -5.822  71.512  1.00  0.00     0.186 HD
ENDROOT
BRANCH   1  14
HETATM   14  N2  UNL     1      71.311  -3.256  71.410  1.00  0.00    -0.013 N 
BRANCH  14  15
HETATM   15  C3  UNL     1      72.082  -2.463  70.518  1.00  0.00     0.699 A 
HETATM   16  N1  UNL     1      72.410  -1.184  70.785  1.00  0.00    -0.192 N 
HETATM   17  C2  UNL     1      73.132  -0.402  69.966  1.00  0.00     0.062 A 
ATOM     18  H1  UNL     1      72.088  -0.784  71.667  1.00  0.00     0.184 HD
HETATM   19  C1  UNL     1      73.422   0.976  70.404  1.00  0.00     0.072 C 
HETATM   20  C24 UNL     1      73.574  -0.924  68.770  1.00  0.00     0.154 A 
HETATM   21  C23 UNL     1      73.244  -2.225  68.488  1.00  0.00     0.150 A 
HETATM   22  F1  UNL     1      74.301  -0.135  67.945  1.00  0.00    -0.203 F 
HETATM   23  N7  UNL     1      72.522  -2.968  69.336  1.00  0.00    -0.198 N 
ATOM     24  H7  UNL     1      72.297  -3.933  69.091  1.00  0.00     0.183 HD
ENDBRANCH  14  15
BRANCH  14  25
HETATM   25  C4  UNL     1      71.525  -3.371  72.823  1.00  0.00     0.179 C 
BRANCH  25  26
HETATM   26  C5  UNL     1      70.264  -3.119  73.635  1.00  0.00     0.115 C 
BRANCH  26  27
HETATM   27  C6  UNL     1      70.118  -4.300  74.516  1.00  0.00    -0.105 C 
HETATM   28  C7  UNL     1      70.010  -5.242  75.257  1.00  0.00    -0.102 C 
BRANCH  28  29
HETATM   29  C8  UNL     1      69.885  -6.362  76.183  1.00  0.00     0.065 A 
HETATM   30  C9  UNL     1      68.646  -6.422  77.049  1.00  0.00     0.018 A 
HETATM   31  C10 UNL     1      68.858  -7.420  75.972  1.00  0.00     0.018 A 
ENDBRANCH  28  29
ENDBRANCH  26  27
ENDBRANCH  25  26
ENDBRANCH  14  25
ENDBRANCH   1  14
BRANCH  10  32
HETATM   32  C16 UNL     1      69.426  -8.292  71.047  1.00  0.00     0.097 C 
HETATM   33  C17 UNL     1      70.824  -8.547  70.493  1.00  0.00     0.031 C 
HETATM   34  C18 UNL     1      71.542  -8.779  71.798  1.00  0.00    -0.012 C 
HETATM   35  C19 UNL     1      70.521  -9.356  72.764  1.00  0.00     0.011 C 
HETATM   36  C21 UNL     1      71.196  -7.451  72.493  1.00  0.00     0.011 C 
HETATM   37  C20 UNL     1      69.799  -8.016  72.475  1.00  0.00     0.010 C 
ENDBRANCH  10  32
TORSDOF 7
ENDMDL
