MODEL 1
REMARK VINA RESULT: -7.574257731      0.000      0.000
REMARK  5 active torsions:
REMARK  status: ('A' for Active; 'I' for Inactive)
REMARK    1  A    between atoms: O1_2  and  C2_3 
REMARK    2  A    between atoms: C4_5  and  O2_6 
REMARK    3  A    between atoms: C6_8  and  C7_9 
REMARK    4  A    between atoms: C8_11  and  C9_12 
REMARK    5  A    between atoms: C15_19  and  N1_20 
ROOT
HETATM    1  C7  UNL     1      70.062  -4.759  72.049  1.00  0.00     0.165 C 
HETATM    2  O3  UNL     1      68.722  -5.075  71.757  1.00  0.00    -0.370 OA
HETATM    3  C8  UNL     1      68.760  -3.976  70.862  1.00  0.00     0.180 C 
HETATM    4  C15 UNL     1      70.206  -4.308  70.635  1.00  0.00     0.147 C 
ENDROOT
BRANCH   1   5
HETATM    5  C6  UNL     1      70.906  -5.876  72.529  1.00  0.00     0.119 C 
HETATM    6  C4  UNL     1      70.274  -7.170  72.804  1.00  0.00     0.141 C 
HETATM    7  C3  UNL     1      69.223  -7.299  73.811  1.00  0.00     0.077 C 
HETATM    8  C2  UNL     1      69.744  -7.581  75.225  1.00  0.00     0.196 C 
HETATM    9  S3  UNL     1      69.543  -6.088  76.249  1.00  0.00    -0.054 SA
HETATM   10  S2  UNL     1      70.517  -4.412  75.325  1.00  0.00    -0.022 SA
HETATM   11  S1  UNL     1      71.909  -5.239  73.910  1.00  0.00    -0.076 SA
BRANCH   6  12
HETATM   12  O2  UNL     1      71.309  -8.069  73.155  1.00  0.00    -0.389 OA
HETATM   13  C5  UNL     1      71.692  -8.879  72.110  1.00  0.00     0.202 C 
ENDBRANCH   6  12
BRANCH   8  14
HETATM   14  O1  UNL     1      69.064  -8.601  75.845  1.00  0.00    -0.380 OA
HETATM   15  C1  UNL     1      69.498  -9.863  75.430  1.00  0.00     0.203 C 
ENDBRANCH   8  14
ENDBRANCH   1   5
BRANCH   4  16
HETATM   16  N1  UNL     1      71.012  -3.251  70.279  1.00  0.00    -0.383 N 
HETATM   17  C16 UNL     1      71.716  -2.456  71.176  1.00  0.00     0.059 C 
HETATM   18  C17 UNL     1      73.164  -2.537  70.728  1.00  0.00     0.046 C 
HETATM   19  C18 UNL     1      73.021  -2.585  69.223  1.00  0.00     0.025 C 
HETATM   20  C19 UNL     1      71.670  -3.241  69.024  1.00  0.00     0.123 C 
ENDBRANCH   4  16
BRANCH   3  21
HETATM   21  C9  UNL     1      67.872  -4.148  69.694  1.00  0.00    -0.027 A 
HETATM   22  C10 UNL     1      67.675  -3.085  68.844  1.00  0.00     0.013 A 
HETATM   23  C11 UNL     1      66.841  -3.241  67.744  1.00  0.00     0.043 A 
HETATM   24  C12 UNL     1      66.195  -4.431  67.469  1.00  0.00     0.116 A 
HETATM   25  F1  UNL     1      65.380  -4.570  66.388  1.00  0.00    -0.206 F 
HETATM   26  C13 UNL     1      66.407  -5.483  68.336  1.00  0.00     0.043 A 
HETATM   27  C14 UNL     1      67.237  -5.345  69.439  1.00  0.00     0.013 A 
ENDBRANCH   3  21
TORSDOF 5
ENDMDL
MODEL 2
REMARK VINA RESULT: -7.028763534      0.861      1.253
REMARK  5 active torsions:
REMARK  status: ('A' for Active; 'I' for Inactive)
REMARK    1  A    between atoms: O1_2  and  C2_3 
REMARK    2  A    between atoms: C4_5  and  O2_6 
REMARK    3  A    between atoms: C6_8  and  C7_9 
REMARK    4  A    between atoms: C8_11  and  C9_12 
REMARK    5  A    between atoms: C15_19  and  N1_20 
ROOT
HETATM    1  C7  UNL     1      70.495  -4.533  72.463  1.00  0.00     0.165 C 
HETATM    2  O3  UNL     1      69.149  -4.906  72.282  1.00  0.00    -0.370 OA
HETATM    3  C8  UNL     1      69.120  -3.931  71.253  1.00  0.00     0.180 C 
HETATM    4  C15 UNL     1      70.560  -4.266  70.998  1.00  0.00     0.147 C 
ENDROOT
BRANCH   1   5
HETATM    5  C6  UNL     1      71.385  -5.565  73.038  1.00  0.00     0.119 C 
HETATM    6  C4  UNL     1      70.800  -6.833  73.487  1.00  0.00     0.141 C 
HETATM    7  C3  UNL     1      69.788  -6.867  74.540  1.00  0.00     0.077 C 
HETATM    8  C2  UNL     1      70.364  -6.968  75.957  1.00  0.00     0.196 C 
HETATM    9  S3  UNL     1      70.156  -5.369  76.806  1.00  0.00    -0.054 SA
HETATM   10  S2  UNL     1      71.050  -3.791  75.657  1.00  0.00    -0.022 SA
HETATM   11  S1  UNL     1      72.416  -4.745  74.297  1.00  0.00    -0.076 SA
BRANCH   6  12
HETATM   12  O2  UNL     1      71.872  -7.658  73.902  1.00  0.00    -0.389 OA
HETATM   13  C5  UNL     1      72.239  -8.579  72.947  1.00  0.00     0.202 C 
ENDBRANCH   6  12
BRANCH   8  14
HETATM   14  O1  UNL     1      69.735  -7.924  76.717  1.00  0.00    -0.380 OA
HETATM   15  C1  UNL     1      70.535  -9.049  76.930  1.00  0.00     0.203 C 
ENDBRANCH   8  14
ENDBRANCH   1   5
BRANCH   4  16
HETATM   16  N1  UNL     1      71.325  -3.250  70.470  1.00  0.00    -0.383 N 
HETATM   17  C16 UNL     1      72.206  -2.461  71.200  1.00  0.00     0.059 C 
HETATM   18  C17 UNL     1      73.545  -2.610  70.502  1.00  0.00     0.046 C 
HETATM   19  C18 UNL     1      73.131  -2.689  69.049  1.00  0.00     0.025 C 
HETATM   20  C19 UNL     1      71.745  -3.296  69.117  1.00  0.00     0.123 C 
ENDBRANCH   4  16
BRANCH   3  21
HETATM   21  C9  UNL     1      68.182  -4.266  70.162  1.00  0.00    -0.027 A 
HETATM   22  C10 UNL     1      67.822  -5.580  69.971  1.00  0.00     0.013 A 
HETATM   23  C11 UNL     1      66.940  -5.900  68.946  1.00  0.00     0.043 A 
HETATM   24  C12 UNL     1      66.407  -4.943  68.104  1.00  0.00     0.116 A 
HETATM   25  F1  UNL     1      65.544  -5.271  67.104  1.00  0.00    -0.206 F 
HETATM   26  C13 UNL     1      66.783  -3.632  68.313  1.00  0.00     0.043 A 
HETATM   27  C14 UNL     1      67.663  -3.294  69.332  1.00  0.00     0.013 A 
ENDBRANCH   3  21
TORSDOF 5
ENDMDL
MODEL 3
REMARK VINA RESULT: -6.936057434      1.514      1.827
REMARK  5 active torsions:
REMARK  status: ('A' for Active; 'I' for Inactive)
REMARK    1  A    between atoms: O1_2  and  C2_3 
REMARK    2  A    between atoms: C4_5  and  O2_6 
REMARK    3  A    between atoms: C6_8  and  C7_9 
REMARK    4  A    between atoms: C8_11  and  C9_12 
REMARK    5  A    between atoms: C15_19  and  N1_20 
ROOT
HETATM    1  C7  UNL     1      69.539  -6.423  72.541  1.00  0.00     0.165 C 
HETATM    2  O3  UNL     1      68.383  -6.886  71.884  1.00  0.00    -0.370 OA
HETATM    3  C8  UNL     1      68.142  -5.526  71.562  1.00  0.00     0.180 C 
HETATM    4  C15 UNL     1      69.631  -5.353  71.507  1.00  0.00     0.147 C 
ENDROOT
BRANCH   1   5
HETATM    5  C6  UNL     1      70.651  -7.392  72.663  1.00  0.00     0.119 C 
HETATM    6  C4  UNL     1      70.335  -8.798  72.933  1.00  0.00     0.141 C 
HETATM    7  C3  UNL     1      69.624  -9.193  74.147  1.00  0.00     0.077 C 
HETATM    8  C2  UNL     1      70.540  -9.472  75.345  1.00  0.00     0.196 C 
HETATM    9  S3  UNL     1      70.376  -8.119  76.553  1.00  0.00    -0.054 SA
HETATM   10  S2  UNL     1      70.782  -6.228  75.620  1.00  0.00    -0.022 SA
HETATM   11  S1  UNL     1      71.865  -6.676  73.817  1.00  0.00    -0.076 SA
BRANCH   6  12
HETATM   12  O2  UNL     1      71.559  -9.508  72.908  1.00  0.00    -0.389 OA
HETATM   13  C5  UNL     1      71.446 -10.752  72.331  1.00  0.00     0.202 C 
ENDBRANCH   6  12
BRANCH   8  14
HETATM   14  O1  UNL     1      70.225 -10.643  75.990  1.00  0.00    -0.380 OA
HETATM   15  C1  UNL     1      69.221 -11.361  75.337  1.00  0.00     0.203 C 
ENDBRANCH   8  14
ENDBRANCH   1   5
BRANCH   4  16
HETATM   16  N1  UNL     1      70.096  -4.090  71.797  1.00  0.00    -0.383 N 
HETATM   17  C16 UNL     1      70.167  -3.546  73.074  1.00  0.00     0.059 C 
HETATM   18  C17 UNL     1      71.618  -3.139  73.253  1.00  0.00     0.046 C 
HETATM   19  C18 UNL     1      71.980  -2.661  71.864  1.00  0.00     0.025 C 
HETATM   20  C19 UNL     1      71.069  -3.476  70.969  1.00  0.00     0.123 C 
ENDBRANCH   4  16
BRANCH   3  21
HETATM   21  C9  UNL     1      67.429  -5.351  70.279  1.00  0.00    -0.027 A 
HETATM   22  C10 UNL     1      67.072  -4.084  69.882  1.00  0.00     0.013 A 
HETATM   23  C11 UNL     1      66.402  -3.914  68.677  1.00  0.00     0.043 A 
HETATM   24  C12 UNL     1      66.075  -4.977  67.856  1.00  0.00     0.116 A 
HETATM   25  F1  UNL     1      65.418  -4.796  66.679  1.00  0.00    -0.206 F 
HETATM   26  C13 UNL     1      66.443  -6.239  68.276  1.00  0.00     0.043 A 
HETATM   27  C14 UNL     1      67.113  -6.427  69.477  1.00  0.00     0.013 A 
ENDBRANCH   3  21
TORSDOF 5
ENDMDL
MODEL 4
REMARK VINA RESULT: -6.829869411      0.989      1.035
REMARK  5 active torsions:
REMARK  status: ('A' for Active; 'I' for Inactive)
REMARK    1  A    between atoms: O1_2  and  C2_3 
REMARK    2  A    between atoms: C4_5  and  O2_6 
REMARK    3  A    between atoms: C6_8  and  C7_9 
REMARK    4  A    between atoms: C8_11  and  C9_12 
REMARK    5  A    between atoms: C15_19  and  N1_20 
ROOT
HETATM    1  C7  UNL     1      70.270  -5.193  72.899  1.00  0.00     0.165 C 
HETATM    2  O3  UNL     1      68.972  -5.639  72.586  1.00  0.00    -0.370 OA
HETATM    3  C8  UNL     1      68.898  -4.513  71.728  1.00  0.00     0.180 C 
HETATM    4  C15 UNL     1      70.371  -4.683  71.502  1.00  0.00     0.147 C 
ENDROOT
BRANCH   1   5
HETATM    5  C6  UNL     1      71.225  -6.231  73.348  1.00  0.00     0.119 C 
HETATM    6  C4  UNL     1      70.779  -7.626  73.399  1.00  0.00     0.141 C 
HETATM    7  C3  UNL     1      69.664  -8.032  74.252  1.00  0.00     0.077 C 
HETATM    8  C2  UNL     1      70.076  -8.417  75.678  1.00  0.00     0.196 C 
HETATM    9  S3  UNL     1      69.541  -7.113  76.831  1.00  0.00    -0.054 SA
HETATM   10  S2  UNL     1      70.329  -5.210  76.224  1.00  0.00    -0.022 SA
HETATM   11  S1  UNL     1      71.970  -5.640  74.902  1.00  0.00    -0.076 SA
BRANCH   6  12
HETATM   12  O2  UNL     1      71.901  -8.405  73.769  1.00  0.00    -0.389 OA
HETATM   13  C5  UNL     1      72.357  -9.207  72.747  1.00  0.00     0.202 C 
ENDBRANCH   6  12
BRANCH   8  14
HETATM   14  O1  UNL     1      69.505  -9.596  76.094  1.00  0.00    -0.380 OA
HETATM   15  C1  UNL     1      69.900 -10.686  75.314  1.00  0.00     0.203 C 
ENDBRANCH   8  14
ENDBRANCH   1   5
BRANCH   4  16
HETATM   16  N1  UNL     1      71.063  -3.535  71.187  1.00  0.00    -0.383 N 
HETATM   17  C16 UNL     1      71.767  -2.760  72.102  1.00  0.00     0.059 C 
HETATM   18  C17 UNL     1      73.179  -2.680  71.552  1.00  0.00     0.046 C 
HETATM   19  C18 UNL     1      72.929  -2.615  70.061  1.00  0.00     0.025 C 
HETATM   20  C19 UNL     1      71.622  -3.365  69.897  1.00  0.00     0.123 C 
ENDBRANCH   4  16
BRANCH   3  21
HETATM   21  C9  UNL     1      68.038  -4.738  70.548  1.00  0.00    -0.027 A 
HETATM   22  C10 UNL     1      67.413  -3.662  69.963  1.00  0.00     0.013 A 
HETATM   23  C11 UNL     1      66.604  -3.868  68.853  1.00  0.00     0.043 A 
HETATM   24  C12 UNL     1      66.399  -5.122  68.310  1.00  0.00     0.116 A 
HETATM   25  F1  UNL     1      65.603  -5.310  67.222  1.00  0.00    -0.206 F 
HETATM   26  C13 UNL     1      67.035  -6.187  68.914  1.00  0.00     0.043 A 
HETATM   27  C14 UNL     1      67.848  -5.999  70.023  1.00  0.00     0.013 A 
ENDBRANCH   3  21
TORSDOF 5
ENDMDL
MODEL 5
REMARK VINA RESULT: -6.748929544      1.316      1.733
REMARK  5 active torsions:
REMARK  status: ('A' for Active; 'I' for Inactive)
REMARK    1  A    between atoms: O1_2  and  C2_3 
REMARK    2  A    between atoms: C4_5  and  O2_6 
REMARK    3  A    between atoms: C6_8  and  C7_9 
REMARK    4  A    between atoms: C8_11  and  C9_12 
REMARK    5  A    between atoms: C15_19  and  N1_20 
ROOT
HETATM    1  C7  UNL     1      69.699  -6.012  72.658  1.00  0.00     0.165 C 
HETATM    2  O3  UNL     1      68.342  -6.058  72.286  1.00  0.00    -0.370 OA
HETATM    3  C8  UNL     1      68.639  -4.960  71.440  1.00  0.00     0.180 C 
HETATM    4  C15 UNL     1      70.006  -5.554  71.273  1.00  0.00     0.147 C 
ENDROOT
BRANCH   1   5
HETATM    5  C6  UNL     1      70.288  -7.284  73.133  1.00  0.00     0.119 C 
HETATM    6  C4  UNL     1      69.479  -8.162  73.984  1.00  0.00     0.141 C 
HETATM    7  C3  UNL     1      68.977  -7.707  75.279  1.00  0.00     0.077 C 
HETATM    8  C2  UNL     1      69.941  -7.951  76.445  1.00  0.00     0.196 C 
HETATM    9  S3  UNL     1      70.658  -6.363  76.975  1.00  0.00    -0.054 SA
HETATM   10  S2  UNL     1      71.595  -5.374  75.315  1.00  0.00    -0.022 SA
HETATM   11  S1  UNL     1      71.926  -6.892  73.828  1.00  0.00    -0.076 SA
BRANCH   6  12
HETATM   12  O2  UNL     1      70.242  -9.332  74.213  1.00  0.00    -0.389 OA
HETATM   13  C5  UNL     1      69.827 -10.400  73.451  1.00  0.00     0.202 C 
ENDBRANCH   6  12
BRANCH   8  14
HETATM   14  O1  UNL     1      69.322  -8.510  77.536  1.00  0.00    -0.380 OA
HETATM   15  C1  UNL     1      68.324  -7.687  78.064  1.00  0.00     0.203 C 
ENDBRANCH   8  14
ENDBRANCH   1   5
BRANCH   4  16
HETATM   16  N1  UNL     1      71.017  -4.659  71.003  1.00  0.00    -0.383 N 
HETATM   17  C16 UNL     1      71.448  -4.313  69.727  1.00  0.00     0.059 C 
HETATM   18  C17 UNL     1      71.321  -2.802  69.661  1.00  0.00     0.046 C 
HETATM   19  C18 UNL     1      71.703  -2.396  71.067  1.00  0.00     0.025 C 
HETATM   20  C19 UNL     1      71.292  -3.595  71.897  1.00  0.00     0.123 C 
ENDBRANCH   4  16
BRANCH   3  21
HETATM   21  C9  UNL     1      67.803  -4.923  70.222  1.00  0.00    -0.027 A 
HETATM   22  C10 UNL     1      67.588  -3.717  69.597  1.00  0.00     0.013 A 
HETATM   23  C11 UNL     1      66.803  -3.677  68.451  1.00  0.00     0.043 A 
HETATM   24  C12 UNL     1      66.224  -4.810  67.912  1.00  0.00     0.116 A 
HETATM   25  F1  UNL     1      65.457  -4.756  66.789  1.00  0.00    -0.206 F 
HETATM   26  C13 UNL     1      66.453  -6.008  68.556  1.00  0.00     0.043 A 
HETATM   27  C14 UNL     1      67.235  -6.067  69.702  1.00  0.00     0.013 A 
ENDBRANCH   3  21
TORSDOF 5
ENDMDL
