MODEL 1
REMARK VINA RESULT: -7.965690795      0.000      0.000
REMARK  7 active torsions:
REMARK  status: ('A' for Active; 'I' for Inactive)
REMARK    1  A    between atoms: C2_2  and  O2_4 
REMARK    2  A    between atoms: O2_4  and  C3_5 
REMARK    3  A    between atoms: C3_5  and  C4_6 
REMARK    4  A    between atoms: C4_6  and  O4_8 
REMARK    5  A    between atoms: O4_8  and  C5_9 
REMARK    6  A    between atoms: C5_9  and  C6_10 
REMARK    7  A    between atoms: C6_10  and  C8_12 
ROOT
HETATM    1  C5  UNL     1      68.872  -5.514  69.937  1.00  0.00     0.127 C 
HETATM    2  C12 UNL     1      70.121  -6.325  69.953  1.00  0.00     0.061 C 
HETATM    3  C13 UNL     1      70.273  -7.218  71.070  1.00  0.00    -0.025 C 
HETATM    4  C14 UNL     1      70.698  -8.635  70.626  1.00  0.00     0.016 C 
HETATM    5  C15 UNL     1      71.346  -6.816  72.059  1.00  0.00     0.018 C 
HETATM    6  C16 UNL     1      70.959  -7.643  73.298  1.00  0.00     0.019 C 
HETATM    7  C17 UNL     1      71.728  -7.149  74.459  1.00  0.00     0.046 C 
HETATM    8  C18 UNL     1      70.949  -6.759  75.653  1.00  0.00     0.194 C 
HETATM    9  F1  UNL     1      71.511  -5.643  76.289  1.00  0.00    -0.247 F 
HETATM   10  C19 UNL     1      69.512  -6.401  75.375  1.00  0.00     0.205 C 
HETATM   11  O5  UNL     1      69.295  -6.160  74.012  1.00  0.00    -0.382 OA
HETATM   12  C20 UNL     1      69.477  -7.381  73.367  1.00  0.00     0.140 C 
HETATM   13  C21 UNL     1      69.062  -7.351  71.917  1.00  0.00     0.088 C 
HETATM   14  S2  UNL     1      68.059  -5.881  71.508  1.00  0.00    -0.122 SA
ENDROOT
BRANCH   1  15
HETATM   15  O4  UNL     1      68.081  -5.780  68.808  1.00  0.00    -0.296 OA
BRANCH  15  16
HETATM   16  C4  UNL     1      66.758  -5.917  68.662  1.00  0.00     0.284 C 
HETATM   17  O3  UNL     1      66.242  -7.028  68.903  1.00  0.00    -0.263 OA
BRANCH  16  18
HETATM   18  C3  UNL     1      65.859  -4.799  68.224  1.00  0.00     0.289 C 
BRANCH  18  19
HETATM   19  O2  UNL     1      65.717  -4.800  66.814  1.00  0.00    -0.312 OA
BRANCH  19  20
HETATM   20  C2  UNL     1      66.500  -3.905  66.110  1.00  0.00     0.255 C 
HETATM   21  C1  UNL     1      66.837  -2.548  66.669  1.00  0.00     0.126 C 
HETATM   22  O1  UNL     1      66.952  -4.206  64.973  1.00  0.00    -0.266 OA
ENDBRANCH  19  20
ENDBRANCH  18  19
ENDBRANCH  16  18
ENDBRANCH  15  16
ENDBRANCH   1  15
BRANCH   1  23
HETATM   23  C6  UNL     1      69.137  -4.020  69.809  1.00  0.00     0.067 C 
HETATM   24  C7  UNL     1      68.002  -3.328  70.533  1.00  0.00     0.019 C 
BRANCH  23  25
HETATM   25  C8  UNL     1      70.456  -3.581  70.313  1.00  0.00    -0.010 A 
HETATM   26  C9  UNL     1      70.862  -3.348  71.602  1.00  0.00     0.015 A 
HETATM   27  C10 UNL     1      72.117  -2.953  71.808  1.00  0.00     0.008 A 
HETATM   28  C11 UNL     1      72.928  -2.805  70.712  1.00  0.00     0.050 A 
HETATM   29  S1  UNL     1      71.897  -3.226  69.423  1.00  0.00    -0.106 SA
ENDBRANCH  23  25
ENDBRANCH   1  23
TORSDOF 7
ENDMDL
MODEL 2
REMARK VINA RESULT: -7.838100866      1.601      1.803
REMARK  7 active torsions:
REMARK  status: ('A' for Active; 'I' for Inactive)
REMARK    1  A    between atoms: C2_2  and  O2_4 
REMARK    2  A    between atoms: O2_4  and  C3_5 
REMARK    3  A    between atoms: C3_5  and  C4_6 
REMARK    4  A    between atoms: C4_6  and  O4_8 
REMARK    5  A    between atoms: O4_8  and  C5_9 
REMARK    6  A    between atoms: C5_9  and  C6_10 
REMARK    7  A    between atoms: C6_10  and  C8_12 
ROOT
HETATM    1  C5  UNL     1      69.284  -5.268  70.558  1.00  0.00     0.127 C 
HETATM    2  C12 UNL     1      70.388  -6.144  70.078  1.00  0.00     0.061 C 
HETATM    3  C13 UNL     1      70.373  -7.496  70.569  1.00  0.00    -0.025 C 
HETATM    4  C14 UNL     1      70.578  -8.526  69.437  1.00  0.00     0.016 C 
HETATM    5  C15 UNL     1      71.474  -7.823  71.555  1.00  0.00     0.018 C 
HETATM    6  C16 UNL     1      70.934  -9.103  72.218  1.00  0.00     0.019 C 
HETATM    7  C17 UNL     1      71.746  -9.397  73.417  1.00  0.00     0.046 C 
HETATM    8  C18 UNL     1      71.012  -9.567  74.689  1.00  0.00     0.194 C 
HETATM    9  F1  UNL     1      71.730  -9.035  75.770  1.00  0.00    -0.247 F 
HETATM   10  C19 UNL     1      69.656  -8.911  74.724  1.00  0.00     0.205 C 
HETATM   11  O5  UNL     1      69.510  -7.974  73.693  1.00  0.00    -0.382 OA
HETATM   12  C20 UNL     1      69.511  -8.700  72.504  1.00  0.00     0.140 C 
HETATM   13  C21 UNL     1      69.138  -7.867  71.303  1.00  0.00     0.088 C 
HETATM   14  S2  UNL     1      68.389  -6.267  71.767  1.00  0.00    -0.122 SA
ENDROOT
BRANCH   1  15
HETATM   15  O4  UNL     1      68.486  -4.795  69.504  1.00  0.00    -0.296 OA
BRANCH  15  16
HETATM   16  C4  UNL     1      67.157  -4.736  69.353  1.00  0.00     0.284 C 
HETATM   17  O3  UNL     1      66.501  -4.003  70.123  1.00  0.00    -0.263 OA
BRANCH  16  18
HETATM   18  C3  UNL     1      66.413  -5.505  68.303  1.00  0.00     0.289 C 
BRANCH  18  19
HETATM   19  O2  UNL     1      65.540  -4.649  67.586  1.00  0.00    -0.312 OA
BRANCH  19  20
HETATM   20  C2  UNL     1      66.084  -3.956  66.521  1.00  0.00     0.255 C 
HETATM   21  C1  UNL     1      66.622  -2.560  66.686  1.00  0.00     0.126 C 
HETATM   22  O1  UNL     1      66.142  -4.483  65.378  1.00  0.00    -0.266 OA
ENDBRANCH  19  20
ENDBRANCH  18  19
ENDBRANCH  16  18
ENDBRANCH  15  16
ENDBRANCH   1  15
BRANCH   1  23
HETATM   23  C6  UNL     1      69.785  -3.979  71.196  1.00  0.00     0.067 C 
HETATM   24  C7  UNL     1      69.823  -4.236  72.687  1.00  0.00     0.019 C 
BRANCH  23  25
HETATM   25  C8  UNL     1      71.090  -3.505  70.689  1.00  0.00    -0.010 A 
HETATM   26  C9  UNL     1      71.463  -3.185  69.409  1.00  0.00     0.015 A 
HETATM   27  C10 UNL     1      72.712  -2.777  69.198  1.00  0.00     0.008 A 
HETATM   28  C11 UNL     1      73.552  -2.702  70.279  1.00  0.00     0.050 A 
HETATM   29  S1  UNL     1      72.554  -3.209  71.564  1.00  0.00    -0.106 SA
ENDBRANCH  23  25
ENDBRANCH   1  23
TORSDOF 7
ENDMDL
MODEL 3
REMARK VINA RESULT: -7.750210002      2.047      2.564
REMARK  7 active torsions:
REMARK  status: ('A' for Active; 'I' for Inactive)
REMARK    1  A    between atoms: C2_2  and  O2_4 
REMARK    2  A    between atoms: O2_4  and  C3_5 
REMARK    3  A    between atoms: C3_5  and  C4_6 
REMARK    4  A    between atoms: C4_6  and  O4_8 
REMARK    5  A    between atoms: O4_8  and  C5_9 
REMARK    6  A    between atoms: C5_9  and  C6_10 
REMARK    7  A    between atoms: C6_10  and  C8_12 
ROOT
HETATM    1  C5  UNL     1      69.426  -5.604  72.043  1.00  0.00     0.127 C 
HETATM    2  C12 UNL     1      70.290  -6.280  71.036  1.00  0.00     0.061 C 
HETATM    3  C13 UNL     1      70.384  -7.710  71.149  1.00  0.00    -0.025 C 
HETATM    4  C14 UNL     1      70.183  -8.415  69.790  1.00  0.00     0.016 C 
HETATM    5  C15 UNL     1      71.729  -8.220  71.622  1.00  0.00     0.018 C 
HETATM    6  C16 UNL     1      71.383  -9.649  72.077  1.00  0.00     0.019 C 
HETATM    7  C17 UNL     1      72.522 -10.193  72.844  1.00  0.00     0.046 C 
HETATM    8  C18 UNL     1      72.225 -10.710  74.197  1.00  0.00     0.194 C 
HETATM    9  F1  UNL     1      73.266 -10.431  75.093  1.00  0.00    -0.247 F 
HETATM   10  C19 UNL     1      70.974 -10.149  74.822  1.00  0.00     0.205 C 
HETATM   11  O5  UNL     1      70.541  -8.992  74.160  1.00  0.00    -0.382 OA
HETATM   12  C20 UNL     1      70.139  -9.398  72.889  1.00  0.00     0.140 C 
HETATM   13  C21 UNL     1      69.434  -8.311  72.118  1.00  0.00     0.088 C 
HETATM   14  S2  UNL     1      68.927  -6.915  73.181  1.00  0.00    -0.122 SA
ENDROOT
BRANCH   1  15
HETATM   15  O4  UNL     1      68.353  -4.923  71.450  1.00  0.00    -0.296 OA
BRANCH  15  16
HETATM   16  C4  UNL     1      67.643  -5.174  70.343  1.00  0.00     0.284 C 
HETATM   17  O3  UNL     1      67.017  -6.252  70.267  1.00  0.00    -0.263 OA
BRANCH  16  18
HETATM   18  C3  UNL     1      67.560  -4.223  69.185  1.00  0.00     0.289 C 
BRANCH  18  19
HETATM   19  O2  UNL     1      66.216  -4.078  68.759  1.00  0.00    -0.312 OA
BRANCH  19  20
HETATM   20  C2  UNL     1      65.937  -4.429  67.451  1.00  0.00     0.255 C 
HETATM   21  C1  UNL     1      65.981  -3.414  66.340  1.00  0.00     0.126 C 
HETATM   22  O1  UNL     1      65.637  -5.617  67.158  1.00  0.00    -0.266 OA
ENDBRANCH  19  20
ENDBRANCH  18  19
ENDBRANCH  16  18
ENDBRANCH  15  16
ENDBRANCH   1  15
BRANCH   1  23
HETATM   23  C6  UNL     1      70.149  -4.493  72.793  1.00  0.00     0.067 C 
HETATM   24  C7  UNL     1      70.685  -5.122  74.061  1.00  0.00     0.019 C 
BRANCH  23  25
HETATM   25  C8  UNL     1      71.216  -3.820  72.022  1.00  0.00    -0.010 A 
HETATM   26  C9  UNL     1      72.522  -3.584  72.367  1.00  0.00     0.015 A 
HETATM   27  C10 UNL     1      73.302  -2.949  71.494  1.00  0.00     0.008 A 
HETATM   28  C11 UNL     1      72.747  -2.571  70.298  1.00  0.00     0.050 A 
HETATM   29  S1  UNL     1      71.140  -3.121  70.441  1.00  0.00    -0.106 SA
ENDBRANCH  23  25
ENDBRANCH   1  23
TORSDOF 7
ENDMDL
MODEL 4
REMARK VINA RESULT: -7.558871105      2.531      3.234
REMARK  7 active torsions:
REMARK  status: ('A' for Active; 'I' for Inactive)
REMARK    1  A    between atoms: C2_2  and  O2_4 
REMARK    2  A    between atoms: O2_4  and  C3_5 
REMARK    3  A    between atoms: C3_5  and  C4_6 
REMARK    4  A    between atoms: C4_6  and  O4_8 
REMARK    5  A    between atoms: O4_8  and  C5_9 
REMARK    6  A    between atoms: C5_9  and  C6_10 
REMARK    7  A    between atoms: C6_10  and  C8_12 
ROOT
HETATM    1  C5  UNL     1      69.963  -5.411  71.967  1.00  0.00     0.127 C 
HETATM    2  C12 UNL     1      70.539  -6.291  70.913  1.00  0.00     0.061 C 
HETATM    3  C13 UNL     1      70.383  -7.705  71.122  1.00  0.00    -0.025 C 
HETATM    4  C14 UNL     1      69.868  -8.427  69.858  1.00  0.00     0.016 C 
HETATM    5  C15 UNL     1      71.663  -8.440  71.457  1.00  0.00     0.018 C 
HETATM    6  C16 UNL     1      71.127  -9.751  72.061  1.00  0.00     0.019 C 
HETATM    7  C17 UNL     1      72.243 -10.464  72.715  1.00  0.00     0.046 C 
HETATM    8  C18 UNL     1      72.046 -10.845  74.130  1.00  0.00     0.194 C 
HETATM    9  F1  UNL     1      73.236 -10.726  74.863  1.00  0.00    -0.247 F 
HETATM   10  C19 UNL     1      71.020 -10.022  74.865  1.00  0.00     0.205 C 
HETATM   11  O5  UNL     1      70.719  -8.839  74.178  1.00  0.00    -0.382 OA
HETATM   12  C20 UNL     1      70.076  -9.224  73.003  1.00  0.00     0.140 C 
HETATM   13  C21 UNL     1      69.483  -8.061  72.247  1.00  0.00     0.088 C 
HETATM   14  S2  UNL     1      69.395  -6.542  73.256  1.00  0.00    -0.122 SA
ENDROOT
BRANCH   1  15
HETATM   15  O4  UNL     1      68.961  -4.567  71.465  1.00  0.00    -0.296 OA
BRANCH  15  16
HETATM   16  C4  UNL     1      67.918  -4.806  70.661  1.00  0.00     0.284 C 
HETATM   17  O3  UNL     1      67.137  -5.734  70.957  1.00  0.00    -0.263 OA
BRANCH  16  18
HETATM   18  C3  UNL     1      67.637  -4.011  69.420  1.00  0.00     0.289 C 
BRANCH  18  19
HETATM   19  O2  UNL     1      66.289  -4.180  69.018  1.00  0.00    -0.312 OA
BRANCH  19  20
HETATM   20  C2  UNL     1      66.054  -4.295  67.661  1.00  0.00     0.255 C 
HETATM   21  C1  UNL     1      66.314  -3.149  66.720  1.00  0.00     0.126 C 
HETATM   22  O1  UNL     1      65.613  -5.371  67.177  1.00  0.00    -0.266 OA
ENDBRANCH  19  20
ENDBRANCH  18  19
ENDBRANCH  16  18
ENDBRANCH  15  16
ENDBRANCH   1  15
BRANCH   1  23
HETATM   23  C6  UNL     1      70.976  -4.424  72.532  1.00  0.00     0.067 C 
HETATM   24  C7  UNL     1      70.960  -3.229  71.602  1.00  0.00     0.019 C 
BRANCH  23  25
HETATM   25  C8  UNL     1      70.737  -4.028  73.935  1.00  0.00    -0.010 A 
HETATM   26  C9  UNL     1      69.786  -3.186  74.454  1.00  0.00     0.015 A 
HETATM   27  C10 UNL     1      69.771  -2.983  75.769  1.00  0.00     0.008 A 
HETATM   28  C11 UNL     1      70.712  -3.632  76.528  1.00  0.00     0.050 A 
HETATM   29  S1  UNL     1      71.591  -4.510  75.362  1.00  0.00    -0.106 SA
ENDBRANCH  23  25
ENDBRANCH   1  23
TORSDOF 7
ENDMDL
MODEL 5
REMARK VINA RESULT: -7.442973317      2.343      4.599
REMARK  7 active torsions:
REMARK  status: ('A' for Active; 'I' for Inactive)
REMARK    1  A    between atoms: C2_2  and  O2_4 
REMARK    2  A    between atoms: O2_4  and  C3_5 
REMARK    3  A    between atoms: C3_5  and  C4_6 
REMARK    4  A    between atoms: C4_6  and  O4_8 
REMARK    5  A    between atoms: O4_8  and  C5_9 
REMARK    6  A    between atoms: C5_9  and  C6_10 
REMARK    7  A    between atoms: C6_10  and  C8_12 
ROOT
HETATM    1  C5  UNL     1      69.316  -5.736  71.400  1.00  0.00     0.127 C 
HETATM    2  C12 UNL     1      69.754  -5.367  72.775  1.00  0.00     0.061 C 
HETATM    3  C13 UNL     1      70.461  -4.120  72.893  1.00  0.00    -0.025 C 
HETATM    4  C14 UNL     1      69.918  -3.252  74.049  1.00  0.00     0.016 C 
HETATM    5  C15 UNL     1      71.935  -4.257  73.210  1.00  0.00     0.018 C 
HETATM    6  C16 UNL     1      72.472  -2.869  72.817  1.00  0.00     0.019 C 
HETATM    7  C17 UNL     1      73.948  -2.923  72.782  1.00  0.00     0.046 C 
HETATM    8  C18 UNL     1      74.599  -2.479  71.531  1.00  0.00     0.194 C 
HETATM    9  F1  UNL     1      75.731  -3.253  71.240  1.00  0.00    -0.247 F 
HETATM   10  C19 UNL     1      73.720  -2.545  70.309  1.00  0.00     0.205 C 
HETATM   11  O5  UNL     1      72.592  -3.346  70.528  1.00  0.00    -0.382 OA
HETATM   12  C20 UNL     1      71.817  -2.677  71.474  1.00  0.00     0.140 C 
HETATM   13  C21 UNL     1      70.453  -3.293  71.661  1.00  0.00     0.088 C 
HETATM   14  S2  UNL     1      70.026  -4.467  70.329  1.00  0.00    -0.122 SA
ENDROOT
BRANCH   1  15
HETATM   15  O4  UNL     1      67.921  -5.853  71.301  1.00  0.00    -0.296 OA
BRANCH  15  16
HETATM   16  C4  UNL     1      67.097  -5.791  70.248  1.00  0.00     0.284 C 
HETATM   17  O3  UNL     1      66.799  -6.851  69.659  1.00  0.00    -0.263 OA
BRANCH  16  18
HETATM   18  C3  UNL     1      66.508  -4.509  69.738  1.00  0.00     0.289 C 
BRANCH  18  19
HETATM   19  O2  UNL     1      67.051  -4.184  68.470  1.00  0.00    -0.312 OA
BRANCH  19  20
HETATM   20  C2  UNL     1      66.176  -4.190  67.399  1.00  0.00     0.255 C 
HETATM   21  C1  UNL     1      65.970  -2.966  66.548  1.00  0.00     0.126 C 
HETATM   22  O1  UNL     1      65.526  -5.231  67.110  1.00  0.00    -0.266 OA
ENDBRANCH  19  20
ENDBRANCH  18  19
ENDBRANCH  16  18
ENDBRANCH  15  16
ENDBRANCH   1  15
BRANCH   1  23
HETATM   23  C6  UNL     1      69.794  -7.120  70.978  1.00  0.00     0.067 C 
HETATM   24  C7  UNL     1      70.638  -6.912  69.740  1.00  0.00     0.019 C 
BRANCH  23  25
HETATM   25  C8  UNL     1      70.527  -7.865  72.022  1.00  0.00    -0.010 A 
HETATM   26  C9  UNL     1      71.861  -7.833  72.341  1.00  0.00     0.015 A 
HETATM   27  C10 UNL     1      72.292  -8.607  73.335  1.00  0.00     0.008 A 
HETATM   28  C11 UNL     1      71.371  -9.390  73.982  1.00  0.00     0.050 A 
HETATM   29  S1  UNL     1      69.923  -9.013  73.168  1.00  0.00    -0.106 SA
ENDBRANCH  23  25
ENDBRANCH   1  23
TORSDOF 7
ENDMDL
