MODEL 1
REMARK VINA RESULT: -8.321210906      0.000      0.000
REMARK  3 active torsions:
REMARK  status: ('A' for Active; 'I' for Inactive)
REMARK    1  A    between atoms: S1_2  and  N1_4 
REMARK    2  A    between atoms: S1_2  and  C11_21 
REMARK    3  A    between atoms: N1_4  and  C1_6 
ROOT
HETATM    1  C1  UNL     1      21.673   5.325  -5.036  1.00  0.00     0.159 A 
HETATM    2  N2  UNL     1      21.877   4.543  -3.974  1.00  0.00    -0.334 N 
ATOM      3  H2  UNL     1      22.651   4.723  -3.336  1.00  0.00     0.168 HD
HETATM    4  C2  UNL     1      21.058   3.534  -3.767  1.00  0.00     0.068 A 
HETATM    5  C3  UNL     1      21.075   2.581  -2.725  1.00  0.00     0.119 A 
HETATM    6  N3  UNL     1      20.184   1.600  -2.624  1.00  0.00    -0.363 N 
ATOM      7  H3  UNL     1      20.265   0.953  -1.840  1.00  0.00     0.165 HD
HETATM    8  C4  UNL     1      19.196   1.417  -3.489  1.00  0.00     0.043 A 
HETATM    9  C5  UNL     1      18.306   0.412  -3.362  1.00  0.00     0.030 A 
HETATM   10  C6  UNL     1      17.286   0.283  -4.318  1.00  0.00     0.002 A 
HETATM   11  C7  UNL     1      17.235   1.192  -5.351  1.00  0.00     0.001 A 
HETATM   12  C8  UNL     1      18.135   2.221  -5.493  1.00  0.00     0.015 A 
HETATM   13  C9  UNL     1      19.115   2.310  -4.536  1.00  0.00     0.010 A 
HETATM   14  C10 UNL     1      20.041   3.355  -4.666  1.00  0.00     0.049 A 
HETATM   15  S2  UNL     1      20.301   4.636  -5.765  1.00  0.00    -0.050 SA
ENDROOT
BRANCH   1  16
HETATM   16  N1  UNL     1      22.387   6.372  -5.393  1.00  0.00    -0.260 N 
ATOM     17  H1  UNL     1      23.331   6.241  -5.760  1.00  0.00     0.181 HD
BRANCH  16  18
HETATM   18  S1  UNL     1      21.738   7.964  -5.245  1.00  0.00     0.264 S 
HETATM   19  O1  UNL     1      20.636   7.897  -4.223  1.00  0.00    -0.200 OA
HETATM   20  O2  UNL     1      22.767   8.929  -4.723  1.00  0.00    -0.200 OA
BRANCH  18  21
HETATM   21  C11 UNL     1      21.187   8.505  -6.785  1.00  0.00     0.079 A 
HETATM   22  C12 UNL     1      20.768   9.800  -6.958  1.00  0.00     0.025 A 
HETATM   23  C13 UNL     1      20.327  10.232  -8.196  1.00  0.00     0.002 A 
HETATM   24  C14 UNL     1      20.294   9.387  -9.285  1.00  0.00     0.000 A 
HETATM   25  C15 UNL     1      20.719   8.100  -9.080  1.00  0.00     0.002 A 
HETATM   26  C16 UNL     1      21.161   7.649  -7.857  1.00  0.00     0.025 A 
ENDBRANCH  18  21
ENDBRANCH  16  18
ENDBRANCH   1  16
TORSDOF 3
ENDMDL
MODEL 2
REMARK VINA RESULT: -8.126145432      2.339      7.070
REMARK  3 active torsions:
REMARK  status: ('A' for Active; 'I' for Inactive)
REMARK    1  A    between atoms: S1_2  and  N1_4 
REMARK    2  A    between atoms: S1_2  and  C11_21 
REMARK    3  A    between atoms: N1_4  and  C1_6 
ROOT
HETATM    1  C1  UNL     1      21.248   4.183  -5.495  1.00  0.00     0.159 A 
HETATM    2  N2  UNL     1      21.243   5.265  -4.713  1.00  0.00    -0.334 N 
ATOM      3  H2  UNL     1      21.286   5.173  -3.698  1.00  0.00     0.168 HD
HETATM    4  C2  UNL     1      21.182   6.451  -5.278  1.00  0.00     0.068 A 
HETATM    5  C3  UNL     1      21.163   7.723  -4.663  1.00  0.00     0.119 A 
HETATM    6  N3  UNL     1      21.100   8.860  -5.350  1.00  0.00    -0.363 N 
ATOM      7  H3  UNL     1      21.092   9.737  -4.831  1.00  0.00     0.165 HD
HETATM    8  C4  UNL     1      21.047   8.913  -6.673  1.00  0.00     0.043 A 
HETATM    9  C5  UNL     1      20.982  10.081  -7.344  1.00  0.00     0.030 A 
HETATM   10  C6  UNL     1      20.929  10.057  -8.746  1.00  0.00     0.002 A 
HETATM   11  C7  UNL     1      20.945   8.837  -9.383  1.00  0.00     0.001 A 
HETATM   12  C8  UNL     1      21.010   7.639  -8.714  1.00  0.00     0.015 A 
HETATM   13  C9  UNL     1      21.061   7.709  -7.343  1.00  0.00     0.010 A 
HETATM   14  C10 UNL     1      21.128   6.495  -6.644  1.00  0.00     0.049 A 
HETATM   15  S2  UNL     1      21.167   4.838  -7.060  1.00  0.00    -0.050 SA
ENDROOT
BRANCH   1  16
HETATM   16  N1  UNL     1      21.306   2.927  -5.103  1.00  0.00    -0.260 N 
ATOM     17  H1  UNL     1      22.017   2.306  -5.492  1.00  0.00     0.181 HD
BRANCH  16  18
HETATM   18  S1  UNL     1      20.185   2.324  -3.937  1.00  0.00     0.264 S 
HETATM   19  O1  UNL     1      20.676   0.967  -3.515  1.00  0.00    -0.200 OA
HETATM   20  O2  UNL     1      20.159   3.188  -2.706  1.00  0.00    -0.200 OA
BRANCH  18  21
HETATM   21  C11 UNL     1      18.608   2.278  -4.628  1.00  0.00     0.079 A 
HETATM   22  C12 UNL     1      18.034   3.419  -5.128  1.00  0.00     0.025 A 
HETATM   23  C13 UNL     1      16.767   3.380  -5.682  1.00  0.00     0.002 A 
HETATM   24  C14 UNL     1      16.046   2.206  -5.750  1.00  0.00     0.000 A 
HETATM   25  C15 UNL     1      16.647   1.084  -5.242  1.00  0.00     0.002 A 
HETATM   26  C16 UNL     1      17.906   1.101  -4.686  1.00  0.00     0.025 A 
ENDBRANCH  18  21
ENDBRANCH  16  18
ENDBRANCH   1  16
TORSDOF 3
ENDMDL
MODEL 3
REMARK VINA RESULT: -7.897638513      5.467      9.313
REMARK  3 active torsions:
REMARK  status: ('A' for Active; 'I' for Inactive)
REMARK    1  A    between atoms: S1_2  and  N1_4 
REMARK    2  A    between atoms: S1_2  and  C11_21 
REMARK    3  A    between atoms: N1_4  and  C1_6 
ROOT
HETATM    1  C1  UNL     1      15.954   0.769  -6.348  1.00  0.00     0.159 A 
HETATM    2  N2  UNL     1      16.590   1.727  -7.026  1.00  0.00    -0.334 N 
ATOM      3  H2  UNL     1      16.259   2.022  -7.944  1.00  0.00     0.168 HD
HETATM    4  C2  UNL     1      17.652   2.284  -6.485  1.00  0.00     0.068 A 
HETATM    5  C3  UNL     1      18.478   3.304  -7.007  1.00  0.00     0.119 A 
HETATM    6  N3  UNL     1      19.533   3.787  -6.357  1.00  0.00    -0.363 N 
ATOM      7  H3  UNL     1      20.078   4.524  -6.803  1.00  0.00     0.165 HD
HETATM    8  C4  UNL     1      19.913   3.361  -5.161  1.00  0.00     0.043 A 
HETATM    9  C5  UNL     1      20.988   3.869  -4.525  1.00  0.00     0.030 A 
HETATM   10  C6  UNL     1      21.329   3.367  -3.260  1.00  0.00     0.002 A 
HETATM   11  C7  UNL     1      20.549   2.372  -2.716  1.00  0.00     0.001 A 
HETATM   12  C8  UNL     1      19.451   1.844  -3.352  1.00  0.00     0.015 A 
HETATM   13  C9  UNL     1      19.154   2.365  -4.587  1.00  0.00     0.010 A 
HETATM   14  C10 UNL     1      18.036   1.837  -5.250  1.00  0.00     0.049 A 
HETATM   15  S2  UNL     1      16.862   0.642  -4.917  1.00  0.00    -0.050 SA
ENDROOT
BRANCH   1  16
HETATM   16  N1  UNL     1      14.882   0.109  -6.734  1.00  0.00    -0.260 N 
ATOM     17  H1  UNL     1      14.150  -0.111  -6.057  1.00  0.00     0.181 HD
BRANCH  16  18
HETATM   18  S1  UNL     1      14.707  -0.387  -8.377  1.00  0.00     0.264 S 
HETATM   19  O1  UNL     1      13.649   0.489  -8.991  1.00  0.00    -0.200 OA
HETATM   20  O2  UNL     1      15.975  -0.161  -9.155  1.00  0.00    -0.200 OA
BRANCH  18  21
HETATM   21  C11 UNL     1      14.301  -2.060  -8.432  1.00  0.00     0.079 A 
HETATM   22  C12 UNL     1      13.054  -2.487  -8.053  1.00  0.00     0.025 A 
HETATM   23  C13 UNL     1      12.731  -3.831  -8.098  1.00  0.00     0.002 A 
HETATM   24  C14 UNL     1      13.640  -4.777  -8.521  1.00  0.00     0.000 A 
HETATM   25  C15 UNL     1      14.877  -4.320  -8.893  1.00  0.00     0.002 A 
HETATM   26  C16 UNL     1      15.220  -2.988  -8.855  1.00  0.00     0.025 A 
ENDBRANCH  18  21
ENDBRANCH  16  18
ENDBRANCH   1  16
TORSDOF 3
ENDMDL
MODEL 4
REMARK VINA RESULT: -7.752119146      1.238      2.128
REMARK  3 active torsions:
REMARK  status: ('A' for Active; 'I' for Inactive)
REMARK    1  A    between atoms: S1_2  and  N1_4 
REMARK    2  A    between atoms: S1_2  and  C11_21 
REMARK    3  A    between atoms: N1_4  and  C1_6 
ROOT
HETATM    1  C1  UNL     1      21.407   5.301  -5.296  1.00  0.00     0.159 A 
HETATM    2  N2  UNL     1      20.425   4.903  -6.108  1.00  0.00    -0.334 N 
ATOM      3  H2  UNL     1      20.251   5.387  -6.989  1.00  0.00     0.168 HD
HETATM    4  C2  UNL     1      19.688   3.875  -5.750  1.00  0.00     0.068 A 
HETATM    5  C3  UNL     1      18.605   3.282  -6.438  1.00  0.00     0.119 A 
HETATM    6  N3  UNL     1      17.934   2.235  -5.967  1.00  0.00    -0.363 N 
ATOM      7  H3  UNL     1      17.165   1.864  -6.525  1.00  0.00     0.165 HD
HETATM    8  C4  UNL     1      18.210   1.648  -4.811  1.00  0.00     0.043 A 
HETATM    9  C5  UNL     1      17.511   0.587  -4.359  1.00  0.00     0.030 A 
HETATM   10  C6  UNL     1      17.863   0.019  -3.124  1.00  0.00     0.002 A 
HETATM   11  C7  UNL     1      18.912   0.568  -2.423  1.00  0.00     0.001 A 
HETATM   12  C8  UNL     1      19.633   1.648  -2.871  1.00  0.00     0.015 A 
HETATM   13  C9  UNL     1      19.255   2.173  -4.083  1.00  0.00     0.010 A 
HETATM   14  C10 UNL     1      19.981   3.276  -4.556  1.00  0.00     0.049 A 
HETATM   15  S2  UNL     1      21.299   4.209  -3.998  1.00  0.00    -0.050 SA
ENDROOT
BRANCH   1  16
HETATM   16  N1  UNL     1      22.238   6.303  -5.494  1.00  0.00    -0.260 N 
ATOM     17  H1  UNL     1      23.205   6.116  -5.760  1.00  0.00     0.181 HD
BRANCH  16  18
HETATM   18  S1  UNL     1      21.700   7.932  -5.305  1.00  0.00     0.264 S 
HETATM   19  O1  UNL     1      20.619   7.921  -4.260  1.00  0.00    -0.200 OA
HETATM   20  O2  UNL     1      22.803   8.816  -4.792  1.00  0.00    -0.200 OA
BRANCH  18  21
HETATM   21  C11 UNL     1      21.154   8.535  -6.824  1.00  0.00     0.079 A 
HETATM   22  C12 UNL     1      21.129   7.721  -7.928  1.00  0.00     0.025 A 
HETATM   23  C13 UNL     1      20.690   8.207  -9.146  1.00  0.00     0.002 A 
HETATM   24  C14 UNL     1      20.266   9.511  -9.291  1.00  0.00     0.000 A 
HETATM   25  C15 UNL     1      20.303  10.300  -8.170  1.00  0.00     0.002 A 
HETATM   26  C16 UNL     1      20.737   9.836  -6.949  1.00  0.00     0.025 A 
ENDBRANCH  18  21
ENDBRANCH  16  18
ENDBRANCH   1  16
TORSDOF 3
ENDMDL
MODEL 5
REMARK VINA RESULT: -7.594334003      2.539      7.214
REMARK  3 active torsions:
REMARK  status: ('A' for Active; 'I' for Inactive)
REMARK    1  A    between atoms: S1_2  and  N1_4 
REMARK    2  A    between atoms: S1_2  and  C11_21 
REMARK    3  A    between atoms: N1_4  and  C1_6 
ROOT
HETATM    1  C1  UNL     1      21.267   3.725  -5.380  1.00  0.00     0.159 A 
HETATM    2  N2  UNL     1      21.127   3.944  -6.690  1.00  0.00    -0.334 N 
ATOM      3  H2  UNL     1      21.017   3.165  -7.338  1.00  0.00     0.168 HD
HETATM    4  C2  UNL     1      21.134   5.185  -7.126  1.00  0.00     0.068 A 
HETATM    5  C3  UNL     1      21.005   5.656  -8.451  1.00  0.00     0.119 A 
HETATM    6  N3  UNL     1      21.027   6.948  -8.767  1.00  0.00    -0.363 N 
ATOM      7  H3  UNL     1      20.926   7.207  -9.748  1.00  0.00     0.165 HD
HETATM    8  C4  UNL     1      21.172   7.917  -7.874  1.00  0.00     0.043 A 
HETATM    9  C5  UNL     1      21.191   9.219  -8.224  1.00  0.00     0.030 A 
HETATM   10  C6  UNL     1      21.350  10.189  -7.221  1.00  0.00     0.002 A 
HETATM   11  C7  UNL     1      21.479   9.770  -5.917  1.00  0.00     0.001 A 
HETATM   12  C8  UNL     1      21.462   8.447  -5.545  1.00  0.00     0.015 A 
HETATM   13  C9  UNL     1      21.305   7.532  -6.558  1.00  0.00     0.010 A 
HETATM   14  C10 UNL     1      21.285   6.177  -6.196  1.00  0.00     0.049 A 
HETATM   15  S2  UNL     1      21.410   5.293  -4.740  1.00  0.00    -0.050 SA
ENDROOT
BRANCH   1  16
HETATM   16  N1  UNL     1      21.282   2.557  -4.773  1.00  0.00    -0.260 N 
ATOM     17  H1  UNL     1      22.045   1.902  -4.950  1.00  0.00     0.181 HD
BRANCH  16  18
HETATM   18  S1  UNL     1      20.020   2.125  -3.678  1.00  0.00     0.264 S 
HETATM   19  O1  UNL     1      20.349   0.760  -3.142  1.00  0.00    -0.200 OA
HETATM   20  O2  UNL     1      19.970   3.063  -2.504  1.00  0.00    -0.200 OA
BRANCH  18  21
HETATM   21  C11 UNL     1      18.507   2.171  -4.501  1.00  0.00     0.079 A 
HETATM   22  C12 UNL     1      17.763   1.028  -4.655  1.00  0.00     0.025 A 
HETATM   23  C13 UNL     1      16.549   1.067  -5.316  1.00  0.00     0.002 A 
HETATM   24  C14 UNL     1      16.049   2.241  -5.836  1.00  0.00     0.000 A 
HETATM   25  C15 UNL     1      16.815   3.366  -5.667  1.00  0.00     0.002 A 
HETATM   26  C16 UNL     1      18.026   3.349  -5.013  1.00  0.00     0.025 A 
ENDBRANCH  18  21
ENDBRANCH  16  18
ENDBRANCH   1  16
TORSDOF 3
ENDMDL
