MODEL 1
REMARK VINA RESULT: -9.189754903      0.000      0.000
REMARK  5 active torsions:
REMARK  status: ('A' for Active; 'I' for Inactive)
REMARK    1  A    between atoms: C1_1  and  C16_24 
REMARK    2  A    between atoms: C2_2  and  C3_3 
REMARK    3  A    between atoms: C7_7  and  N1_8 
REMARK    4  A    between atoms: N1_8  and  N2_10 
REMARK    5  A    between atoms: C8_12  and  C9_13 
ROOT
HETATM    1  C3  UNL     1      21.812  10.071  -5.228  1.00  0.00     0.088 A 
HETATM    2  C4  UNL     1      21.207  10.287  -6.465  1.00  0.00     0.039 A 
HETATM    3  C5  UNL     1      20.865   9.263  -7.297  1.00  0.00     0.007 A 
HETATM    4  C6  UNL     1      21.124   7.970  -6.910  1.00  0.00     0.050 A 
HETATM    5  C7  UNL     1      21.719   7.756  -5.694  1.00  0.00     0.120 A 
HETATM    6  N3  UNL     1      22.044   8.792  -4.894  1.00  0.00    -0.334 N 
ATOM      7  H3  UNL     1      22.487   8.596  -3.997  1.00  0.00     0.168 HD
ENDROOT
BRANCH   5   8
HETATM    8  N1  UNL     1      21.999   6.576  -5.249  1.00  0.00    -0.286 N 
ATOM      9  H1  UNL     1      22.933   6.346  -4.909  1.00  0.00     0.188 HD
BRANCH   8  10
HETATM   10  N2  UNL     1      20.973   5.628  -5.253  1.00  0.00    -0.309 N 
HETATM   11  C8  UNL     1      21.022   4.573  -4.523  1.00  0.00     0.118 C 
ATOM     12  H2  UNL     1      20.162   5.778  -5.853  1.00  0.00     0.186 HD
BRANCH  11  13
HETATM   13  C9  UNL     1      19.956   3.595  -4.530  1.00  0.00    -0.017 A 
HETATM   14  C10 UNL     1      18.864   3.729  -5.359  1.00  0.00     0.016 A 
HETATM   15  C11 UNL     1      17.844   2.805  -5.375  1.00  0.00     0.040 A 
HETATM   16  C12 UNL     1      17.890   1.707  -4.552  1.00  0.00     0.105 A 
HETATM   17  C13 UNL     1      18.970   1.542  -3.709  1.00  0.00     0.105 A 
HETATM   18  O2  UNL     1      17.037   0.614  -4.335  1.00  0.00    -0.323 OA
HETATM   19  C14 UNL     1      19.995   2.496  -3.712  1.00  0.00     0.052 A 
HETATM   20  O1  UNL     1      18.762   0.374  -3.007  1.00  0.00    -0.323 OA
HETATM   21  C15 UNL     1      17.823  -0.404  -3.723  1.00  0.00     0.352 C 
ENDBRANCH  11  13
ENDBRANCH   8  10
ENDBRANCH   5   8
BRANCH   1  22
HETATM   22  C2  UNL     1      22.177  11.130  -4.343  1.00  0.00    -0.043 C 
HETATM   23  C1  UNL     1      22.489  12.013  -3.578  1.00  0.00    -0.060 C 
BRANCH  23  24
HETATM   24  C16 UNL     1      22.845  13.052  -2.652  1.00  0.00     0.018 A 
HETATM   25  C17 UNL     1      23.748  12.786  -1.666  1.00  0.00     0.020 A 
HETATM   26  C18 UNL     1      24.102  13.772  -0.768  1.00  0.00     0.001 A 
HETATM   27  C19 UNL     1      23.556  15.035  -0.846  1.00  0.00     0.000 A 
HETATM   28  C20 UNL     1      22.649  15.321  -1.829  1.00  0.00     0.001 A 
HETATM   29  C21 UNL     1      22.303  14.320  -2.722  1.00  0.00     0.020 A 
ENDBRANCH  23  24
ENDBRANCH   1  22
TORSDOF 5
ENDMDL
MODEL 2
REMARK VINA RESULT: -9.132817904      0.671      1.319
REMARK  5 active torsions:
REMARK  status: ('A' for Active; 'I' for Inactive)
REMARK    1  A    between atoms: C1_1  and  C16_24 
REMARK    2  A    between atoms: C2_2  and  C3_3 
REMARK    3  A    between atoms: C7_7  and  N1_8 
REMARK    4  A    between atoms: N1_8  and  N2_10 
REMARK    5  A    between atoms: C8_12  and  C9_13 
ROOT
HETATM    1  C3  UNL     1      21.810   9.942  -5.208  1.00  0.00     0.088 A 
HETATM    2  C4  UNL     1      21.111  10.076  -6.406  1.00  0.00     0.039 A 
HETATM    3  C5  UNL     1      20.799   9.006  -7.191  1.00  0.00     0.007 A 
HETATM    4  C6  UNL     1      21.186   7.749  -6.793  1.00  0.00     0.050 A 
HETATM    5  C7  UNL     1      21.873   7.615  -5.616  1.00  0.00     0.120 A 
HETATM    6  N3  UNL     1      22.166   8.695  -4.862  1.00  0.00    -0.334 N 
ATOM      7  H3  UNL     1      22.680   8.559  -3.992  1.00  0.00     0.168 HD
ENDROOT
BRANCH   5   8
HETATM    8  N1  UNL     1      22.276   6.474  -5.165  1.00  0.00    -0.286 N 
ATOM      9  H1  UNL     1      23.235   6.338  -4.843  1.00  0.00     0.188 HD
BRANCH   8  10
HETATM   10  N2  UNL     1      21.346   5.431  -5.134  1.00  0.00    -0.309 N 
HETATM   11  C8  UNL     1      21.297   4.596  -4.160  1.00  0.00     0.118 C 
ATOM     12  H2  UNL     1      20.687   5.331  -5.906  1.00  0.00     0.186 HD
BRANCH  11  13
HETATM   13  C9  UNL     1      20.331   3.519  -4.133  1.00  0.00    -0.017 A 
HETATM   14  C10 UNL     1      20.301   2.607  -3.101  1.00  0.00     0.016 A 
HETATM   15  C11 UNL     1      19.388   1.578  -3.063  1.00  0.00     0.040 A 
HETATM   16  C12 UNL     1      18.467   1.432  -4.071  1.00  0.00     0.105 A 
HETATM   17  C13 UNL     1      18.469   2.328  -5.120  1.00  0.00     0.105 A 
HETATM   18  O2  UNL     1      17.432   0.518  -4.322  1.00  0.00    -0.323 OA
HETATM   19  C14 UNL     1      19.409   3.366  -5.135  1.00  0.00     0.052 A 
HETATM   20  O1  UNL     1      17.456   1.953  -5.977  1.00  0.00    -0.323 OA
HETATM   21  C15 UNL     1      16.553   1.140  -5.254  1.00  0.00     0.352 C 
ENDBRANCH  11  13
ENDBRANCH   8  10
ENDBRANCH   5   8
BRANCH   1  22
HETATM   22  C2  UNL     1      22.146  11.050  -4.372  1.00  0.00    -0.043 C 
HETATM   23  C1  UNL     1      22.434  11.976  -3.650  1.00  0.00    -0.060 C 
BRANCH  23  24
HETATM   24  C16 UNL     1      22.762  13.065  -2.773  1.00  0.00     0.018 A 
HETATM   25  C17 UNL     1      23.614  12.850  -1.731  1.00  0.00     0.020 A 
HETATM   26  C18 UNL     1      23.941  13.884  -0.879  1.00  0.00     0.001 A 
HETATM   27  C19 UNL     1      23.419  15.147  -1.060  1.00  0.00     0.000 A 
HETATM   28  C20 UNL     1      22.563  15.383  -2.100  1.00  0.00     0.001 A 
HETATM   29  C21 UNL     1      22.244  14.334  -2.946  1.00  0.00     0.020 A 
ENDBRANCH  23  24
ENDBRANCH   1  22
TORSDOF 5
ENDMDL
MODEL 3
REMARK VINA RESULT: -8.779494412      4.705     10.724
REMARK  5 active torsions:
REMARK  status: ('A' for Active; 'I' for Inactive)
REMARK    1  A    between atoms: C1_1  and  C16_24 
REMARK    2  A    between atoms: C2_2  and  C3_3 
REMARK    3  A    between atoms: C7_7  and  N1_8 
REMARK    4  A    between atoms: N1_8  and  N2_10 
REMARK    5  A    between atoms: C8_12  and  C9_13 
ROOT
HETATM    1  C3  UNL     1      21.340   7.634  -5.328  1.00  0.00     0.088 A 
HETATM    2  C4  UNL     1      20.728   8.304  -6.385  1.00  0.00     0.039 A 
HETATM    3  C5  UNL     1      21.135   9.537  -6.800  1.00  0.00     0.007 A 
HETATM    4  C6  UNL     1      22.186  10.146  -6.157  1.00  0.00     0.050 A 
HETATM    5  C7  UNL     1      22.789   9.489  -5.118  1.00  0.00     0.120 A 
HETATM    6  N3  UNL     1      22.360   8.269  -4.732  1.00  0.00    -0.334 N 
ATOM      7  H3  UNL     1      22.833   7.810  -3.953  1.00  0.00     0.168 HD
ENDROOT
BRANCH   5   8
HETATM    8  N1  UNL     1      23.782   9.985  -4.456  1.00  0.00    -0.286 N 
ATOM      9  H1  UNL     1      24.663   9.479  -4.363  1.00  0.00     0.188 HD
BRANCH   8  10
HETATM   10  N2  UNL     1      23.601  11.243  -3.874  1.00  0.00    -0.309 N 
HETATM   11  C8  UNL     1      23.887  11.466  -2.642  1.00  0.00     0.118 C 
ATOM     12  H2  UNL     1      23.232  12.004  -4.443  1.00  0.00     0.186 HD
BRANCH  11  13
HETATM   13  C9  UNL     1      23.698  12.770  -2.044  1.00  0.00    -0.017 A 
HETATM   14  C10 UNL     1      24.431  13.170  -0.949  1.00  0.00     0.016 A 
HETATM   15  C11 UNL     1      24.261  14.407  -0.371  1.00  0.00     0.040 A 
HETATM   16  C12 UNL     1      23.341  15.290  -0.881  1.00  0.00     0.105 A 
HETATM   17  C13 UNL     1      22.590  14.922  -1.979  1.00  0.00     0.105 A 
HETATM   18  O2  UNL     1      22.939  16.590  -0.535  1.00  0.00    -0.323 OA
HETATM   19  C14 UNL     1      22.782  13.656  -2.548  1.00  0.00     0.052 A 
HETATM   20  O1  UNL     1      21.759  15.980  -2.277  1.00  0.00    -0.323 OA
HETATM   21  C15 UNL     1      22.305  17.142  -1.684  1.00  0.00     0.352 C 
ENDBRANCH  11  13
ENDBRANCH   8  10
ENDBRANCH   5   8
BRANCH   1  22
HETATM   22  C2  UNL     1      20.927   6.343  -4.878  1.00  0.00    -0.043 C 
HETATM   23  C1  UNL     1      20.598   5.244  -4.498  1.00  0.00    -0.060 C 
BRANCH  23  24
HETATM   24  C16 UNL     1      20.222   3.928  -4.060  1.00  0.00     0.018 A 
HETATM   25  C17 UNL     1      20.889   3.356  -3.018  1.00  0.00     0.020 A 
HETATM   26  C18 UNL     1      20.542   2.094  -2.584  1.00  0.00     0.001 A 
HETATM   27  C19 UNL     1      19.523   1.388  -3.189  1.00  0.00     0.000 A 
HETATM   28  C20 UNL     1      18.843   1.945  -4.236  1.00  0.00     0.001 A 
HETATM   29  C21 UNL     1      19.204   3.214  -4.660  1.00  0.00     0.020 A 
ENDBRANCH  23  24
ENDBRANCH   1  22
TORSDOF 5
ENDMDL
MODEL 4
REMARK VINA RESULT: -8.699371932      1.533      2.305
REMARK  5 active torsions:
REMARK  status: ('A' for Active; 'I' for Inactive)
REMARK    1  A    between atoms: C1_1  and  C16_24 
REMARK    2  A    between atoms: C2_2  and  C3_3 
REMARK    3  A    between atoms: C7_7  and  N1_8 
REMARK    4  A    between atoms: N1_8  and  N2_10 
REMARK    5  A    between atoms: C8_12  and  C9_13 
ROOT
HETATM    1  C3  UNL     1      21.489   9.670  -6.649  1.00  0.00     0.088 A 
HETATM    2  C4  UNL     1      20.719  10.379  -7.570  1.00  0.00     0.039 A 
HETATM    3  C5  UNL     1      20.175   9.789  -8.672  1.00  0.00     0.007 A 
HETATM    4  C6  UNL     1      20.390   8.449  -8.888  1.00  0.00     0.050 A 
HETATM    5  C7  UNL     1      21.146   7.751  -7.984  1.00  0.00     0.120 A 
HETATM    6  N3  UNL     1      21.670   8.366  -6.904  1.00  0.00    -0.334 N 
ATOM      7  H3  UNL     1      22.230   7.815  -6.252  1.00  0.00     0.168 HD
ENDROOT
BRANCH   5   8
HETATM    8  N1  UNL     1      21.400   6.490  -8.107  1.00  0.00    -0.286 N 
ATOM      9  H1  UNL     1      21.898   6.126  -8.920  1.00  0.00     0.188 HD
BRANCH   8  10
HETATM   10  N2  UNL     1      20.965   5.645  -7.083  1.00  0.00    -0.309 N 
HETATM   11  C8  UNL     1      21.784   5.118  -6.246  1.00  0.00     0.118 C 
ATOM     12  H2  UNL     1      19.969   5.441  -6.998  1.00  0.00     0.186 HD
BRANCH  11  13
HETATM   13  C9  UNL     1      21.328   4.244  -5.187  1.00  0.00    -0.017 A 
HETATM   14  C10 UNL     1      21.795   4.374  -3.898  1.00  0.00     0.016 A 
HETATM   15  C11 UNL     1      21.369   3.549  -2.882  1.00  0.00     0.040 A 
HETATM   16  C12 UNL     1      20.453   2.557  -3.132  1.00  0.00     0.105 A 
HETATM   17  C13 UNL     1      19.964   2.399  -4.413  1.00  0.00     0.105 A 
HETATM   18  O2  UNL     1      19.833   1.579  -2.340  1.00  0.00    -0.323 OA
HETATM   19  C14 UNL     1      20.413   3.252  -5.429  1.00  0.00     0.052 A 
HETATM   20  O1  UNL     1      19.073   1.348  -4.382  1.00  0.00    -0.323 OA
HETATM   21  C15 UNL     1      18.664   1.164  -3.040  1.00  0.00     0.352 C 
ENDBRANCH  11  13
ENDBRANCH   8  10
ENDBRANCH   5   8
BRANCH   1  22
HETATM   22  C2  UNL     1      22.067  10.271  -5.490  1.00  0.00    -0.043 C 
HETATM   23  C1  UNL     1      22.560  10.797  -4.519  1.00  0.00    -0.060 C 
BRANCH  23  24
HETATM   24  C16 UNL     1      23.161  11.432  -3.380  1.00  0.00     0.018 A 
HETATM   25  C17 UNL     1      24.179  10.805  -2.725  1.00  0.00     0.020 A 
HETATM   26  C18 UNL     1      24.768  11.401  -1.629  1.00  0.00     0.001 A 
HETATM   27  C19 UNL     1      24.344  12.632  -1.175  1.00  0.00     0.000 A 
HETATM   28  C20 UNL     1      23.324  13.277  -1.818  1.00  0.00     0.001 A 
HETATM   29  C21 UNL     1      22.743  12.665  -2.917  1.00  0.00     0.020 A 
ENDBRANCH  23  24
ENDBRANCH   1  22
TORSDOF 5
ENDMDL
MODEL 5
REMARK VINA RESULT: -8.640443561      4.110      9.557
REMARK  5 active torsions:
REMARK  status: ('A' for Active; 'I' for Inactive)
REMARK    1  A    between atoms: C1_1  and  C16_24 
REMARK    2  A    between atoms: C2_2  and  C3_3 
REMARK    3  A    between atoms: C7_7  and  N1_8 
REMARK    4  A    between atoms: N1_8  and  N2_10 
REMARK    5  A    between atoms: C8_12  and  C9_13 
ROOT
HETATM    1  C3  UNL     1      20.953   6.486  -7.129  1.00  0.00     0.088 A 
HETATM    2  C4  UNL     1      21.271   6.238  -8.463  1.00  0.00     0.039 A 
HETATM    3  C5  UNL     1      21.420   7.240  -9.375  1.00  0.00     0.007 A 
HETATM    4  C6  UNL     1      21.251   8.543  -8.971  1.00  0.00     0.050 A 
HETATM    5  C7  UNL     1      20.938   8.788  -7.661  1.00  0.00     0.120 A 
HETATM    6  N3  UNL     1      20.798   7.773  -6.784  1.00  0.00    -0.334 N 
ATOM      7  H3  UNL     1      20.563   7.993  -5.816  1.00  0.00     0.168 HD
ENDROOT
BRANCH   5   8
HETATM    8  N1  UNL     1      20.761   9.980  -7.194  1.00  0.00    -0.286 N 
ATOM      9  H1  UNL     1      20.214  10.674  -7.703  1.00  0.00     0.188 HD
BRANCH   8  10
HETATM   10  N2  UNL     1      21.349  10.281  -5.962  1.00  0.00    -0.309 N 
HETATM   11  C8  UNL     1      22.584  10.618  -5.866  1.00  0.00     0.118 C 
ATOM     12  H2  UNL     1      20.782  10.231  -5.117  1.00  0.00     0.186 HD
BRANCH  11  13
HETATM   13  C9  UNL     1      23.188  10.928  -4.588  1.00  0.00    -0.017 A 
HETATM   14  C10 UNL     1      24.274  10.224  -4.117  1.00  0.00     0.016 A 
HETATM   15  C11 UNL     1      24.857  10.510  -2.904  1.00  0.00     0.040 A 
HETATM   16  C12 UNL     1      24.364  11.522  -2.118  1.00  0.00     0.105 A 
HETATM   17  C13 UNL     1      23.276  12.249  -2.561  1.00  0.00     0.105 A 
HETATM   18  O2  UNL     1      24.720  12.050  -0.868  1.00  0.00    -0.323 OA
HETATM   19  C14 UNL     1      22.701  11.938  -3.799  1.00  0.00     0.052 A 
HETATM   20  O1  UNL     1      22.994  13.188  -1.592  1.00  0.00    -0.323 OA
HETATM   21  C15 UNL     1      24.150  13.354  -0.796  1.00  0.00     0.352 C 
ENDBRANCH  11  13
ENDBRANCH   8  10
ENDBRANCH   5   8
BRANCH   1  22
HETATM   22  C2  UNL     1      20.792   5.450  -6.160  1.00  0.00    -0.043 C 
HETATM   23  C1  UNL     1      20.636   4.573  -5.343  1.00  0.00    -0.060 C 
BRANCH  23  24
HETATM   24  C16 UNL     1      20.431   3.541  -4.365  1.00  0.00     0.018 A 
HETATM   25  C17 UNL     1      21.188   3.535  -3.231  1.00  0.00     0.020 A 
HETATM   26  C18 UNL     1      21.004   2.551  -2.282  1.00  0.00     0.001 A 
HETATM   27  C19 UNL     1      20.059   1.562  -2.455  1.00  0.00     0.000 A 
HETATM   28  C20 UNL     1      19.290   1.552  -3.586  1.00  0.00     0.001 A 
HETATM   29  C21 UNL     1      19.487   2.546  -4.530  1.00  0.00     0.020 A 
ENDBRANCH  23  24
ENDBRANCH   1  22
TORSDOF 5
ENDMDL
