MODEL 1
REMARK VINA RESULT: -9.095331555      0.000      0.000
REMARK  3 active torsions:
REMARK  status: ('A' for Active; 'I' for Inactive)
REMARK    1  A    between atoms: C5_6  and  C6_7 
REMARK    2  A    between atoms: C9_12  and  N3_13 
REMARK       I    between atoms: N3_13  and  C10_15 
REMARK    3  A    between atoms: C10_15  and  C11_17 
ROOT
HETATM    1  N1  UNL     1      21.782  11.146  -4.410  1.00  0.00    -0.191 NA
HETATM    2  C1  UNL     1      21.665  10.217  -5.090  1.00  0.00     0.099 C 
HETATM    3  C2  UNL     1      21.543   9.049  -5.945  1.00  0.00     0.044 A 
HETATM    4  C3  UNL     1      21.285   9.172  -7.284  1.00  0.00     0.023 A 
HETATM    5  C4  UNL     1      21.171   8.036  -8.094  1.00  0.00     0.015 A 
HETATM    6  C5  UNL     1      21.311   6.771  -7.584  1.00  0.00    -0.008 A 
HETATM    7  C20 UNL     1      21.567   6.672  -6.242  1.00  0.00     0.015 A 
HETATM    8  C21 UNL     1      21.684   7.805  -5.425  1.00  0.00     0.023 A 
ENDROOT
BRANCH   6   9
HETATM    9  C6  UNL     1      21.194   5.579  -8.412  1.00  0.00     0.059 A 
HETATM   10  C7  UNL     1      22.210   5.143  -9.235  1.00  0.00     0.118 A 
HETATM   11  N2  UNL     1      22.068   4.021  -9.999  1.00  0.00    -0.370 N 
HETATM   12  C8  UNL     1      20.924   3.316  -9.960  1.00  0.00     0.136 A 
ATOM     13  H2  UNL     1      22.832   3.716 -10.601  1.00  0.00     0.164 HD
HETATM   14  C9  UNL     1      19.883   3.717  -9.150  1.00  0.00     0.124 A 
HETATM   15  N5  UNL     1      20.066   4.826  -8.416  1.00  0.00    -0.340 N 
ATOM     16  H5  UNL     1      19.298   5.125  -7.816  1.00  0.00     0.167 HD
BRANCH  14  17
HETATM   17  N3  UNL     1      18.769   3.041  -9.104  1.00  0.00    -0.306 N 
HETATM   18  C10 UNL     1      17.803   3.219  -8.112  1.00  0.00     0.273 C 
HETATM   19  O1  UNL     1      16.766   3.877  -8.373  1.00  0.00    -0.266 OA
ATOM     20  H3  UNL     1      18.594   2.347  -9.831  1.00  0.00     0.170 HD
BRANCH  18  21
HETATM   21  C11 UNL     1      17.997   2.650  -6.792  1.00  0.00     0.101 A 
HETATM   22  C12 UNL     1      17.122   1.655  -6.336  1.00  0.00     0.036 A 
HETATM   23  C13 UNL     1      17.328   1.131  -5.077  1.00  0.00     0.016 A 
HETATM   24  C14 UNL     1      18.385   1.603  -4.315  1.00  0.00    -0.009 A 
HETATM   25  C15 UNL     1      18.619   1.097  -3.048  1.00  0.00     0.013 A 
HETATM   26  C19 UNL     1      19.229   2.585  -4.793  1.00  0.00     0.043 A 
HETATM   27  C16 UNL     1      19.666   1.560  -2.282  1.00  0.00     0.001 A 
HETATM   28  C17 UNL     1      20.498   2.535  -2.766  1.00  0.00     0.002 A 
HETATM   29  C18 UNL     1      20.290   3.052  -4.012  1.00  0.00     0.030 A 
HETATM   30  N4  UNL     1      19.006   3.077  -6.017  1.00  0.00    -0.351 N 
ATOM     31  H4  UNL     1      19.627   3.803  -6.375  1.00  0.00     0.166 HD
ENDBRANCH  18  21
ENDBRANCH  14  17
ENDBRANCH   6   9
TORSDOF 3
ENDMDL
MODEL 2
REMARK VINA RESULT: -8.979296318      4.153      9.802
REMARK  3 active torsions:
REMARK  status: ('A' for Active; 'I' for Inactive)
REMARK    1  A    between atoms: C5_6  and  C6_7 
REMARK    2  A    between atoms: C9_12  and  N3_13 
REMARK       I    between atoms: N3_13  and  C10_15 
REMARK    3  A    between atoms: C10_15  and  C11_17 
ROOT
HETATM    1  N1  UNL     1      20.172   1.447  -3.928  1.00  0.00    -0.191 NA
HETATM    2  C1  UNL     1      20.386   2.557  -4.172  1.00  0.00     0.099 C 
HETATM    3  C2  UNL     1      20.678   3.948  -4.469  1.00  0.00     0.044 A 
HETATM    4  C3  UNL     1      20.265   4.955  -3.639  1.00  0.00     0.023 A 
HETATM    5  C4  UNL     1      20.555   6.291  -3.940  1.00  0.00     0.015 A 
HETATM    6  C5  UNL     1      21.257   6.639  -5.065  1.00  0.00    -0.008 A 
HETATM    7  C20 UNL     1      21.660   5.616  -5.882  1.00  0.00     0.015 A 
HETATM    8  C21 UNL     1      21.373   4.276  -5.587  1.00  0.00     0.023 A 
ENDROOT
BRANCH   6   9
HETATM    9  C6  UNL     1      21.567   8.023  -5.395  1.00  0.00     0.059 A 
HETATM   10  C7  UNL     1      20.662   8.861  -6.011  1.00  0.00     0.118 A 
HETATM   11  N2  UNL     1      20.986  10.154  -6.306  1.00  0.00    -0.370 N 
HETATM   12  C8  UNL     1      22.203  10.635  -5.999  1.00  0.00     0.136 A 
ATOM     13  H2  UNL     1      20.301  10.758  -6.762  1.00  0.00     0.164 HD
HETATM   14  C9  UNL     1      23.137   9.829  -5.383  1.00  0.00     0.124 A 
HETATM   15  N5  UNL     1      22.776   8.566  -5.111  1.00  0.00    -0.340 N 
ATOM     16  H5  UNL     1      23.465   7.968  -4.655  1.00  0.00     0.167 HD
BRANCH  14  17
HETATM   17  N3  UNL     1      24.321  10.285  -5.080  1.00  0.00    -0.306 N 
HETATM   18  C10 UNL     1      24.747  10.504  -3.769  1.00  0.00     0.273 C 
HETATM   19  O1  UNL     1      25.518   9.675  -3.225  1.00  0.00    -0.266 OA
ATOM     20  H3  UNL     1      24.968  10.492  -5.841  1.00  0.00     0.170 HD
BRANCH  18  21
HETATM   21  C11 UNL     1      24.303  11.677  -3.042  1.00  0.00     0.101 A 
HETATM   22  C12 UNL     1      24.571  11.779  -1.670  1.00  0.00     0.036 A 
HETATM   23  C13 UNL     1      24.137  12.905  -1.002  1.00  0.00     0.016 A 
HETATM   24  C14 UNL     1      23.458  13.887  -1.705  1.00  0.00    -0.009 A 
HETATM   25  C15 UNL     1      23.010  15.028  -1.064  1.00  0.00     0.013 A 
HETATM   26  C19 UNL     1      23.209  13.756  -3.057  1.00  0.00     0.043 A 
HETATM   27  C16 UNL     1      22.333  16.011  -1.754  1.00  0.00     0.001 A 
HETATM   28  C17 UNL     1      22.091  15.871  -3.095  1.00  0.00     0.002 A 
HETATM   29  C18 UNL     1      22.522  14.755  -3.753  1.00  0.00     0.030 A 
HETATM   30  N4  UNL     1      23.640  12.654  -3.680  1.00  0.00    -0.351 N 
ATOM     31  H4  UNL     1      23.459  12.552  -4.679  1.00  0.00     0.166 HD
ENDBRANCH  18  21
ENDBRANCH  14  17
ENDBRANCH   6   9
TORSDOF 3
ENDMDL
MODEL 3
REMARK VINA RESULT: -8.624164128      3.397      5.007
REMARK  3 active torsions:
REMARK  status: ('A' for Active; 'I' for Inactive)
REMARK    1  A    between atoms: C5_6  and  C6_7 
REMARK    2  A    between atoms: C9_12  and  N3_13 
REMARK       I    between atoms: N3_13  and  C10_15 
REMARK    3  A    between atoms: C10_15  and  C11_17 
ROOT
HETATM    1  N1  UNL     1      20.746   7.495 -11.334  1.00  0.00    -0.191 NA
HETATM    2  C1  UNL     1      20.074   6.589 -11.078  1.00  0.00     0.099 C 
HETATM    3  C2  UNL     1      19.247   5.435 -10.767  1.00  0.00     0.044 A 
HETATM    4  C3  UNL     1      18.153   5.119 -11.527  1.00  0.00     0.023 A 
HETATM    5  C4  UNL     1      17.367   4.004 -11.215  1.00  0.00     0.015 A 
HETATM    6  C5  UNL     1      17.659   3.194 -10.148  1.00  0.00    -0.008 A 
HETATM    7  C20 UNL     1      18.757   3.529  -9.401  1.00  0.00     0.015 A 
HETATM    8  C21 UNL     1      19.550   4.643  -9.709  1.00  0.00     0.023 A 
ENDROOT
BRANCH   6   9
HETATM    9  C6  UNL     1      16.852   2.031  -9.808  1.00  0.00     0.059 A 
HETATM   10  C7  UNL     1      16.036   1.399 -10.721  1.00  0.00     0.118 A 
HETATM   11  N2  UNL     1      15.292   0.310 -10.369  1.00  0.00    -0.370 N 
HETATM   12  C8  UNL     1      15.343  -0.167  -9.113  1.00  0.00     0.136 A 
ATOM     13  H2  UNL     1      14.694  -0.142 -11.061  1.00  0.00     0.164 HD
HETATM   14  C9  UNL     1      16.146   0.435  -8.169  1.00  0.00     0.124 A 
HETATM   15  N5  UNL     1      16.861   1.502  -8.559  1.00  0.00    -0.340 N 
ATOM     16  H5  UNL     1      17.456   1.950  -7.862  1.00  0.00     0.167 HD
BRANCH  14  17
HETATM   17  N3  UNL     1      16.204  -0.020  -6.949  1.00  0.00    -0.306 N 
HETATM   18  C10 UNL     1      16.054   0.788  -5.819  1.00  0.00     0.273 C 
HETATM   19  O1  UNL     1      14.964   0.783  -5.198  1.00  0.00    -0.266 OA
ATOM     20  H3  UNL     1      16.366  -1.018  -6.811  1.00  0.00     0.170 HD
BRANCH  18  21
HETATM   21  C11 UNL     1      17.149   1.627  -5.371  1.00  0.00     0.101 A 
HETATM   22  C12 UNL     1      17.327   2.892  -5.947  1.00  0.00     0.036 A 
HETATM   23  C13 UNL     1      18.376   3.670  -5.503  1.00  0.00     0.016 A 
HETATM   24  C14 UNL     1      19.209   3.177  -4.510  1.00  0.00    -0.009 A 
HETATM   25  C15 UNL     1      20.269   3.933  -4.043  1.00  0.00     0.013 A 
HETATM   26  C19 UNL     1      19.005   1.926  -3.963  1.00  0.00     0.043 A 
HETATM   27  C16 UNL     1      21.103   3.452  -3.057  1.00  0.00     0.001 A 
HETATM   28  C17 UNL     1      20.893   2.209  -2.520  1.00  0.00     0.002 A 
HETATM   29  C18 UNL     1      19.854   1.442  -2.963  1.00  0.00     0.030 A 
HETATM   30  N4  UNL     1      17.982   1.192  -4.413  1.00  0.00    -0.351 N 
ATOM     31  H4  UNL     1      17.828   0.267  -4.012  1.00  0.00     0.166 HD
ENDBRANCH  18  21
ENDBRANCH  14  17
ENDBRANCH   6   9
TORSDOF 3
ENDMDL
MODEL 4
REMARK VINA RESULT: -8.502196935      4.474      9.862
REMARK  3 active torsions:
REMARK  status: ('A' for Active; 'I' for Inactive)
REMARK    1  A    between atoms: C5_6  and  C6_7 
REMARK    2  A    between atoms: C9_12  and  N3_13 
REMARK       I    between atoms: N3_13  and  C10_15 
REMARK    3  A    between atoms: C10_15  and  C11_17 
ROOT
HETATM    1  N1  UNL     1      20.300   1.876  -2.888  1.00  0.00    -0.191 NA
HETATM    2  C1  UNL     1      20.519   2.927  -3.320  1.00  0.00     0.099 C 
HETATM    3  C2  UNL     1      20.810   4.250  -3.844  1.00  0.00     0.044 A 
HETATM    4  C3  UNL     1      19.987   5.314  -3.589  1.00  0.00     0.023 A 
HETATM    5  C4  UNL     1      20.282   6.582  -4.100  1.00  0.00     0.015 A 
HETATM    6  C5  UNL     1      21.395   6.806  -4.869  1.00  0.00    -0.008 A 
HETATM    7  C20 UNL     1      22.205   5.729  -5.113  1.00  0.00     0.015 A 
HETATM    8  C21 UNL     1      21.916   4.456  -4.603  1.00  0.00     0.023 A 
ENDROOT
BRANCH   6   9
HETATM    9  C6  UNL     1      21.718   8.119  -5.411  1.00  0.00     0.059 A 
HETATM   10  C7  UNL     1      20.852   8.823  -6.220  1.00  0.00     0.118 A 
HETATM   11  N2  UNL     1      21.186  10.052  -6.712  1.00  0.00    -0.370 N 
HETATM   12  C8  UNL     1      22.376  10.600  -6.412  1.00  0.00     0.136 A 
ATOM     13  H2  UNL     1      20.530  10.555  -7.309  1.00  0.00     0.164 HD
HETATM   14  C9  UNL     1      23.271   9.930  -5.606  1.00  0.00     0.124 A 
HETATM   15  N5  UNL     1      22.901   8.725  -5.145  1.00  0.00    -0.340 N 
ATOM     16  H5  UNL     1      23.561   8.227  -4.548  1.00  0.00     0.167 HD
BRANCH  14  17
HETATM   17  N3  UNL     1      24.428  10.452  -5.309  1.00  0.00    -0.306 N 
HETATM   18  C10 UNL     1      24.847  10.697  -3.999  1.00  0.00     0.273 C 
HETATM   19  O1  UNL     1      25.665   9.914  -3.458  1.00  0.00    -0.266 OA
ATOM     20  H3  UNL     1      25.060  10.695  -6.072  1.00  0.00     0.170 HD
BRANCH  18  21
HETATM   21  C11 UNL     1      24.339  11.844  -3.271  1.00  0.00     0.101 A 
HETATM   22  C12 UNL     1      22.981  12.176  -3.371  1.00  0.00     0.036 A 
HETATM   23  C13 UNL     1      22.524  13.272  -2.669  1.00  0.00     0.016 A 
HETATM   24  C14 UNL     1      23.416  13.999  -1.897  1.00  0.00    -0.009 A 
HETATM   25  C15 UNL     1      22.989  15.102  -1.180  1.00  0.00     0.013 A 
HETATM   26  C19 UNL     1      24.748  13.644  -1.819  1.00  0.00     0.043 A 
HETATM   27  C16 UNL     1      23.867  15.832  -0.409  1.00  0.00     0.001 A 
HETATM   28  C17 UNL     1      25.187  15.473  -0.339  1.00  0.00     0.002 A 
HETATM   29  C18 UNL     1      25.636  14.388  -1.036  1.00  0.00     0.030 A 
HETATM   30  N4  UNL     1      25.165  12.578  -2.511  1.00  0.00    -0.351 N 
ATOM     31  H4  UNL     1      26.149  12.313  -2.457  1.00  0.00     0.166 HD
ENDBRANCH  18  21
ENDBRANCH  14  17
ENDBRANCH   6   9
TORSDOF 3
ENDMDL
MODEL 5
REMARK VINA RESULT: -8.317174183      4.125      7.436
REMARK  3 active torsions:
REMARK  status: ('A' for Active; 'I' for Inactive)
REMARK    1  A    between atoms: C5_6  and  C6_7 
REMARK    2  A    between atoms: C9_12  and  N3_13 
REMARK       I    between atoms: N3_13  and  C10_15 
REMARK    3  A    between atoms: C10_15  and  C11_17 
ROOT
HETATM    1  N1  UNL     1      26.175  -4.209 -12.495  1.00  0.00    -0.191 NA
HETATM    2  C1  UNL     1      25.870  -3.135 -12.195  1.00  0.00     0.099 C 
HETATM    3  C2  UNL     1      25.470  -1.785 -11.837  1.00  0.00     0.044 A 
HETATM    4  C3  UNL     1      26.204  -0.698 -12.230  1.00  0.00     0.023 A 
HETATM    5  C4  UNL     1      25.805   0.596 -11.877  1.00  0.00     0.015 A 
HETATM    6  C5  UNL     1      24.676   0.823 -11.133  1.00  0.00    -0.008 A 
HETATM    7  C20 UNL     1      23.957  -0.278 -10.751  1.00  0.00     0.015 A 
HETATM    8  C21 UNL     1      24.351  -1.577 -11.101  1.00  0.00     0.023 A 
ENDROOT
BRANCH   6   9
HETATM    9  C6  UNL     1      24.246   2.162 -10.756  1.00  0.00     0.059 A 
HETATM   10  C7  UNL     1      25.095   3.247 -10.770  1.00  0.00     0.118 A 
HETATM   11  N2  UNL     1      24.660   4.490 -10.410  1.00  0.00    -0.370 N 
HETATM   12  C8  UNL     1      23.383   4.677 -10.032  1.00  0.00     0.136 A 
ATOM     13  H2  UNL     1      25.305   5.280 -10.429  1.00  0.00     0.164 HD
HETATM   14  C9  UNL     1      22.501   3.618 -10.003  1.00  0.00     0.124 A 
HETATM   15  N5  UNL     1      22.972   2.415 -10.365  1.00  0.00    -0.340 N 
ATOM     16  H5  UNL     1      22.322   1.629 -10.345  1.00  0.00     0.167 HD
BRANCH  14  17
HETATM   17  N3  UNL     1      21.261   3.787  -9.638  1.00  0.00    -0.306 N 
HETATM   18  C10 UNL     1      20.847   4.803  -8.773  1.00  0.00     0.273 C 
HETATM   19  O1  UNL     1      20.285   5.821  -9.244  1.00  0.00    -0.266 OA
ATOM     20  H3  UNL     1      20.557   3.145 -10.003  1.00  0.00     0.170 HD
BRANCH  18  21
HETATM   21  C11 UNL     1      21.067   4.681  -7.345  1.00  0.00     0.101 A 
HETATM   22  C12 UNL     1      21.854   5.636  -6.686  1.00  0.00     0.036 A 
HETATM   23  C13 UNL     1      22.048   5.497  -5.328  1.00  0.00     0.016 A 
HETATM   24  C14 UNL     1      21.462   4.429  -4.668  1.00  0.00    -0.009 A 
HETATM   25  C15 UNL     1      21.637   4.262  -3.306  1.00  0.00     0.013 A 
HETATM   26  C19 UNL     1      20.691   3.505  -5.347  1.00  0.00     0.043 A 
HETATM   27  C16 UNL     1      21.058   3.203  -2.640  1.00  0.00     0.001 A 
HETATM   28  C17 UNL     1      20.296   2.292  -3.323  1.00  0.00     0.002 A 
HETATM   29  C18 UNL     1      20.107   2.432  -4.667  1.00  0.00     0.030 A 
HETATM   30  N4  UNL     1      20.520   3.663  -6.664  1.00  0.00    -0.351 N 
ATOM     31  H4  UNL     1      19.952   2.983  -7.169  1.00  0.00     0.166 HD
ENDBRANCH  18  21
ENDBRANCH  14  17
ENDBRANCH   6   9
TORSDOF 3
ENDMDL
