MODEL 1
REMARK VINA RESULT: -7.924548434      0.000      0.000
REMARK  5 active torsions:
REMARK  status: ('A' for Active; 'I' for Inactive)
REMARK    1  A    between atoms: C4_7  and  C5_8 
REMARK    2  A    between atoms: C5_8  and  N3_9 
REMARK    3  A    between atoms: C5_8  and  N5_13 
REMARK    4  A    between atoms: N5_13  and  C7_15 
REMARK    5  A    between atoms: C8_18  and  C9_19 
ROOT
HETATM    1  N3  UNL     1      21.369   3.272  -9.460  1.00  0.00    -0.277 N 
ATOM      2  H3  UNL     1      21.001   2.378  -9.133  1.00  0.00     0.179 HD
HETATM    3  C6  UNL     1      22.655   3.303 -10.006  1.00  0.00     0.183 C 
HETATM    4  N4  UNL     1      23.720   3.329 -10.470  1.00  0.00    -0.172 NA
ENDROOT
BRANCH   1   5
HETATM    5  C5  UNL     1      20.641   4.299  -9.352  1.00  0.00     0.144 C 
BRANCH   5   6
HETATM    6  C4  UNL     1      19.313   4.323  -9.947  1.00  0.00     0.096 A 
HETATM    7  N1  UNL     1      18.151   3.829  -9.491  1.00  0.00    -0.293 N 
HETATM    8  C1  UNL     1      18.001   3.131  -8.220  1.00  0.00     0.178 C 
HETATM    9  N2  UNL     1      17.174   4.075 -10.371  1.00  0.00    -0.310 N 
HETATM   10  C2  UNL     1      17.689   4.738 -11.415  1.00  0.00     0.110 A 
ATOM     11  H2  UNL     1      16.197   3.804 -10.265  1.00  0.00     0.186 HD
HETATM   12  C3  UNL     1      19.015   4.906 -11.179  1.00  0.00     0.053 A 
ENDBRANCH   5   6
BRANCH   5  13
HETATM   13  N5  UNL     1      21.092   5.439  -8.654  1.00  0.00    -0.325 N 
ATOM     14  H5  UNL     1      21.529   6.179  -9.204  1.00  0.00     0.169 HD
BRANCH  13  15
HETATM   15  C7  UNL     1      21.001   5.625  -7.393  1.00  0.00     0.118 A 
HETATM   16  N6  UNL     1      20.747   4.610  -6.527  1.00  0.00    -0.341 N 
HETATM   17  C8  UNL     1      20.647   4.771  -5.198  1.00  0.00     0.044 A 
ATOM     18  H6  UNL     1      20.626   3.672  -6.909  1.00  0.00     0.167 HD
HETATM   19  C15 UNL     1      20.819   6.059  -4.730  1.00  0.00     0.042 A 
HETATM   20  C16 UNL     1      21.080   7.140  -5.565  1.00  0.00    -0.020 A 
HETATM   21  C17 UNL     1      21.251   8.421  -5.097  1.00  0.00     0.012 A 
HETATM   22  C21 UNL     1      21.172   6.915  -6.915  1.00  0.00     0.018 A 
HETATM   23  C18 UNL     1      21.508   9.464  -5.938  1.00  0.00     0.001 A 
HETATM   24  C19 UNL     1      21.598   9.231  -7.283  1.00  0.00     0.001 A 
HETATM   25  C20 UNL     1      21.432   7.962  -7.777  1.00  0.00     0.016 A 
BRANCH  17  26
HETATM   26  C9  UNL     1      20.372   3.658  -4.298  1.00  0.00    -0.009 A 
HETATM   27  C10 UNL     1      21.044   3.474  -3.108  1.00  0.00     0.013 A 
HETATM   28  C11 UNL     1      20.801   2.424  -2.235  1.00  0.00     0.001 A 
HETATM   29  C12 UNL     1      19.832   1.502  -2.564  1.00  0.00     0.000 A 
HETATM   30  C13 UNL     1      19.130   1.643  -3.746  1.00  0.00     0.001 A 
HETATM   31  C14 UNL     1      19.408   2.715  -4.596  1.00  0.00     0.013 A 
ENDBRANCH  17  26
ENDBRANCH  13  15
ENDBRANCH   5  13
ENDBRANCH   1   5
TORSDOF 5
ENDMDL
MODEL 2
REMARK VINA RESULT: -7.900998488      0.623      1.199
REMARK  5 active torsions:
REMARK  status: ('A' for Active; 'I' for Inactive)
REMARK    1  A    between atoms: C4_7  and  C5_8 
REMARK    2  A    between atoms: C5_8  and  N3_9 
REMARK    3  A    between atoms: C5_8  and  N5_13 
REMARK    4  A    between atoms: N5_13  and  C7_15 
REMARK    5  A    between atoms: C8_18  and  C9_19 
ROOT
HETATM    1  N3  UNL     1      21.517   3.109 -10.009  1.00  0.00    -0.277 N 
ATOM      2  H3  UNL     1      21.079   2.212 -10.223  1.00  0.00     0.179 HD
HETATM    3  C6  UNL     1      22.897   3.236 -10.191  1.00  0.00     0.183 C 
HETATM    4  N4  UNL     1      24.042   3.348 -10.351  1.00  0.00    -0.172 NA
ENDROOT
BRANCH   1   5
HETATM    5  C5  UNL     1      20.787   4.052  -9.593  1.00  0.00     0.144 C 
BRANCH   5   6
HETATM    6  C4  UNL     1      19.346   4.010  -9.799  1.00  0.00     0.096 A 
HETATM    7  N1  UNL     1      18.580   4.656 -10.692  1.00  0.00    -0.293 N 
HETATM    8  C1  UNL     1      19.095   5.582 -11.694  1.00  0.00     0.178 C 
HETATM    9  N2  UNL     1      17.297   4.320 -10.520  1.00  0.00    -0.310 N 
HETATM   10  C2  UNL     1      17.210   3.446  -9.509  1.00  0.00     0.110 A 
ATOM     11  H2  UNL     1      16.512   4.672 -11.069  1.00  0.00     0.186 HD
HETATM   12  C3  UNL     1      18.467   3.235  -9.042  1.00  0.00     0.053 A 
ENDBRANCH   5   6
BRANCH   5  13
HETATM   13  N5  UNL     1      21.343   5.159  -8.920  1.00  0.00    -0.325 N 
ATOM     14  H5  UNL     1      21.939   5.783  -9.463  1.00  0.00     0.169 HD
BRANCH  13  15
HETATM   15  C7  UNL     1      21.165   5.448  -7.687  1.00  0.00     0.118 A 
HETATM   16  N6  UNL     1      20.959   4.495  -6.742  1.00  0.00    -0.341 N 
HETATM   17  C8  UNL     1      20.771   4.764  -5.440  1.00  0.00     0.044 A 
ATOM     18  H6  UNL     1      20.947   3.519  -7.038  1.00  0.00     0.167 HD
HETATM   19  C15 UNL     1      20.795   6.100  -5.089  1.00  0.00     0.042 A 
HETATM   20  C16 UNL     1      21.001   7.121  -6.010  1.00  0.00    -0.020 A 
HETATM   21  C17 UNL     1      21.026   8.451  -5.657  1.00  0.00     0.012 A 
HETATM   22  C21 UNL     1      21.188   6.787  -7.326  1.00  0.00     0.018 A 
HETATM   23  C18 UNL     1      21.230   9.433  -6.581  1.00  0.00     0.001 A 
HETATM   24  C19 UNL     1      21.416   9.091  -7.892  1.00  0.00     0.001 A 
HETATM   25  C20 UNL     1      21.396   7.772  -8.271  1.00  0.00     0.016 A 
BRANCH  17  26
HETATM   26  C9  UNL     1      20.552   3.715  -4.452  1.00  0.00    -0.009 A 
HETATM   27  C10 UNL     1      21.263   3.637  -3.274  1.00  0.00     0.013 A 
HETATM   28  C11 UNL     1      21.072   2.650  -2.318  1.00  0.00     0.001 A 
HETATM   29  C12 UNL     1      20.118   1.682  -2.548  1.00  0.00     0.000 A 
HETATM   30  C13 UNL     1      19.379   1.718  -3.715  1.00  0.00     0.001 A 
HETATM   31  C14 UNL     1      19.604   2.730  -4.649  1.00  0.00     0.013 A 
ENDBRANCH  17  26
ENDBRANCH  13  15
ENDBRANCH   5  13
ENDBRANCH   1   5
TORSDOF 5
ENDMDL
MODEL 3
REMARK VINA RESULT: -7.826022065      1.793      5.404
REMARK  5 active torsions:
REMARK  status: ('A' for Active; 'I' for Inactive)
REMARK    1  A    between atoms: C4_7  and  C5_8 
REMARK    2  A    between atoms: C5_8  and  N3_9 
REMARK    3  A    between atoms: C5_8  and  N5_13 
REMARK    4  A    between atoms: N5_13  and  C7_15 
REMARK    5  A    between atoms: C8_18  and  C9_19 
ROOT
HETATM    1  N3  UNL     1      17.129   3.260  -6.743  1.00  0.00    -0.277 N 
ATOM      2  H3  UNL     1      16.542   4.095  -6.778  1.00  0.00     0.179 HD
HETATM    3  C6  UNL     1      16.743   2.209  -5.907  1.00  0.00     0.183 C 
HETATM    4  N4  UNL     1      16.419   1.330  -5.221  1.00  0.00    -0.172 NA
ENDROOT
BRANCH   1   5
HETATM    5  C5  UNL     1      18.170   3.226  -7.458  1.00  0.00     0.144 C 
BRANCH   5   6
HETATM    6  C4  UNL     1      18.074   3.373  -8.903  1.00  0.00     0.096 A 
HETATM    7  N1  UNL     1      17.412   2.634  -9.807  1.00  0.00    -0.293 N 
HETATM    8  C1  UNL     1      16.607   1.465  -9.475  1.00  0.00     0.178 C 
HETATM    9  N2  UNL     1      17.604   3.132 -11.033  1.00  0.00    -0.310 N 
HETATM   10  C2  UNL     1      18.397   4.209 -10.943  1.00  0.00     0.110 A 
ATOM     11  H2  UNL     1      17.212   2.754 -11.895  1.00  0.00     0.186 HD
HETATM   12  C3  UNL     1      18.704   4.382  -9.633  1.00  0.00     0.053 A 
ENDBRANCH   5   6
BRANCH   5  13
HETATM   13  N5  UNL     1      19.443   3.049  -6.878  1.00  0.00    -0.325 N 
ATOM     14  H5  UNL     1      19.956   2.204  -7.129  1.00  0.00     0.169 HD
BRANCH  13  15
HETATM   15  C7  UNL     1      20.011   3.856  -6.066  1.00  0.00     0.118 A 
HETATM   16  N6  UNL     1      20.343   5.125  -6.418  1.00  0.00    -0.341 N 
HETATM   17  C8  UNL     1      20.938   5.998  -5.590  1.00  0.00     0.044 A 
ATOM     18  H6  UNL     1      20.129   5.432  -7.367  1.00  0.00     0.167 HD
HETATM   19  C15 UNL     1      21.209   5.535  -4.317  1.00  0.00     0.042 A 
HETATM   20  C16 UNL     1      20.893   4.248  -3.896  1.00  0.00    -0.020 A 
HETATM   21  C17 UNL     1      21.163   3.790  -2.627  1.00  0.00     0.012 A 
HETATM   22  C21 UNL     1      20.286   3.400  -4.786  1.00  0.00     0.018 A 
HETATM   23  C18 UNL     1      20.843   2.522  -2.240  1.00  0.00     0.001 A 
HETATM   24  C19 UNL     1      20.237   1.682  -3.134  1.00  0.00     0.001 A 
HETATM   25  C20 UNL     1      19.957   2.114  -4.405  1.00  0.00     0.016 A 
BRANCH  17  26
HETATM   26  C9  UNL     1      21.281   7.353  -6.003  1.00  0.00    -0.009 A 
HETATM   27  C10 UNL     1      21.023   7.838  -7.267  1.00  0.00     0.013 A 
HETATM   28  C11 UNL     1      21.339   9.122  -7.684  1.00  0.00     0.001 A 
HETATM   29  C12 UNL     1      21.948   9.976  -6.790  1.00  0.00     0.000 A 
HETATM   30  C13 UNL     1      22.228   9.537  -5.510  1.00  0.00     0.001 A 
HETATM   31  C14 UNL     1      21.893   8.235  -5.134  1.00  0.00     0.013 A 
ENDBRANCH  17  26
ENDBRANCH  13  15
ENDBRANCH   5  13
ENDBRANCH   1   5
TORSDOF 5
ENDMDL
MODEL 4
REMARK VINA RESULT: -7.718546276      1.089      2.785
REMARK  5 active torsions:
REMARK  status: ('A' for Active; 'I' for Inactive)
REMARK    1  A    between atoms: C4_7  and  C5_8 
REMARK    2  A    between atoms: C5_8  and  N3_9 
REMARK    3  A    between atoms: C5_8  and  N5_13 
REMARK    4  A    between atoms: N5_13  and  C7_15 
REMARK    5  A    between atoms: C8_18  and  C9_19 
ROOT
HETATM    1  N3  UNL     1      19.210   4.742  -9.573  1.00  0.00    -0.277 N 
ATOM      2  H3  UNL     1      18.683   5.611  -9.677  1.00  0.00     0.179 HD
HETATM    3  C6  UNL     1      18.501   3.543  -9.461  1.00  0.00     0.183 C 
HETATM    4  N4  UNL     1      17.915   2.544  -9.379  1.00  0.00    -0.172 NA
ENDROOT
BRANCH   1   5
HETATM    5  C5  UNL     1      20.472   4.802  -9.551  1.00  0.00     0.144 C 
BRANCH   5   6
HETATM    6  C4  UNL     1      21.265   3.848 -10.312  1.00  0.00     0.096 A 
HETATM    7  N1  UNL     1      21.387   3.686 -11.639  1.00  0.00    -0.293 N 
HETATM    8  C1  UNL     1      20.698   4.504 -12.629  1.00  0.00     0.178 C 
HETATM    9  N2  UNL     1      22.226   2.678 -11.900  1.00  0.00    -0.310 N 
HETATM   10  C2  UNL     1      22.664   2.167 -10.741  1.00  0.00     0.110 A 
ATOM     11  H2  UNL     1      22.489   2.350 -12.829  1.00  0.00     0.186 HD
HETATM   12  C3  UNL     1      22.084   2.874  -9.738  1.00  0.00     0.053 A 
ENDBRANCH   5   6
BRANCH   5  13
HETATM   13  N5  UNL     1      21.139   5.790  -8.797  1.00  0.00    -0.325 N 
ATOM     14  H5  UNL     1      21.738   6.439  -9.307  1.00  0.00     0.169 HD
BRANCH  13  15
HETATM   15  C7  UNL     1      21.058   5.942  -7.531  1.00  0.00     0.118 A 
HETATM   16  N6  UNL     1      20.822   4.902  -6.690  1.00  0.00    -0.341 N 
HETATM   17  C8  UNL     1      20.733   5.026  -5.356  1.00  0.00     0.044 A 
ATOM     18  H6  UNL     1      20.706   3.973  -7.095  1.00  0.00     0.167 HD
HETATM   19  C15 UNL     1      20.898   6.304  -4.856  1.00  0.00     0.042 A 
HETATM   20  C16 UNL     1      21.142   7.408  -5.664  1.00  0.00    -0.020 A 
HETATM   21  C17 UNL     1      21.306   8.679  -5.163  1.00  0.00     0.012 A 
HETATM   22  C21 UNL     1      21.223   7.220  -7.020  1.00  0.00     0.018 A 
HETATM   23  C18 UNL     1      21.545   9.745  -5.979  1.00  0.00     0.001 A 
HETATM   24  C19 UNL     1      21.624   9.549  -7.331  1.00  0.00     0.001 A 
HETATM   25  C20 UNL     1      21.464   8.292  -7.856  1.00  0.00     0.016 A 
BRANCH  17  26
HETATM   26  C9  UNL     1      20.478   3.887  -4.483  1.00  0.00    -0.009 A 
HETATM   27  C10 UNL     1      19.515   2.939  -4.753  1.00  0.00     0.013 A 
HETATM   28  C11 UNL     1      19.253   1.847  -3.940  1.00  0.00     0.001 A 
HETATM   29  C12 UNL     1      19.994   1.688  -2.788  1.00  0.00     0.000 A 
HETATM   30  C13 UNL     1      20.972   2.612  -2.474  1.00  0.00     0.001 A 
HETATM   31  C14 UNL     1      21.201   3.697  -3.321  1.00  0.00     0.013 A 
ENDBRANCH  17  26
ENDBRANCH  13  15
ENDBRANCH   5  13
ENDBRANCH   1   5
TORSDOF 5
ENDMDL
MODEL 5
REMARK VINA RESULT: -7.660245522      4.181      7.164
REMARK  5 active torsions:
REMARK  status: ('A' for Active; 'I' for Inactive)
REMARK    1  A    between atoms: C4_7  and  C5_8 
REMARK    2  A    between atoms: C5_8  and  N3_9 
REMARK    3  A    between atoms: C5_8  and  N5_13 
REMARK    4  A    between atoms: N5_13  and  C7_15 
REMARK    5  A    between atoms: C8_18  and  C9_19 
ROOT
HETATM    1  N3  UNL     1      24.014  10.017  -4.919  1.00  0.00    -0.277 N 
ATOM      2  H3  UNL     1      24.077   9.402  -5.731  1.00  0.00     0.179 HD
HETATM    3  C6  UNL     1      25.069  10.024  -4.004  1.00  0.00     0.183 C 
HETATM    4  N4  UNL     1      25.951  10.038  -3.247  1.00  0.00    -0.172 NA
ENDROOT
BRANCH   1   5
HETATM    5  C5  UNL     1      22.983  10.737  -4.788  1.00  0.00     0.144 C 
BRANCH   5   6
HETATM    6  C4  UNL     1      23.095  12.088  -4.255  1.00  0.00     0.096 A 
HETATM    7  N1  UNL     1      23.726  13.164  -4.750  1.00  0.00    -0.293 N 
HETATM    8  C1  UNL     1      24.464  13.175  -6.007  1.00  0.00     0.178 C 
HETATM    9  N2  UNL     1      23.571  14.204  -3.923  1.00  0.00    -0.310 N 
HETATM   10  C2  UNL     1      22.832  13.817  -2.874  1.00  0.00     0.110 A 
ATOM     11  H2  UNL     1      23.952  15.139  -4.066  1.00  0.00     0.186 HD
HETATM   12  C3  UNL     1      22.523  12.507  -3.054  1.00  0.00     0.053 A 
ENDBRANCH   5   6
BRANCH   5  13
HETATM   13  N5  UNL     1      21.710  10.257  -5.155  1.00  0.00    -0.325 N 
ATOM     14  H5  UNL     1      20.907  10.840  -4.922  1.00  0.00     0.169 HD
BRANCH  13  15
HETATM   15  C7  UNL     1      21.474   9.153  -5.755  1.00  0.00     0.118 A 
HETATM   16  N6  UNL     1      21.363   7.975  -5.088  1.00  0.00    -0.341 N 
HETATM   17  C8  UNL     1      21.115   6.799  -5.686  1.00  0.00     0.044 A 
ATOM     18  H6  UNL     1      21.475   7.984  -4.074  1.00  0.00     0.167 HD
HETATM   19  C15 UNL     1      20.971   6.838  -7.060  1.00  0.00     0.042 A 
HETATM   20  C16 UNL     1      21.074   8.012  -7.799  1.00  0.00    -0.020 A 
HETATM   21  C17 UNL     1      20.930   8.048  -9.166  1.00  0.00     0.012 A 
HETATM   22  C21 UNL     1      21.329   9.183  -7.133  1.00  0.00     0.018 A 
HETATM   23  C18 UNL     1      21.035   9.213  -9.867  1.00  0.00     0.001 A 
HETATM   24  C19 UNL     1      21.289  10.377  -9.196  1.00  0.00     0.001 A 
HETATM   25  C20 UNL     1      21.437  10.369  -7.832  1.00  0.00     0.016 A 
BRANCH  17  26
HETATM   26  C9  UNL     1      21.003   5.553  -4.938  1.00  0.00    -0.009 A 
HETATM   27  C10 UNL     1      22.017   5.065  -4.143  1.00  0.00     0.013 A 
HETATM   28  C11 UNL     1      21.934   3.883  -3.421  1.00  0.00     0.001 A 
HETATM   29  C12 UNL     1      20.774   3.143  -3.495  1.00  0.00     0.000 A 
HETATM   30  C13 UNL     1      19.729   3.591  -4.278  1.00  0.00     0.001 A 
HETATM   31  C14 UNL     1      19.855   4.786  -4.989  1.00  0.00     0.013 A 
ENDBRANCH  17  26
ENDBRANCH  13  15
ENDBRANCH   5  13
ENDBRANCH   1   5
TORSDOF 5
ENDMDL
