MODEL 1
REMARK VINA RESULT: -4.644474599      0.000      0.000
REMARK  5 active torsions:
REMARK  status: ('A' for Active; 'I' for Inactive)
REMARK    1  A    between atoms: C2_2  and  C5_9 
REMARK    2  A    between atoms: C3_3  and  C4_4 
REMARK    3  A    between atoms: C4_4  and  N1_5 
REMARK    4  A    between atoms: C5_9  and  C7_12 
REMARK    5  A    between atoms: C7_12  and  N3_13 
ROOT
HETATM    1  C1  UNL     1      17.752   3.583  -5.132  1.00  0.00     0.048 C 
HETATM    2  C2  UNL     1      18.649   2.486  -4.780  1.00  0.00    -0.055 C 
HETATM    3  C3  UNL     1      19.880   2.780  -4.393  1.00  0.00     0.007 C 
ENDROOT
BRANCH   2   4
HETATM    4  C5  UNL     1      18.232   1.119  -4.840  1.00  0.00    -0.014 C 
HETATM    5  C6  UNL     1      18.074   0.300  -3.879  1.00  0.00     0.109 C 
HETATM    6  N2  UNL     1      18.251   0.453  -2.501  1.00  0.00    -0.115 NA
BRANCH   4   7
HETATM    7  C7  UNL     1      17.947   0.623  -6.253  1.00  0.00     0.269 C 
BRANCH   7   8
HETATM    8  N3  UNL     1      17.874  -0.801  -6.328  1.00  0.00    -0.075 N 
ATOM      9  H33 UNL     1      17.580  -1.201  -5.437  1.00  0.00     0.274 HD
ATOM     10  H32 UNL     1      17.090  -1.099  -6.908  1.00  0.00     0.274 HD
ATOM     11  H31 UNL     1      18.747  -1.220  -6.648  1.00  0.00     0.274 HD
ENDBRANCH   7   8
ENDBRANCH   4   7
ENDBRANCH   2   4
BRANCH   3  12
HETATM   12  C4  UNL     1      20.510   4.095  -4.252  1.00  0.00     0.257 C 
BRANCH  12  13
HETATM   13  N1  UNL     1      21.950   3.843  -3.997  1.00  0.00    -0.076 N 
ATOM     14  H13 UNL     1      22.264   4.178  -3.086  1.00  0.00     0.274 HD
ATOM     15  H12 UNL     1      22.170   2.858  -3.851  1.00  0.00     0.274 HD
ATOM     16  H11 UNL     1      22.458   4.259  -4.778  1.00  0.00     0.274 HD
ENDBRANCH  12  13
ENDBRANCH   3  12
TORSDOF 5
ENDMDL
MODEL 2
REMARK VINA RESULT: -4.578297109      1.771      2.201
REMARK  5 active torsions:
REMARK  status: ('A' for Active; 'I' for Inactive)
REMARK    1  A    between atoms: C2_2  and  C5_9 
REMARK    2  A    between atoms: C3_3  and  C4_4 
REMARK    3  A    between atoms: C4_4  and  N1_5 
REMARK    4  A    between atoms: C5_9  and  C7_12 
REMARK    5  A    between atoms: C7_12  and  N3_13 
ROOT
HETATM    1  C1  UNL     1      18.890   1.223  -2.035  1.00  0.00     0.048 C 
HETATM    2  C2  UNL     1      19.062   1.697  -3.406  1.00  0.00    -0.055 C 
HETATM    3  C3  UNL     1      20.031   2.563  -3.655  1.00  0.00     0.007 C 
ENDROOT
BRANCH   2   4
HETATM    4  C5  UNL     1      18.220   1.248  -4.472  1.00  0.00    -0.014 C 
HETATM    5  C6  UNL     1      17.442   1.938  -5.206  1.00  0.00     0.109 C 
HETATM    6  N2  UNL     1      17.158   3.306  -5.215  1.00  0.00    -0.115 NA
BRANCH   4   7
HETATM    7  C7  UNL     1      18.299  -0.252  -4.729  1.00  0.00     0.269 C 
BRANCH   7   8
HETATM    8  N3  UNL     1      17.941  -0.596  -6.068  1.00  0.00    -0.075 N 
ATOM      9  H33 UNL     1      16.947  -0.442  -6.233  1.00  0.00     0.274 HD
ATOM     10  H32 UNL     1      18.324   0.074  -6.734  1.00  0.00     0.274 HD
ATOM     11  H31 UNL     1      18.210  -1.550  -6.310  1.00  0.00     0.274 HD
ENDBRANCH   7   8
ENDBRANCH   4   7
ENDBRANCH   2   4
BRANCH   3  12
HETATM   12  C4  UNL     1      21.005   3.144  -2.727  1.00  0.00     0.257 C 
BRANCH  12  13
HETATM   13  N1  UNL     1      21.978   3.896  -3.559  1.00  0.00    -0.076 N 
ATOM     14  H13 UNL     1      22.045   3.549  -4.517  1.00  0.00     0.274 HD
ATOM     15  H12 UNL     1      21.669   4.840  -3.790  1.00  0.00     0.274 HD
ATOM     16  H11 UNL     1      22.865   3.871  -3.057  1.00  0.00     0.274 HD
ENDBRANCH  12  13
ENDBRANCH   3  12
TORSDOF 5
ENDMDL
MODEL 3
REMARK VINA RESULT: -4.536565274      1.049      3.864
REMARK  5 active torsions:
REMARK  status: ('A' for Active; 'I' for Inactive)
REMARK    1  A    between atoms: C2_2  and  C5_9 
REMARK    2  A    between atoms: C3_3  and  C4_4 
REMARK    3  A    between atoms: C4_4  and  N1_5 
REMARK    4  A    between atoms: C5_9  and  C7_12 
REMARK    5  A    between atoms: C7_12  and  N3_13 
ROOT
HETATM    1  C1  UNL     1      17.386   3.157  -5.112  1.00  0.00     0.048 C 
HETATM    2  C2  UNL     1      18.315   2.038  -4.973  1.00  0.00    -0.055 C 
HETATM    3  C3  UNL     1      18.194   1.014  -5.802  1.00  0.00     0.007 C 
ENDROOT
BRANCH   2   4
HETATM    4  C5  UNL     1      19.342   2.029  -3.978  1.00  0.00    -0.014 C 
HETATM    5  C6  UNL     1      19.320   1.486  -2.827  1.00  0.00     0.109 C 
HETATM    6  N2  UNL     1      18.326   0.751  -2.175  1.00  0.00    -0.115 NA
BRANCH   4   7
HETATM    7  C7  UNL     1      20.607   2.771  -4.391  1.00  0.00     0.269 C 
BRANCH   7   8
HETATM    8  N3  UNL     1      21.371   3.216  -3.269  1.00  0.00    -0.075 N 
ATOM      9  H33 UNL     1      20.928   2.943  -2.392  1.00  0.00     0.274 HD
ATOM     10  H32 UNL     1      22.240   2.690  -3.185  1.00  0.00     0.274 HD
ATOM     11  H31 UNL     1      21.551   4.220  -3.293  1.00  0.00     0.274 HD
ENDBRANCH   7   8
ENDBRANCH   4   7
ENDBRANCH   2   4
BRANCH   3  12
HETATM   12  C4  UNL     1      17.230   0.819  -6.888  1.00  0.00     0.257 C 
BRANCH  12  13
HETATM   13  N1  UNL     1      17.275  -0.624  -7.232  1.00  0.00    -0.076 N 
ATOM     14  H13 UNL     1      17.185  -1.237  -6.421  1.00  0.00     0.274 HD
ATOM     15  H12 UNL     1      16.444  -0.949  -7.727  1.00  0.00     0.274 HD
ATOM     16  H11 UNL     1      18.138  -0.768  -7.755  1.00  0.00     0.274 HD
ENDBRANCH  12  13
ENDBRANCH   3  12
TORSDOF 5
ENDMDL
MODEL 4
REMARK VINA RESULT: -4.505909625      0.999      2.047
REMARK  5 active torsions:
REMARK  status: ('A' for Active; 'I' for Inactive)
REMARK    1  A    between atoms: C2_2  and  C5_9 
REMARK    2  A    between atoms: C3_3  and  C4_4 
REMARK    3  A    between atoms: C4_4  and  N1_5 
REMARK    4  A    between atoms: C5_9  and  C7_12 
REMARK    5  A    between atoms: C7_12  and  N3_13 
ROOT
HETATM    1  C1  UNL     1      17.829   3.565  -5.133  1.00  0.00     0.048 C 
HETATM    2  C2  UNL     1      18.722   2.450  -4.827  1.00  0.00    -0.055 C 
HETATM    3  C3  UNL     1      19.913   2.721  -4.316  1.00  0.00     0.007 C 
ENDROOT
BRANCH   2   4
HETATM    4  C5  UNL     1      18.341   1.091  -5.058  1.00  0.00    -0.014 C 
HETATM    5  C6  UNL     1      17.950   0.557  -6.144  1.00  0.00     0.109 C 
HETATM    6  N2  UNL     1      17.765   1.094  -7.421  1.00  0.00    -0.115 NA
BRANCH   4   7
HETATM    7  C7  UNL     1      18.433   0.207  -3.821  1.00  0.00     0.269 C 
BRANCH   7   8
HETATM    8  N3  UNL     1      17.867  -1.088  -4.032  1.00  0.00    -0.075 N 
ATOM      9  H33 UNL     1      17.015  -1.030  -4.589  1.00  0.00     0.274 HD
ATOM     10  H32 UNL     1      18.441  -1.640  -4.668  1.00  0.00     0.274 HD
ATOM     11  H31 UNL     1      17.703  -1.588  -3.158  1.00  0.00     0.274 HD
ENDBRANCH   7   8
ENDBRANCH   4   7
ENDBRANCH   2   4
BRANCH   3  12
HETATM   12  C4  UNL     1      20.501   4.024  -3.994  1.00  0.00     0.257 C 
BRANCH  12  13
HETATM   13  N1  UNL     1      21.970   3.819  -3.948  1.00  0.00    -0.076 N 
ATOM     14  H13 UNL     1      22.241   2.908  -3.577  1.00  0.00     0.274 HD
ATOM     15  H12 UNL     1      22.393   3.709  -4.870  1.00  0.00     0.274 HD
ATOM     16  H11 UNL     1      22.353   4.602  -3.419  1.00  0.00     0.274 HD
ENDBRANCH  12  13
ENDBRANCH   3  12
TORSDOF 5
ENDMDL
MODEL 5
REMARK VINA RESULT: -4.430417449      1.846      2.546
REMARK  5 active torsions:
REMARK  status: ('A' for Active; 'I' for Inactive)
REMARK    1  A    between atoms: C2_2  and  C5_9 
REMARK    2  A    between atoms: C3_3  and  C4_4 
REMARK    3  A    between atoms: C4_4  and  N1_5 
REMARK    4  A    between atoms: C5_9  and  C7_12 
REMARK    5  A    between atoms: C7_12  and  N3_13 
ROOT
HETATM    1  C1  UNL     1      20.258   1.970  -2.540  1.00  0.00     0.048 C 
HETATM    2  C2  UNL     1      19.965   2.751  -3.739  1.00  0.00    -0.055 C 
HETATM    3  C3  UNL     1      20.752   3.774  -4.030  1.00  0.00     0.007 C 
ENDROOT
BRANCH   2   4
HETATM    4  C5  UNL     1      18.865   2.435  -4.596  1.00  0.00    -0.014 C 
HETATM    5  C6  UNL     1      18.427   1.287  -4.926  1.00  0.00     0.109 C 
HETATM    6  N2  UNL     1      18.857   0.003  -4.578  1.00  0.00    -0.115 NA
BRANCH   4   7
HETATM    7  C7  UNL     1      18.155   3.658  -5.162  1.00  0.00     0.269 C 
BRANCH   7   8
HETATM    8  N3  UNL     1      16.765   3.425  -5.393  1.00  0.00    -0.075 N 
ATOM      9  H33 UNL     1      16.488   2.500  -5.063  1.00  0.00     0.274 HD
ATOM     10  H32 UNL     1      16.189   3.997  -4.777  1.00  0.00     0.274 HD
ATOM     11  H31 UNL     1      16.503   3.560  -6.370  1.00  0.00     0.274 HD
ENDBRANCH   7   8
ENDBRANCH   4   7
ENDBRANCH   2   4
BRANCH   3  12
HETATM   12  C4  UNL     1      21.927   4.267  -3.305  1.00  0.00     0.257 C 
BRANCH  12  13
HETATM   13  N1  UNL     1      22.856   4.804  -4.330  1.00  0.00    -0.076 N 
ATOM     14  H13 UNL     1      23.804   4.436  -4.250  1.00  0.00     0.274 HD
ATOM     15  H12 UNL     1      22.666   4.457  -5.270  1.00  0.00     0.274 HD
ATOM     16  H11 UNL     1      22.808   5.820  -4.257  1.00  0.00     0.274 HD
ENDBRANCH  12  13
ENDBRANCH   3  12
TORSDOF 5
ENDMDL
