MODEL 1
REMARK VINA RESULT: -4.341016626      0.000      0.000
REMARK  6 active torsions:
REMARK  status: ('A' for Active; 'I' for Inactive)
REMARK    1  A    between atoms: C2_2  and  C3_3 
REMARK    2  A    between atoms: C3_3  and  N1_4 
REMARK    3  A    between atoms: C4_8  and  C5_9 
REMARK    4  A    between atoms: C4_8  and  C7_15 
REMARK    5  A    between atoms: C5_9  and  C6_10 
REMARK    6  A    between atoms: C6_10  and  N2_11 
ROOT
HETATM    1  C1  UNL     1      20.762   2.546  -2.447  1.00  0.00     0.046 C 
HETATM    2  C2  UNL     1      19.834   3.006  -3.981  1.00  0.00    -0.040 C 
HETATM    3  C4  UNL     1      19.152   1.787  -4.010  1.00  0.00     0.023 C 
ENDROOT
BRANCH   3   4
HETATM    4  C5  UNL     1      18.703   1.522  -5.220  1.00  0.00    -0.116 C 
BRANCH   4   5
HETATM    5  C6  UNL     1      18.220   1.236  -6.522  1.00  0.00     0.315 C 
BRANCH   5   6
HETATM    6  N2  UNL     1      17.673  -0.136  -6.574  1.00  0.00    -0.070 N 
ATOM      7  H23 UNL     1      18.387  -0.822  -6.818  1.00  0.00     0.275 HD
ATOM      8  H22 UNL     1      17.437  -0.488  -5.646  1.00  0.00     0.275 HD
ATOM      9  H21 UNL     1      16.876  -0.174  -7.210  1.00  0.00     0.275 HD
ENDBRANCH   5   6
ENDBRANCH   4   5
ENDBRANCH   3   4
BRANCH   3  10
HETATM   10  C7  UNL     1      18.698   0.958  -2.894  1.00  0.00     0.119 C 
HETATM   11  N3  UNL     1      17.882  -0.172  -3.066  1.00  0.00    -0.114 NA
ENDBRANCH   3  10
BRANCH   2  12
HETATM   12  C3  UNL     1      20.453   4.114  -3.955  1.00  0.00     0.265 C 
BRANCH  12  13
HETATM   13  N1  UNL     1      19.718   5.148  -4.771  1.00  0.00    -0.076 N 
ATOM     14  H13 UNL     1      18.747   5.246  -4.474  1.00  0.00     0.274 HD
ATOM     15  H12 UNL     1      20.037   6.094  -4.560  1.00  0.00     0.274 HD
ATOM     16  H11 UNL     1      19.791   4.936  -5.766  1.00  0.00     0.274 HD
ENDBRANCH  12  13
ENDBRANCH   2  12
TORSDOF 6
ENDMDL
MODEL 2
REMARK VINA RESULT: -4.254635889      1.817      3.820
REMARK  6 active torsions:
REMARK  status: ('A' for Active; 'I' for Inactive)
REMARK    1  A    between atoms: C2_2  and  C3_3 
REMARK    2  A    between atoms: C3_3  and  N1_4 
REMARK    3  A    between atoms: C4_8  and  C5_9 
REMARK    4  A    between atoms: C4_8  and  C7_15 
REMARK    5  A    between atoms: C5_9  and  C6_10 
REMARK    6  A    between atoms: C6_10  and  N2_11 
ROOT
HETATM    1  C1  UNL     1      20.138   1.642  -2.790  1.00  0.00     0.046 C 
HETATM    2  C2  UNL     1      18.794   1.368  -4.033  1.00  0.00    -0.040 C 
HETATM    3  C4  UNL     1      18.864   2.686  -4.492  1.00  0.00     0.023 C 
ENDROOT
BRANCH   3   4
HETATM    4  C5  UNL     1      17.744   3.041  -5.091  1.00  0.00    -0.116 C 
BRANCH   4   5
HETATM    5  C6  UNL     1      16.541   3.423  -5.735  1.00  0.00     0.315 C 
BRANCH   5   6
HETATM    6  N2  UNL     1      16.042   4.696  -5.172  1.00  0.00    -0.070 N 
ATOM      7  H23 UNL     1      15.124   4.589  -4.741  1.00  0.00     0.275 HD
ATOM      8  H22 UNL     1      16.565   4.977  -4.342  1.00  0.00     0.275 HD
ATOM      9  H21 UNL     1      16.044   5.423  -5.888  1.00  0.00     0.275 HD
ENDBRANCH   5   6
ENDBRANCH   4   5
ENDBRANCH   3   4
BRANCH   3  10
HETATM   10  C7  UNL     1      20.028   3.564  -4.599  1.00  0.00     0.119 C 
HETATM   11  N3  UNL     1      19.923   4.962  -4.692  1.00  0.00    -0.114 NA
ENDBRANCH   3  10
BRANCH   2  12
HETATM   12  C3  UNL     1      18.729   0.171  -3.617  1.00  0.00     0.265 C 
BRANCH  12  13
HETATM   13  N1  UNL     1      18.147  -0.727  -4.679  1.00  0.00    -0.076 N 
ATOM     14  H13 UNL     1      18.313  -0.362  -5.617  1.00  0.00     0.274 HD
ATOM     15  H12 UNL     1      18.666  -1.602  -4.763  1.00  0.00     0.274 HD
ATOM     16  H11 UNL     1      17.155  -0.889  -4.505  1.00  0.00     0.274 HD
ENDBRANCH  12  13
ENDBRANCH   2  12
TORSDOF 6
ENDMDL
MODEL 3
REMARK VINA RESULT: -4.220670853      2.160      2.579
REMARK  6 active torsions:
REMARK  status: ('A' for Active; 'I' for Inactive)
REMARK    1  A    between atoms: C2_2  and  C3_3 
REMARK    2  A    between atoms: C3_3  and  N1_4 
REMARK    3  A    between atoms: C4_8  and  C5_9 
REMARK    4  A    between atoms: C4_8  and  C7_15 
REMARK    5  A    between atoms: C5_9  and  C6_10 
REMARK    6  A    between atoms: C6_10  and  N2_11 
ROOT
HETATM    1  C1  UNL     1      22.066   4.394  -3.554  1.00  0.00     0.046 C 
HETATM    2  C2  UNL     1      20.385   4.943  -4.103  1.00  0.00    -0.040 C 
HETATM    3  C4  UNL     1      19.926   3.629  -4.221  1.00  0.00     0.023 C 
ENDROOT
BRANCH   3   4
HETATM    4  C5  UNL     1      18.886   3.560  -5.028  1.00  0.00    -0.116 C 
BRANCH   4   5
HETATM    5  C6  UNL     1      17.768   3.485  -5.897  1.00  0.00     0.315 C 
BRANCH   5   6
HETATM    6  N2  UNL     1      16.578   4.079  -5.250  1.00  0.00    -0.070 N 
ATOM      7  H23 UNL     1      16.001   3.375  -4.793  1.00  0.00     0.275 HD
ATOM      8  H22 UNL     1      16.826   4.629  -4.427  1.00  0.00     0.275 HD
ATOM      9  H21 UNL     1      16.046   4.627  -5.928  1.00  0.00     0.275 HD
ENDBRANCH   5   6
ENDBRANCH   4   5
ENDBRANCH   3   4
BRANCH   3  10
HETATM   10  C7  UNL     1      20.277   2.454  -3.424  1.00  0.00     0.119 C 
HETATM   11  N3  UNL     1      20.251   1.148  -3.939  1.00  0.00    -0.114 NA
ENDBRANCH   3  10
BRANCH   2  12
HETATM   12  C3  UNL     1      20.802   6.137  -3.995  1.00  0.00     0.265 C 
BRANCH  12  13
HETATM   13  N1  UNL     1      19.688   7.113  -4.280  1.00  0.00    -0.076 N 
ATOM     14  H13 UNL     1      19.144   7.324  -3.443  1.00  0.00     0.274 HD
ATOM     15  H12 UNL     1      20.043   8.051  -4.470  1.00  0.00     0.274 HD
ATOM     16  H11 UNL     1      19.098   6.770  -5.039  1.00  0.00     0.274 HD
ENDBRANCH  12  13
ENDBRANCH   2  12
TORSDOF 6
ENDMDL
MODEL 4
REMARK VINA RESULT: -4.129950750      1.601      3.803
REMARK  6 active torsions:
REMARK  status: ('A' for Active; 'I' for Inactive)
REMARK    1  A    between atoms: C2_2  and  C3_3 
REMARK    2  A    between atoms: C3_3  and  N1_4 
REMARK    3  A    between atoms: C4_8  and  C5_9 
REMARK    4  A    between atoms: C4_8  and  C7_15 
REMARK    5  A    between atoms: C5_9  and  C6_10 
REMARK    6  A    between atoms: C6_10  and  N2_11 
ROOT
HETATM    1  C1  UNL     1      18.682   0.997  -1.979  1.00  0.00     0.046 C 
HETATM    2  C2  UNL     1      19.005   0.863  -3.796  1.00  0.00    -0.040 C 
HETATM    3  C4  UNL     1      19.737   2.053  -3.817  1.00  0.00     0.023 C 
ENDROOT
BRANCH   3   4
HETATM    4  C5  UNL     1      19.779   2.564  -5.032  1.00  0.00    -0.116 C 
BRANCH   4   5
HETATM    5  C6  UNL     1      19.823   3.114  -6.338  1.00  0.00     0.315 C 
BRANCH   5   6
HETATM    6  N2  UNL     1      20.647   4.342  -6.347  1.00  0.00    -0.070 N 
ATOM      7  H23 UNL     1      21.541   4.204  -5.878  1.00  0.00     0.275 HD
ATOM      8  H22 UNL     1      20.999   4.557  -7.280  1.00  0.00     0.275 HD
ATOM      9  H21 UNL     1      20.123   5.121  -5.948  1.00  0.00     0.275 HD
ENDBRANCH   5   6
ENDBRANCH   4   5
ENDBRANCH   3   4
BRANCH   3  10
HETATM   10  C7  UNL     1      20.604   2.621  -2.785  1.00  0.00     0.119 C 
HETATM   11  N3  UNL     1      21.427   3.737  -3.009  1.00  0.00    -0.114 NA
ENDBRANCH   3  10
BRANCH   2  12
HETATM   12  C3  UNL     1      18.340  -0.218  -3.778  1.00  0.00     0.265 C 
BRANCH  12  13
HETATM   13  N1  UNL     1      18.077  -0.700  -5.183  1.00  0.00    -0.076 N 
ATOM     14  H13 UNL     1      17.520  -1.554  -5.193  1.00  0.00     0.274 HD
ATOM     15  H12 UNL     1      17.427  -0.089  -5.678  1.00  0.00     0.274 HD
ATOM     16  H11 UNL     1      18.954  -0.813  -5.691  1.00  0.00     0.274 HD
ENDBRANCH  12  13
ENDBRANCH   2  12
TORSDOF 6
ENDMDL
MODEL 5
REMARK VINA RESULT: -4.083103315      1.597      2.770
REMARK  6 active torsions:
REMARK  status: ('A' for Active; 'I' for Inactive)
REMARK    1  A    between atoms: C2_2  and  C3_3 
REMARK    2  A    between atoms: C3_3  and  N1_4 
REMARK    3  A    between atoms: C4_8  and  C5_9 
REMARK    4  A    between atoms: C4_8  and  C7_15 
REMARK    5  A    between atoms: C5_9  and  C6_10 
REMARK    6  A    between atoms: C6_10  and  N2_11 
ROOT
HETATM    1  C1  UNL     1      19.473   4.565  -5.262  1.00  0.00     0.046 C 
HETATM    2  C2  UNL     1      19.930   3.065  -4.278  1.00  0.00    -0.040 C 
HETATM    3  C4  UNL     1      19.071   2.244  -5.013  1.00  0.00     0.023 C 
ENDROOT
BRANCH   3   4
HETATM    4  C5  UNL     1      18.757   1.157  -4.336  1.00  0.00    -0.116 C 
BRANCH   4   5
HETATM    5  C6  UNL     1      18.418  -0.011  -3.609  1.00  0.00     0.315 C 
BRANCH   5   6
HETATM    6  N2  UNL     1      18.090  -1.114  -4.538  1.00  0.00    -0.070 N 
ATOM      7  H23 UNL     1      18.635  -1.952  -4.342  1.00  0.00     0.275 HD
ATOM      8  H22 UNL     1      17.160  -1.495  -4.363  1.00  0.00     0.275 HD
ATOM      9  H21 UNL     1      18.200  -0.805  -5.504  1.00  0.00     0.275 HD
ENDBRANCH   5   6
ENDBRANCH   4   5
ENDBRANCH   3   4
BRANCH   3  10
HETATM   10  C7  UNL     1      18.709   2.321  -6.428  1.00  0.00     0.119 C 
HETATM   11  N3  UNL     1      18.091   1.263  -7.115  1.00  0.00    -0.114 NA
ENDBRANCH   3  10
BRANCH   2  12
HETATM   12  C3  UNL     1      20.711   3.810  -3.610  1.00  0.00     0.265 C 
BRANCH  12  13
HETATM   13  N1  UNL     1      21.318   3.043  -2.462  1.00  0.00    -0.076 N 
ATOM     14  H13 UNL     1      20.913   2.112  -2.371  1.00  0.00     0.274 HD
ATOM     15  H12 UNL     1      22.282   2.771  -2.655  1.00  0.00     0.274 HD
ATOM     16  H11 UNL     1      21.241   3.577  -1.596  1.00  0.00     0.274 HD
ENDBRANCH  12  13
ENDBRANCH   2  12
TORSDOF 6
ENDMDL
