MODEL 1
REMARK VINA RESULT: -7.757783401      0.000      0.000
REMARK  6 active torsions:
REMARK  status: ('A' for Active; 'I' for Inactive)
REMARK    1  A    between atoms: C2_2  and  O1_3 
REMARK    2  A    between atoms: O1_3  and  C3_4 
REMARK    3  A    between atoms: C4_5  and  C5_6 
REMARK    4  A    between atoms: C8_13  and  S1_14 
REMARK    5  A    between atoms: S1_14  and  C9_15 
REMARK    6  A    between atoms: C9_15  and  C10_16 
ROOT
HETATM    1  S1  UNL     1      17.431   1.189  -8.013  1.00  0.00    -0.105 SA
ENDROOT
BRANCH   1   2
HETATM    2  C8  UNL     1      17.940   0.635  -6.397  1.00  0.00     0.096 A 
HETATM    3  C6  UNL     1      18.545   1.460  -5.362  1.00  0.00     0.016 A 
HETATM    4  C5  UNL     1      18.808   2.738  -5.461  1.00  0.00     0.017 C 
HETATM    5  C7  UNL     1      18.773   0.555  -4.243  1.00  0.00     0.121 A 
HETATM    6  N1  UNL     1      18.352  -0.614  -4.605  1.00  0.00    -0.310 N 
HETATM    7  N2  UNL     1      17.847  -0.567  -5.910  1.00  0.00    -0.294 N 
ATOM      8  H1  UNL     1      18.384  -1.451  -4.022  1.00  0.00     0.186 HD
ATOM      9  H2  UNL     1      17.460  -1.366  -6.410  1.00  0.00     0.187 HD
BRANCH   4  10
HETATM   10  C4  UNL     1      19.414   3.464  -4.363  1.00  0.00     0.025 C 
HETATM   11  C3  UNL     1      19.975   4.630  -4.589  1.00  0.00     0.134 C 
BRANCH  11  12
HETATM   12  O1  UNL     1      20.563   5.346  -3.555  1.00  0.00    -0.363 OA
BRANCH  12  13
HETATM   13  C2  UNL     1      20.469   6.767  -3.644  1.00  0.00     0.170 C 
HETATM   14  C1  UNL     1      20.869   7.155  -5.043  1.00  0.00     0.034 C 
ENDBRANCH  12  13
ENDBRANCH  11  12
ENDBRANCH   4  10
ENDBRANCH   1   2
BRANCH   1  15
HETATM   15  C9  UNL     1      15.602   1.166  -8.074  1.00  0.00     0.119 C 
BRANCH  15  16
HETATM   16  C10 UNL     1      15.114  -0.217  -8.327  1.00  0.00    -0.046 A 
HETATM   17  C11 UNL     1      13.821  -0.603  -7.974  1.00  0.00     0.010 A 
HETATM   18  C12 UNL     1      13.370  -1.889  -8.211  1.00  0.00     0.032 A 
HETATM   19  C13 UNL     1      14.237  -2.780  -8.805  1.00  0.00     0.063 A 
HETATM   20  N3  UNL     1      14.130  -4.068  -9.167  1.00  0.00    -0.307 N 
HETATM   21  C15 UNL     1      15.521  -2.406  -9.158  1.00  0.00     0.063 A 
HETATM   22  C14 UNL     1      15.299  -4.473  -9.721  1.00  0.00     0.325 A 
ATOM     23  H3  UNL     1      13.300  -4.649  -9.046  1.00  0.00     0.170 HD
HETATM   24  O2  UNL     1      15.527  -5.622 -10.162  1.00  0.00    -0.247 OA
HETATM   25  N4  UNL     1      16.166  -3.446  -9.718  1.00  0.00    -0.306 N 
ATOM     26  H4  UNL     1      17.124  -3.454 -10.070  1.00  0.00     0.170 HD
HETATM   27  C16 UNL     1      15.966  -1.131  -8.923  1.00  0.00     0.039 A 
ENDBRANCH  15  16
ENDBRANCH   1  15
TORSDOF 6
ENDMDL
MODEL 2
REMARK VINA RESULT: -7.703611678      3.695      8.493
REMARK  6 active torsions:
REMARK  status: ('A' for Active; 'I' for Inactive)
REMARK    1  A    between atoms: C2_2  and  O1_3 
REMARK    2  A    between atoms: O1_3  and  C3_4 
REMARK    3  A    between atoms: C4_5  and  C5_6 
REMARK    4  A    between atoms: C8_13  and  S1_14 
REMARK    5  A    between atoms: S1_14  and  C9_15 
REMARK    6  A    between atoms: C9_15  and  C10_16 
ROOT
HETATM    1  S1  UNL     1      18.831   1.255  -2.633  1.00  0.00    -0.105 SA
ENDROOT
BRANCH   1   2
HETATM    2  C8  UNL     1      18.361   0.584  -4.217  1.00  0.00     0.096 A 
HETATM    3  C6  UNL     1      17.790   1.334  -5.326  1.00  0.00     0.016 A 
HETATM    4  C5  UNL     1      17.534   2.617  -5.329  1.00  0.00     0.017 C 
HETATM    5  C7  UNL     1      17.585   0.350  -6.381  1.00  0.00     0.121 A 
HETATM    6  N1  UNL     1      17.987  -0.791  -5.922  1.00  0.00    -0.310 N 
HETATM    7  N2  UNL     1      18.457  -0.650  -4.611  1.00  0.00    -0.294 N 
ATOM      8  H1  UNL     1      17.964  -1.669  -6.442  1.00  0.00     0.186 HD
ATOM      9  H2  UNL     1      18.825  -1.413  -4.043  1.00  0.00     0.187 HD
BRANCH   4  10
HETATM   10  C4  UNL     1      16.963   3.263  -6.494  1.00  0.00     0.025 C 
HETATM   11  C3  UNL     1      15.698   3.066  -6.789  1.00  0.00     0.134 C 
BRANCH  11  12
HETATM   12  O1  UNL     1      15.126   3.672  -7.899  1.00  0.00    -0.363 OA
BRANCH  12  13
HETATM   13  C2  UNL     1      13.982   3.019  -8.449  1.00  0.00     0.170 C 
HETATM   14  C1  UNL     1      14.255   1.539  -8.420  1.00  0.00     0.034 C 
ENDBRANCH  12  13
ENDBRANCH  11  12
ENDBRANCH   4  10
ENDBRANCH   1   2
BRANCH   1  15
HETATM   15  C9  UNL     1      20.603   1.707  -2.709  1.00  0.00     0.119 C 
BRANCH  15  16
HETATM   16  C10 UNL     1      20.806   2.827  -3.668  1.00  0.00    -0.046 A 
HETATM   17  C11 UNL     1      21.131   2.586  -5.003  1.00  0.00     0.010 A 
HETATM   18  C12 UNL     1      21.319   3.630  -5.891  1.00  0.00     0.032 A 
HETATM   19  C13 UNL     1      21.178   4.915  -5.419  1.00  0.00     0.063 A 
HETATM   20  N3  UNL     1      21.286   6.125  -5.992  1.00  0.00    -0.307 N 
HETATM   21  C15 UNL     1      20.855   5.165  -4.097  1.00  0.00     0.063 A 
HETATM   22  C14 UNL     1      21.042   7.081  -5.061  1.00  0.00     0.325 A 
ATOM     23  H3  UNL     1      21.516   6.297  -6.970  1.00  0.00     0.170 HD
HETATM   24  O2  UNL     1      21.065   8.314  -5.273  1.00  0.00    -0.247 OA
HETATM   25  N4  UNL     1      20.774   6.491  -3.884  1.00  0.00    -0.306 N 
ATOM     26  H4  UNL     1      20.553   6.957  -3.004  1.00  0.00     0.170 HD
HETATM   27  C16 UNL     1      20.669   4.129  -3.218  1.00  0.00     0.039 A 
ENDBRANCH  15  16
ENDBRANCH   1  15
TORSDOF 6
ENDMDL
MODEL 3
REMARK VINA RESULT: -7.651955543      2.361      3.489
REMARK  6 active torsions:
REMARK  status: ('A' for Active; 'I' for Inactive)
REMARK    1  A    between atoms: C2_2  and  O1_3 
REMARK    2  A    between atoms: O1_3  and  C3_4 
REMARK    3  A    between atoms: C4_5  and  C5_6 
REMARK    4  A    between atoms: C8_13  and  S1_14 
REMARK    5  A    between atoms: S1_14  and  C9_15 
REMARK    6  A    between atoms: C9_15  and  C10_16 
ROOT
HETATM    1  S1  UNL     1      17.768   3.668  -5.390  1.00  0.00    -0.105 SA
ENDROOT
BRANCH   1   2
HETATM    2  C8  UNL     1      19.406   3.609  -4.689  1.00  0.00     0.096 A 
HETATM    3  C6  UNL     1      20.234   4.759  -4.357  1.00  0.00     0.016 A 
HETATM    4  C5  UNL     1      19.902   6.014  -4.523  1.00  0.00     0.017 C 
HETATM    5  C7  UNL     1      21.465   4.194  -3.819  1.00  0.00     0.121 A 
HETATM    6  N1  UNL     1      21.339   2.907  -3.847  1.00  0.00    -0.310 N 
HETATM    7  N2  UNL     1      20.092   2.551  -4.374  1.00  0.00    -0.294 N 
ATOM      8  H1  UNL     1      22.048   2.245  -3.531  1.00  0.00     0.186 HD
ATOM      9  H2  UNL     1      19.766   1.593  -4.495  1.00  0.00     0.187 HD
BRANCH   4  10
HETATM   10  C4  UNL     1      20.809   7.082  -4.156  1.00  0.00     0.025 C 
HETATM   11  C3  UNL     1      21.395   7.787  -5.097  1.00  0.00     0.134 C 
BRANCH  11  12
HETATM   12  O1  UNL     1      22.268   8.816  -4.772  1.00  0.00    -0.363 OA
BRANCH  12  13
HETATM   13  C2  UNL     1      21.816  10.137  -5.067  1.00  0.00     0.170 C 
HETATM   14  C1  UNL     1      21.409  10.158  -6.516  1.00  0.00     0.034 C 
ENDBRANCH  12  13
ENDBRANCH  11  12
ENDBRANCH   4  10
ENDBRANCH   1   2
BRANCH   1  15
HETATM   15  C9  UNL     1      17.890   3.218  -7.160  1.00  0.00     0.119 C 
BRANCH  15  16
HETATM   16  C10 UNL     1      16.988   2.073  -7.462  1.00  0.00    -0.046 A 
HETATM   17  C11 UNL     1      15.626   2.128  -7.165  1.00  0.00     0.010 A 
HETATM   18  C12 UNL     1      14.790   1.063  -7.447  1.00  0.00     0.032 A 
HETATM   19  C13 UNL     1      15.342  -0.057  -8.028  1.00  0.00     0.063 A 
HETATM   20  N3  UNL     1      14.835  -1.235  -8.423  1.00  0.00    -0.307 N 
HETATM   21  C15 UNL     1      16.692  -0.121  -8.326  1.00  0.00     0.063 A 
HETATM   22  C14 UNL     1      15.831  -1.996  -8.942  1.00  0.00     0.325 A 
ATOM     23  H3  UNL     1      13.857  -1.514  -8.346  1.00  0.00     0.170 HD
HETATM   24  O2  UNL     1      15.689  -3.152  -9.400  1.00  0.00    -0.247 OA
HETATM   25  N4  UNL     1      16.984  -1.310  -8.885  1.00  0.00    -0.306 N 
ATOM     26  H4  UNL     1      17.901  -1.628  -9.202  1.00  0.00     0.170 HD
HETATM   27  C16 UNL     1      17.518   0.936  -8.046  1.00  0.00     0.039 A 
ENDBRANCH  15  16
ENDBRANCH   1  15
TORSDOF 6
ENDMDL
MODEL 4
REMARK VINA RESULT: -7.609092855      1.415      1.802
REMARK  6 active torsions:
REMARK  status: ('A' for Active; 'I' for Inactive)
REMARK    1  A    between atoms: C2_2  and  O1_3 
REMARK    2  A    between atoms: O1_3  and  C3_4 
REMARK    3  A    between atoms: C4_5  and  C5_6 
REMARK    4  A    between atoms: C8_13  and  S1_14 
REMARK    5  A    between atoms: S1_14  and  C9_15 
REMARK    6  A    between atoms: C9_15  and  C10_16 
ROOT
HETATM    1  S1  UNL     1      17.285   1.254  -8.142  1.00  0.00    -0.105 SA
ENDROOT
BRANCH   1   2
HETATM    2  C8  UNL     1      17.848   0.646  -6.563  1.00  0.00     0.096 A 
HETATM    3  C6  UNL     1      18.456   1.443  -5.508  1.00  0.00     0.016 A 
HETATM    4  C5  UNL     1      18.683   2.730  -5.558  1.00  0.00     0.017 C 
HETATM    5  C7  UNL     1      18.736   0.497  -4.435  1.00  0.00     0.121 A 
HETATM    6  N1  UNL     1      18.337  -0.666  -4.837  1.00  0.00    -0.310 N 
HETATM    7  N2  UNL     1      17.799  -0.577  -6.126  1.00  0.00    -0.294 N 
ATOM      8  H1  UNL     1      18.405  -1.526  -4.291  1.00  0.00     0.186 HD
ATOM      9  H2  UNL     1      17.421  -1.365  -6.651  1.00  0.00     0.187 HD
BRANCH   4  10
HETATM   10  C4  UNL     1      19.297   3.425  -4.444  1.00  0.00     0.025 C 
HETATM   11  C3  UNL     1      19.911   4.568  -4.652  1.00  0.00     0.134 C 
BRANCH  11  12
HETATM   12  O1  UNL     1      20.507   5.253  -3.603  1.00  0.00    -0.363 OA
BRANCH  12  13
HETATM   13  C2  UNL     1      20.474   6.677  -3.686  1.00  0.00     0.170 C 
HETATM   14  C1  UNL     1      20.827   7.051  -5.101  1.00  0.00     0.034 C 
ENDBRANCH  12  13
ENDBRANCH  11  12
ENDBRANCH   4  10
ENDBRANCH   1   2
BRANCH   1  15
HETATM   15  C9  UNL     1      16.762  -0.180  -9.151  1.00  0.00     0.119 C 
BRANCH  15  16
HETATM   16  C10 UNL     1      15.434  -0.673  -8.694  1.00  0.00    -0.046 A 
HETATM   17  C11 UNL     1      14.538   0.170  -8.036  1.00  0.00     0.010 A 
HETATM   18  C12 UNL     1      13.305  -0.291  -7.612  1.00  0.00     0.032 A 
HETATM   19  C13 UNL     1      12.987  -1.609  -7.857  1.00  0.00     0.063 A 
HETATM   20  N3  UNL     1      11.908  -2.362  -7.589  1.00  0.00    -0.307 N 
HETATM   21  C15 UNL     1      13.869  -2.452  -8.508  1.00  0.00     0.063 A 
HETATM   22  C14 UNL     1      12.117  -3.618  -8.055  1.00  0.00     0.325 A 
ATOM     23  H3  UNL     1      11.066  -2.040  -7.112  1.00  0.00     0.170 HD
HETATM   24  O2  UNL     1      11.302  -4.564  -7.964  1.00  0.00    -0.247 OA
HETATM   25  N4  UNL     1      13.331  -3.680  -8.626  1.00  0.00    -0.306 N 
ATOM     26  H4  UNL     1      13.760  -4.497  -9.063  1.00  0.00     0.170 HD
HETATM   27  C16 UNL     1      15.091  -1.993  -8.928  1.00  0.00     0.039 A 
ENDBRANCH  15  16
ENDBRANCH   1  15
TORSDOF 6
ENDMDL
MODEL 5
REMARK VINA RESULT: -7.594038058      3.809      7.897
REMARK  6 active torsions:
REMARK  status: ('A' for Active; 'I' for Inactive)
REMARK    1  A    between atoms: C2_2  and  O1_3 
REMARK    2  A    between atoms: O1_3  and  C3_4 
REMARK    3  A    between atoms: C4_5  and  C5_6 
REMARK    4  A    between atoms: C8_13  and  S1_14 
REMARK    5  A    between atoms: S1_14  and  C9_15 
REMARK    6  A    between atoms: C9_15  and  C10_16 
ROOT
HETATM    1  S1  UNL     1      18.906   1.239  -2.687  1.00  0.00    -0.105 SA
ENDROOT
BRANCH   1   2
HETATM    2  C8  UNL     1      18.398   0.575  -4.261  1.00  0.00     0.096 A 
HETATM    3  C6  UNL     1      17.814   1.332  -5.359  1.00  0.00     0.016 A 
HETATM    4  C5  UNL     1      17.572   2.618  -5.356  1.00  0.00     0.017 C 
HETATM    5  C7  UNL     1      17.577   0.352  -6.410  1.00  0.00     0.121 A 
HETATM    6  N1  UNL     1      17.976  -0.795  -5.961  1.00  0.00    -0.310 N 
HETATM    7  N2  UNL     1      18.473  -0.660  -4.659  1.00  0.00    -0.294 N 
ATOM      8  H1  UNL     1      17.933  -1.671  -6.481  1.00  0.00     0.186 HD
ATOM      9  H2  UNL     1      18.843  -1.427  -4.098  1.00  0.00     0.187 HD
BRANCH   4  10
HETATM   10  C4  UNL     1      16.985   3.271  -6.509  1.00  0.00     0.025 C 
HETATM   11  C3  UNL     1      15.707   3.109  -6.764  1.00  0.00     0.134 C 
BRANCH  11  12
HETATM   12  O1  UNL     1      15.120   3.724  -7.862  1.00  0.00    -0.363 OA
BRANCH  12  13
HETATM   13  C2  UNL     1      14.019   3.033  -8.452  1.00  0.00     0.170 C 
HETATM   14  C1  UNL     1      14.289   1.558  -8.311  1.00  0.00     0.034 C 
ENDBRANCH  12  13
ENDBRANCH  11  12
ENDBRANCH   4  10
ENDBRANCH   1   2
BRANCH   1  15
HETATM   15  C9  UNL     1      20.646   1.787  -2.834  1.00  0.00     0.119 C 
BRANCH  15  16
HETATM   16  C10 UNL     1      20.736   2.975  -3.726  1.00  0.00    -0.046 A 
HETATM   17  C11 UNL     1      20.478   4.260  -3.247  1.00  0.00     0.010 A 
HETATM   18  C12 UNL     1      20.563   5.362  -4.079  1.00  0.00     0.032 A 
HETATM   19  C13 UNL     1      20.908   5.154  -5.396  1.00  0.00     0.063 A 
HETATM   20  N3  UNL     1      21.076   5.975  -6.445  1.00  0.00    -0.307 N 
HETATM   21  C15 UNL     1      21.165   3.884  -5.880  1.00  0.00     0.063 A 
HETATM   22  C14 UNL     1      21.422   5.241  -7.532  1.00  0.00     0.325 A 
ATOM     23  H3  UNL     1      20.962   6.988  -6.427  1.00  0.00     0.170 HD
HETATM   24  O2  UNL     1      21.651   5.707  -8.671  1.00  0.00    -0.247 OA
HETATM   25  N4  UNL     1      21.479   3.944  -7.187  1.00  0.00    -0.306 N 
ATOM     26  H4  UNL     1      21.713   3.160  -7.797  1.00  0.00     0.170 HD
HETATM   27  C16 UNL     1      21.081   2.793  -5.054  1.00  0.00     0.039 A 
ENDBRANCH  15  16
ENDBRANCH   1  15
TORSDOF 6
ENDMDL
