MODEL 1
REMARK VINA RESULT: -6.376661203      0.000      0.000
REMARK  7 active torsions:
REMARK  status: ('A' for Active; 'I' for Inactive)
REMARK       I    between atoms: C2_4  and  N3_6 
REMARK    1  A    between atoms: N3_6  and  C3_8 
REMARK    2  A    between atoms: C3_8  and  S2_10 
REMARK    3  A    between atoms: S2_10  and  C4_11 
REMARK    4  A    between atoms: C4_11  and  C5_12 
REMARK    5  A    between atoms: C5_12  and  C6_13 
REMARK    6  A    between atoms: C6_13  and  N4_14 
REMARK    7  A    between atoms: N4_14  and  C7_16 
ROOT
HETATM    1  C3  UNL     1      61.727 -31.017 -34.996  1.00  0.00     0.140 C 
HETATM    2  S1  UNL     1      62.598 -30.111 -33.952  1.00  0.00    -0.052 SA
ENDROOT
BRANCH   1   3
HETATM    3  N3  UNL     1      61.889 -32.431 -35.055  1.00  0.00    -0.316 N 
HETATM    4  C2  UNL     1      60.836 -33.344 -34.743  1.00  0.00     0.189 C 
HETATM    5  N1  UNL     1      60.964 -34.592 -35.065  1.00  0.00    -0.369 N 
HETATM    6  N2  UNL     1      59.650 -32.921 -34.089  1.00  0.00    -0.064 NA
HETATM    7  C1  UNL     1      59.900 -35.502 -34.746  1.00  0.00     0.148 C 
ATOM      8  H1  UNL     1      61.805 -34.922 -35.537  1.00  0.00     0.161 HD
ATOM      9  H3  UNL     1      62.796 -32.808 -35.333  1.00  0.00     0.170 HD
ENDBRANCH   1   3
BRANCH   1  10
HETATM   10  S2  UNL     1      60.557 -30.229 -36.054  1.00  0.00    -0.100 SA
BRANCH  10  11
HETATM   11  C4  UNL     1      60.866 -28.477 -36.185  1.00  0.00     0.083 C 
BRANCH  11  12
HETATM   12  C5  UNL     1      59.753 -27.816 -36.952  1.00  0.00     0.030 C 
BRANCH  12  13
HETATM   13  C6  UNL     1      59.488 -26.477 -36.276  1.00  0.00     0.122 C 
BRANCH  13  14
HETATM   14  N4  UNL     1      58.649 -25.626 -37.090  1.00  0.00    -0.369 N 
ATOM     15  H4  UNL     1      57.791 -25.985 -37.506  1.00  0.00     0.161 HD
BRANCH  14  16
HETATM   16  C7  UNL     1      59.042 -24.293 -37.297  1.00  0.00     0.180 C 
HETATM   17  N5  UNL     1      58.222 -23.393 -37.998  1.00  0.00    -0.070 NA
HETATM   18  S3  UNL     1      60.469 -23.788 -36.714  1.00  0.00    -0.044 SA
ENDBRANCH  14  16
ENDBRANCH  13  14
ENDBRANCH  12  13
ENDBRANCH  11  12
ENDBRANCH  10  11
ENDBRANCH   1  10
TORSDOF 7
ENDMDL
MODEL 2
REMARK VINA RESULT: -6.109701836      1.697      2.002
REMARK  7 active torsions:
REMARK  status: ('A' for Active; 'I' for Inactive)
REMARK       I    between atoms: C2_4  and  N3_6 
REMARK    1  A    between atoms: N3_6  and  C3_8 
REMARK    2  A    between atoms: C3_8  and  S2_10 
REMARK    3  A    between atoms: S2_10  and  C4_11 
REMARK    4  A    between atoms: C4_11  and  C5_12 
REMARK    5  A    between atoms: C5_12  and  C6_13 
REMARK    6  A    between atoms: C6_13  and  N4_14 
REMARK    7  A    between atoms: N4_14  and  C7_16 
ROOT
HETATM    1  C3  UNL     1      61.527 -30.807 -35.016  1.00  0.00     0.140 C 
HETATM    2  S1  UNL     1      62.244 -29.869 -33.887  1.00  0.00    -0.052 SA
ENDROOT
BRANCH   1   3
HETATM    3  N3  UNL     1      61.777 -32.208 -35.076  1.00  0.00    -0.316 N 
HETATM    4  C2  UNL     1      60.785 -33.185 -34.755  1.00  0.00     0.189 C 
HETATM    5  N1  UNL     1      60.989 -34.423 -35.076  1.00  0.00    -0.369 N 
HETATM    6  N2  UNL     1      59.580 -32.836 -34.092  1.00  0.00    -0.064 NA
HETATM    7  C1  UNL     1      59.987 -35.398 -34.748  1.00  0.00     0.148 C 
ATOM      8  H1  UNL     1      61.846 -34.701 -35.554  1.00  0.00     0.161 HD
ATOM      9  H3  UNL     1      62.703 -32.528 -35.360  1.00  0.00     0.170 HD
ENDBRANCH   1   3
BRANCH   1  10
HETATM   10  S2  UNL     1      60.414 -30.072 -36.170  1.00  0.00    -0.100 SA
BRANCH  10  11
HETATM   11  C4  UNL     1      60.870 -28.386 -36.537  1.00  0.00     0.083 C 
BRANCH  11  12
HETATM   12  C5  UNL     1      59.651 -27.602 -36.943  1.00  0.00     0.030 C 
BRANCH  12  13
HETATM   13  C6  UNL     1      59.754 -26.246 -36.259  1.00  0.00     0.122 C 
BRANCH  13  14
HETATM   14  N4  UNL     1      58.638 -26.013 -35.367  1.00  0.00    -0.369 N 
ATOM     15  H4  UNL     1      57.681 -26.032 -35.716  1.00  0.00     0.161 HD
BRANCH  14  16
HETATM   16  C7  UNL     1      58.902 -25.759 -34.012  1.00  0.00     0.180 C 
HETATM   17  N5  UNL     1      57.982 -25.065 -33.208  1.00  0.00    -0.070 NA
HETATM   18  S3  UNL     1      60.296 -26.278 -33.364  1.00  0.00    -0.044 SA
ENDBRANCH  14  16
ENDBRANCH  13  14
ENDBRANCH  12  13
ENDBRANCH  11  12
ENDBRANCH  10  11
ENDBRANCH   1  10
TORSDOF 7
ENDMDL
MODEL 3
REMARK VINA RESULT: -6.054641587      3.436      4.327
REMARK  7 active torsions:
REMARK  status: ('A' for Active; 'I' for Inactive)
REMARK       I    between atoms: C2_4  and  N3_6 
REMARK    1  A    between atoms: N3_6  and  C3_8 
REMARK    2  A    between atoms: C3_8  and  S2_10 
REMARK    3  A    between atoms: S2_10  and  C4_11 
REMARK    4  A    between atoms: C4_11  and  C5_12 
REMARK    5  A    between atoms: C5_12  and  C6_13 
REMARK    6  A    between atoms: C6_13  and  N4_14 
REMARK    7  A    between atoms: N4_14  and  C7_16 
ROOT
HETATM    1  C3  UNL     1      61.137 -30.566 -35.366  1.00  0.00     0.140 C 
HETATM    2  S1  UNL     1      60.218 -29.886 -36.533  1.00  0.00    -0.052 SA
ENDROOT
BRANCH   1   3
HETATM    3  N3  UNL     1      61.510 -31.940 -35.430  1.00  0.00    -0.316 N 
HETATM    4  C2  UNL     1      60.691 -32.988 -34.910  1.00  0.00     0.189 C 
HETATM    5  N1  UNL     1      60.957 -34.215 -35.227  1.00  0.00    -0.369 N 
HETATM    6  N2  UNL     1      59.592 -32.722 -34.053  1.00  0.00    -0.064 NA
HETATM    7  C1  UNL     1      60.129 -35.262 -34.699  1.00  0.00     0.148 C 
ATOM      8  H1  UNL     1      61.740 -34.434 -35.843  1.00  0.00     0.161 HD
ATOM      9  H3  UNL     1      62.400 -32.185 -35.865  1.00  0.00     0.170 HD
ENDBRANCH   1   3
BRANCH   1  10
HETATM   10  S2  UNL     1      61.688 -29.577 -34.014  1.00  0.00    -0.100 SA
BRANCH  10  11
HETATM   11  C4  UNL     1      60.903 -27.974 -34.012  1.00  0.00     0.083 C 
BRANCH  11  12
HETATM   12  C5  UNL     1      61.945 -26.893 -34.118  1.00  0.00     0.030 C 
BRANCH  12  13
HETATM   13  C6  UNL     1      61.509 -25.770 -33.187  1.00  0.00     0.122 C 
BRANCH  13  14
HETATM   14  N4  UNL     1      61.003 -26.285 -31.933  1.00  0.00    -0.369 N 
ATOM     15  H4  UNL     1      60.037 -26.600 -31.851  1.00  0.00     0.161 HD
BRANCH  14  16
HETATM   16  C7  UNL     1      61.871 -26.342 -30.830  1.00  0.00     0.180 C 
HETATM   17  N5  UNL     1      62.256 -25.177 -30.146  1.00  0.00    -0.070 NA
HETATM   18  S3  UNL     1      62.437 -27.781 -30.340  1.00  0.00    -0.044 SA
ENDBRANCH  14  16
ENDBRANCH  13  14
ENDBRANCH  12  13
ENDBRANCH  11  12
ENDBRANCH  10  11
ENDBRANCH   1  10
TORSDOF 7
ENDMDL
MODEL 4
REMARK VINA RESULT: -5.973706687      1.224      1.548
REMARK  7 active torsions:
REMARK  status: ('A' for Active; 'I' for Inactive)
REMARK       I    between atoms: C2_4  and  N3_6 
REMARK    1  A    between atoms: N3_6  and  C3_8 
REMARK    2  A    between atoms: C3_8  and  S2_10 
REMARK    3  A    between atoms: S2_10  and  C4_11 
REMARK    4  A    between atoms: C4_11  and  C5_12 
REMARK    5  A    between atoms: C5_12  and  C6_13 
REMARK    6  A    between atoms: C6_13  and  N4_14 
REMARK    7  A    between atoms: N4_14  and  C7_16 
ROOT
HETATM    1  C3  UNL     1      61.013 -29.482 -33.945  1.00  0.00     0.140 C 
HETATM    2  S1  UNL     1      61.956 -29.351 -32.617  1.00  0.00    -0.052 SA
ENDROOT
BRANCH   1   3
HETATM    3  N3  UNL     1      60.069 -30.541 -34.075  1.00  0.00    -0.316 N 
HETATM    4  C2  UNL     1      60.444 -31.872 -34.433  1.00  0.00     0.189 C 
HETATM    5  N1  UNL     1      59.589 -32.833 -34.281  1.00  0.00    -0.369 N 
HETATM    6  N2  UNL     1      61.729 -32.171 -34.953  1.00  0.00    -0.064 NA
HETATM    7  C1  UNL     1      59.975 -34.167 -34.645  1.00  0.00     0.148 C 
ATOM      8  H1  UNL     1      58.659 -32.646 -33.908  1.00  0.00     0.161 HD
ATOM      9  H3  UNL     1      59.083 -30.341 -33.904  1.00  0.00     0.170 HD
ENDBRANCH   1   3
BRANCH   1  10
HETATM   10  S2  UNL     1      61.159 -28.284 -35.230  1.00  0.00    -0.100 SA
BRANCH  10  11
HETATM   11  C4  UNL     1      60.487 -28.888 -36.769  1.00  0.00     0.083 C 
BRANCH  11  12
HETATM   12  C5  UNL     1      59.440 -27.935 -37.279  1.00  0.00     0.030 C 
BRANCH  12  13
HETATM   13  C6  UNL     1      59.704 -26.593 -36.609  1.00  0.00     0.122 C 
BRANCH  13  14
HETATM   14  N4  UNL     1      58.681 -25.624 -36.937  1.00  0.00    -0.369 N 
ATOM     15  H4  UNL     1      57.698 -25.892 -36.958  1.00  0.00     0.161 HD
BRANCH  14  16
HETATM   16  C7  UNL     1      59.071 -24.306 -37.225  1.00  0.00     0.180 C 
HETATM   17  N5  UNL     1      58.241 -23.448 -37.967  1.00  0.00    -0.070 NA
HETATM   18  S3  UNL     1      60.505 -23.768 -36.692  1.00  0.00    -0.044 SA
ENDBRANCH  14  16
ENDBRANCH  13  14
ENDBRANCH  12  13
ENDBRANCH  11  12
ENDBRANCH  10  11
ENDBRANCH   1  10
TORSDOF 7
ENDMDL
MODEL 5
REMARK VINA RESULT: -5.899674155      4.190      5.141
REMARK  7 active torsions:
REMARK  status: ('A' for Active; 'I' for Inactive)
REMARK       I    between atoms: C2_4  and  N3_6 
REMARK    1  A    between atoms: N3_6  and  C3_8 
REMARK    2  A    between atoms: C3_8  and  S2_10 
REMARK    3  A    between atoms: S2_10  and  C4_11 
REMARK    4  A    between atoms: C4_11  and  C5_12 
REMARK    5  A    between atoms: C5_12  and  C6_13 
REMARK    6  A    between atoms: C6_13  and  N4_14 
REMARK    7  A    between atoms: N4_14  and  C7_16 
ROOT
HETATM    1  C3  UNL     1      61.015 -30.522 -34.915  1.00  0.00     0.140 C 
HETATM    2  S1  UNL     1      60.331 -30.007 -36.307  1.00  0.00    -0.052 SA
ENDROOT
BRANCH   1   3
HETATM    3  N3  UNL     1      61.642 -31.798 -34.831  1.00  0.00    -0.316 N 
HETATM    4  C2  UNL     1      60.912 -33.004 -34.600  1.00  0.00     0.189 C 
HETATM    5  N1  UNL     1      61.495 -34.144 -34.793  1.00  0.00    -0.369 N 
HETATM    6  N2  UNL     1      59.562 -32.988 -34.164  1.00  0.00    -0.064 NA
HETATM    7  C1  UNL     1      60.754 -35.351 -34.556  1.00  0.00     0.148 C 
ATOM      8  H1  UNL     1      62.465 -34.184 -35.108  1.00  0.00     0.161 HD
ATOM      9  H3  UNL     1      62.655 -31.854 -34.941  1.00  0.00     0.170 HD
ENDBRANCH   1   3
BRANCH   1  10
HETATM   10  S2  UNL     1      60.988 -29.470 -33.500  1.00  0.00    -0.100 SA
BRANCH  10  11
HETATM   11  C4  UNL     1      62.560 -29.466 -32.656  1.00  0.00     0.083 C 
BRANCH  11  12
HETATM   12  C5  UNL     1      62.345 -29.586 -31.171  1.00  0.00     0.030 C 
BRANCH  12  13
HETATM   13  C6  UNL     1      63.371 -28.679 -30.505  1.00  0.00     0.122 C 
BRANCH  13  14
HETATM   14  N4  UNL     1      62.744 -27.534 -29.881  1.00  0.00    -0.369 N 
ATOM     15  H4  UNL     1      62.186 -27.643 -29.035  1.00  0.00     0.161 HD
BRANCH  14  16
HETATM   16  C7  UNL     1      62.919 -26.269 -30.466  1.00  0.00     0.180 C 
HETATM   17  N5  UNL     1      62.021 -25.219 -30.212  1.00  0.00    -0.070 NA
HETATM   18  S3  UNL     1      64.183 -26.019 -31.452  1.00  0.00    -0.044 SA
ENDBRANCH  14  16
ENDBRANCH  13  14
ENDBRANCH  12  13
ENDBRANCH  11  12
ENDBRANCH  10  11
ENDBRANCH   1  10
TORSDOF 7
ENDMDL
