MODEL 1
REMARK VINA RESULT: -6.593256009      0.000      0.000
REMARK  5 active torsions:
REMARK  status: ('A' for Active; 'I' for Inactive)
REMARK       I    between atoms: C1_2  and  N2_4 
REMARK    1  A    between atoms: C2_6  and  C3_7 
REMARK    2  A    between atoms: C3_7  and  N3_8 
REMARK       I    between atoms: N3_8  and  C4_10 
REMARK       I    between atoms: C4_10  and  N4_12 
REMARK    3  A    between atoms: N4_12  and  C5_14 
REMARK    4  A    between atoms: C5_14  and  C6_15 
REMARK    5  A    between atoms: C8_17  and  C9_18 
ROOT
HETATM    1  N3  UNL     1     -21.563   3.023   3.831  1.00  0.00    -0.338 N 
ATOM      2  H3  UNL     1     -22.120   3.326   3.032  1.00  0.00     0.164 HD
HETATM    3  C4  UNL     1     -21.453   3.827   4.984  1.00  0.00     0.316 C 
HETATM    4  O2  UNL     1     -20.770   3.444   5.951  1.00  0.00    -0.247 OA
HETATM    5  N4  UNL     1     -22.117   5.075   5.052  1.00  0.00    -0.343 N 
ATOM      6  H4  UNL     1     -22.677   5.392   4.260  1.00  0.00     0.164 HD
ENDROOT
BRANCH   1   7
HETATM    7  C3  UNL     1     -20.859   1.747   3.814  1.00  0.00     0.169 C 
BRANCH   7   8
HETATM    8  C2  UNL     1     -20.185   1.565   2.521  1.00  0.00     0.085 C 
HETATM    9  N2  UNL     1     -18.978   1.130   2.441  1.00  0.00    -0.323 N 
HETATM   10  C1  UNL     1     -18.294   0.823   3.648  1.00  0.00     0.332 C 
ATOM     11  H2  UNL     1     -18.523   1.009   1.536  1.00  0.00     0.169 HD
HETATM   12  N1  UNL     1     -18.272  -0.531   4.052  1.00  0.00    -0.040 NA
HETATM   13  O1  UNL     1     -17.736   1.736   4.318  1.00  0.00    -0.251 OA
ENDBRANCH   7   8
ENDBRANCH   1   7
BRANCH   5  14
HETATM   14  C5  UNL     1     -22.012   5.906   6.227  1.00  0.00     0.129 C 
BRANCH  14  15
HETATM   15  C6  UNL     1     -21.226   7.184   5.943  1.00  0.00     0.008 A 
HETATM   16  C7  UNL     1     -20.887   7.473   4.517  1.00  0.00     0.012 A 
HETATM   17  C8  UNL     1     -21.884   8.315   5.244  1.00  0.00    -0.004 A 
BRANCH  17  18
HETATM   18  C9  UNL     1     -21.517   9.733   5.534  1.00  0.00    -0.010 A 
HETATM   19  C10 UNL     1     -21.413  10.209   6.959  1.00  0.00     0.005 A 
HETATM   20  C11 UNL     1     -22.597  10.570   6.175  1.00  0.00     0.005 A 
ENDBRANCH  17  18
ENDBRANCH  14  15
ENDBRANCH   5  14
TORSDOF 5
ENDMDL
MODEL 2
REMARK VINA RESULT: -6.479574656      1.064      1.468
REMARK  5 active torsions:
REMARK  status: ('A' for Active; 'I' for Inactive)
REMARK       I    between atoms: C1_2  and  N2_4 
REMARK    1  A    between atoms: C2_6  and  C3_7 
REMARK    2  A    between atoms: C3_7  and  N3_8 
REMARK       I    between atoms: N3_8  and  C4_10 
REMARK       I    between atoms: C4_10  and  N4_12 
REMARK    3  A    between atoms: N4_12  and  C5_14 
REMARK    4  A    between atoms: C5_14  and  C6_15 
REMARK    5  A    between atoms: C8_17  and  C9_18 
ROOT
HETATM    1  N3  UNL     1     -21.535   3.171   3.950  1.00  0.00    -0.338 N 
ATOM      2  H3  UNL     1     -22.514   3.180   3.666  1.00  0.00     0.164 HD
HETATM    3  C4  UNL     1     -20.877   4.360   4.324  1.00  0.00     0.316 C 
HETATM    4  O2  UNL     1     -19.683   4.333   4.669  1.00  0.00    -0.247 OA
HETATM    5  N4  UNL     1     -21.570   5.595   4.310  1.00  0.00    -0.343 N 
ATOM      6  H4  UNL     1     -22.550   5.620   4.028  1.00  0.00     0.164 HD
ENDROOT
BRANCH   1   7
HETATM    7  C3  UNL     1     -20.775   1.928   3.982  1.00  0.00     0.169 C 
BRANCH   7   8
HETATM    8  C2  UNL     1     -20.220   1.646   2.651  1.00  0.00     0.085 C 
HETATM    9  N2  UNL     1     -19.050   1.135   2.498  1.00  0.00    -0.323 N 
HETATM   10  C1  UNL     1     -18.289   0.843   3.661  1.00  0.00     0.332 C 
ATOM     11  H2  UNL     1     -18.678   0.945   1.567  1.00  0.00     0.169 HD
HETATM   12  N1  UNL     1     -18.310  -0.490   4.130  1.00  0.00    -0.040 NA
HETATM   13  O1  UNL     1     -17.627   1.751   4.238  1.00  0.00    -0.251 OA
ENDBRANCH   7   8
ENDBRANCH   1   7
BRANCH   5  14
HETATM   14  C5  UNL     1     -20.908   6.819   4.692  1.00  0.00     0.129 C 
BRANCH  14  15
HETATM   15  C6  UNL     1     -21.853   7.762   5.433  1.00  0.00     0.008 A 
HETATM   16  C7  UNL     1     -21.288   8.524   6.587  1.00  0.00     0.012 A 
HETATM   17  C8  UNL     1     -21.665   9.230   5.325  1.00  0.00    -0.004 A 
BRANCH  17  18
HETATM   18  C9  UNL     1     -22.823  10.172   5.374  1.00  0.00    -0.010 A 
HETATM   19  C10 UNL     1     -23.775  10.257   4.211  1.00  0.00     0.005 A 
HETATM   20  C11 UNL     1     -22.777  11.315   4.390  1.00  0.00     0.005 A 
ENDBRANCH  17  18
ENDBRANCH  14  15
ENDBRANCH   5  14
TORSDOF 5
ENDMDL
MODEL 3
REMARK VINA RESULT: -6.298176863      1.087      1.343
REMARK  5 active torsions:
REMARK  status: ('A' for Active; 'I' for Inactive)
REMARK       I    between atoms: C1_2  and  N2_4 
REMARK    1  A    between atoms: C2_6  and  C3_7 
REMARK    2  A    between atoms: C3_7  and  N3_8 
REMARK       I    between atoms: N3_8  and  C4_10 
REMARK       I    between atoms: C4_10  and  N4_12 
REMARK    3  A    between atoms: N4_12  and  C5_14 
REMARK    4  A    between atoms: C5_14  and  C6_15 
REMARK    5  A    between atoms: C8_17  and  C9_18 
ROOT
HETATM    1  N3  UNL     1     -20.324   3.314   4.639  1.00  0.00    -0.338 N 
ATOM      2  H3  UNL     1     -19.359   3.469   4.930  1.00  0.00     0.164 HD
HETATM    3  C4  UNL     1     -21.280   4.347   4.717  1.00  0.00     0.316 C 
HETATM    4  O2  UNL     1     -22.453   4.142   4.358  1.00  0.00    -0.247 OA
HETATM    5  N4  UNL     1     -20.914   5.625   5.204  1.00  0.00    -0.343 N 
ATOM      6  H4  UNL     1     -19.952   5.795   5.499  1.00  0.00     0.164 HD
ENDROOT
BRANCH   1   7
HETATM    7  C3  UNL     1     -20.755   2.018   4.130  1.00  0.00     0.169 C 
BRANCH   7   8
HETATM    8  C2  UNL     1     -20.231   1.814   2.772  1.00  0.00     0.085 C 
HETATM    9  N2  UNL     1     -19.079   1.282   2.562  1.00  0.00    -0.323 N 
HETATM   10  C1  UNL     1     -18.308   0.887   3.687  1.00  0.00     0.332 C 
ATOM     11  H2  UNL     1     -18.729   1.148   1.613  1.00  0.00     0.169 HD
HETATM   12  N1  UNL     1     -18.362  -0.475   4.062  1.00  0.00    -0.040 NA
HETATM   13  O1  UNL     1     -17.610   1.732   4.314  1.00  0.00    -0.251 OA
ENDBRANCH   7   8
ENDBRANCH   1   7
BRANCH   5  14
HETATM   14  C5  UNL     1     -21.883   6.690   5.288  1.00  0.00     0.129 C 
BRANCH  14  15
HETATM   15  C6  UNL     1     -21.211   8.048   5.478  1.00  0.00     0.008 A 
HETATM   16  C7  UNL     1     -21.917   9.241   4.924  1.00  0.00     0.012 A 
HETATM   17  C8  UNL     1     -21.809   9.044   6.401  1.00  0.00    -0.004 A 
BRANCH  17  18
HETATM   18  C9  UNL     1     -20.962  10.004   7.170  1.00  0.00    -0.010 A 
HETATM   19  C10 UNL     1     -20.792   9.835   8.657  1.00  0.00     0.005 A 
HETATM   20  C11 UNL     1     -21.697  10.875   8.159  1.00  0.00     0.005 A 
ENDBRANCH  17  18
ENDBRANCH  14  15
ENDBRANCH   5  14
TORSDOF 5
ENDMDL
MODEL 4
REMARK VINA RESULT: -6.245671572      3.380      8.083
REMARK  5 active torsions:
REMARK  status: ('A' for Active; 'I' for Inactive)
REMARK       I    between atoms: C1_2  and  N2_4 
REMARK    1  A    between atoms: C2_6  and  C3_7 
REMARK    2  A    between atoms: C3_7  and  N3_8 
REMARK       I    between atoms: N3_8  and  C4_10 
REMARK       I    between atoms: C4_10  and  N4_12 
REMARK    3  A    between atoms: N4_12  and  C5_14 
REMARK    4  A    between atoms: C5_14  and  C6_15 
REMARK    5  A    between atoms: C8_17  and  C9_18 
ROOT
HETATM    1  N3  UNL     1     -21.425   8.626   4.855  1.00  0.00    -0.338 N 
ATOM      2  H3  UNL     1     -21.249   8.723   3.855  1.00  0.00     0.164 HD
HETATM    3  C4  UNL     1     -21.293   7.379   5.497  1.00  0.00     0.316 C 
HETATM    4  O2  UNL     1     -21.511   7.278   6.718  1.00  0.00    -0.247 OA
HETATM    5  N4  UNL     1     -20.910   6.232   4.761  1.00  0.00    -0.343 N 
ATOM      6  H4  UNL     1     -20.730   6.313   3.760  1.00  0.00     0.164 HD
ENDROOT
BRANCH   1   7
HETATM    7  C3  UNL     1     -21.822   9.775   5.661  1.00  0.00     0.169 C 
BRANCH   7   8
HETATM    8  C2  UNL     1     -21.944  10.966   4.809  1.00  0.00     0.085 C 
HETATM    9  N2  UNL     1     -23.087  11.395   4.402  1.00  0.00    -0.323 N 
HETATM   10  C1  UNL     1     -24.250  10.683   4.801  1.00  0.00     0.332 C 
ATOM     11  H2  UNL     1     -23.156  12.223   3.811  1.00  0.00     0.169 HD
HETATM   12  N1  UNL     1     -24.967  11.185   5.911  1.00  0.00    -0.040 NA
HETATM   13  O1  UNL     1     -24.613   9.647   4.176  1.00  0.00    -0.251 OA
ENDBRANCH   7   8
ENDBRANCH   1   7
BRANCH   5  14
HETATM   14  C5  UNL     1     -20.770   4.950   5.408  1.00  0.00     0.129 C 
BRANCH  14  15
HETATM   15  C6  UNL     1     -21.405   3.833   4.584  1.00  0.00     0.008 A 
HETATM   16  C7  UNL     1     -22.237   4.239   3.411  1.00  0.00     0.012 A 
HETATM   17  C8  UNL     1     -20.919   3.564   3.207  1.00  0.00    -0.004 A 
BRANCH  17  18
HETATM   18  C9  UNL     1     -20.926   2.186   2.632  1.00  0.00    -0.010 A 
HETATM   19  C10 UNL     1     -20.285   1.051   3.385  1.00  0.00     0.005 A 
HETATM   20  C11 UNL     1     -19.575   1.634   2.244  1.00  0.00     0.005 A 
ENDBRANCH  17  18
ENDBRANCH  14  15
ENDBRANCH   5  14
TORSDOF 5
ENDMDL
MODEL 5
REMARK VINA RESULT: -6.100149939      4.993      8.638
REMARK  5 active torsions:
REMARK  status: ('A' for Active; 'I' for Inactive)
REMARK       I    between atoms: C1_2  and  N2_4 
REMARK    1  A    between atoms: C2_6  and  C3_7 
REMARK    2  A    between atoms: C3_7  and  N3_8 
REMARK       I    between atoms: N3_8  and  C4_10 
REMARK       I    between atoms: C4_10  and  N4_12 
REMARK    3  A    between atoms: N4_12  and  C5_14 
REMARK    4  A    between atoms: C5_14  and  C6_15 
REMARK    5  A    between atoms: C8_17  and  C9_18 
ROOT
HETATM    1  N3  UNL     1     -22.060  11.346   4.470  1.00  0.00    -0.338 N 
ATOM      2  H3  UNL     1     -21.108  11.711   4.443  1.00  0.00     0.164 HD
HETATM    3  C4  UNL     1     -22.316  10.017   4.862  1.00  0.00     0.316 C 
HETATM    4  O2  UNL     1     -23.482   9.586   4.891  1.00  0.00    -0.247 OA
HETATM    5  N4  UNL     1     -21.248   9.161   5.226  1.00  0.00    -0.343 N 
ATOM      6  H4  UNL     1     -20.291   9.512   5.204  1.00  0.00     0.164 HD
ENDROOT
BRANCH   1   7
HETATM    7  C3  UNL     1     -23.195  12.184   4.105  1.00  0.00     0.169 C 
BRANCH   7   8
HETATM    8  C2  UNL     1     -22.968  12.788   2.785  1.00  0.00     0.085 C 
HETATM    9  N2  UNL     1     -23.786  12.612   1.808  1.00  0.00    -0.323 N 
HETATM   10  C1  UNL     1     -24.936  11.808   2.034  1.00  0.00     0.332 C 
ATOM     11  H2  UNL     1     -23.614  13.038   0.897  1.00  0.00     0.169 HD
HETATM   12  N1  UNL     1     -26.145  12.478   2.329  1.00  0.00    -0.040 NA
HETATM   13  O1  UNL     1     -24.860  10.550   1.969  1.00  0.00    -0.251 OA
ENDBRANCH   7   8
ENDBRANCH   1   7
BRANCH   5  14
HETATM   14  C5  UNL     1     -21.498   7.798   5.630  1.00  0.00     0.129 C 
BRANCH  14  15
HETATM   15  C6  UNL     1     -21.390   6.834   4.451  1.00  0.00     0.008 A 
HETATM   16  C7  UNL     1     -20.142   6.895   3.632  1.00  0.00     0.012 A 
HETATM   17  C8  UNL     1     -20.421   5.712   4.502  1.00  0.00    -0.004 A 
BRANCH  17  18
HETATM   18  C9  UNL     1     -20.700   4.407   3.831  1.00  0.00    -0.010 A 
HETATM   19  C10 UNL     1     -22.119   3.928   3.675  1.00  0.00     0.005 A 
HETATM   20  C11 UNL     1     -21.278   3.329   4.716  1.00  0.00     0.005 A 
ENDBRANCH  17  18
ENDBRANCH  14  15
ENDBRANCH   5  14
TORSDOF 5
ENDMDL
