MODEL 1
REMARK VINA RESULT: -6.834070741      0.000      0.000
REMARK  4 active torsions:
REMARK  status: ('A' for Active; 'I' for Inactive)
REMARK       I    between atoms: C1_2  and  N2_4 
REMARK    1  A    between atoms: N2_4  and  C2_6 
REMARK    2  A    between atoms: C2_6  and  C3_7 
REMARK    3  A    between atoms: C3_7  and  N3_8 
REMARK       I    between atoms: N3_8  and  C4_10 
REMARK    4  A    between atoms: C4_10  and  C5_12 
ROOT
HETATM    1  N3  UNL     1     -21.490   8.516   5.207  1.00  0.00    -0.359 N 
ATOM      2  H3  UNL     1     -21.446   8.399   4.195  1.00  0.00     0.162 HD
HETATM    3  C4  UNL     1     -21.389   7.356   6.015  1.00  0.00     0.226 C 
HETATM    4  O2  UNL     1     -21.437   7.469   7.262  1.00  0.00    -0.273 OA
ENDROOT
BRANCH   3   5
HETATM    5  C5  UNL     1     -21.233   6.063   5.406  1.00  0.00     0.042 C 
HETATM    6  C6  UNL     1     -20.742   4.964   6.324  1.00  0.00     0.024 C 
HETATM    7  C7  UNL     1     -21.048   3.725   5.489  1.00  0.00    -0.009 C 
HETATM    8  C8  UNL     1     -19.978   3.569   4.398  1.00  0.00     0.010 C 
HETATM    9  C11 UNL     1     -21.984   4.157   4.395  1.00  0.00    -0.005 C 
HETATM   10  C9  UNL     1     -20.789   4.614   3.617  1.00  0.00    -0.009 C 
HETATM   11  C10 UNL     1     -20.447   6.019   4.126  1.00  0.00     0.024 C 
HETATM   12  C12 UNL     1     -22.562   5.447   4.939  1.00  0.00     0.024 C 
ENDBRANCH   3   5
BRANCH   1  13
HETATM   13  C3  UNL     1     -21.650   9.856   5.728  1.00  0.00     0.142 C 
BRANCH  13  14
HETATM   14  C2  UNL     1     -22.429  10.757   4.802  1.00  0.00     0.143 C 
BRANCH  14  15
HETATM   15  N2  UNL     1     -23.774  10.222   4.673  1.00  0.00    -0.344 N 
HETATM   16  C1  UNL     1     -24.573  10.448   3.532  1.00  0.00     0.328 C 
HETATM   17  N1  UNL     1     -25.868   9.914   3.444  1.00  0.00    -0.040 NA
HETATM   18  O1  UNL     1     -24.117  11.129   2.592  1.00  0.00    -0.251 OA
ATOM     19  H2  UNL     1     -24.155   9.663   5.436  1.00  0.00     0.163 HD
ENDBRANCH  14  15
ENDBRANCH  13  14
ENDBRANCH   1  13
TORSDOF 4
ENDMDL
MODEL 2
REMARK VINA RESULT: -6.755861087      0.441      1.258
REMARK  4 active torsions:
REMARK  status: ('A' for Active; 'I' for Inactive)
REMARK       I    between atoms: C1_2  and  N2_4 
REMARK    1  A    between atoms: N2_4  and  C2_6 
REMARK    2  A    between atoms: C2_6  and  C3_7 
REMARK    3  A    between atoms: C3_7  and  N3_8 
REMARK       I    between atoms: N3_8  and  C4_10 
REMARK    4  A    between atoms: C4_10  and  C5_12 
ROOT
HETATM    1  N3  UNL     1     -21.558   8.248   5.215  1.00  0.00    -0.359 N 
ATOM      2  H3  UNL     1     -21.513   8.192   4.197  1.00  0.00     0.162 HD
HETATM    3  C4  UNL     1     -21.425   7.044   5.952  1.00  0.00     0.226 C 
HETATM    4  O2  UNL     1     -21.475   7.082   7.205  1.00  0.00    -0.273 OA
ENDROOT
BRANCH   3   5
HETATM    5  C5  UNL     1     -21.236   5.795   5.268  1.00  0.00     0.042 C 
HETATM    6  C6  UNL     1     -22.504   5.066   4.877  1.00  0.00     0.024 C 
HETATM    7  C7  UNL     1     -21.960   4.039   3.890  1.00  0.00    -0.009 C 
HETATM    8  C8  UNL     1     -21.298   2.889   4.663  1.00  0.00     0.010 C 
HETATM    9  C11 UNL     1     -20.572   4.482   3.520  1.00  0.00    -0.005 C 
HETATM   10  C9  UNL     1     -20.080   3.818   4.768  1.00  0.00    -0.009 C 
HETATM   11  C10 UNL     1     -20.290   4.820   5.909  1.00  0.00     0.024 C 
HETATM   12  C12 UNL     1     -20.583   5.952   3.885  1.00  0.00     0.024 C 
ENDBRANCH   3   5
BRANCH   1  13
HETATM   13  C3  UNL     1     -21.754   9.549   5.815  1.00  0.00     0.142 C 
BRANCH  13  14
HETATM   14  C2  UNL     1     -22.452  10.521   4.895  1.00  0.00     0.143 C 
BRANCH  14  15
HETATM   15  N2  UNL     1     -23.799  10.033   4.657  1.00  0.00    -0.344 N 
HETATM   16  C1  UNL     1     -24.567  10.439   3.544  1.00  0.00     0.328 C 
HETATM   17  N1  UNL     1     -25.866   9.946   3.348  1.00  0.00    -0.040 NA
HETATM   18  O1  UNL     1     -24.079  11.246   2.728  1.00  0.00    -0.251 OA
ATOM     19  H2  UNL     1     -24.206   9.372   5.319  1.00  0.00     0.163 HD
ENDBRANCH  14  15
ENDBRANCH  13  14
ENDBRANCH   1  13
TORSDOF 4
ENDMDL
MODEL 3
REMARK VINA RESULT: -6.546324148      5.843      8.942
REMARK  4 active torsions:
REMARK  status: ('A' for Active; 'I' for Inactive)
REMARK       I    between atoms: C1_2  and  N2_4 
REMARK    1  A    between atoms: N2_4  and  C2_6 
REMARK    2  A    between atoms: C2_6  and  C3_7 
REMARK    3  A    between atoms: C3_7  and  N3_8 
REMARK       I    between atoms: N3_8  and  C4_10 
REMARK    4  A    between atoms: C4_10  and  C5_12 
ROOT
HETATM    1  N3  UNL     1     -18.148   2.021   5.183  1.00  0.00    -0.359 N 
ATOM      2  H3  UNL     1     -17.921   2.881   5.685  1.00  0.00     0.162 HD
HETATM    3  C4  UNL     1     -19.341   1.993   4.419  1.00  0.00     0.226 C 
HETATM    4  O2  UNL     1     -19.644   0.952   3.790  1.00  0.00    -0.273 OA
ENDROOT
BRANCH   3   5
HETATM    5  C5  UNL     1     -20.193   3.149   4.367  1.00  0.00     0.042 C 
HETATM    6  C6  UNL     1     -19.500   4.480   4.565  1.00  0.00     0.024 C 
HETATM    7  C7  UNL     1     -20.579   5.447   4.090  1.00  0.00    -0.009 C 
HETATM    8  C8  UNL     1     -21.640   5.608   5.189  1.00  0.00     0.010 C 
HETATM    9  C11 UNL     1     -21.596   4.632   3.341  1.00  0.00    -0.005 C 
HETATM   10  C9  UNL     1     -22.221   4.290   4.658  1.00  0.00    -0.009 C 
HETATM   11  C10 UNL     1     -21.426   3.109   5.225  1.00  0.00     0.024 C 
HETATM   12  C12 UNL     1     -20.823   3.380   2.984  1.00  0.00     0.024 C 
ENDBRANCH   3   5
BRANCH   1  13
HETATM   13  C3  UNL     1     -17.231   0.909   5.297  1.00  0.00     0.142 C 
BRANCH  13  14
HETATM   14  C2  UNL     1     -16.276   1.051   6.457  1.00  0.00     0.143 C 
BRANCH  14  15
HETATM   15  N2  UNL     1     -16.308  -0.182   7.224  1.00  0.00    -0.344 N 
HETATM   16  C1  UNL     1     -15.267  -0.556   8.101  1.00  0.00     0.328 C 
HETATM   17  N1  UNL     1     -15.333  -1.755   8.826  1.00  0.00    -0.040 NA
HETATM   18  O1  UNL     1     -14.279   0.194   8.231  1.00  0.00    -0.251 OA
ATOM     19  H2  UNL     1     -17.112  -0.801   7.126  1.00  0.00     0.163 HD
ENDBRANCH  14  15
ENDBRANCH  13  14
ENDBRANCH   1  13
TORSDOF 4
ENDMDL
MODEL 4
REMARK VINA RESULT: -6.542634241      0.985      1.607
REMARK  4 active torsions:
REMARK  status: ('A' for Active; 'I' for Inactive)
REMARK       I    between atoms: C1_2  and  N2_4 
REMARK    1  A    between atoms: N2_4  and  C2_6 
REMARK    2  A    between atoms: C2_6  and  C3_7 
REMARK    3  A    between atoms: C3_7  and  N3_8 
REMARK       I    between atoms: N3_8  and  C4_10 
REMARK    4  A    between atoms: C4_10  and  C5_12 
ROOT
HETATM    1  N3  UNL     1     -21.727   8.824   4.863  1.00  0.00    -0.359 N 
ATOM      2  H3  UNL     1     -21.778   8.617   3.865  1.00  0.00     0.162 HD
HETATM    3  C4  UNL     1     -21.489   7.747   5.753  1.00  0.00     0.226 C 
HETATM    4  O2  UNL     1     -21.419   7.972   6.985  1.00  0.00    -0.273 OA
ENDROOT
BRANCH   3   5
HETATM    5  C5  UNL     1     -21.330   6.412   5.246  1.00  0.00     0.042 C 
HETATM    6  C6  UNL     1     -20.369   6.265   4.085  1.00  0.00     0.024 C 
HETATM    7  C7  UNL     1     -20.166   4.754   4.061  1.00  0.00    -0.009 C 
HETATM    8  C8  UNL     1     -21.382   4.086   3.401  1.00  0.00     0.010 C 
HETATM    9  C11 UNL     1     -20.686   4.224   5.368  1.00  0.00    -0.005 C 
HETATM   10  C9  UNL     1     -22.059   4.235   4.771  1.00  0.00    -0.009 C 
HETATM   11  C10 UNL     1     -22.594   5.662   4.932  1.00  0.00     0.024 C 
HETATM   12  C12 UNL     1     -20.678   5.452   6.254  1.00  0.00     0.024 C 
ENDBRANCH   3   5
BRANCH   1  13
HETATM   13  C3  UNL     1     -21.903  10.197   5.279  1.00  0.00     0.142 C 
BRANCH  13  14
HETATM   14  C2  UNL     1     -23.330  10.671   5.157  1.00  0.00     0.143 C 
BRANCH  14  15
HETATM   15  N2  UNL     1     -23.602  10.933   3.754  1.00  0.00    -0.344 N 
HETATM   16  C1  UNL     1     -24.755  10.445   3.102  1.00  0.00     0.328 C 
HETATM   17  N1  UNL     1     -24.984  10.719   1.745  1.00  0.00    -0.040 NA
HETATM   18  O1  UNL     1     -25.578   9.763   3.745  1.00  0.00    -0.251 OA
ATOM     19  H2  UNL     1     -22.936  11.490   3.221  1.00  0.00     0.163 HD
ENDBRANCH  14  15
ENDBRANCH  13  14
ENDBRANCH   1  13
TORSDOF 4
ENDMDL
MODEL 5
REMARK VINA RESULT: -6.476248869      5.524      8.602
REMARK  4 active torsions:
REMARK  status: ('A' for Active; 'I' for Inactive)
REMARK       I    between atoms: C1_2  and  N2_4 
REMARK    1  A    between atoms: N2_4  and  C2_6 
REMARK    2  A    between atoms: C2_6  and  C3_7 
REMARK    3  A    between atoms: C3_7  and  N3_8 
REMARK       I    between atoms: N3_8  and  C4_10 
REMARK    4  A    between atoms: C4_10  and  C5_12 
ROOT
HETATM    1  N3  UNL     1     -18.393   2.506   5.279  1.00  0.00    -0.359 N 
ATOM      2  H3  UNL     1     -18.011   3.298   5.796  1.00  0.00     0.162 HD
HETATM    3  C4  UNL     1     -19.711   2.618   4.770  1.00  0.00     0.226 C 
HETATM    4  O2  UNL     1     -20.206   1.661   4.128  1.00  0.00    -0.273 OA
ENDROOT
BRANCH   3   5
HETATM    5  C5  UNL     1     -20.471   3.819   4.989  1.00  0.00     0.042 C 
HETATM    6  C6  UNL     1     -19.899   5.075   4.366  1.00  0.00     0.024 C 
HETATM    7  C7  UNL     1     -21.091   6.021   4.466  1.00  0.00    -0.009 C 
HETATM    8  C8  UNL     1     -21.207   6.545   5.905  1.00  0.00     0.010 C 
HETATM    9  C11 UNL     1     -22.296   5.173   4.763  1.00  0.00    -0.005 C 
HETATM   10  C9  UNL     1     -21.907   5.213   6.209  1.00  0.00    -0.009 C 
HETATM   11  C10 UNL     1     -20.860   4.112   6.410  1.00  0.00     0.024 C 
HETATM   12  C12 UNL     1     -21.854   3.795   4.319  1.00  0.00     0.024 C 
ENDBRANCH   3   5
BRANCH   1  13
HETATM   13  C3  UNL     1     -17.556   1.339   5.112  1.00  0.00     0.142 C 
BRANCH  13  14
HETATM   14  C2  UNL     1     -16.348   1.349   6.016  1.00  0.00     0.143 C 
BRANCH  14  15
HETATM   15  N2  UNL     1     -16.470   0.242   6.949  1.00  0.00    -0.344 N 
HETATM   16  C1  UNL     1     -15.381  -0.231   7.711  1.00  0.00     0.328 C 
HETATM   17  N1  UNL     1     -15.538  -1.303   8.603  1.00  0.00    -0.040 NA
HETATM   18  O1  UNL     1     -14.266   0.315   7.587  1.00  0.00    -0.251 OA
ATOM     19  H2  UNL     1     -17.378  -0.210   7.058  1.00  0.00     0.163 HD
ENDBRANCH  14  15
ENDBRANCH  13  14
ENDBRANCH   1  13
TORSDOF 4
ENDMDL
