MODEL 1
REMARK VINA RESULT: -6.713820867      0.000      0.000
REMARK  4 active torsions:
REMARK  status: ('A' for Active; 'I' for Inactive)
REMARK    1  A    between atoms: C2_2  and  C3_3 
REMARK    2  A    between atoms: C5_5  and  C7_8 
REMARK    3  A    between atoms: C7_8  and  C9_10 
REMARK    4  A    between atoms: C9_10  and  N2_11 
REMARK       I    between atoms: C10_13  and  N4_15 
ROOT
HETATM    1  C3  UNL     1     -21.614   5.059   5.965  1.00  0.00     0.032 A 
HETATM    2  C4  UNL     1     -22.735   5.307   4.908  1.00  0.00     0.036 A 
HETATM    3  C5  UNL     1     -21.286   5.065   4.537  1.00  0.00     0.061 A 
HETATM    4  C6  UNL     1     -20.594   6.294   4.073  1.00  0.00     0.070 C 
HETATM    5  N1  UNL     1     -20.049   7.250   3.731  1.00  0.00    -0.196 NA
ENDROOT
BRANCH   3   6
HETATM    6  C7  UNL     1     -21.007   3.864   3.728  1.00  0.00     0.023 C 
HETATM    7  C8  UNL     1     -22.005   3.730   2.617  1.00  0.00     0.013 C 
BRANCH   6   8
HETATM    8  C9  UNL     1     -20.884   2.600   4.550  1.00  0.00     0.128 C 
BRANCH   8   9
HETATM    9  N2  UNL     1     -19.971   1.661   3.988  1.00  0.00    -0.364 N 
HETATM   10  C10 UNL     1     -18.712   1.672   4.096  1.00  0.00     0.190 C 
HETATM   11  N3  UNL     1     -17.941   0.659   3.472  1.00  0.00    -0.063 NA
HETATM   12  N4  UNL     1     -18.031   2.675   4.829  1.00  0.00    -0.307 N 
HETATM   13  C11 UNL     1     -16.915   2.421   5.422  1.00  0.00     0.203 C 
ATOM     14  H4  UNL     1     -18.429   3.612   4.887  1.00  0.00     0.170 HD
HETATM   15  N5  UNL     1     -16.281   1.151   5.398  1.00  0.00    -0.066 NA
HETATM   16  N6  UNL     1     -16.284   3.469   6.138  1.00  0.00    -0.066 NA
ATOM     17  H2  UNL     1     -20.376   0.900   3.443  1.00  0.00     0.162 HD
ENDBRANCH   8   9
ENDBRANCH   6   8
ENDBRANCH   3   6
BRANCH   1  18
HETATM   18  C2  UNL     1     -21.254   6.237   6.801  1.00  0.00    -0.030 C 
HETATM   19  C1  UNL     1     -21.264   6.123   8.105  1.00  0.00     0.007 C 
ENDBRANCH   1  18
TORSDOF 4
ENDMDL
MODEL 2
REMARK VINA RESULT: -6.678883326      1.387      1.612
REMARK  4 active torsions:
REMARK  status: ('A' for Active; 'I' for Inactive)
REMARK    1  A    between atoms: C2_2  and  C3_3 
REMARK    2  A    between atoms: C5_5  and  C7_8 
REMARK    3  A    between atoms: C7_8  and  C9_10 
REMARK    4  A    between atoms: C9_10  and  N2_11 
REMARK       I    between atoms: C10_13  and  N4_15 
ROOT
HETATM    1  C3  UNL     1     -21.551   4.879   5.741  1.00  0.00     0.032 A 
HETATM    2  C4  UNL     1     -22.465   4.692   4.491  1.00  0.00     0.036 A 
HETATM    3  C5  UNL     1     -20.958   4.818   4.403  1.00  0.00     0.061 A 
HETATM    4  C6  UNL     1     -20.517   6.132   3.869  1.00  0.00     0.070 C 
HETATM    5  N1  UNL     1     -20.172   7.156   3.473  1.00  0.00    -0.196 NA
ENDROOT
BRANCH   3   6
HETATM    6  C7  UNL     1     -20.233   3.659   3.851  1.00  0.00     0.023 C 
HETATM    7  C8  UNL     1     -20.993   3.054   2.707  1.00  0.00     0.013 C 
BRANCH   6   8
HETATM    8  C9  UNL     1     -19.851   2.634   4.896  1.00  0.00     0.128 C 
BRANCH   8   9
HETATM    9  N2  UNL     1     -18.544   2.101   4.696  1.00  0.00    -0.364 N 
HETATM   10  C10 UNL     1     -17.613   2.040   5.549  1.00  0.00     0.190 C 
HETATM   11  N3  UNL     1     -16.363   1.476   5.190  1.00  0.00    -0.063 NA
HETATM   12  N4  UNL     1     -17.774   2.521   6.872  1.00  0.00    -0.307 N 
HETATM   13  C11 UNL     1     -17.135   1.985   7.855  1.00  0.00     0.203 C 
ATOM     14  H4  UNL     1     -18.406   3.302   7.049  1.00  0.00     0.170 HD
HETATM   15  N5  UNL     1     -16.236   0.896   7.710  1.00  0.00    -0.066 NA
HETATM   16  N6  UNL     1     -17.341   2.514   9.154  1.00  0.00    -0.066 NA
ATOM     17  H2  UNL     1     -18.339   1.730   3.769  1.00  0.00     0.162 HD
ENDBRANCH   8   9
ENDBRANCH   6   8
ENDBRANCH   3   6
BRANCH   1  18
HETATM   18  C2  UNL     1     -21.670   6.194   6.428  1.00  0.00    -0.030 C 
HETATM   19  C1  UNL     1     -21.390   6.279   7.704  1.00  0.00     0.007 C 
ENDBRANCH   1  18
TORSDOF 4
ENDMDL
MODEL 3
REMARK VINA RESULT: -6.664126052      1.765      2.158
REMARK  4 active torsions:
REMARK  status: ('A' for Active; 'I' for Inactive)
REMARK    1  A    between atoms: C2_2  and  C3_3 
REMARK    2  A    between atoms: C5_5  and  C7_8 
REMARK    3  A    between atoms: C7_8  and  C9_10 
REMARK    4  A    between atoms: C9_10  and  N2_11 
REMARK       I    between atoms: C10_13  and  N4_15 
ROOT
HETATM    1  C3  UNL     1     -21.516   4.834   5.751  1.00  0.00     0.032 A 
HETATM    2  C4  UNL     1     -22.472   4.726   4.523  1.00  0.00     0.036 A 
HETATM    3  C5  UNL     1     -20.965   4.811   4.393  1.00  0.00     0.061 A 
HETATM    4  C6  UNL     1     -20.499   6.132   3.900  1.00  0.00     0.070 C 
HETATM    5  N1  UNL     1     -20.135   7.161   3.535  1.00  0.00    -0.196 NA
ENDROOT
BRANCH   3   6
HETATM    6  C7  UNL     1     -20.293   3.655   3.773  1.00  0.00     0.023 C 
HETATM    7  C8  UNL     1     -21.087   3.144   2.606  1.00  0.00     0.013 C 
BRANCH   6   8
HETATM    8  C9  UNL     1     -19.946   2.560   4.758  1.00  0.00     0.128 C 
BRANCH   8   9
HETATM    9  N2  UNL     1     -18.552   2.501   5.050  1.00  0.00    -0.364 N 
HETATM   10  C10 UNL     1     -17.988   2.852   6.126  1.00  0.00     0.190 C 
HETATM   11  N3  UNL     1     -16.583   2.729   6.258  1.00  0.00    -0.063 NA
HETATM   12  N4  UNL     1     -18.721   3.371   7.221  1.00  0.00    -0.307 N 
HETATM   13  C11 UNL     1     -18.319   3.191   8.433  1.00  0.00     0.203 C 
ATOM     14  H4  UNL     1     -19.578   3.896   7.049  1.00  0.00     0.170 HD
HETATM   15  N5  UNL     1     -17.141   2.476   8.774  1.00  0.00    -0.066 NA
HETATM   16  N6  UNL     1     -19.098   3.737   9.484  1.00  0.00    -0.066 NA
ATOM     17  H2  UNL     1     -17.946   2.137   4.315  1.00  0.00     0.162 HD
ENDBRANCH   8   9
ENDBRANCH   6   8
ENDBRANCH   3   6
BRANCH   1  18
HETATM   18  C2  UNL     1     -21.573   6.123   6.493  1.00  0.00    -0.030 C 
HETATM   19  C1  UNL     1     -21.439   6.119   7.796  1.00  0.00     0.007 C 
ENDBRANCH   1  18
TORSDOF 4
ENDMDL
MODEL 4
REMARK VINA RESULT: -6.513314166      1.405      1.731
REMARK  4 active torsions:
REMARK  status: ('A' for Active; 'I' for Inactive)
REMARK    1  A    between atoms: C2_2  and  C3_3 
REMARK    2  A    between atoms: C5_5  and  C7_8 
REMARK    3  A    between atoms: C7_8  and  C9_10 
REMARK    4  A    between atoms: C9_10  and  N2_11 
REMARK       I    between atoms: C10_13  and  N4_15 
ROOT
HETATM    1  C3  UNL     1     -21.486   6.260   4.826  1.00  0.00     0.032 A 
HETATM    2  C4  UNL     1     -20.049   6.183   4.224  1.00  0.00     0.036 A 
HETATM    3  C5  UNL     1     -20.783   4.976   4.770  1.00  0.00     0.061 A 
HETATM    4  C6  UNL     1     -20.247   4.514   6.075  1.00  0.00     0.070 C 
HETATM    5  N1  UNL     1     -19.846   4.165   7.096  1.00  0.00    -0.196 NA
ENDROOT
BRANCH   3   6
HETATM    6  C7  UNL     1     -21.073   3.895   3.810  1.00  0.00     0.023 C 
HETATM    7  C8  UNL     1     -22.371   4.148   3.102  1.00  0.00     0.013 C 
BRANCH   6   8
HETATM    8  C9  UNL     1     -21.010   2.513   4.423  1.00  0.00     0.128 C 
BRANCH   8   9
HETATM    9  N2  UNL     1     -20.096   1.650   3.750  1.00  0.00    -0.364 N 
HETATM   10  C10 UNL     1     -18.842   1.607   3.903  1.00  0.00     0.190 C 
HETATM   11  N3  UNL     1     -18.071   0.686   3.151  1.00  0.00    -0.063 NA
HETATM   12  N4  UNL     1     -18.168   2.459   4.812  1.00  0.00    -0.307 N 
HETATM   13  C11 UNL     1     -17.083   2.081   5.396  1.00  0.00     0.203 C 
ATOM     14  H4  UNL     1     -18.547   3.386   5.007  1.00  0.00     0.170 HD
HETATM   15  N5  UNL     1     -16.479   0.813   5.190  1.00  0.00    -0.066 NA
HETATM   16  N6  UNL     1     -16.457   2.981   6.294  1.00  0.00    -0.066 NA
ATOM     17  H2  UNL     1     -20.496   0.999   3.074  1.00  0.00     0.162 HD
ENDBRANCH   8   9
ENDBRANCH   6   8
ENDBRANCH   3   6
BRANCH   1  18
HETATM   18  C2  UNL     1     -21.595   6.976   6.127  1.00  0.00    -0.030 C 
HETATM   19  C1  UNL     1     -21.525   8.283   6.147  1.00  0.00     0.007 C 
ENDBRANCH   1  18
TORSDOF 4
ENDMDL
MODEL 5
REMARK VINA RESULT: -6.443534646      1.551      2.054
REMARK  4 active torsions:
REMARK  status: ('A' for Active; 'I' for Inactive)
REMARK    1  A    between atoms: C2_2  and  C3_3 
REMARK    2  A    between atoms: C5_5  and  C7_8 
REMARK    3  A    between atoms: C7_8  and  C9_10 
REMARK    4  A    between atoms: C9_10  and  N2_11 
REMARK       I    between atoms: C10_13  and  N4_15 
ROOT
HETATM    1  C3  UNL     1     -21.607   6.922   6.360  1.00  0.00     0.032 A 
HETATM    2  C4  UNL     1     -22.648   6.138   5.502  1.00  0.00     0.036 A 
HETATM    3  C5  UNL     1     -21.153   5.920   5.392  1.00  0.00     0.061 A 
HETATM    4  C6  UNL     1     -20.574   6.490   4.149  1.00  0.00     0.070 C 
HETATM    5  N1  UNL     1     -20.120   6.948   3.195  1.00  0.00    -0.196 NA
ENDROOT
BRANCH   3   6
HETATM    6  C7  UNL     1     -20.658   4.575   5.736  1.00  0.00     0.023 C 
HETATM    7  C8  UNL     1     -20.386   4.470   7.208  1.00  0.00     0.013 C 
BRANCH   6   8
HETATM    8  C9  UNL     1     -19.477   4.135   4.899  1.00  0.00     0.128 C 
BRANCH   8   9
HETATM    9  N2  UNL     1     -19.659   2.845   4.320  1.00  0.00    -0.364 N 
HETATM   10  C10 UNL     1     -18.836   1.886   4.334  1.00  0.00     0.190 C 
HETATM   11  N3  UNL     1     -19.171   0.660   3.708  1.00  0.00    -0.063 NA
HETATM   12  N4  UNL     1     -17.571   1.993   4.963  1.00  0.00    -0.307 N 
HETATM   13  C11 UNL     1     -17.000   0.961   5.485  1.00  0.00     0.203 C 
ATOM     14  H4  UNL     1     -17.104   2.899   5.003  1.00  0.00     0.170 HD
HETATM   15  N5  UNL     1     -17.568  -0.340   5.480  1.00  0.00    -0.066 NA
HETATM   16  N6  UNL     1     -15.734   1.135   6.099  1.00  0.00    -0.066 NA
ATOM     17  H2  UNL     1     -20.546   2.679   3.845  1.00  0.00     0.162 HD
ENDBRANCH   8   9
ENDBRANCH   6   8
ENDBRANCH   3   6
BRANCH   1  18
HETATM   18  C2  UNL     1     -21.470   8.367   6.034  1.00  0.00    -0.030 C 
HETATM   19  C1  UNL     1     -21.253   9.224   7.000  1.00  0.00     0.007 C 
ENDBRANCH   1  18
TORSDOF 4
ENDMDL
