MODEL 1
REMARK VINA RESULT: -6.766017574      0.000      0.000
REMARK  5 active torsions:
REMARK  status: ('A' for Active; 'I' for Inactive)
REMARK    1  A    between atoms: C2_2  and  N1_3 
REMARK       I    between atoms: N1_3  and  C3_5 
REMARK       I    between atoms: C3_5  and  N2_7 
REMARK    2  A    between atoms: N2_7  and  C4_9 
REMARK    3  A    between atoms: C4_9  and  C5_10 
REMARK    4  A    between atoms: C5_10  and  C6_11 
REMARK    5  A    between atoms: C9_14  and  C10_15 
ROOT
HETATM    1  C5  UNL     1     -20.871   6.035   4.075  1.00  0.00     0.024 C 
ENDROOT
BRANCH   1   2
HETATM    2  C4  UNL     1     -21.246   6.909   5.190  1.00  0.00     0.125 C 
BRANCH   2   3
HETATM    3  N2  UNL     1     -20.872   8.300   5.089  1.00  0.00    -0.343 N 
HETATM    4  C3  UNL     1     -21.880   9.291   4.908  1.00  0.00     0.319 C 
HETATM    5  N1  UNL     1     -21.592  10.669   4.801  1.00  0.00    -0.320 N 
HETATM    6  O1  UNL     1     -23.075   8.921   4.839  1.00  0.00    -0.247 OA
ATOM      7  H1  UNL     1     -20.621  10.978   4.855  1.00  0.00     0.169 HD
ATOM      8  H2  UNL     1     -19.890   8.573   5.148  1.00  0.00     0.164 HD
BRANCH   5   9
HETATM    9  C2  UNL     1     -22.613  11.630   4.621  1.00  0.00     0.082 C 
HETATM   10  C1  UNL     1     -22.729  12.335   3.512  1.00  0.00     0.030 C 
ENDBRANCH   5   9
ENDBRANCH   2   3
ENDBRANCH   1   2
BRANCH   1  11
HETATM   11  C6  UNL     1     -20.909   4.566   4.229  1.00  0.00    -0.013 C 
HETATM   12  C7  UNL     1     -19.644   3.879   4.615  1.00  0.00     0.005 C 
HETATM   13  C8  UNL     1     -20.041   2.425   4.923  1.00  0.00     0.014 C 
HETATM   14  C9  UNL     1     -20.322   1.746   3.590  1.00  0.00     0.075 C 
HETATM   15  C11 UNL     1     -20.680   2.776   2.548  1.00  0.00     0.014 C 
HETATM   16  C12 UNL     1     -21.576   3.831   3.121  1.00  0.00     0.005 C 
BRANCH  14  17
HETATM   17  C10 UNL     1     -19.108   0.999   3.242  1.00  0.00     0.235 C 
HETATM   18  N3  UNL     1     -18.547   0.922   1.960  1.00  0.00    -0.062 NA
HETATM   19  O2  UNL     1     -18.519   0.369   4.188  1.00  0.00    -0.277 OA
ENDBRANCH  14  17
ENDBRANCH   1  11
TORSDOF 5
ENDMDL
MODEL 2
REMARK VINA RESULT: -6.550052645      1.266      1.633
REMARK  5 active torsions:
REMARK  status: ('A' for Active; 'I' for Inactive)
REMARK    1  A    between atoms: C2_2  and  N1_3 
REMARK       I    between atoms: N1_3  and  C3_5 
REMARK       I    between atoms: C3_5  and  N2_7 
REMARK    2  A    between atoms: N2_7  and  C4_9 
REMARK    3  A    between atoms: C4_9  and  C5_10 
REMARK    4  A    between atoms: C5_10  and  C6_11 
REMARK    5  A    between atoms: C9_14  and  C10_15 
ROOT
HETATM    1  C5  UNL     1     -20.996   7.290   4.582  1.00  0.00     0.024 C 
ENDROOT
BRANCH   1   2
HETATM    2  C4  UNL     1     -21.544   8.319   5.470  1.00  0.00     0.125 C 
BRANCH   2   3
HETATM    3  N2  UNL     1     -21.299   9.696   5.112  1.00  0.00    -0.343 N 
HETATM    4  C3  UNL     1     -22.346  10.474   4.540  1.00  0.00     0.319 C 
HETATM    5  N1  UNL     1     -22.182  11.825   4.165  1.00  0.00    -0.320 N 
HETATM    6  O1  UNL     1     -23.462   9.933   4.362  1.00  0.00    -0.247 OA
ATOM      7  H1  UNL     1     -21.277  12.273   4.305  1.00  0.00     0.169 HD
ATOM      8  H2  UNL     1     -20.379  10.110   5.267  1.00  0.00     0.164 HD
BRANCH   5   9
HETATM    9  C2  UNL     1     -23.240  12.573   3.599  1.00  0.00     0.082 C 
HETATM   10  C1  UNL     1     -23.151  13.128   2.406  1.00  0.00     0.030 C 
ENDBRANCH   5   9
ENDBRANCH   2   3
ENDBRANCH   1   2
BRANCH   1  11
HETATM   11  C6  UNL     1     -21.016   5.868   4.980  1.00  0.00    -0.013 C 
HETATM   12  C7  UNL     1     -19.852   5.024   4.588  1.00  0.00     0.005 C 
HETATM   13  C8  UNL     1     -20.041   3.689   5.326  1.00  0.00     0.014 C 
HETATM   14  C9  UNL     1     -21.166   2.943   4.622  1.00  0.00     0.075 C 
HETATM   15  C11 UNL     1     -22.052   3.916   3.886  1.00  0.00     0.014 C 
HETATM   16  C12 UNL     1     -22.289   5.150   4.700  1.00  0.00     0.005 C 
BRANCH  14  17
HETATM   17  C10 UNL     1     -20.523   1.980   3.721  1.00  0.00     0.235 C 
HETATM   18  N3  UNL     1     -20.819   1.826   2.360  1.00  0.00    -0.062 NA
HETATM   19  O2  UNL     1     -19.621   1.223   4.223  1.00  0.00    -0.277 OA
ENDBRANCH  14  17
ENDBRANCH   1  11
TORSDOF 5
ENDMDL
MODEL 3
REMARK VINA RESULT: -6.536774343      1.965      2.145
REMARK  5 active torsions:
REMARK  status: ('A' for Active; 'I' for Inactive)
REMARK    1  A    between atoms: C2_2  and  N1_3 
REMARK       I    between atoms: N1_3  and  C3_5 
REMARK       I    between atoms: C3_5  and  N2_7 
REMARK    2  A    between atoms: N2_7  and  C4_9 
REMARK    3  A    between atoms: C4_9  and  C5_10 
REMARK    4  A    between atoms: C5_10  and  C6_11 
REMARK    5  A    between atoms: C9_14  and  C10_15 
ROOT
HETATM    1  C5  UNL     1     -20.585   5.782   4.044  1.00  0.00     0.024 C 
ENDROOT
BRANCH   1   2
HETATM    2  C4  UNL     1     -21.436   6.603   4.909  1.00  0.00     0.125 C 
BRANCH   2   3
HETATM    3  N2  UNL     1     -21.077   7.994   5.058  1.00  0.00    -0.343 N 
HETATM    4  C3  UNL     1     -21.232   8.631   6.322  1.00  0.00     0.319 C 
HETATM    5  N1  UNL     1     -20.902   9.986   6.545  1.00  0.00    -0.320 N 
HETATM    6  O1  UNL     1     -21.681   7.959   7.279  1.00  0.00    -0.247 OA
ATOM      7  H1  UNL     1     -20.537  10.541   5.771  1.00  0.00     0.169 HD
ATOM      8  H2  UNL     1     -20.714   8.517   4.261  1.00  0.00     0.164 HD
BRANCH   5   9
HETATM    9  C2  UNL     1     -21.067  10.593   7.811  1.00  0.00     0.082 C 
HETATM   10  C1  UNL     1     -20.080  10.684   8.682  1.00  0.00     0.030 C 
ENDBRANCH   5   9
ENDBRANCH   2   3
ENDBRANCH   1   2
BRANCH   1  11
HETATM   11  C6  UNL     1     -20.610   4.309   4.147  1.00  0.00    -0.013 C 
HETATM   12  C7  UNL     1     -19.330   3.616   4.466  1.00  0.00     0.005 C 
HETATM   13  C8  UNL     1     -19.708   2.150   4.735  1.00  0.00     0.014 C 
HETATM   14  C9  UNL     1     -20.031   1.516   3.389  1.00  0.00     0.075 C 
HETATM   15  C11 UNL     1     -20.429   2.580   2.398  1.00  0.00     0.014 C 
HETATM   16  C12 UNL     1     -21.310   3.609   3.036  1.00  0.00     0.005 C 
BRANCH  14  17
HETATM   17  C10 UNL     1     -18.826   0.789   2.976  1.00  0.00     0.235 C 
HETATM   18  N3  UNL     1     -18.038  -0.010   3.814  1.00  0.00    -0.062 NA
HETATM   19  O2  UNL     1     -18.471   0.897   1.750  1.00  0.00    -0.277 OA
ENDBRANCH  14  17
ENDBRANCH   1  11
TORSDOF 5
ENDMDL
MODEL 4
REMARK VINA RESULT: -6.503816069      2.727      7.859
REMARK  5 active torsions:
REMARK  status: ('A' for Active; 'I' for Inactive)
REMARK    1  A    between atoms: C2_2  and  N1_3 
REMARK       I    between atoms: N1_3  and  C3_5 
REMARK       I    between atoms: C3_5  and  N2_7 
REMARK    2  A    between atoms: N2_7  and  C4_9 
REMARK    3  A    between atoms: C4_9  and  C5_10 
REMARK    4  A    between atoms: C5_10  and  C6_11 
REMARK    5  A    between atoms: C9_14  and  C10_15 
ROOT
HETATM    1  C5  UNL     1     -20.103   1.418   3.174  1.00  0.00     0.024 C 
ENDROOT
BRANCH   1   2
HETATM    2  C4  UNL     1     -18.650   1.318   3.338  1.00  0.00     0.125 C 
BRANCH   2   3
HETATM    3  N2  UNL     1     -18.163   0.393   4.335  1.00  0.00    -0.343 N 
HETATM    4  C3  UNL     1     -17.323   0.865   5.384  1.00  0.00     0.319 C 
HETATM    5  N1  UNL     1     -16.808   0.023   6.394  1.00  0.00    -0.320 N 
HETATM    6  O1  UNL     1     -17.027   2.082   5.411  1.00  0.00    -0.247 OA
ATOM      7  H1  UNL     1     -17.043  -0.969   6.379  1.00  0.00     0.169 HD
ATOM      8  H2  UNL     1     -18.419  -0.593   4.288  1.00  0.00     0.164 HD
BRANCH   5   9
HETATM    9  C2  UNL     1     -15.976   0.519   7.423  1.00  0.00     0.082 C 
HETATM   10  C1  UNL     1     -15.325  -0.278   8.249  1.00  0.00     0.030 C 
ENDBRANCH   5   9
ENDBRANCH   2   3
ENDBRANCH   1   2
BRANCH   1  11
HETATM   11  C6  UNL     1     -20.859   2.500   3.837  1.00  0.00    -0.013 C 
HETATM   12  C7  UNL     1     -21.184   3.711   3.030  1.00  0.00     0.005 C 
HETATM   13  C8  UNL     1     -22.153   4.535   3.893  1.00  0.00     0.014 C 
HETATM   14  C9  UNL     1     -21.333   5.167   5.009  1.00  0.00     0.075 C 
HETATM   15  C11 UNL     1     -20.075   4.369   5.243  1.00  0.00     0.014 C 
HETATM   16  C12 UNL     1     -20.350   2.898   5.178  1.00  0.00     0.005 C 
BRANCH  14  17
HETATM   17  C10 UNL     1     -21.051   6.543   4.587  1.00  0.00     0.235 C 
HETATM   18  N3  UNL     1     -20.251   6.905   3.495  1.00  0.00    -0.062 NA
HETATM   19  O2  UNL     1     -21.582   7.485   5.274  1.00  0.00    -0.277 OA
ENDBRANCH  14  17
ENDBRANCH   1  11
TORSDOF 5
ENDMDL
MODEL 5
REMARK VINA RESULT: -6.420397801      2.183      3.376
REMARK  5 active torsions:
REMARK  status: ('A' for Active; 'I' for Inactive)
REMARK    1  A    between atoms: C2_2  and  N1_3 
REMARK       I    between atoms: N1_3  and  C3_5 
REMARK       I    between atoms: C3_5  and  N2_7 
REMARK    2  A    between atoms: N2_7  and  C4_9 
REMARK    3  A    between atoms: C4_9  and  C5_10 
REMARK    4  A    between atoms: C5_10  and  C6_11 
REMARK    5  A    between atoms: C9_14  and  C10_15 
ROOT
HETATM    1  C5  UNL     1     -21.276   8.901   6.093  1.00  0.00     0.024 C 
ENDROOT
BRANCH   1   2
HETATM    2  C4  UNL     1     -22.239  10.005   6.097  1.00  0.00     0.125 C 
BRANCH   2   3
HETATM    3  N2  UNL     1     -22.427  10.719   4.855  1.00  0.00    -0.343 N 
HETATM    4  C3  UNL     1     -23.613  10.512   4.095  1.00  0.00     0.319 C 
HETATM    5  N1  UNL     1     -23.867  11.172   2.873  1.00  0.00    -0.320 N 
HETATM    6  O1  UNL     1     -24.468   9.706   4.529  1.00  0.00    -0.247 OA
ATOM      7  H1  UNL     1     -23.176  11.829   2.511  1.00  0.00     0.169 HD
ATOM      8  H2  UNL     1     -21.713  11.368   4.525  1.00  0.00     0.164 HD
BRANCH   5   9
HETATM    9  C2  UNL     1     -25.054  10.947   2.139  1.00  0.00     0.082 C 
HETATM   10  C1  UNL     1     -25.301  11.556   0.995  1.00  0.00     0.030 C 
ENDBRANCH   5   9
ENDBRANCH   2   3
ENDBRANCH   1   2
BRANCH   1  11
HETATM   11  C6  UNL     1     -21.600   7.626   5.420  1.00  0.00    -0.013 C 
HETATM   12  C7  UNL     1     -21.561   6.382   6.241  1.00  0.00     0.005 C 
HETATM   13  C8  UNL     1     -22.159   5.281   5.351  1.00  0.00     0.014 C 
HETATM   14  C9  UNL     1     -21.116   4.941   4.296  1.00  0.00     0.075 C 
HETATM   15  C11 UNL     1     -20.173   6.103   4.107  1.00  0.00     0.014 C 
HETATM   16  C12 UNL     1     -20.914   7.404   4.119  1.00  0.00     0.005 C 
BRANCH  14  17
HETATM   17  C10 UNL     1     -20.428   3.734   4.768  1.00  0.00     0.235 C 
HETATM   18  N3  UNL     1     -21.039   2.494   4.997  1.00  0.00    -0.062 NA
HETATM   19  O2  UNL     1     -19.170   3.826   4.985  1.00  0.00    -0.277 OA
ENDBRANCH  14  17
ENDBRANCH   1  11
TORSDOF 5
ENDMDL
