MODEL 1
REMARK VINA RESULT: -8.399299764      0.000      0.000
REMARK  9 active torsions:
REMARK  status: ('A' for Active; 'I' for Inactive)
REMARK    1  A    between atoms: C3_3  and  C4_4 
REMARK    2  A    between atoms: C5_5  and  C6_6 
REMARK    3  A    between atoms: C6_6  and  C7_7 
REMARK    4  A    between atoms: C7_7  and  C8_8 
REMARK    5  A    between atoms: C7_7  and  C17_31 
REMARK    6  A    between atoms: N2_13  and  C11_14 
REMARK    7  A    between atoms: C12_17  and  N4_18 
REMARK    8  A    between atoms: C14_25  and  N7_26 
REMARK    9  A    between atoms: C17_31  and  C19_33 
ROOT
HETATM    1  C1  UNL     1      72.094  52.749  38.118  1.00  0.00     0.113 C 
HETATM    2  C2  UNL     1      73.276  52.617  38.986  1.00  0.00    -0.097 C 
HETATM    3  C3  UNL     1      74.239  52.489  39.712  1.00  0.00    -0.015 C 
ENDROOT
BRANCH   3   4
HETATM    4  C4  UNL     1      75.375  52.313  40.569  1.00  0.00    -0.015 C 
HETATM    5  C5  UNL     1      76.323  52.137  41.285  1.00  0.00    -0.088 C 
BRANCH   5   6
HETATM    6  C6  UNL     1      77.468  51.905  42.178  1.00  0.00     0.130 C 
BRANCH   6   7
HETATM    7  C7  UNL     1      78.106  50.602  41.888  1.00  0.00    -0.051 C 
BRANCH   7   8
HETATM    8  C8  UNL     1      78.670  50.353  40.547  1.00  0.00     0.015 A 
HETATM    9  C9  UNL     1      78.080  49.746  39.441  1.00  0.00     0.035 A 
HETATM   10  C10 UNL     1      76.805  49.002  39.360  1.00  0.00     0.070 C 
HETATM   11  N1  UNL     1      78.944  49.898  38.419  1.00  0.00    -0.296 N 
HETATM   12  N2  UNL     1      80.005  50.525  38.740  1.00  0.00    -0.240 N 
ATOM     13  H1  UNL     1      78.766  49.545  37.478  1.00  0.00     0.187 HD
HETATM   14  C15 UNL     1      79.893  50.834  40.060  1.00  0.00     0.045 A 
HETATM   15  C16 UNL     1      80.917  51.601  40.830  1.00  0.00     0.071 C 
BRANCH  12  16
HETATM   16  C11 UNL     1      81.125  50.912  37.932  1.00  0.00     0.179 A 
HETATM   17  N3  UNL     1      81.348  52.144  37.471  1.00  0.00    -0.172 N 
HETATM   18  C12 UNL     1      82.370  52.517  36.686  1.00  0.00     0.678 A 
ATOM     19  H3  UNL     1      80.682  52.867  37.740  1.00  0.00     0.186 HD
HETATM   20  N5  UNL     1      83.247  51.530  36.344  1.00  0.00    -0.176 N 
HETATM   21  C13 UNL     1      83.128  50.262  36.743  1.00  0.00     0.168 A 
ATOM     22  H5  UNL     1      84.038  51.774  35.749  1.00  0.00     0.185 HD
HETATM   23  N6  UNL     1      84.057  49.233  36.370  1.00  0.00    -0.079 NA
HETATM   24  C14 UNL     1      82.053  49.945  37.549  1.00  0.00     0.190 A 
BRANCH  18  25
HETATM   25  N4  UNL     1      82.498  53.740  36.293  1.00  0.00    -0.234 N 
ATOM     26  H42 UNL     1      82.855  53.994  35.371  1.00  0.00     0.174 HD
ATOM     27  H41 UNL     1      82.244  54.519  36.900  1.00  0.00     0.174 HD
ENDBRANCH  18  25
BRANCH  24  28
HETATM   28  N7  UNL     1      81.889  48.628  38.008  1.00  0.00    -0.108 N 
HETATM   29  O1  UNL     1      81.184  47.784  37.426  1.00  0.00    -0.532 OA
HETATM   30  O2  UNL     1      82.507  48.170  39.162  1.00  0.00    -0.532 OA
ENDBRANCH  24  28
ENDBRANCH  12  16
ENDBRANCH   7   8
BRANCH   7  31
HETATM   31  C17 UNL     1      78.501  49.789  43.039  1.00  0.00     0.012 C 
HETATM   32  C18 UNL     1      77.884  50.481  44.299  1.00  0.00     0.015 C 
BRANCH  31  33
HETATM   33  C19 UNL     1      79.962  49.602  43.341  1.00  0.00     0.004 C 
HETATM   34  C20 UNL     1      80.109  49.806  44.846  1.00  0.00     0.006 C 
ENDBRANCH  31  33
ENDBRANCH   7  31
ENDBRANCH   6   7
ENDBRANCH   5   6
ENDBRANCH   3   4
TORSDOF 9
ENDMDL
MODEL 2
REMARK VINA RESULT: -8.386305042      2.458      4.664
REMARK  9 active torsions:
REMARK  status: ('A' for Active; 'I' for Inactive)
REMARK    1  A    between atoms: C3_3  and  C4_4 
REMARK    2  A    between atoms: C5_5  and  C6_6 
REMARK    3  A    between atoms: C6_6  and  C7_7 
REMARK    4  A    between atoms: C7_7  and  C8_8 
REMARK    5  A    between atoms: C7_7  and  C17_31 
REMARK    6  A    between atoms: N2_13  and  C11_14 
REMARK    7  A    between atoms: C12_17  and  N4_18 
REMARK    8  A    between atoms: C14_25  and  N7_26 
REMARK    9  A    between atoms: C17_31  and  C19_33 
ROOT
HETATM    1  C1  UNL     1      76.509  50.453  47.184  1.00  0.00     0.113 C 
HETATM    2  C2  UNL     1      77.276  50.618  45.938  1.00  0.00    -0.097 C 
HETATM    3  C3  UNL     1      77.889  50.770  44.903  1.00  0.00    -0.015 C 
ENDROOT
BRANCH   3   4
HETATM    4  C4  UNL     1      78.608  50.972  43.678  1.00  0.00    -0.015 C 
HETATM    5  C5  UNL     1      79.187  51.133  42.638  1.00  0.00    -0.088 C 
BRANCH   5   6
HETATM    6  C6  UNL     1      79.886  51.305  41.357  1.00  0.00     0.130 C 
BRANCH   6   7
HETATM    7  C7  UNL     1      79.294  50.439  40.313  1.00  0.00    -0.051 C 
BRANCH   7   8
HETATM    8  C8  UNL     1      80.180  49.686  39.406  1.00  0.00     0.015 A 
HETATM    9  C9  UNL     1      81.093  48.676  39.701  1.00  0.00     0.035 A 
HETATM   10  C10 UNL     1      81.577  48.219  41.021  1.00  0.00     0.070 C 
HETATM   11  N1  UNL     1      81.536  48.207  38.519  1.00  0.00    -0.296 N 
HETATM   12  N2  UNL     1      81.018  48.792  37.513  1.00  0.00    -0.240 N 
ATOM     13  H1  UNL     1      82.221  47.455  38.437  1.00  0.00     0.187 HD
HETATM   14  C15 UNL     1      80.162  49.730  38.004  1.00  0.00     0.045 A 
HETATM   15  C16 UNL     1      79.323  50.624  37.153  1.00  0.00     0.071 C 
BRANCH  12  16
HETATM   16  C11 UNL     1      81.204  48.552  36.112  1.00  0.00     0.179 A 
HETATM   17  N3  UNL     1      80.306  47.982  35.307  1.00  0.00    -0.172 N 
HETATM   18  C12 UNL     1      80.476  47.718  34.002  1.00  0.00     0.678 A 
ATOM     19  H3  UNL     1      79.411  47.724  35.720  1.00  0.00     0.186 HD
HETATM   20  N5  UNL     1      81.682  48.075  33.476  1.00  0.00    -0.176 N 
HETATM   21  C13 UNL     1      82.657  48.651  34.182  1.00  0.00     0.168 A 
ATOM     22  H5  UNL     1      81.849  47.891  32.487  1.00  0.00     0.185 HD
HETATM   23  N6  UNL     1      83.923  49.017  33.613  1.00  0.00    -0.079 NA
HETATM   24  C14 UNL     1      82.418  48.896  35.519  1.00  0.00     0.190 A 
BRANCH  18  25
HETATM   25  N4  UNL     1      79.541  47.161  33.307  1.00  0.00    -0.234 N 
ATOM     26  H42 UNL     1      79.687  46.319  32.750  1.00  0.00     0.174 HD
ATOM     27  H41 UNL     1      78.598  47.548  33.285  1.00  0.00     0.174 HD
ENDBRANCH  18  25
BRANCH  24  28
HETATM   28  N7  UNL     1      83.406  49.513  36.303  1.00  0.00    -0.108 N 
HETATM   29  O1  UNL     1      83.501  50.747  36.436  1.00  0.00    -0.532 OA
HETATM   30  O2  UNL     1      84.361  48.781  36.992  1.00  0.00    -0.532 OA
ENDBRANCH  24  28
ENDBRANCH  12  16
ENDBRANCH   7   8
BRANCH   7  31
HETATM   31  C17 UNL     1      77.890  50.061  40.488  1.00  0.00     0.012 C 
HETATM   32  C18 UNL     1      77.774  48.573  40.017  1.00  0.00     0.015 C 
BRANCH  31  33
HETATM   33  C19 UNL     1      76.826  50.816  39.742  1.00  0.00     0.004 C 
HETATM   34  C20 UNL     1      76.220  51.791  40.748  1.00  0.00     0.006 C 
ENDBRANCH  31  33
ENDBRANCH   7  31
ENDBRANCH   6   7
ENDBRANCH   5   6
ENDBRANCH   3   4
TORSDOF 9
ENDMDL
MODEL 3
REMARK VINA RESULT: -8.110325183      2.489      5.044
REMARK  9 active torsions:
REMARK  status: ('A' for Active; 'I' for Inactive)
REMARK    1  A    between atoms: C3_3  and  C4_4 
REMARK    2  A    between atoms: C5_5  and  C6_6 
REMARK    3  A    between atoms: C6_6  and  C7_7 
REMARK    4  A    between atoms: C7_7  and  C8_8 
REMARK    5  A    between atoms: C7_7  and  C17_31 
REMARK    6  A    between atoms: N2_13  and  C11_14 
REMARK    7  A    between atoms: C12_17  and  N4_18 
REMARK    8  A    between atoms: C14_25  and  N7_26 
REMARK    9  A    between atoms: C17_31  and  C19_33 
ROOT
HETATM    1  C1  UNL     1      76.461  52.406  44.531  1.00  0.00     0.113 C 
HETATM    2  C2  UNL     1      76.239  52.198  43.090  1.00  0.00    -0.097 C 
HETATM    3  C3  UNL     1      76.072  52.007  41.905  1.00  0.00    -0.015 C 
ENDROOT
BRANCH   3   4
HETATM    4  C4  UNL     1      75.874  51.758  40.506  1.00  0.00    -0.015 C 
HETATM    5  C5  UNL     1      75.695  51.525  39.342  1.00  0.00    -0.088 C 
BRANCH   5   6
HETATM    6  C6  UNL     1      75.483  51.213  37.920  1.00  0.00     0.130 C 
BRANCH   6   7
HETATM    7  C7  UNL     1      76.210  49.983  37.538  1.00  0.00    -0.051 C 
BRANCH   7   8
HETATM    8  C8  UNL     1      77.666  49.900  37.761  1.00  0.00     0.015 A 
HETATM    9  C9  UNL     1      78.704  50.477  37.033  1.00  0.00     0.035 A 
HETATM   10  C10 UNL     1      78.652  51.160  35.723  1.00  0.00     0.070 C 
HETATM   11  N1  UNL     1      79.833  50.235  37.726  1.00  0.00    -0.296 N 
HETATM   12  N2  UNL     1      79.640  49.579  38.801  1.00  0.00    -0.240 N 
ATOM     13  H1  UNL     1      80.755  50.547  37.420  1.00  0.00     0.187 HD
HETATM   14  C15 UNL     1      78.303  49.338  38.877  1.00  0.00     0.045 A 
HETATM   15  C16 UNL     1      77.646  48.615  40.006  1.00  0.00     0.071 C 
BRANCH  12  16
HETATM   16  C11 UNL     1      80.573  49.169  39.809  1.00  0.00     0.179 A 
HETATM   17  N3  UNL     1      80.385  49.296  41.124  1.00  0.00    -0.172 N 
HETATM   18  C12 UNL     1      81.260  48.952  42.081  1.00  0.00     0.678 A 
ATOM     19  H3  UNL     1      79.496  49.692  41.429  1.00  0.00     0.186 HD
HETATM   20  N5  UNL     1      82.440  48.425  41.644  1.00  0.00    -0.176 N 
HETATM   21  C13 UNL     1      82.741  48.249  40.356  1.00  0.00     0.168 A 
ATOM     22  H5  UNL     1      83.131  48.149  42.342  1.00  0.00     0.185 HD
HETATM   23  N6  UNL     1      83.990  47.696  39.913  1.00  0.00    -0.079 NA
HETATM   24  C14 UNL     1      81.797  48.625  39.422  1.00  0.00     0.190 A 
BRANCH  18  25
HETATM   25  N4  UNL     1      80.982  49.116  43.331  1.00  0.00    -0.234 N 
ATOM     26  H42 UNL     1      81.545  48.720  44.084  1.00  0.00     0.174 HD
ATOM     27  H41 UNL     1      80.168  49.657  43.624  1.00  0.00     0.174 HD
ENDBRANCH  18  25
BRANCH  24  28
HETATM   28  N7  UNL     1      82.058  48.449  38.054  1.00  0.00    -0.108 N 
HETATM   29  O1  UNL     1      81.675  47.456  37.408  1.00  0.00    -0.532 OA
HETATM   30  O2  UNL     1      82.776  49.378  37.317  1.00  0.00    -0.532 OA
ENDBRANCH  24  28
ENDBRANCH  12  16
ENDBRANCH   7   8
BRANCH   7  31
HETATM   31  C17 UNL     1      75.405  48.777  37.335  1.00  0.00     0.012 C 
HETATM   32  C18 UNL     1      75.229  48.620  35.788  1.00  0.00     0.015 C 
BRANCH  31  33
HETATM   33  C19 UNL     1      74.022  48.707  37.920  1.00  0.00     0.004 C 
HETATM   34  C20 UNL     1      73.345  47.511  37.256  1.00  0.00     0.006 C 
ENDBRANCH  31  33
ENDBRANCH   7  31
ENDBRANCH   6   7
ENDBRANCH   5   6
ENDBRANCH   3   4
TORSDOF 9
ENDMDL
MODEL 4
REMARK VINA RESULT: -8.076329895      2.466      3.485
REMARK  9 active torsions:
REMARK  status: ('A' for Active; 'I' for Inactive)
REMARK    1  A    between atoms: C3_3  and  C4_4 
REMARK    2  A    between atoms: C5_5  and  C6_6 
REMARK    3  A    between atoms: C6_6  and  C7_7 
REMARK    4  A    between atoms: C7_7  and  C8_8 
REMARK    5  A    between atoms: C7_7  and  C17_31 
REMARK    6  A    between atoms: N2_13  and  C11_14 
REMARK    7  A    between atoms: C12_17  and  N4_18 
REMARK    8  A    between atoms: C14_25  and  N7_26 
REMARK    9  A    between atoms: C17_31  and  C19_33 
ROOT
HETATM    1  C1  UNL     1      73.812  55.291  39.901  1.00  0.00     0.113 C 
HETATM    2  C2  UNL     1      74.597  54.050  40.005  1.00  0.00    -0.097 C 
HETATM    3  C3  UNL     1      75.253  53.032  40.068  1.00  0.00    -0.015 C 
ENDROOT
BRANCH   3   4
HETATM    4  C4  UNL     1      76.047  51.839  40.130  1.00  0.00    -0.015 C 
HETATM    5  C5  UNL     1      76.706  50.835  40.155  1.00  0.00    -0.088 C 
BRANCH   5   6
HETATM    6  C6  UNL     1      77.491  49.593  40.173  1.00  0.00     0.130 C 
BRANCH   6   7
HETATM    7  C7  UNL     1      78.925  49.880  40.396  1.00  0.00    -0.051 C 
BRANCH   7   8
HETATM    8  C8  UNL     1      79.929  49.328  39.466  1.00  0.00     0.015 A 
HETATM    9  C9  UNL     1      81.019  48.502  39.733  1.00  0.00     0.035 A 
HETATM   10  C10 UNL     1      81.592  48.115  41.039  1.00  0.00     0.070 C 
HETATM   11  N1  UNL     1      81.532  48.152  38.538  1.00  0.00    -0.296 N 
HETATM   12  N2  UNL     1      80.903  48.653  37.549  1.00  0.00    -0.240 N 
ATOM     13  H1  UNL     1      82.346  47.546  38.434  1.00  0.00     0.187 HD
HETATM   14  C15 UNL     1      79.891  49.400  38.066  1.00  0.00     0.045 A 
HETATM   15  C16 UNL     1      78.890  50.139  37.241  1.00  0.00     0.071 C 
BRANCH  12  16
HETATM   16  C11 UNL     1      81.119  48.484  36.141  1.00  0.00     0.179 A 
HETATM   17  N3  UNL     1      80.236  47.962  35.288  1.00  0.00    -0.172 N 
HETATM   18  C12 UNL     1      80.432  47.764  33.976  1.00  0.00     0.678 A 
ATOM     19  H3  UNL     1      79.330  47.689  35.668  1.00  0.00     0.186 HD
HETATM   20  N5  UNL     1      81.652  48.140  33.495  1.00  0.00    -0.176 N 
HETATM   21  C13 UNL     1      82.614  48.673  34.250  1.00  0.00     0.168 A 
ATOM     22  H5  UNL     1      81.839  48.006  32.501  1.00  0.00     0.185 HD
HETATM   23  N6  UNL     1      83.895  49.059  33.729  1.00  0.00    -0.079 NA
HETATM   24  C14 UNL     1      82.347  48.849  35.593  1.00  0.00     0.190 A 
BRANCH  18  25
HETATM   25  N4  UNL     1      79.509  47.250  33.233  1.00  0.00    -0.234 N 
ATOM     26  H42 UNL     1      79.554  46.299  32.868  1.00  0.00     0.174 HD
ATOM     27  H41 UNL     1      78.681  47.787  32.973  1.00  0.00     0.174 HD
ENDBRANCH  18  25
BRANCH  24  28
HETATM   28  N7  UNL     1      83.321  49.418  36.429  1.00  0.00    -0.108 N 
HETATM   29  O1  UNL     1      84.212  48.754  36.991  1.00  0.00    -0.532 OA
HETATM   30  O2  UNL     1      83.357  50.778  36.696  1.00  0.00    -0.532 OA
ENDBRANCH  24  28
ENDBRANCH  12  16
ENDBRANCH   7   8
BRANCH   7  31
HETATM   31  C17 UNL     1      79.244  51.007  41.273  1.00  0.00     0.012 C 
HETATM   32  C18 UNL     1      80.575  51.625  40.728  1.00  0.00     0.015 C 
BRANCH  31  33
HETATM   33  C19 UNL     1      79.471  50.760  42.738  1.00  0.00     0.004 C 
HETATM   34  C20 UNL     1      78.349  51.492  43.467  1.00  0.00     0.006 C 
ENDBRANCH  31  33
ENDBRANCH   7  31
ENDBRANCH   6   7
ENDBRANCH   5   6
ENDBRANCH   3   4
TORSDOF 9
ENDMDL
MODEL 5
REMARK VINA RESULT: -7.911288869      2.545      3.561
REMARK  9 active torsions:
REMARK  status: ('A' for Active; 'I' for Inactive)
REMARK    1  A    between atoms: C3_3  and  C4_4 
REMARK    2  A    between atoms: C5_5  and  C6_6 
REMARK    3  A    between atoms: C6_6  and  C7_7 
REMARK    4  A    between atoms: C7_7  and  C8_8 
REMARK    5  A    between atoms: C7_7  and  C17_31 
REMARK    6  A    between atoms: N2_13  and  C11_14 
REMARK    7  A    between atoms: C12_17  and  N4_18 
REMARK    8  A    between atoms: C14_25  and  N7_26 
REMARK    9  A    between atoms: C17_31  and  C19_33 
ROOT
HETATM    1  C1  UNL     1      72.558  52.485  38.052  1.00  0.00     0.113 C 
HETATM    2  C2  UNL     1      73.740  52.269  38.902  1.00  0.00    -0.097 C 
HETATM    3  C3  UNL     1      74.721  52.115  39.598  1.00  0.00    -0.015 C 
ENDROOT
BRANCH   3   4
HETATM    4  C4  UNL     1      75.879  51.956  40.429  1.00  0.00    -0.015 C 
HETATM    5  C5  UNL     1      76.866  51.829  41.103  1.00  0.00    -0.088 C 
BRANCH   5   6
HETATM    6  C6  UNL     1      78.084  51.657  41.907  1.00  0.00     0.130 C 
BRANCH   6   7
HETATM    7  C7  UNL     1      78.923  50.566  41.365  1.00  0.00    -0.051 C 
BRANCH   7   8
HETATM    8  C8  UNL     1      79.562  50.729  40.045  1.00  0.00     0.015 A 
HETATM    9  C9  UNL     1      80.628  51.546  39.675  1.00  0.00     0.035 A 
HETATM   10  C10 UNL     1      81.282  52.624  40.447  1.00  0.00     0.070 C 
HETATM   11  N1  UNL     1      80.934  51.220  38.405  1.00  0.00    -0.296 N 
HETATM   12  N2  UNL     1      80.197  50.298  37.925  1.00  0.00    -0.240 N 
ATOM     13  H1  UNL     1      81.685  51.667  37.878  1.00  0.00     0.187 HD
HETATM   14  C15 UNL     1      79.317  49.952  38.904  1.00  0.00     0.045 A 
HETATM   15  C16 UNL     1      78.288  48.879  38.762  1.00  0.00     0.071 C 
BRANCH  12  16
HETATM   16  C11 UNL     1      80.239  49.661  36.641  1.00  0.00     0.179 A 
HETATM   17  N3  UNL     1      80.918  48.548  36.360  1.00  0.00    -0.172 N 
HETATM   18  C12 UNL     1      80.998  47.958  35.158  1.00  0.00     0.678 A 
ATOM     19  H3  UNL     1      81.423  48.107  37.128  1.00  0.00     0.186 HD
HETATM   20  N5  UNL     1      80.312  48.569  34.150  1.00  0.00    -0.176 N 
HETATM   21  C13 UNL     1      79.598  49.685  34.310  1.00  0.00     0.168 A 
ATOM     22  H5  UNL     1      80.347  48.150  33.221  1.00  0.00     0.185 HD
HETATM   23  N6  UNL     1      78.886  50.319  33.237  1.00  0.00    -0.079 NA
HETATM   24  C14 UNL     1      79.558  50.242  35.572  1.00  0.00     0.190 A 
BRANCH  18  25
HETATM   25  N4  UNL     1      81.685  46.877  34.989  1.00  0.00    -0.234 N 
ATOM     26  H42 UNL     1      81.769  46.154  35.703  1.00  0.00     0.174 HD
ATOM     27  H41 UNL     1      82.183  46.700  34.117  1.00  0.00     0.174 HD
ENDBRANCH  18  25
BRANCH  24  28
HETATM   28  N7  UNL     1      78.810  51.408  35.797  1.00  0.00    -0.108 N 
HETATM   29  O1  UNL     1      77.604  51.398  36.105  1.00  0.00    -0.532 OA
HETATM   30  O2  UNL     1      79.369  52.673  35.686  1.00  0.00    -0.532 OA
ENDBRANCH  24  28
ENDBRANCH  12  16
ENDBRANCH   7   8
BRANCH   7  31
HETATM   31  C17 UNL     1      79.402  49.564  42.319  1.00  0.00     0.012 C 
HETATM   32  C18 UNL     1      78.719  49.898  43.687  1.00  0.00     0.015 C 
BRANCH  31  33
HETATM   33  C19 UNL     1      80.874  49.462  42.604  1.00  0.00     0.004 C 
HETATM   34  C20 UNL     1      81.406  48.368  41.683  1.00  0.00     0.006 C 
ENDBRANCH  31  33
ENDBRANCH   7  31
ENDBRANCH   6   7
ENDBRANCH   5   6
ENDBRANCH   3   4
TORSDOF 9
ENDMDL
