MODEL 1
REMARK VINA RESULT: -7.350236874      0.000      0.000
REMARK  9 active torsions:
REMARK  status: ('A' for Active; 'I' for Inactive)
REMARK    1  A    between atoms: C2_2  and  C3_3 
REMARK    2  A    between atoms: C3_3  and  N1_4 
REMARK    3  A    between atoms: C4_5  and  O1_6 
REMARK    4  A    between atoms: C6_9  and  C7_10 
REMARK    5  A    between atoms: N2_19  and  C14_20 
REMARK    6  A    between atoms: C14_20  and  C15_21 
REMARK    7  A    between atoms: C16_22  and  C17_23 
REMARK    8  A    between atoms: C17_23  and  O4_26 
REMARK    9  A    between atoms: C21_29  and  O5_30 
ROOT
HETATM    1  C7  UNL     1      80.947  49.403  36.198  1.00  0.00     0.020 C 
HETATM    2  C8  UNL     1      82.139  50.001  35.425  1.00  0.00     0.026 C 
HETATM    3  C9  UNL     1      80.336  48.377  35.254  1.00  0.00     0.036 C 
HETATM    4  C10 UNL     1      79.168  49.048  34.620  1.00  0.00     0.112 C 
HETATM    5  C11 UNL     1      78.349  48.201  33.759  1.00  0.00     0.265 C 
HETATM    6  O2  UNL     1      78.715  47.250  33.012  1.00  0.00    -0.265 OA
HETATM    7  O3  UNL     1      77.031  48.647  33.914  1.00  0.00    -0.319 OA
HETATM    8  C12 UNL     1      76.953  49.579  34.977  1.00  0.00     0.204 C 
HETATM    9  C13 UNL     1      78.179  49.250  35.786  1.00  0.00     0.121 C 
HETATM   10  N2  UNL     1      78.667  50.338  36.560  1.00  0.00    -0.381 N 
HETATM   11  C20 UNL     1      80.062  50.503  36.617  1.00  0.00     0.073 C 
ENDROOT
BRANCH   1  12
HETATM   12  C6  UNL     1      81.559  48.696  37.355  1.00  0.00     0.010 A 
HETATM   13  C5  UNL     1      82.085  47.438  37.388  1.00  0.00     0.068 A 
HETATM   14  C4  UNL     1      82.556  47.170  38.681  1.00  0.00     0.144 A 
HETATM   15  N1  UNL     1      82.302  48.276  39.399  1.00  0.00    -0.308 N 
HETATM   16  C21 UNL     1      81.707  49.203  38.634  1.00  0.00     0.151 A 
BRANCH  14  17
HETATM   17  O1  UNL     1      83.150  45.979  39.055  1.00  0.00    -0.346 OA
ATOM     18  H1  UNL     1      82.759  45.151  39.310  1.00  0.00     0.219 HD
ENDBRANCH  14  17
BRANCH  15  19
HETATM   19  C3  UNL     1      82.608  48.473  40.797  1.00  0.00     0.133 C 
BRANCH  19  20
HETATM   20  C2  UNL     1      81.438  48.306  41.700  1.00  0.00     0.016 C 
HETATM   21  C1  UNL     1      81.490  49.105  42.959  1.00  0.00     0.006 C 
ENDBRANCH  19  20
ENDBRANCH  15  19
BRANCH  16  22
HETATM   22  O5  UNL     1      81.304  50.453  39.036  1.00  0.00    -0.345 OA
ATOM     23  H5  UNL     1      80.564  50.651  39.598  1.00  0.00     0.219 HD
ENDBRANCH  16  22
ENDBRANCH   1  12
BRANCH  10  24
HETATM   24  C14 UNL     1      77.937  50.427  37.777  1.00  0.00     0.149 C 
BRANCH  24  25
HETATM   25  C15 UNL     1      78.043  49.301  38.703  1.00  0.00    -0.008 C 
HETATM   26  C16 UNL     1      78.069  49.370  40.023  1.00  0.00     0.007 C 
BRANCH  26  27
HETATM   27  C17 UNL     1      77.997  50.612  40.818  1.00  0.00     0.068 C 
HETATM   28  C18 UNL     1      78.261  50.417  42.289  1.00  0.00     0.050 C 
HETATM   29  C19 UNL     1      76.693  51.340  40.597  1.00  0.00     0.050 C 
BRANCH  27  30
HETATM   30  O4  UNL     1      78.998  51.505  40.374  1.00  0.00    -0.387 OA
ATOM     31  H4  UNL     1      78.929  52.317  40.861  1.00  0.00     0.211 HD
ENDBRANCH  27  30
ENDBRANCH  26  27
ENDBRANCH  24  25
ENDBRANCH  10  24
TORSDOF 9
ENDMDL
MODEL 2
REMARK VINA RESULT: -7.330443462      1.948      3.006
REMARK  9 active torsions:
REMARK  status: ('A' for Active; 'I' for Inactive)
REMARK    1  A    between atoms: C2_2  and  C3_3 
REMARK    2  A    between atoms: C3_3  and  N1_4 
REMARK    3  A    between atoms: C4_5  and  O1_6 
REMARK    4  A    between atoms: C6_9  and  C7_10 
REMARK    5  A    between atoms: N2_19  and  C14_20 
REMARK    6  A    between atoms: C14_20  and  C15_21 
REMARK    7  A    between atoms: C16_22  and  C17_23 
REMARK    8  A    between atoms: C17_23  and  O4_26 
REMARK    9  A    between atoms: C21_29  and  O5_30 
ROOT
HETATM    1  C7  UNL     1      81.427  50.553  37.122  1.00  0.00     0.020 C 
HETATM    2  C8  UNL     1      82.317  51.809  37.213  1.00  0.00     0.026 C 
HETATM    3  C9  UNL     1      82.231  49.556  36.300  1.00  0.00     0.036 C 
HETATM    4  C10 UNL     1      81.692  49.638  34.915  1.00  0.00     0.112 C 
HETATM    5  C11 UNL     1      82.238  48.668  33.970  1.00  0.00     0.265 C 
HETATM    6  O2  UNL     1      83.409  48.197  33.915  1.00  0.00    -0.265 OA
HETATM    7  O3  UNL     1      81.191  48.339  33.102  1.00  0.00    -0.319 OA
HETATM    8  C12 UNL     1      79.973  48.883  33.576  1.00  0.00     0.204 C 
HETATM    9  C13 UNL     1      80.259  49.085  35.041  1.00  0.00     0.121 C 
HETATM   10  N2  UNL     1      79.472  50.102  35.646  1.00  0.00    -0.381 N 
HETATM   11  C20 UNL     1      80.121  50.945  36.566  1.00  0.00     0.073 C 
ENDROOT
BRANCH   1  12
HETATM   12  C6  UNL     1      81.322  50.058  38.521  1.00  0.00     0.010 A 
HETATM   13  C5  UNL     1      81.811  48.895  39.040  1.00  0.00     0.068 A 
HETATM   14  C4  UNL     1      81.488  48.827  40.403  1.00  0.00     0.144 A 
HETATM   15  N1  UNL     1      80.810  49.955  40.674  1.00  0.00    -0.308 N 
HETATM   16  C21 UNL     1      80.695  50.707  39.570  1.00  0.00     0.151 A 
BRANCH  14  17
HETATM   17  O1  UNL     1      81.836  47.774  41.227  1.00  0.00    -0.346 OA
ATOM     18  H1  UNL     1      82.338  47.766  42.034  1.00  0.00     0.219 HD
ENDBRANCH  14  17
BRANCH  15  19
HETATM   19  C3  UNL     1      80.264  50.332  41.957  1.00  0.00     0.133 C 
BRANCH  19  20
HETATM   20  C2  UNL     1      78.846  49.929  42.151  1.00  0.00     0.016 C 
HETATM   21  C1  UNL     1      77.865  51.054  42.177  1.00  0.00     0.006 C 
ENDBRANCH  19  20
ENDBRANCH  15  19
BRANCH  16  22
HETATM   22  O5  UNL     1      80.064  51.924  39.478  1.00  0.00    -0.345 OA
ATOM     23  H5  UNL     1      80.383  52.750  39.820  1.00  0.00     0.219 HD
ENDBRANCH  16  22
ENDBRANCH   1  12
BRANCH  10  24
HETATM   24  C14 UNL     1      78.201  49.578  36.007  1.00  0.00     0.149 C 
BRANCH  24  25
HETATM   25  C15 UNL     1      77.036  50.424  35.756  1.00  0.00    -0.008 C 
HETATM   26  C16 UNL     1      76.123  50.785  36.642  1.00  0.00     0.007 C 
BRANCH  26  27
HETATM   27  C17 UNL     1      76.109  50.396  38.066  1.00  0.00     0.068 C 
HETATM   28  C18 UNL     1      75.839  48.932  38.301  1.00  0.00     0.050 C 
HETATM   29  C19 UNL     1      75.163  51.254  38.869  1.00  0.00     0.050 C 
BRANCH  27  30
HETATM   30  O4  UNL     1      77.387  50.634  38.623  1.00  0.00    -0.387 OA
ATOM     31  H4  UNL     1      78.036  50.145  38.132  1.00  0.00     0.211 HD
ENDBRANCH  27  30
ENDBRANCH  26  27
ENDBRANCH  24  25
ENDBRANCH  10  24
TORSDOF 9
ENDMDL
MODEL 3
REMARK VINA RESULT: -7.270214052      2.284      5.358
REMARK  9 active torsions:
REMARK  status: ('A' for Active; 'I' for Inactive)
REMARK    1  A    between atoms: C2_2  and  C3_3 
REMARK    2  A    between atoms: C3_3  and  N1_4 
REMARK    3  A    between atoms: C4_5  and  O1_6 
REMARK    4  A    between atoms: C6_9  and  C7_10 
REMARK    5  A    between atoms: N2_19  and  C14_20 
REMARK    6  A    between atoms: C14_20  and  C15_21 
REMARK    7  A    between atoms: C16_22  and  C17_23 
REMARK    8  A    between atoms: C17_23  and  O4_26 
REMARK    9  A    between atoms: C21_29  and  O5_30 
ROOT
HETATM    1  C7  UNL     1      80.841  50.765  37.224  1.00  0.00     0.020 C 
HETATM    2  C8  UNL     1      81.323  52.159  37.673  1.00  0.00     0.026 C 
HETATM    3  C9  UNL     1      82.078  49.880  37.283  1.00  0.00     0.036 C 
HETATM    4  C10 UNL     1      82.586  49.794  35.886  1.00  0.00     0.112 C 
HETATM    5  C11 UNL     1      83.710  48.885  35.681  1.00  0.00     0.265 C 
HETATM    6  O2  UNL     1      84.662  48.622  36.468  1.00  0.00    -0.265 OA
HETATM    7  O3  UNL     1      83.537  48.334  34.406  1.00  0.00    -0.319 OA
HETATM    8  C12 UNL     1      82.265  48.682  33.891  1.00  0.00     0.204 C 
HETATM    9  C13 UNL     1      81.489  49.008  35.140  1.00  0.00     0.121 C 
HETATM   10  N2  UNL     1      80.407  49.904  34.928  1.00  0.00    -0.381 N 
HETATM   11  C20 UNL     1      80.200  50.894  35.905  1.00  0.00     0.073 C 
ENDROOT
BRANCH   1  12
HETATM   12  C6  UNL     1      79.885  50.334  38.280  1.00  0.00     0.010 A 
HETATM   13  C5  UNL     1      78.630  49.825  38.120  1.00  0.00     0.068 A 
HETATM   14  C4  UNL     1      78.080  49.552  39.380  1.00  0.00     0.144 A 
HETATM   15  N1  UNL     1      79.020  49.904  40.273  1.00  0.00    -0.308 N 
HETATM   16  C21 UNL     1      80.107  50.375  39.645  1.00  0.00     0.151 A 
BRANCH  14  17
HETATM   17  O1  UNL     1      76.817  49.026  39.574  1.00  0.00    -0.346 OA
ATOM     18  H1  UNL     1      76.281  48.488  39.002  1.00  0.00     0.219 HD
ENDBRANCH  14  17
BRANCH  15  19
HETATM   19  C3  UNL     1      78.908  49.807  41.710  1.00  0.00     0.133 C 
BRANCH  19  20
HETATM   20  C2  UNL     1      78.567  51.092  42.376  1.00  0.00     0.016 C 
HETATM   21  C1  UNL     1      77.130  51.487  42.293  1.00  0.00     0.006 C 
ENDBRANCH  19  20
ENDBRANCH  15  19
BRANCH  16  22
HETATM   22  O5  UNL     1      81.259  50.826  40.242  1.00  0.00    -0.345 OA
ATOM     23  H5  UNL     1      82.146  50.678  39.936  1.00  0.00     0.219 HD
ENDBRANCH  16  22
ENDBRANCH   1  12
BRANCH  10  24
HETATM   24  C14 UNL     1      79.273  49.187  34.458  1.00  0.00     0.149 C 
BRANCH  24  25
HETATM   25  C15 UNL     1      77.958  49.767  34.728  1.00  0.00    -0.008 C 
HETATM   26  C16 UNL     1      77.087  50.187  33.827  1.00  0.00     0.007 C 
BRANCH  26  27
HETATM   27  C17 UNL     1      77.281  50.150  32.364  1.00  0.00     0.068 C 
HETATM   28  C18 UNL     1      76.275  50.962  31.589  1.00  0.00     0.050 C 
HETATM   29  C19 UNL     1      77.342  48.734  31.846  1.00  0.00     0.050 C 
BRANCH  27  30
HETATM   30  O4  UNL     1      78.538  50.714  32.049  1.00  0.00    -0.387 OA
ATOM     31  H4  UNL     1      79.224  50.133  32.354  1.00  0.00     0.211 HD
ENDBRANCH  27  30
ENDBRANCH  26  27
ENDBRANCH  24  25
ENDBRANCH  10  24
TORSDOF 9
ENDMDL
MODEL 4
REMARK VINA RESULT: -7.180751981      1.873      2.579
REMARK  9 active torsions:
REMARK  status: ('A' for Active; 'I' for Inactive)
REMARK    1  A    between atoms: C2_2  and  C3_3 
REMARK    2  A    between atoms: C3_3  and  N1_4 
REMARK    3  A    between atoms: C4_5  and  O1_6 
REMARK    4  A    between atoms: C6_9  and  C7_10 
REMARK    5  A    between atoms: N2_19  and  C14_20 
REMARK    6  A    between atoms: C14_20  and  C15_21 
REMARK    7  A    between atoms: C16_22  and  C17_23 
REMARK    8  A    between atoms: C17_23  and  O4_26 
REMARK    9  A    between atoms: C21_29  and  O5_30 
ROOT
HETATM    1  C7  UNL     1      81.191  50.201  37.108  1.00  0.00     0.020 C 
HETATM    2  C8  UNL     1      82.387  51.157  36.926  1.00  0.00     0.026 C 
HETATM    3  C9  UNL     1      81.554  48.957  36.308  1.00  0.00     0.036 C 
HETATM    4  C10 UNL     1      80.836  49.082  35.010  1.00  0.00     0.112 C 
HETATM    5  C11 UNL     1      80.940  47.928  34.122  1.00  0.00     0.265 C 
HETATM    6  O2  UNL     1      81.917  47.143  33.963  1.00  0.00    -0.265 OA
HETATM    7  O3  UNL     1      79.715  47.843  33.450  1.00  0.00    -0.319 OA
HETATM    8  C12 UNL     1      78.782  48.743  34.018  1.00  0.00     0.204 C 
HETATM    9  C13 UNL     1      79.348  48.967  35.396  1.00  0.00     0.121 C 
HETATM   10  N2  UNL     1      78.972  50.208  35.977  1.00  0.00    -0.381 N 
HETATM   11  C20 UNL     1      79.964  50.901  36.693  1.00  0.00     0.073 C 
ENDROOT
BRANCH   1  12
HETATM   12  C6  UNL     1      81.190  49.864  38.557  1.00  0.00     0.010 A 
HETATM   13  C5  UNL     1      81.690  48.748  39.161  1.00  0.00     0.068 A 
HETATM   14  C4  UNL     1      81.479  48.839  40.544  1.00  0.00     0.144 A 
HETATM   15  N1  UNL     1      80.855  50.012  40.741  1.00  0.00    -0.308 N 
HETATM   16  C21 UNL     1      80.669  50.644  39.574  1.00  0.00     0.151 A 
BRANCH  14  17
HETATM   17  O1  UNL     1      81.867  47.870  41.449  1.00  0.00    -0.346 OA
ATOM     18  H1  UNL     1      81.520  47.657  42.308  1.00  0.00     0.219 HD
ENDBRANCH  14  17
BRANCH  15  19
HETATM   19  C3  UNL     1      80.427  50.544  42.014  1.00  0.00     0.133 C 
BRANCH  19  20
HETATM   20  C2  UNL     1      79.081  50.077  42.442  1.00  0.00     0.016 C 
HETATM   21  C1  UNL     1      77.972  51.052  42.220  1.00  0.00     0.006 C 
ENDBRANCH  19  20
ENDBRANCH  15  19
BRANCH  16  22
HETATM   22  O5  UNL     1      80.063  51.865  39.398  1.00  0.00    -0.345 OA
ATOM     23  H5  UNL     1      80.341  52.690  39.777  1.00  0.00     0.219 HD
ENDBRANCH  16  22
ENDBRANCH   1  12
BRANCH  10  24
HETATM   24  C14 UNL     1      77.684  50.093  36.568  1.00  0.00     0.149 C 
BRANCH  24  25
HETATM   25  C15 UNL     1      77.627  49.663  37.964  1.00  0.00    -0.008 C 
HETATM   26  C16 UNL     1      76.724  50.023  38.860  1.00  0.00     0.007 C 
BRANCH  26  27
HETATM   27  C17 UNL     1      75.591  50.937  38.615  1.00  0.00     0.068 C 
HETATM   28  C18 UNL     1      75.265  51.839  39.778  1.00  0.00     0.050 C 
HETATM   29  C19 UNL     1      74.363  50.191  38.152  1.00  0.00     0.050 C 
BRANCH  27  30
HETATM   30  O4  UNL     1      75.919  51.805  37.549  1.00  0.00    -0.387 OA
ATOM     31  H4  UNL     1      75.856  51.330  36.730  1.00  0.00     0.211 HD
ENDBRANCH  27  30
ENDBRANCH  26  27
ENDBRANCH  24  25
ENDBRANCH  10  24
TORSDOF 9
ENDMDL
MODEL 5
REMARK VINA RESULT: -7.095052005      2.067      2.870
REMARK  9 active torsions:
REMARK  status: ('A' for Active; 'I' for Inactive)
REMARK    1  A    between atoms: C2_2  and  C3_3 
REMARK    2  A    between atoms: C3_3  and  N1_4 
REMARK    3  A    between atoms: C4_5  and  O1_6 
REMARK    4  A    between atoms: C6_9  and  C7_10 
REMARK    5  A    between atoms: N2_19  and  C14_20 
REMARK    6  A    between atoms: C14_20  and  C15_21 
REMARK    7  A    between atoms: C16_22  and  C17_23 
REMARK    8  A    between atoms: C17_23  and  O4_26 
REMARK    9  A    between atoms: C21_29  and  O5_30 
ROOT
HETATM    1  C7  UNL     1      81.035  50.373  36.724  1.00  0.00     0.020 C 
HETATM    2  C8  UNL     1      82.362  51.155  36.653  1.00  0.00     0.026 C 
HETATM    3  C9  UNL     1      81.215  49.199  35.772  1.00  0.00     0.036 C 
HETATM    4  C10 UNL     1      80.538  49.591  34.506  1.00  0.00     0.112 C 
HETATM    5  C11 UNL     1      80.477  48.554  33.479  1.00  0.00     0.265 C 
HETATM    6  O2  UNL     1      81.327  47.658  33.215  1.00  0.00    -0.265 OA
HETATM    7  O3  UNL     1      79.260  48.738  32.813  1.00  0.00    -0.319 OA
HETATM    8  C12 UNL     1      78.467  49.690  33.497  1.00  0.00     0.204 C 
HETATM    9  C13 UNL     1      79.045  49.653  34.887  1.00  0.00     0.121 C 
HETATM   10  N2  UNL     1      78.854  50.854  35.622  1.00  0.00    -0.381 N 
HETATM   11  C20 UNL     1      79.931  51.296  36.411  1.00  0.00     0.073 C 
ENDROOT
BRANCH   1  12
HETATM   12  C6  UNL     1      80.967  49.862  38.120  1.00  0.00     0.010 A 
HETATM   13  C5  UNL     1      81.154  48.583  38.557  1.00  0.00     0.068 A 
HETATM   14  C4  UNL     1      81.001  48.545  39.949  1.00  0.00     0.144 A 
HETATM   15  N1  UNL     1      80.725  49.806  40.321  1.00  0.00    -0.308 N 
HETATM   16  C21 UNL     1      80.698  50.613  39.250  1.00  0.00     0.151 A 
BRANCH  14  17
HETATM   17  O1  UNL     1      81.126  47.397  40.709  1.00  0.00    -0.346 OA
ATOM     18  H1  UNL     1      81.146  46.485  40.444  1.00  0.00     0.219 HD
ENDBRANCH  14  17
BRANCH  15  19
HETATM   19  C3  UNL     1      80.482  50.262  41.669  1.00  0.00     0.133 C 
BRANCH  19  20
HETATM   20  C2  UNL     1      79.130  49.922  42.187  1.00  0.00     0.016 C 
HETATM   21  C1  UNL     1      78.048  50.878  41.810  1.00  0.00     0.006 C 
ENDBRANCH  19  20
ENDBRANCH  15  19
BRANCH  16  22
HETATM   22  O5  UNL     1      80.446  51.963  39.256  1.00  0.00    -0.345 OA
ATOM     23  H5  UNL     1      80.703  52.586  38.586  1.00  0.00     0.219 HD
ENDBRANCH  16  22
ENDBRANCH   1  12
BRANCH  10  24
HETATM   24  C14 UNL     1      77.557  50.860  36.205  1.00  0.00     0.149 C 
BRANCH  24  25
HETATM   25  C15 UNL     1      77.285  49.861  37.236  1.00  0.00    -0.008 C 
HETATM   26  C16 UNL     1      76.126  49.649  37.837  1.00  0.00     0.007 C 
BRANCH  26  27
HETATM   27  C17 UNL     1      74.877  50.391  37.576  1.00  0.00     0.068 C 
HETATM   28  C18 UNL     1      74.471  50.423  36.125  1.00  0.00     0.050 C 
HETATM   29  C19 UNL     1      74.926  51.786  38.151  1.00  0.00     0.050 C 
BRANCH  27  30
HETATM   30  O4  UNL     1      73.810  49.752  38.248  1.00  0.00    -0.387 OA
ATOM     31  H4  UNL     1      73.295  50.405  38.706  1.00  0.00     0.211 HD
ENDBRANCH  27  30
ENDBRANCH  26  27
ENDBRANCH  24  25
ENDBRANCH  10  24
TORSDOF 9
ENDMDL
