MODEL 1
REMARK VINA RESULT: -7.544048364      0.000      0.000
REMARK  15 active torsions:
REMARK  status: ('A' for Active; 'I' for Inactive)
REMARK    1  A    between atoms: C2_2  and  C3_3 
REMARK    2  A    between atoms: C3_3  and  C4_4 
REMARK    3  A    between atoms: C6_9  and  C7_10 
REMARK    4  A    between atoms: C7_10  and  C8_11 
REMARK    5  A    between atoms: C8_11  and  C9_12 
REMARK    6  A    between atoms: C9_12  and  C10_13 
REMARK    7  A    between atoms: C10_13  and  N2_14 
REMARK    8  A    between atoms: C12_22  and  C13_23 
REMARK    9  A    between atoms: C13_23  and  C14_24 
REMARK   10  A    between atoms: C18_31  and  C19_32 
REMARK   11  A    between atoms: C24_40  and  C25_41 
REMARK   12  A    between atoms: C25_41  and  C26_42 
REMARK   13  A    between atoms: C29_47  and  O5_48 
REMARK   14  A    between atoms: C30_50  and  C31_51 
REMARK   15  A    between atoms: C31_51  and  C32_52 
ROOT
HETATM    1  C4  UNL     1       9.479  -7.918  -3.599  1.00  0.00     0.176 C 
HETATM    2  N1  UNL     1       9.979  -8.655  -4.738  1.00  0.00    -0.346 N 
ATOM      3  H1  UNL     1       9.698  -9.634  -4.755  1.00  0.00     0.163 HD
HETATM    4  C5  UNL     1      10.758  -8.282  -5.796  1.00  0.00     0.241 C 
HETATM    5  O1  UNL     1      11.929  -8.812  -5.903  1.00  0.00    -0.271 OA
HETATM    6  C6  UNL     1      10.503  -7.323  -6.922  1.00  0.00     0.176 C 
HETATM    7  N3  UNL     1       9.221  -6.717  -6.836  1.00  0.00    -0.346 N 
ATOM      8  H3  UNL     1       9.191  -5.852  -6.296  1.00  0.00     0.163 HD
HETATM    9  C11 UNL     1       7.989  -7.120  -7.374  1.00  0.00     0.241 C 
HETATM   10  O2  UNL     1       7.345  -6.308  -8.138  1.00  0.00    -0.271 OA
HETATM   11  C12 UNL     1       7.288  -8.436  -7.167  1.00  0.00     0.177 C 
HETATM   12  N4  UNL     1       5.913  -8.313  -7.615  1.00  0.00    -0.346 N 
ATOM     13  H4  UNL     1       5.811  -8.285  -8.630  1.00  0.00     0.163 HD
HETATM   14  C17 UNL     1       4.718  -8.226  -6.936  1.00  0.00     0.241 C 
HETATM   15  O3  UNL     1       4.142  -7.069  -6.825  1.00  0.00    -0.271 OA
HETATM   16  C18 UNL     1       3.916  -9.300  -6.263  1.00  0.00     0.184 C 
HETATM   17  N5  UNL     1       3.499  -8.782  -4.995  1.00  0.00    -0.345 N 
ATOM     18  H5  UNL     1       2.798  -8.044  -5.044  1.00  0.00     0.163 HD
HETATM   19  C23 UNL     1       3.898  -9.124  -3.698  1.00  0.00     0.241 C 
HETATM   20  O4  UNL     1       3.924  -8.165  -2.836  1.00  0.00    -0.271 OA
HETATM   21  C24 UNL     1       4.283 -10.459  -3.225  1.00  0.00     0.175 C 
HETATM   22  N6  UNL     1       5.178 -10.603  -2.153  1.00  0.00    -0.359 N 
ATOM     23  H6  UNL     1       4.813 -11.227  -1.433  1.00  0.00     0.162 HD
HETATM   24  C29 UNL     1       6.440 -10.107  -1.825  1.00  0.00     0.135 C 
HETATM   25  C30 UNL     1       6.922  -8.726  -1.562  1.00  0.00     0.159 C 
HETATM   26  N7  UNL     1       8.384  -8.834  -1.436  1.00  0.00    -0.347 N 
ATOM     27  H7  UNL     1       8.752  -8.889  -0.486  1.00  0.00     0.163 HD
HETATM   28  C35 UNL     1       9.314  -8.870  -2.458  1.00  0.00     0.241 C 
HETATM   29  O6  UNL     1      10.156  -9.851  -2.431  1.00  0.00    -0.271 OA
ENDROOT
BRANCH   6  30
HETATM   30  C7  UNL     1      11.618  -6.329  -6.880  1.00  0.00     0.035 C 
BRANCH  30  31
HETATM   31  C8  UNL     1      12.296  -5.924  -8.126  1.00  0.00     0.004 C 
BRANCH  31  32
HETATM   32  C9  UNL     1      12.731  -6.946  -9.098  1.00  0.00     0.027 C 
BRANCH  32  33
HETATM   33  C10 UNL     1      13.836  -6.358 -10.027  1.00  0.00     0.229 C 
BRANCH  33  34
HETATM   34  N2  UNL     1      13.911  -4.943  -9.697  1.00  0.00    -0.079 N 
ATOM     35  H23 UNL     1      13.395  -4.344 -10.342  1.00  0.00     0.274 HD
ATOM     36  H22 UNL     1      13.391  -4.690  -8.857  1.00  0.00     0.274 HD
ATOM     37  H21 UNL     1      14.906  -4.727  -9.644  1.00  0.00     0.274 HD
ENDBRANCH  33  34
ENDBRANCH  32  33
ENDBRANCH  31  32
ENDBRANCH  30  31
ENDBRANCH   6  30
BRANCH   1  38
HETATM   38  C3  UNL     1      10.172  -6.680  -3.243  1.00  0.00     0.034 C 
BRANCH  38  39
HETATM   39  C2  UNL     1      11.388  -6.708  -2.410  1.00  0.00    -0.002 C 
HETATM   40  C1  UNL     1      12.699  -6.824  -3.098  1.00  0.00     0.005 C 
ENDBRANCH  38  39
ENDBRANCH   1  38
BRANCH  11  41
HETATM   41  C13 UNL     1       7.913  -9.509  -8.037  1.00  0.00     0.038 C 
BRANCH  41  42
HETATM   42  C14 UNL     1       8.170  -9.009  -9.438  1.00  0.00    -0.020 C 
HETATM   43  C15 UNL     1       9.654  -9.167  -9.758  1.00  0.00     0.009 C 
HETATM   44  C16 UNL     1       7.429  -9.901 -10.430  1.00  0.00     0.009 C 
ENDBRANCH  41  42
ENDBRANCH  11  41
BRANCH  25  45
HETATM   45  C31 UNL     1       6.368  -8.284  -0.258  1.00  0.00     0.037 C 
BRANCH  45  46
HETATM   46  C32 UNL     1       5.638  -9.191   0.618  1.00  0.00    -0.020 C 
HETATM   47  C33 UNL     1       6.296  -9.665   1.880  1.00  0.00     0.009 C 
HETATM   48  C34 UNL     1       4.215  -8.755   0.934  1.00  0.00     0.009 C 
ENDBRANCH  45  46
ENDBRANCH  25  45
BRANCH  16  49
HETATM   49  C19 UNL     1       2.744  -9.522  -7.219  1.00  0.00    -0.022 C 
HETATM   50  C20 UNL     1       3.022 -10.482  -8.321  1.00  0.00     0.017 C 
HETATM   51  C21 UNL     1       2.223  -8.248  -7.831  1.00  0.00     0.017 C 
HETATM   52  C22 UNL     1       1.539 -10.100  -6.456  1.00  0.00     0.017 C 
ENDBRANCH  16  49
BRANCH  24  53
HETATM   53  O5  UNL     1       7.399 -10.984  -1.716  1.00  0.00    -0.348 OA
ATOM     54  H5  UNL     1       8.154 -10.857  -2.279  1.00  0.00     0.219 HD
ENDBRANCH  24  53
BRANCH  21  55
HETATM   55  C25 UNL     1       2.971 -11.232  -3.022  1.00  0.00     0.038 C 
BRANCH  55  56
HETATM   56  C26 UNL     1       2.962 -12.616  -3.545  1.00  0.00    -0.020 C 
HETATM   57  C27 UNL     1       3.402 -12.816  -4.964  1.00  0.00     0.009 C 
HETATM   58  C28 UNL     1       1.539 -13.203  -3.483  1.00  0.00     0.009 C 
ENDBRANCH  55  56
ENDBRANCH  21  55
TORSDOF 15
ENDMDL
MODEL 2
REMARK VINA RESULT: -7.246697135      2.081      7.874
REMARK  15 active torsions:
REMARK  status: ('A' for Active; 'I' for Inactive)
REMARK    1  A    between atoms: C2_2  and  C3_3 
REMARK    2  A    between atoms: C3_3  and  C4_4 
REMARK    3  A    between atoms: C6_9  and  C7_10 
REMARK    4  A    between atoms: C7_10  and  C8_11 
REMARK    5  A    between atoms: C8_11  and  C9_12 
REMARK    6  A    between atoms: C9_12  and  C10_13 
REMARK    7  A    between atoms: C10_13  and  N2_14 
REMARK    8  A    between atoms: C12_22  and  C13_23 
REMARK    9  A    between atoms: C13_23  and  C14_24 
REMARK   10  A    between atoms: C18_31  and  C19_32 
REMARK   11  A    between atoms: C24_40  and  C25_41 
REMARK   12  A    between atoms: C25_41  and  C26_42 
REMARK   13  A    between atoms: C29_47  and  O5_48 
REMARK   14  A    between atoms: C30_50  and  C31_51 
REMARK   15  A    between atoms: C31_51  and  C32_52 
ROOT
HETATM    1  C4  UNL     1       6.839  -9.406  -2.786  1.00  0.00     0.176 C 
HETATM    2  N1  UNL     1       5.690  -8.687  -3.287  1.00  0.00    -0.346 N 
ATOM      3  H1  UNL     1       5.880  -7.713  -3.522  1.00  0.00     0.163 HD
HETATM    4  C5  UNL     1       4.398  -9.070  -3.506  1.00  0.00     0.241 C 
HETATM    5  O1  UNL     1       3.474  -8.521  -2.792  1.00  0.00    -0.271 OA
HETATM    6  C6  UNL     1       3.809 -10.058  -4.470  1.00  0.00     0.176 C 
HETATM    7  N3  UNL     1       4.799 -10.685  -5.273  1.00  0.00    -0.346 N 
ATOM      8  H3  UNL     1       5.195 -11.538  -4.878  1.00  0.00     0.163 HD
HETATM    9  C11 UNL     1       5.319 -10.317  -6.523  1.00  0.00     0.241 C 
HETATM   10  O2  UNL     1       5.261 -11.157  -7.497  1.00  0.00    -0.271 OA
HETATM   11  C12 UNL     1       5.966  -9.009  -6.894  1.00  0.00     0.177 C 
HETATM   12  N4  UNL     1       6.654  -9.167  -8.163  1.00  0.00    -0.346 N 
ATOM     13  H4  UNL     1       6.028  -9.220  -8.967  1.00  0.00     0.163 HD
HETATM   14  C17 UNL     1       7.988  -9.260  -8.492  1.00  0.00     0.241 C 
HETATM   15  O3  UNL     1       8.484 -10.424  -8.775  1.00  0.00    -0.271 OA
HETATM   16  C18 UNL     1       9.030  -8.186  -8.587  1.00  0.00     0.184 C 
HETATM   17  N5  UNL     1      10.208  -8.682  -7.942  1.00  0.00    -0.345 N 
ATOM     18  H5  UNL     1      10.684  -9.433  -8.440  1.00  0.00     0.163 HD
HETATM   19  C23 UNL     1      10.812  -8.303  -6.738  1.00  0.00     0.241 C 
HETATM   20  O4  UNL     1      11.389  -9.243  -6.069  1.00  0.00    -0.271 OA
HETATM   21  C24 UNL     1      10.855  -6.951  -6.169  1.00  0.00     0.175 C 
HETATM   22  N6  UNL     1      10.945  -6.768  -4.780  1.00  0.00    -0.359 N 
ATOM     23  H6  UNL     1      11.704  -6.134  -4.528  1.00  0.00     0.162 HD
HETATM   24  C29 UNL     1      10.258  -7.233  -3.658  1.00  0.00     0.135 C 
HETATM   25  C30 UNL     1      10.093  -8.599  -3.096  1.00  0.00     0.159 C 
HETATM   26  N7  UNL     1       9.121  -8.462  -2.001  1.00  0.00    -0.347 N 
ATOM     27  H7  UNL     1       9.509  -8.379  -1.060  1.00  0.00     0.163 HD
HETATM   28  C35 UNL     1       7.743  -8.432  -2.101  1.00  0.00     0.241 C 
HETATM   29  O6  UNL     1       7.149  -7.436  -1.529  1.00  0.00    -0.271 OA
ENDROOT
BRANCH   6  30
HETATM   30  C7  UNL     1       3.032 -11.031  -3.642  1.00  0.00     0.035 C 
BRANCH  30  31
HETATM   31  C8  UNL     1       3.371 -12.466  -3.676  1.00  0.00     0.004 C 
BRANCH  31  32
HETATM   32  C9  UNL     1       2.571 -13.397  -4.498  1.00  0.00     0.027 C 
BRANCH  32  33
HETATM   33  C10 UNL     1       3.475 -14.056  -5.584  1.00  0.00     0.229 C 
BRANCH  33  34
HETATM   34  N2  UNL     1       3.189 -13.338  -6.817  1.00  0.00    -0.079 N 
ATOM     35  H23 UNL     1       2.783 -12.414  -6.669  1.00  0.00     0.274 HD
ATOM     36  H22 UNL     1       4.024 -13.024  -7.311  1.00  0.00     0.274 HD
ATOM     37  H21 UNL     1       2.598 -13.962  -7.366  1.00  0.00     0.274 HD
ENDBRANCH  33  34
ENDBRANCH  32  33
ENDBRANCH  31  32
ENDBRANCH  30  31
ENDBRANCH   6  30
BRANCH   1  38
HETATM   38  C3  UNL     1       6.586 -10.624  -2.015  1.00  0.00     0.034 C 
BRANCH  38  39
HETATM   39  C2  UNL     1       6.357 -10.562  -0.560  1.00  0.00    -0.002 C 
HETATM   40  C1  UNL     1       4.954 -10.465  -0.081  1.00  0.00     0.005 C 
ENDBRANCH  38  39
ENDBRANCH   1  38
BRANCH  11  41
HETATM   41  C13 UNL     1       4.911  -7.945  -7.124  1.00  0.00     0.038 C 
BRANCH  41  42
HETATM   42  C14 UNL     1       5.450  -6.561  -6.855  1.00  0.00    -0.020 C 
HETATM   43  C15 UNL     1       6.717  -6.676  -6.011  1.00  0.00     0.009 C 
HETATM   44  C16 UNL     1       5.881  -5.927  -8.175  1.00  0.00     0.009 C 
ENDBRANCH  41  42
ENDBRANCH  11  41
BRANCH  25  45
HETATM   45  C31 UNL     1      11.395  -9.021  -2.521  1.00  0.00     0.037 C 
BRANCH  45  46
HETATM   46  C32 UNL     1      12.499  -9.472  -3.358  1.00  0.00    -0.020 C 
HETATM   47  C33 UNL     1      13.770  -8.675  -3.373  1.00  0.00     0.009 C 
HETATM   48  C34 UNL     1      12.841 -10.948  -3.211  1.00  0.00     0.009 C 
ENDBRANCH  45  46
ENDBRANCH  25  45
BRANCH  16  49
HETATM   49  C19 UNL     1       9.219  -8.006 -10.094  1.00  0.00    -0.022 C 
HETATM   50  C20 UNL     1       8.063  -8.449 -10.917  1.00  0.00     0.017 C 
HETATM   51  C21 UNL     1      10.456  -8.682 -10.625  1.00  0.00     0.017 C 
HETATM   52  C22 UNL     1       9.425  -6.518 -10.429  1.00  0.00     0.017 C 
ENDBRANCH  16  49
BRANCH  24  53
HETATM   53  O5  UNL     1       9.636  -6.337  -2.944  1.00  0.00    -0.348 OA
ATOM     54  H5  UNL     1       9.293  -6.627  -2.107  1.00  0.00     0.219 HD
ENDBRANCH  24  53
BRANCH  21  55
HETATM   55  C25 UNL     1      11.944  -6.198  -6.948  1.00  0.00     0.038 C 
BRANCH  55  56
HETATM   56  C26 UNL     1      13.086  -7.022  -7.400  1.00  0.00    -0.020 C 
HETATM   57  C27 UNL     1      14.350  -6.942  -6.598  1.00  0.00     0.009 C 
HETATM   58  C28 UNL     1      13.497  -6.626  -8.831  1.00  0.00     0.009 C 
ENDBRANCH  55  56
ENDBRANCH  21  55
TORSDOF 15
ENDMDL
MODEL 3
REMARK VINA RESULT: -6.965503899     13.569     18.058
REMARK  15 active torsions:
REMARK  status: ('A' for Active; 'I' for Inactive)
REMARK    1  A    between atoms: C2_2  and  C3_3 
REMARK    2  A    between atoms: C3_3  and  C4_4 
REMARK    3  A    between atoms: C6_9  and  C7_10 
REMARK    4  A    between atoms: C7_10  and  C8_11 
REMARK    5  A    between atoms: C8_11  and  C9_12 
REMARK    6  A    between atoms: C9_12  and  C10_13 
REMARK    7  A    between atoms: C10_13  and  N2_14 
REMARK    8  A    between atoms: C12_22  and  C13_23 
REMARK    9  A    between atoms: C13_23  and  C14_24 
REMARK   10  A    between atoms: C18_31  and  C19_32 
REMARK   11  A    between atoms: C24_40  and  C25_41 
REMARK   12  A    between atoms: C25_41  and  C26_42 
REMARK   13  A    between atoms: C29_47  and  O5_48 
REMARK   14  A    between atoms: C30_50  and  C31_51 
REMARK   15  A    between atoms: C31_51  and  C32_52 
ROOT
HETATM    1  C4  UNL     1      20.859 -10.089 -11.397  1.00  0.00     0.176 C 
HETATM    2  N1  UNL     1      21.115  -9.054 -12.373  1.00  0.00    -0.346 N 
ATOM      3  H1  UNL     1      22.076  -9.033 -12.713  1.00  0.00     0.163 HD
HETATM    4  C5  UNL     1      20.310  -8.099 -12.925  1.00  0.00     0.241 C 
HETATM    5  O1  UNL     1      20.573  -6.862 -12.669  1.00  0.00    -0.271 OA
HETATM    6  C6  UNL     1      19.112  -8.214 -13.822  1.00  0.00     0.176 C 
HETATM    7  N3  UNL     1      18.791  -9.564 -14.124  1.00  0.00    -0.346 N 
ATOM      8  H3  UNL     1      18.150 -10.010 -13.467  1.00  0.00     0.163 HD
HETATM    9  C11 UNL     1      19.215 -10.383 -15.181  1.00  0.00     0.241 C 
HETATM   10  O2  UNL     1      18.332 -10.930 -15.943  1.00  0.00    -0.271 OA
HETATM   11  C12 UNL     1      20.631 -10.723 -15.562  1.00  0.00     0.177 C 
HETATM   12  N4  UNL     1      20.615 -11.846 -16.482  1.00  0.00    -0.346 N 
ATOM     13  H4  UNL     1      20.297 -11.605 -17.421  1.00  0.00     0.163 HD
HETATM   14  C17 UNL     1      20.946 -13.175 -16.334  1.00  0.00     0.241 C 
HETATM   15  O3  UNL     1      19.995 -14.048 -16.213  1.00  0.00    -0.271 OA
HETATM   16  C18 UNL     1      22.294 -13.828 -16.286  1.00  0.00     0.184 C 
HETATM   17  N5  UNL     1      22.268 -14.772 -15.210  1.00  0.00    -0.345 N 
ATOM     18  H5  UNL     1      21.682 -15.590 -15.373  1.00  0.00     0.163 HD
HETATM   19  C23 UNL     1      22.916 -14.755 -13.969  1.00  0.00     0.241 C 
HETATM   20  O4  UNL     1      22.275 -15.283 -12.983  1.00  0.00    -0.271 OA
HETATM   21  C24 UNL     1      24.244 -14.200 -13.685  1.00  0.00     0.175 C 
HETATM   22  N6  UNL     1      24.552 -13.714 -12.404  1.00  0.00    -0.359 N 
ATOM     23  H6  UNL     1      25.418 -14.113 -12.043  1.00  0.00     0.162 HD
HETATM   24  C29 UNL     1      23.971 -12.823 -11.502  1.00  0.00     0.135 C 
HETATM   25  C30 UNL     1      22.675 -12.855 -10.776  1.00  0.00     0.159 C 
HETATM   26  N7  UNL     1      22.564 -11.551 -10.105  1.00  0.00    -0.347 N 
ATOM     27  H7  UNL     1      22.842 -11.522  -9.123  1.00  0.00     0.163 HD
HETATM   28  C35 UNL     1      22.126 -10.360 -10.653  1.00  0.00     0.241 C 
HETATM   29  O6  UNL     1      22.909  -9.341 -10.507  1.00  0.00    -0.271 OA
ENDROOT
BRANCH   6  30
HETATM   30  C7  UNL     1      18.002  -7.496 -13.124  1.00  0.00     0.035 C 
BRANCH  30  31
HETATM   31  C8  UNL     1      16.617  -7.990 -13.234  1.00  0.00     0.004 C 
BRANCH  31  32
HETATM   32  C9  UNL     1      15.832  -7.732 -14.458  1.00  0.00     0.027 C 
BRANCH  32  33
HETATM   33  C10 UNL     1      15.213  -9.063 -14.982  1.00  0.00     0.229 C 
BRANCH  33  34
HETATM   34  N2  UNL     1      15.875  -9.328 -16.250  1.00  0.00    -0.079 N 
ATOM     35  H23 UNL     1      15.690  -8.624 -16.964  1.00  0.00     0.274 HD
ATOM     36  H22 UNL     1      16.887  -9.203 -16.218  1.00  0.00     0.274 HD
ATOM     37  H21 UNL     1      15.587 -10.269 -16.517  1.00  0.00     0.274 HD
ENDBRANCH  33  34
ENDBRANCH  32  33
ENDBRANCH  31  32
ENDBRANCH  30  31
ENDBRANCH   6  30
BRANCH   1  38
HETATM   38  C3  UNL     1      19.688  -9.923 -10.535  1.00  0.00     0.034 C 
BRANCH  38  39
HETATM   39  C2  UNL     1      19.679  -8.914  -9.461  1.00  0.00    -0.002 C 
HETATM   40  C1  UNL     1      18.638  -7.855  -9.511  1.00  0.00     0.005 C 
ENDBRANCH  38  39
ENDBRANCH   1  38
BRANCH  11  41
HETATM   41  C13 UNL     1      21.264  -9.574 -16.321  1.00  0.00     0.038 C 
BRANCH  41  42
HETATM   42  C14 UNL     1      21.555  -9.948 -17.755  1.00  0.00    -0.020 C 
HETATM   43  C15 UNL     1      20.970  -8.881 -18.676  1.00  0.00     0.009 C 
HETATM   44  C16 UNL     1      23.065  -9.917 -17.982  1.00  0.00     0.009 C 
ENDBRANCH  41  42
ENDBRANCH  11  41
BRANCH  25  45
HETATM   45  C31 UNL     1      22.754 -13.914  -9.738  1.00  0.00     0.037 C 
BRANCH  45  46
HETATM   46  C32 UNL     1      21.623 -14.780  -9.431  1.00  0.00    -0.020 C 
HETATM   47  C33 UNL     1      21.825 -16.266  -9.441  1.00  0.00     0.009 C 
HETATM   48  C34 UNL     1      20.853 -14.393  -8.177  1.00  0.00     0.009 C 
ENDBRANCH  45  46
ENDBRANCH  25  45
BRANCH  16  49
HETATM   49  C19 UNL     1      22.412 -14.503 -17.654  1.00  0.00    -0.022 C 
HETATM   50  C20 UNL     1      21.769 -13.755 -18.766  1.00  0.00     0.017 C 
HETATM   51  C21 UNL     1      21.882 -15.912 -17.671  1.00  0.00     0.017 C 
HETATM   52  C22 UNL     1      23.893 -14.647 -18.048  1.00  0.00     0.017 C 
ENDBRANCH  16  49
BRANCH  24  53
HETATM   53  O5  UNL     1      24.662 -11.754 -11.214  1.00  0.00    -0.348 OA
ATOM     54  H5  UNL     1      24.323 -10.930 -11.544  1.00  0.00     0.219 HD
ENDBRANCH  24  53
BRANCH  21  55
HETATM   55  C25 UNL     1      25.255 -15.238 -14.194  1.00  0.00     0.038 C 
BRANCH  55  56
HETATM   56  C26 UNL     1      26.432 -14.685 -14.900  1.00  0.00    -0.020 C 
HETATM   57  C27 UNL     1      26.268 -13.354 -15.568  1.00  0.00     0.009 C 
HETATM   58  C28 UNL     1      26.881 -15.641 -16.021  1.00  0.00     0.009 C 
ENDBRANCH  55  56
ENDBRANCH  21  55
TORSDOF 15
ENDMDL
MODEL 4
REMARK VINA RESULT: -6.754360714     11.959     17.998
REMARK  15 active torsions:
REMARK  status: ('A' for Active; 'I' for Inactive)
REMARK    1  A    between atoms: C2_2  and  C3_3 
REMARK    2  A    between atoms: C3_3  and  C4_4 
REMARK    3  A    between atoms: C6_9  and  C7_10 
REMARK    4  A    between atoms: C7_10  and  C8_11 
REMARK    5  A    between atoms: C8_11  and  C9_12 
REMARK    6  A    between atoms: C9_12  and  C10_13 
REMARK    7  A    between atoms: C10_13  and  N2_14 
REMARK    8  A    between atoms: C12_22  and  C13_23 
REMARK    9  A    between atoms: C13_23  and  C14_24 
REMARK   10  A    between atoms: C18_31  and  C19_32 
REMARK   11  A    between atoms: C24_40  and  C25_41 
REMARK   12  A    between atoms: C25_41  and  C26_42 
REMARK   13  A    between atoms: C29_47  and  O5_48 
REMARK   14  A    between atoms: C30_50  and  C31_51 
REMARK   15  A    between atoms: C31_51  and  C32_52 
ROOT
HETATM    1  C4  UNL     1      20.949 -10.091 -11.350  1.00  0.00     0.176 C 
HETATM    2  N1  UNL     1      21.202  -9.042 -12.312  1.00  0.00    -0.346 N 
ATOM      3  H1  UNL     1      22.157  -9.028 -12.669  1.00  0.00     0.163 HD
HETATM    4  C5  UNL     1      20.400  -8.067 -12.832  1.00  0.00     0.241 C 
HETATM    5  O1  UNL     1      20.684  -6.839 -12.560  1.00  0.00    -0.271 OA
HETATM    6  C6  UNL     1      19.184  -8.150 -13.710  1.00  0.00     0.176 C 
HETATM    7  N3  UNL     1      18.839  -9.490 -14.029  1.00  0.00    -0.346 N 
ATOM      8  H3  UNL     1      18.205  -9.939 -13.369  1.00  0.00     0.163 HD
HETATM    9  C11 UNL     1      19.233 -10.296 -15.109  1.00  0.00     0.241 C 
HETATM   10  O2  UNL     1      18.329 -10.817 -15.863  1.00  0.00    -0.271 OA
HETATM   11  C12 UNL     1      20.638 -10.647 -15.521  1.00  0.00     0.177 C 
HETATM   12  N4  UNL     1      20.590 -11.753 -16.460  1.00  0.00    -0.346 N 
ATOM     13  H4  UNL     1      20.258 -11.491 -17.389  1.00  0.00     0.163 HD
HETATM   14  C17 UNL     1      20.906 -13.089 -16.341  1.00  0.00     0.241 C 
HETATM   15  O3  UNL     1      19.945 -13.951 -16.218  1.00  0.00    -0.271 OA
HETATM   16  C18 UNL     1      22.246 -13.761 -16.330  1.00  0.00     0.184 C 
HETATM   17  N5  UNL     1      22.226 -14.723 -15.270  1.00  0.00    -0.345 N 
ATOM     18  H5  UNL     1      21.626 -15.530 -15.437  1.00  0.00     0.163 HD
HETATM   19  C23 UNL     1      22.896 -14.737 -14.041  1.00  0.00     0.241 C 
HETATM   20  O4  UNL     1      22.266 -15.275 -13.053  1.00  0.00    -0.271 OA
HETATM   21  C24 UNL     1      24.237 -14.204 -13.772  1.00  0.00     0.175 C 
HETATM   22  N6  UNL     1      24.574 -13.746 -12.489  1.00  0.00    -0.359 N 
ATOM     23  H6  UNL     1      25.442 -14.162 -12.150  1.00  0.00     0.162 HD
HETATM   24  C29 UNL     1      24.022 -12.863 -11.560  1.00  0.00     0.135 C 
HETATM   25  C30 UNL     1      22.738 -12.892 -10.811  1.00  0.00     0.159 C 
HETATM   26  N7  UNL     1      22.657 -11.598 -10.115  1.00  0.00    -0.347 N 
ATOM     27  H7  UNL     1      22.953 -11.591  -9.138  1.00  0.00     0.163 HD
HETATM   28  C35 UNL     1      22.226 -10.392 -10.634  1.00  0.00     0.241 C 
HETATM   29  O6  UNL     1      23.025  -9.386 -10.484  1.00  0.00    -0.271 OA
ENDROOT
BRANCH   6  30
HETATM   30  C7  UNL     1      18.097  -7.430 -12.979  1.00  0.00     0.035 C 
BRANCH  30  31
HETATM   31  C8  UNL     1      16.685  -7.780 -13.222  1.00  0.00     0.004 C 
BRANCH  31  32
HETATM   32  C9  UNL     1      15.865  -8.349 -12.134  1.00  0.00     0.027 C 
BRANCH  32  33
HETATM   33  C10 UNL     1      14.656  -7.412 -11.834  1.00  0.00     0.229 C 
BRANCH  33  34
HETATM   34  N2  UNL     1      15.110  -6.513 -10.784  1.00  0.00    -0.079 N 
ATOM     35  H23 UNL     1      15.486  -6.994  -9.967  1.00  0.00     0.274 HD
ATOM     36  H22 UNL     1      15.959  -6.001 -11.022  1.00  0.00     0.274 HD
ATOM     37  H21 UNL     1      14.314  -5.911 -10.576  1.00  0.00     0.274 HD
ENDBRANCH  33  34
ENDBRANCH  32  33
ENDBRANCH  31  32
ENDBRANCH  30  31
ENDBRANCH   6  30
BRANCH   1  38
HETATM   38  C3  UNL     1      19.797  -9.925 -10.464  1.00  0.00     0.034 C 
BRANCH  38  39
HETATM   39  C2  UNL     1      19.742  -8.815  -9.496  1.00  0.00    -0.002 C 
HETATM   40  C1  UNL     1      18.455  -8.088  -9.344  1.00  0.00     0.005 C 
ENDBRANCH  38  39
ENDBRANCH   1  38
BRANCH  11  41
HETATM   41  C13 UNL     1      21.272  -9.493 -16.271  1.00  0.00     0.038 C 
BRANCH  41  42
HETATM   42  C14 UNL     1      21.490  -9.829 -17.727  1.00  0.00    -0.020 C 
HETATM   43  C15 UNL     1      20.959  -8.684 -18.586  1.00  0.00     0.009 C 
HETATM   44  C16 UNL     1      22.989  -9.902 -18.004  1.00  0.00     0.009 C 
ENDBRANCH  41  42
ENDBRANCH  11  41
BRANCH  25  45
HETATM   45  C31 UNL     1      22.822 -13.969  -9.794  1.00  0.00     0.037 C 
BRANCH  45  46
HETATM   46  C32 UNL     1      21.680 -14.815  -9.469  1.00  0.00    -0.020 C 
HETATM   47  C33 UNL     1      21.866 -16.303  -9.437  1.00  0.00     0.009 C 
HETATM   48  C34 UNL     1      20.908 -14.385  -8.230  1.00  0.00     0.009 C 
ENDBRANCH  45  46
ENDBRANCH  25  45
BRANCH  16  49
HETATM   49  C19 UNL     1      22.330 -14.412 -17.711  1.00  0.00    -0.022 C 
HETATM   50  C20 UNL     1      21.610 -13.677 -18.783  1.00  0.00     0.017 C 
HETATM   51  C21 UNL     1      21.856 -15.842 -17.726  1.00  0.00     0.017 C 
HETATM   52  C22 UNL     1      23.797 -14.492 -18.171  1.00  0.00     0.017 C 
ENDBRANCH  16  49
BRANCH  24  53
HETATM   53  O5  UNL     1      24.732 -11.810 -11.266  1.00  0.00    -0.348 OA
ATOM     54  H5  UNL     1      24.289 -11.123 -10.781  1.00  0.00     0.219 HD
ENDBRANCH  24  53
BRANCH  21  55
HETATM   55  C25 UNL     1      25.225 -15.247 -14.317  1.00  0.00     0.038 C 
BRANCH  55  56
HETATM   56  C26 UNL     1      26.387 -14.698 -15.050  1.00  0.00    -0.020 C 
HETATM   57  C27 UNL     1      26.226 -13.345 -15.677  1.00  0.00     0.009 C 
HETATM   58  C28 UNL     1      26.776 -15.631 -16.212  1.00  0.00     0.009 C 
ENDBRANCH  55  56
ENDBRANCH  21  55
TORSDOF 15
ENDMDL
MODEL 5
REMARK VINA RESULT: -6.249847664     14.199     18.760
REMARK  15 active torsions:
REMARK  status: ('A' for Active; 'I' for Inactive)
REMARK    1  A    between atoms: C2_2  and  C3_3 
REMARK    2  A    between atoms: C3_3  and  C4_4 
REMARK    3  A    between atoms: C6_9  and  C7_10 
REMARK    4  A    between atoms: C7_10  and  C8_11 
REMARK    5  A    between atoms: C8_11  and  C9_12 
REMARK    6  A    between atoms: C9_12  and  C10_13 
REMARK    7  A    between atoms: C10_13  and  N2_14 
REMARK    8  A    between atoms: C12_22  and  C13_23 
REMARK    9  A    between atoms: C13_23  and  C14_24 
REMARK   10  A    between atoms: C18_31  and  C19_32 
REMARK   11  A    between atoms: C24_40  and  C25_41 
REMARK   12  A    between atoms: C25_41  and  C26_42 
REMARK   13  A    between atoms: C29_47  and  O5_48 
REMARK   14  A    between atoms: C30_50  and  C31_51 
REMARK   15  A    between atoms: C31_51  and  C32_52 
ROOT
HETATM    1  C4  UNL     1      21.852 -10.337 -11.519  1.00  0.00     0.176 C 
HETATM    2  N1  UNL     1      21.922  -9.314 -12.538  1.00  0.00    -0.346 N 
ATOM      3  H1  UNL     1      22.814  -9.278 -13.030  1.00  0.00     0.163 HD
HETATM    4  C5  UNL     1      21.014  -8.388 -12.966  1.00  0.00     0.241 C 
HETATM    5  O1  UNL     1      21.283  -7.141 -12.775  1.00  0.00    -0.271 OA
HETATM    6  C6  UNL     1      19.690  -8.547 -13.657  1.00  0.00     0.176 C 
HETATM    7  N3  UNL     1      19.359  -9.909 -13.882  1.00  0.00    -0.346 N 
ATOM      8  H3  UNL     1      18.844 -10.358 -13.124  1.00  0.00     0.163 HD
HETATM    9  C11 UNL     1      19.627 -10.738 -14.983  1.00  0.00     0.241 C 
HETATM   10  O2  UNL     1      18.647 -11.318 -15.583  1.00  0.00    -0.271 OA
HETATM   11  C12 UNL     1      20.972 -11.052 -15.583  1.00  0.00     0.177 C 
HETATM   12  N4  UNL     1      20.836 -12.192 -16.472  1.00  0.00    -0.346 N 
ATOM     13  H4  UNL     1      20.364 -11.975 -17.350  1.00  0.00     0.163 HD
HETATM   14  C17 UNL     1      21.220 -13.510 -16.360  1.00  0.00     0.241 C 
HETATM   15  O3  UNL     1      20.324 -14.402 -16.074  1.00  0.00    -0.271 OA
HETATM   16  C18 UNL     1      22.575 -14.132 -16.521  1.00  0.00     0.184 C 
HETATM   17  N5  UNL     1      22.747 -15.056 -15.441  1.00  0.00    -0.345 N 
ATOM     18  H5  UNL     1      22.163 -15.890 -15.496  1.00  0.00     0.163 HD
HETATM   19  C23 UNL     1      23.585 -15.001 -14.322  1.00  0.00     0.241 C 
HETATM   20  O4  UNL     1      23.126 -15.526 -13.238  1.00  0.00    -0.271 OA
HETATM   21  C24 UNL     1      24.928 -14.411 -14.265  1.00  0.00     0.175 C 
HETATM   22  N6  UNL     1      25.426 -13.895 -13.058  1.00  0.00    -0.359 N 
ATOM     23  H6  UNL     1      26.349 -14.267 -12.836  1.00  0.00     0.162 HD
HETATM   24  C29 UNL     1      24.975 -13.000 -12.086  1.00  0.00     0.135 C 
HETATM   25  C30 UNL     1      23.814 -13.049 -11.160  1.00  0.00     0.159 C 
HETATM   26  N7  UNL     1      23.780 -11.735 -10.499  1.00  0.00    -0.347 N 
ATOM     27  H7  UNL     1      24.212 -11.682  -9.575  1.00  0.00     0.163 HD
HETATM   28  C35 UNL     1      23.230 -10.565 -10.986  1.00  0.00     0.241 C 
HETATM   29  O6  UNL     1      24.000  -9.526 -10.983  1.00  0.00    -0.271 OA
ENDROOT
BRANCH   6  30
HETATM   30  C7  UNL     1      18.689  -7.841 -12.799  1.00  0.00     0.035 C 
BRANCH  30  31
HETATM   31  C8  UNL     1      17.249  -7.952 -13.098  1.00  0.00     0.004 C 
BRANCH  31  32
HETATM   32  C9  UNL     1      16.754  -7.693 -14.465  1.00  0.00     0.027 C 
BRANCH  32  33
HETATM   33  C10 UNL     1      15.765  -8.819 -14.894  1.00  0.00     0.229 C 
BRANCH  33  34
HETATM   34  N2  UNL     1      16.370  -9.447 -16.058  1.00  0.00    -0.079 N 
ATOM     35  H23 UNL     1      16.678  -8.783 -16.768  1.00  0.00     0.274 HD
ATOM     36  H22 UNL     1      17.285  -9.857 -15.873  1.00  0.00     0.274 HD
ATOM     37  H21 UNL     1      15.681 -10.118 -16.396  1.00  0.00     0.274 HD
ENDBRANCH  33  34
ENDBRANCH  32  33
ENDBRANCH  31  32
ENDBRANCH  30  31
ENDBRANCH   6  30
BRANCH   1  38
HETATM   38  C3  UNL     1      20.832 -10.182 -10.481  1.00  0.00     0.034 C 
BRANCH  38  39
HETATM   39  C2  UNL     1      19.818 -11.227 -10.258  1.00  0.00    -0.002 C 
HETATM   40  C1  UNL     1      20.285 -12.566  -9.813  1.00  0.00     0.005 C 
ENDBRANCH  38  39
ENDBRANCH   1  38
BRANCH  11  41
HETATM   41  C13 UNL     1      21.444  -9.903 -16.451  1.00  0.00     0.038 C 
BRANCH  41  42
HETATM   42  C14 UNL     1      21.620 -10.328 -17.889  1.00  0.00    -0.020 C 
HETATM   43  C15 UNL     1      20.885  -9.342 -18.792  1.00  0.00     0.009 C 
HETATM   44  C16 UNL     1      23.096 -10.222 -18.264  1.00  0.00     0.009 C 
ENDBRANCH  41  42
ENDBRANCH  11  41
BRANCH  25  45
HETATM   45  C31 UNL     1      24.087 -14.086 -10.133  1.00  0.00     0.037 C 
BRANCH  45  46
HETATM   46  C32 UNL     1      23.036 -14.618  -9.275  1.00  0.00    -0.020 C 
HETATM   47  C33 UNL     1      22.279 -15.833  -9.723  1.00  0.00     0.009 C 
HETATM   48  C34 UNL     1      23.440 -14.794  -7.818  1.00  0.00     0.009 C 
ENDBRANCH  45  46
ENDBRANCH  25  45
BRANCH  16  49
HETATM   49  C19 UNL     1      22.488 -14.828 -17.880  1.00  0.00    -0.022 C 
HETATM   50  C20 UNL     1      21.750 -14.062 -18.919  1.00  0.00     0.017 C 
HETATM   51  C21 UNL     1      21.889 -16.208 -17.806  1.00  0.00     0.017 C 
HETATM   52  C22 UNL     1      23.899 -15.055 -18.452  1.00  0.00     0.017 C 
ENDBRANCH  16  49
BRANCH  24  53
HETATM   53  O5  UNL     1      25.676 -11.912 -11.929  1.00  0.00    -0.348 OA
ATOM     54  H5  UNL     1      25.232 -11.179 -11.518  1.00  0.00     0.219 HD
ENDBRANCH  24  53
BRANCH  21  55
HETATM   55  C25 UNL     1      25.869 -15.435 -14.916  1.00  0.00     0.038 C 
BRANCH  55  56
HETATM   56  C26 UNL     1      27.007 -14.862 -15.669  1.00  0.00    -0.020 C 
HETATM   57  C27 UNL     1      27.296 -15.441 -17.021  1.00  0.00     0.009 C 
HETATM   58  C28 UNL     1      28.316 -15.036 -14.874  1.00  0.00     0.009 C 
ENDBRANCH  55  56
ENDBRANCH  21  55
TORSDOF 15
ENDMDL
