MODEL 1
REMARK VINA RESULT: -6.288845953      0.000      0.000
REMARK  15 active torsions:
REMARK  status: ('A' for Active; 'I' for Inactive)
REMARK    1  A    between atoms: C2_2  and  C3_3 
REMARK    2  A    between atoms: C3_3  and  C4_4 
REMARK    3  A    between atoms: C4_4  and  C5_5 
REMARK    4  A    between atoms: C7_10  and  C8_11 
REMARK    5  A    between atoms: C8_11  and  C9_12 
REMARK    6  A    between atoms: C9_12  and  C10_13 
REMARK    7  A    between atoms: C13_19  and  C14_20 
REMARK    8  A    between atoms: C14_20  and  C15_21 
REMARK    9  A    between atoms: C18_26  and  O3_27 
REMARK   10  A    between atoms: C19_29  and  C20_30 
REMARK   11  A    between atoms: C20_30  and  C21_31 
REMARK   12  A    between atoms: C24_36  and  O4_37 
REMARK   13  A    between atoms: C25_39  and  C26_40 
REMARK   14  A    between atoms: C30_47  and  C31_48 
REMARK   15  A    between atoms: C34_53  and  O6_54 
ROOT
HETATM    1  C5  UNL     1      19.247  -7.316 -12.822  1.00  0.00     0.177 C 
HETATM    2  N1  UNL     1      19.357  -8.737 -13.022  1.00  0.00    -0.346 N 
ATOM      3  H1  UNL     1      19.058  -9.285 -12.215  1.00  0.00     0.163 HD
HETATM    4  C6  UNL     1      19.786  -9.511 -14.089  1.00  0.00     0.241 C 
HETATM    5  O1  UNL     1      20.921 -10.114 -13.966  1.00  0.00    -0.271 OA
HETATM    6  C7  UNL     1      19.129  -9.770 -15.397  1.00  0.00     0.176 C 
HETATM    7  N2  UNL     1      20.043  -9.771 -16.506  1.00  0.00    -0.346 N 
ATOM      8  H2  UNL     1      20.406  -8.849 -16.753  1.00  0.00     0.163 HD
HETATM    9  C12 UNL     1      20.526 -10.820 -17.310  1.00  0.00     0.241 C 
HETATM   10  O2  UNL     1      20.309 -10.719 -18.566  1.00  0.00    -0.271 OA
HETATM   11  C13 UNL     1      21.263 -12.032 -16.924  1.00  0.00     0.175 C 
HETATM   12  N3  UNL     1      22.705 -11.828 -17.218  1.00  0.00    -0.359 N 
ATOM     13  H3  UNL     1      22.950 -11.871 -18.207  1.00  0.00     0.162 HD
HETATM   14  C18 UNL     1      23.771 -11.588 -16.367  1.00  0.00     0.135 C 
HETATM   15  C19 UNL     1      24.392 -12.409 -15.300  1.00  0.00     0.158 C 
HETATM   16  N4  UNL     1      23.692 -12.420 -14.041  1.00  0.00    -0.357 N 
ATOM     17  H4  UNL     1      22.755 -12.813 -14.126  1.00  0.00     0.162 HD
HETATM   18  C24 UNL     1      23.971 -12.036 -12.766  1.00  0.00     0.160 C 
HETATM   19  C25 UNL     1      25.146 -11.569 -12.016  1.00  0.00     0.066 C 
HETATM   20  N5  UNL     1      24.823 -11.034 -10.709  1.00  0.00    -0.325 N 
ATOM     21  H5  UNL     1      24.471 -11.753 -10.077  1.00  0.00     0.169 HD
HETATM   22  C29 UNL     1      24.874  -9.794 -10.109  1.00  0.00     0.245 C 
HETATM   23  O5  UNL     1      25.580  -9.609  -9.074  1.00  0.00    -0.271 OA
HETATM   24  C30 UNL     1      24.201  -8.480 -10.450  1.00  0.00     0.181 C 
HETATM   25  N6  UNL     1      22.947  -8.717 -11.118  1.00  0.00    -0.343 N 
ATOM     26  H6  UNL     1      23.055  -8.979 -12.098  1.00  0.00     0.164 HD
HETATM   27  C34 UNL     1      21.612  -8.663 -10.706  1.00  0.00     0.220 C 
HETATM   28  N7  UNL     1      20.655  -7.629 -10.662  1.00  0.00    -0.291 N 
ATOM     29  H7  UNL     1      20.305  -7.423  -9.727  1.00  0.00     0.172 HD
HETATM   30  C35 UNL     1      20.101  -6.838 -11.668  1.00  0.00     0.247 C 
HETATM   31  O7  UNL     1      20.300  -5.573 -11.665  1.00  0.00    -0.271 OA
ENDROOT
BRANCH   1  32
HETATM   32  C4  UNL     1      17.847  -6.864 -12.442  1.00  0.00     0.035 C 
BRANCH  32  33
HETATM   33  C3  UNL     1      16.916  -8.002 -12.156  1.00  0.00     0.002 C 
BRANCH  33  34
HETATM   34  C2  UNL     1      15.483  -7.541 -12.000  1.00  0.00    -0.004 C 
HETATM   35  C1  UNL     1      14.568  -8.680 -11.616  1.00  0.00     0.005 C 
ENDBRANCH  33  34
ENDBRANCH  32  33
ENDBRANCH   1  32
BRANCH   6  36
HETATM   36  C8  UNL     1      18.022  -8.718 -15.624  1.00  0.00     0.035 C 
BRANCH  36  37
HETATM   37  C9  UNL     1      16.677  -9.407 -15.657  1.00  0.00     0.002 C 
BRANCH  37  38
HETATM   38  C10 UNL     1      15.540  -8.434 -15.713  1.00  0.00    -0.004 C 
HETATM   39  C11 UNL     1      14.246  -9.006 -15.210  1.00  0.00     0.005 C 
ENDBRANCH  37  38
ENDBRANCH  36  37
ENDBRANCH   6  36
BRANCH  27  40
HETATM   40  O6  UNL     1      21.129  -9.801 -10.267  1.00  0.00    -0.332 OA
ATOM     41  H6  UNL     1      21.735 -10.311  -9.742  1.00  0.00     0.220 HD
ENDBRANCH  27  40
BRANCH  24  42
HETATM   42  C31 UNL     1      24.086  -7.535  -9.305  1.00  0.00     0.009 C 
HETATM   43  C32 UNL     1      25.381  -7.225  -8.599  1.00  0.00     0.012 C 
HETATM   44  C33 UNL     1      23.579  -6.166  -9.792  1.00  0.00     0.012 C 
ENDBRANCH  24  42
BRANCH  11  45
HETATM   45  C14 UNL     1      20.795 -13.258 -17.639  1.00  0.00     0.038 C 
BRANCH  45  46
HETATM   46  C15 UNL     1      21.754 -14.067 -18.410  1.00  0.00    -0.020 C 
HETATM   47  C16 UNL     1      22.010 -15.475 -18.051  1.00  0.00     0.009 C 
HETATM   48  C17 UNL     1      21.497 -13.897 -19.910  1.00  0.00     0.009 C 
ENDBRANCH  45  46
ENDBRANCH  11  45
BRANCH  14  49
HETATM   49  O3  UNL     1      24.363 -10.432 -16.509  1.00  0.00    -0.348 OA
ATOM     50  H3  UNL     1      24.477  -9.926 -15.713  1.00  0.00     0.219 HD
ENDBRANCH  14  49
BRANCH  19  51
HETATM   51  C26 UNL     1      26.248 -10.905 -12.728  1.00  0.00     0.032 C 
HETATM   52  C27 UNL     1      27.041 -11.669 -13.721  1.00  0.00     0.016 C 
HETATM   53  C28 UNL     1      25.619  -9.745 -13.529  1.00  0.00     0.016 C 
ENDBRANCH  19  51
BRANCH  15  54
HETATM   54  C20 UNL     1      24.513 -13.892 -15.757  1.00  0.00     0.037 C 
BRANCH  54  55
HETATM   55  C21 UNL     1      24.618 -14.804 -14.574  1.00  0.00    -0.020 C 
HETATM   56  C22 UNL     1      26.033 -15.233 -14.371  1.00  0.00     0.009 C 
HETATM   57  C23 UNL     1      23.690 -15.982 -14.804  1.00  0.00     0.009 C 
ENDBRANCH  54  55
ENDBRANCH  15  54
BRANCH  18  58
HETATM   58  O4  UNL     1      22.927 -12.091 -11.973  1.00  0.00    -0.345 OA
ATOM     59  H4  UNL     1      22.981 -11.482 -11.245  1.00  0.00     0.219 HD
ENDBRANCH  18  58
TORSDOF 15
ENDMDL
MODEL 2
REMARK VINA RESULT: -6.253551101      2.201      9.043
REMARK  15 active torsions:
REMARK  status: ('A' for Active; 'I' for Inactive)
REMARK    1  A    between atoms: C2_2  and  C3_3 
REMARK    2  A    between atoms: C3_3  and  C4_4 
REMARK    3  A    between atoms: C4_4  and  C5_5 
REMARK    4  A    between atoms: C7_10  and  C8_11 
REMARK    5  A    between atoms: C8_11  and  C9_12 
REMARK    6  A    between atoms: C9_12  and  C10_13 
REMARK    7  A    between atoms: C13_19  and  C14_20 
REMARK    8  A    between atoms: C14_20  and  C15_21 
REMARK    9  A    between atoms: C18_26  and  O3_27 
REMARK   10  A    between atoms: C19_29  and  C20_30 
REMARK   11  A    between atoms: C20_30  and  C21_31 
REMARK   12  A    between atoms: C24_36  and  O4_37 
REMARK   13  A    between atoms: C25_39  and  C26_40 
REMARK   14  A    between atoms: C30_47  and  C31_48 
REMARK   15  A    between atoms: C34_53  and  O6_54 
ROOT
HETATM    1  C5  UNL     1      26.251  -9.162 -11.121  1.00  0.00     0.177 C 
HETATM    2  N1  UNL     1      24.987  -9.444 -10.492  1.00  0.00    -0.346 N 
ATOM      3  H1  UNL     1      24.930 -10.383 -10.097  1.00  0.00     0.163 HD
HETATM    4  C6  UNL     1      23.833  -8.698 -10.315  1.00  0.00     0.241 C 
HETATM    5  O1  UNL     1      22.799  -9.027 -11.016  1.00  0.00    -0.271 OA
HETATM    6  C7  UNL     1      23.579  -7.541  -9.415  1.00  0.00     0.176 C 
HETATM    7  N2  UNL     1      22.790  -6.506 -10.024  1.00  0.00    -0.346 N 
ATOM      8  H2  UNL     1      23.279  -5.973 -10.744  1.00  0.00     0.163 HD
HETATM    9  C12 UNL     1      21.461  -6.100  -9.800  1.00  0.00     0.241 C 
HETATM   10  O2  UNL     1      21.290  -4.879  -9.462  1.00  0.00    -0.271 OA
HETATM   11  C13 UNL     1      20.215  -6.874  -9.906  1.00  0.00     0.175 C 
HETATM   12  N3  UNL     1      19.558  -6.546 -11.197  1.00  0.00    -0.359 N 
ATOM     13  H3  UNL     1      19.112  -5.630 -11.229  1.00  0.00     0.162 HD
HETATM   14  C18 UNL     1      19.453  -7.282 -12.366  1.00  0.00     0.135 C 
HETATM   15  C19 UNL     1      18.781  -8.567 -12.670  1.00  0.00     0.158 C 
HETATM   16  N4  UNL     1      19.496  -9.752 -12.264  1.00  0.00    -0.357 N 
ATOM     17  H4  UNL     1      19.632  -9.790 -11.254  1.00  0.00     0.162 HD
HETATM   18  C24 UNL     1      20.033 -10.831 -12.894  1.00  0.00     0.160 C 
HETATM   19  C25 UNL     1      20.027 -11.398 -14.250  1.00  0.00     0.066 C 
HETATM   20  N5  UNL     1      21.003 -12.451 -14.441  1.00  0.00    -0.325 N 
ATOM     21  H5  UNL     1      20.786 -13.281 -13.890  1.00  0.00     0.169 HD
HETATM   22  C29 UNL     1      22.154 -12.608 -15.183  1.00  0.00     0.245 C 
HETATM   23  O5  UNL     1      22.243 -13.532 -16.045  1.00  0.00    -0.271 OA
HETATM   24  C30 UNL     1      23.463 -11.844 -15.190  1.00  0.00     0.181 C 
HETATM   25  N6  UNL     1      23.719 -11.277 -13.890  1.00  0.00    -0.343 N 
ATOM     26  H6  UNL     1      23.167 -10.439 -13.700  1.00  0.00     0.164 HD
HETATM   27  C34 UNL     1      24.565 -11.632 -12.835  1.00  0.00     0.220 C 
HETATM   28  N7  UNL     1      25.903 -11.320 -12.522  1.00  0.00    -0.291 N 
ATOM     29  H7  UNL     1      26.520 -12.130 -12.471  1.00  0.00     0.172 HD
HETATM   30  C35 UNL     1      26.535 -10.103 -12.271  1.00  0.00     0.247 C 
HETATM   31  O7  UNL     1      27.457  -9.690 -13.057  1.00  0.00    -0.271 OA
ENDROOT
BRANCH   1  32
HETATM   32  C4  UNL     1      27.443  -9.355 -10.197  1.00  0.00     0.035 C 
BRANCH  32  33
HETATM   33  C3  UNL     1      28.267  -8.117 -10.029  1.00  0.00     0.002 C 
BRANCH  33  34
HETATM   34  C2  UNL     1      28.597  -7.844  -8.578  1.00  0.00    -0.004 C 
HETATM   35  C1  UNL     1      27.865  -8.785  -7.650  1.00  0.00     0.005 C 
ENDBRANCH  33  34
ENDBRANCH  32  33
ENDBRANCH   1  32
BRANCH   6  36
HETATM   36  C8  UNL     1      24.931  -6.967  -8.940  1.00  0.00     0.035 C 
BRANCH  36  37
HETATM   37  C9  UNL     1      25.278  -5.752  -9.770  1.00  0.00     0.002 C 
BRANCH  37  38
HETATM   38  C10 UNL     1      25.539  -4.542  -8.928  1.00  0.00    -0.004 C 
HETATM   39  C11 UNL     1      26.603  -4.762  -7.890  1.00  0.00     0.005 C 
ENDBRANCH  37  38
ENDBRANCH  36  37
ENDBRANCH   6  36
BRANCH  27  40
HETATM   40  O6  UNL     1      24.018 -12.416 -11.937  1.00  0.00    -0.332 OA
ATOM     41  H6  UNL     1      23.717 -13.253 -12.273  1.00  0.00     0.220 HD
ENDBRANCH  27  40
BRANCH  24  42
HETATM   42  C31 UNL     1      24.618 -12.611 -15.733  1.00  0.00     0.009 C 
HETATM   43  C32 UNL     1      25.897 -11.828 -15.874  1.00  0.00     0.012 C 
HETATM   44  C33 UNL     1      24.982 -13.768 -14.785  1.00  0.00     0.012 C 
ENDBRANCH  24  42
BRANCH  11  45
HETATM   45  C14 UNL     1      19.256  -6.599  -8.794  1.00  0.00     0.038 C 
BRANCH  45  46
HETATM   46  C15 UNL     1      17.955  -7.288  -8.762  1.00  0.00    -0.020 C 
HETATM   47  C16 UNL     1      17.803  -8.576  -8.058  1.00  0.00     0.009 C 
HETATM   48  C17 UNL     1      16.847  -6.299  -8.390  1.00  0.00     0.009 C 
ENDBRANCH  45  46
ENDBRANCH  11  45
BRANCH  14  49
HETATM   49  O3  UNL     1      20.045  -6.773 -13.414  1.00  0.00    -0.348 OA
ATOM     50  H3  UNL     1      19.584  -6.873 -14.238  1.00  0.00     0.219 HD
ENDBRANCH  14  49
BRANCH  19  51
HETATM   51  C26 UNL     1      19.794 -10.519 -15.406  1.00  0.00     0.032 C 
HETATM   52  C27 UNL     1      20.885  -9.636 -15.883  1.00  0.00     0.016 C 
HETATM   53  C28 UNL     1      19.477 -11.441 -16.603  1.00  0.00     0.016 C 
ENDBRANCH  19  51
BRANCH  15  54
HETATM   54  C20 UNL     1      17.388  -8.628 -11.980  1.00  0.00     0.037 C 
BRANCH  54  55
HETATM   55  C21 UNL     1      16.486  -7.556 -12.509  1.00  0.00    -0.020 C 
HETATM   56  C22 UNL     1      15.272  -7.425 -11.652  1.00  0.00     0.009 C 
HETATM   57  C23 UNL     1      16.138  -7.899 -13.946  1.00  0.00     0.009 C 
ENDBRANCH  54  55
ENDBRANCH  15  54
BRANCH  18  58
HETATM   58  O4  UNL     1      20.752 -11.585 -12.097  1.00  0.00    -0.345 OA
ATOM     59  H4  UNL     1      21.392 -11.093 -11.597  1.00  0.00     0.219 HD
ENDBRANCH  18  58
TORSDOF 15
ENDMDL
MODEL 3
REMARK VINA RESULT: -6.240041529      0.872      1.212
REMARK  15 active torsions:
REMARK  status: ('A' for Active; 'I' for Inactive)
REMARK    1  A    between atoms: C2_2  and  C3_3 
REMARK    2  A    between atoms: C3_3  and  C4_4 
REMARK    3  A    between atoms: C4_4  and  C5_5 
REMARK    4  A    between atoms: C7_10  and  C8_11 
REMARK    5  A    between atoms: C8_11  and  C9_12 
REMARK    6  A    between atoms: C9_12  and  C10_13 
REMARK    7  A    between atoms: C13_19  and  C14_20 
REMARK    8  A    between atoms: C14_20  and  C15_21 
REMARK    9  A    between atoms: C18_26  and  O3_27 
REMARK   10  A    between atoms: C19_29  and  C20_30 
REMARK   11  A    between atoms: C20_30  and  C21_31 
REMARK   12  A    between atoms: C24_36  and  O4_37 
REMARK   13  A    between atoms: C25_39  and  C26_40 
REMARK   14  A    between atoms: C30_47  and  C31_48 
REMARK   15  A    between atoms: C34_53  and  O6_54 
ROOT
HETATM    1  C5  UNL     1      18.805  -7.561 -12.960  1.00  0.00     0.177 C 
HETATM    2  N1  UNL     1      19.015  -8.958 -13.241  1.00  0.00    -0.346 N 
ATOM      3  H1  UNL     1      18.767  -9.570 -12.464  1.00  0.00     0.163 HD
HETATM    4  C6  UNL     1      19.485  -9.637 -14.353  1.00  0.00     0.241 C 
HETATM    5  O1  UNL     1      20.663 -10.162 -14.275  1.00  0.00    -0.271 OA
HETATM    6  C7  UNL     1      18.832  -9.871 -15.669  1.00  0.00     0.176 C 
HETATM    7  N2  UNL     1      19.730  -9.743 -16.783  1.00  0.00    -0.346 N 
ATOM      8  H2  UNL     1      20.022  -8.785 -16.981  1.00  0.00     0.163 HD
HETATM    9  C12 UNL     1      20.278 -10.707 -17.650  1.00  0.00     0.241 C 
HETATM   10  O2  UNL     1      20.037 -10.553 -18.896  1.00  0.00    -0.271 OA
HETATM   11  C13 UNL     1      21.105 -11.882 -17.339  1.00  0.00     0.175 C 
HETATM   12  N3  UNL     1      22.525 -11.557 -17.633  1.00  0.00    -0.359 N 
ATOM     13  H3  UNL     1      22.759 -11.527 -18.626  1.00  0.00     0.162 HD
HETATM   14  C18 UNL     1      23.582 -11.287 -16.780  1.00  0.00     0.135 C 
HETATM   15  C19 UNL     1      24.274 -12.118 -15.767  1.00  0.00     0.158 C 
HETATM   16  N4  UNL     1      23.593 -12.251 -14.503  1.00  0.00    -0.357 N 
ATOM     17  H4  UNL     1      22.685 -12.706 -14.603  1.00  0.00     0.162 HD
HETATM   18  C24 UNL     1      23.859 -11.919 -13.212  1.00  0.00     0.160 C 
HETATM   19  C25 UNL     1      25.007 -11.410 -12.447  1.00  0.00     0.066 C 
HETATM   20  N5  UNL     1      24.663 -10.973 -11.109  1.00  0.00    -0.325 N 
ATOM     21  H5  UNL     1      24.372 -11.750 -10.516  1.00  0.00     0.169 HD
HETATM   22  C29 UNL     1      24.631  -9.769 -10.440  1.00  0.00     0.245 C 
HETATM   23  O5  UNL     1      25.335  -9.590  -9.403  1.00  0.00    -0.271 OA
HETATM   24  C30 UNL     1      23.860  -8.490 -10.700  1.00  0.00     0.181 C 
HETATM   25  N6  UNL     1      22.618  -8.781 -11.370  1.00  0.00    -0.343 N 
ATOM     26  H6  UNL     1      22.733  -8.979 -12.365  1.00  0.00     0.164 HD
HETATM   27  C34 UNL     1      21.289  -8.848 -10.944  1.00  0.00     0.220 C 
HETATM   28  N7  UNL     1      20.260  -7.891 -10.834  1.00  0.00    -0.291 N 
ATOM     29  H7  UNL     1      19.908  -7.763  -9.886  1.00  0.00     0.172 HD
HETATM   30  C35 UNL     1      19.637  -7.088 -11.789  1.00  0.00     0.247 C 
HETATM   31  O7  UNL     1      19.744  -5.814 -11.715  1.00  0.00    -0.271 OA
ENDROOT
BRANCH   1  32
HETATM   32  C4  UNL     1      17.380  -7.236 -12.543  1.00  0.00     0.035 C 
BRANCH  32  33
HETATM   33  C3  UNL     1      16.719  -8.344 -11.785  1.00  0.00     0.002 C 
BRANCH  33  34
HETATM   34  C2  UNL     1      15.321  -7.975 -11.339  1.00  0.00    -0.004 C 
HETATM   35  C1  UNL     1      14.269  -8.761 -12.086  1.00  0.00     0.005 C 
ENDBRANCH  33  34
ENDBRANCH  32  33
ENDBRANCH   1  32
BRANCH   6  36
HETATM   36  C8  UNL     1      17.650  -8.892 -15.826  1.00  0.00     0.035 C 
BRANCH  36  37
HETATM   37  C9  UNL     1      16.359  -9.610 -15.502  1.00  0.00     0.002 C 
BRANCH  37  38
HETATM   38  C10 UNL     1      15.172  -8.966 -16.146  1.00  0.00    -0.004 C 
HETATM   39  C11 UNL     1      14.806  -7.646 -15.527  1.00  0.00     0.005 C 
ENDBRANCH  37  38
ENDBRANCH  36  37
ENDBRANCH   6  36
BRANCH  27  40
HETATM   40  O6  UNL     1      20.895 -10.041 -10.566  1.00  0.00    -0.332 OA
ATOM     41  H6  UNL     1      20.779 -10.140  -9.629  1.00  0.00     0.220 HD
ENDBRANCH  27  40
BRANCH  24  42
HETATM   42  C31 UNL     1      23.692  -7.622  -9.503  1.00  0.00     0.009 C 
HETATM   43  C32 UNL     1      24.963  -7.306  -8.758  1.00  0.00     0.012 C 
HETATM   44  C33 UNL     1      23.140  -6.245  -9.916  1.00  0.00     0.012 C 
ENDBRANCH  24  42
BRANCH  11  45
HETATM   45  C14 UNL     1      20.719 -13.097 -18.118  1.00  0.00     0.038 C 
BRANCH  45  46
HETATM   46  C15 UNL     1      21.753 -14.060 -18.535  1.00  0.00    -0.020 C 
HETATM   47  C16 UNL     1      21.840 -15.390 -17.903  1.00  0.00     0.009 C 
HETATM   48  C17 UNL     1      21.801 -14.147 -20.063  1.00  0.00     0.009 C 
ENDBRANCH  45  46
ENDBRANCH  11  45
BRANCH  14  49
HETATM   49  O3  UNL     1      24.086 -10.085 -16.861  1.00  0.00    -0.348 OA
ATOM     50  H3  UNL     1      24.852  -9.921 -16.324  1.00  0.00     0.219 HD
ENDBRANCH  14  49
BRANCH  19  51
HETATM   51  C26 UNL     1      26.049 -10.628 -13.130  1.00  0.00     0.032 C 
HETATM   52  C27 UNL     1      25.757  -9.237 -13.555  1.00  0.00     0.016 C 
HETATM   53  C28 UNL     1      27.226 -10.504 -12.140  1.00  0.00     0.016 C 
ENDBRANCH  19  51
BRANCH  15  54
HETATM   54  C20 UNL     1      24.496 -13.561 -16.307  1.00  0.00     0.037 C 
BRANCH  54  55
HETATM   55  C21 UNL     1      25.505 -13.563 -17.414  1.00  0.00    -0.020 C 
HETATM   56  C22 UNL     1      25.539 -14.895 -18.086  1.00  0.00     0.009 C 
HETATM   57  C23 UNL     1      26.851 -13.184 -16.826  1.00  0.00     0.009 C 
ENDBRANCH  54  55
ENDBRANCH  15  54
BRANCH  18  58
HETATM   58  O4  UNL     1      22.833 -12.094 -12.414  1.00  0.00    -0.345 OA
ATOM     59  H4  UNL     1      23.069 -12.073 -11.494  1.00  0.00     0.219 HD
ENDBRANCH  18  58
TORSDOF 15
ENDMDL
MODEL 4
REMARK VINA RESULT: -6.114425828      1.920      7.170
REMARK  15 active torsions:
REMARK  status: ('A' for Active; 'I' for Inactive)
REMARK    1  A    between atoms: C2_2  and  C3_3 
REMARK    2  A    between atoms: C3_3  and  C4_4 
REMARK    3  A    between atoms: C4_4  and  C5_5 
REMARK    4  A    between atoms: C7_10  and  C8_11 
REMARK    5  A    between atoms: C8_11  and  C9_12 
REMARK    6  A    between atoms: C9_12  and  C10_13 
REMARK    7  A    between atoms: C13_19  and  C14_20 
REMARK    8  A    between atoms: C14_20  and  C15_21 
REMARK    9  A    between atoms: C18_26  and  O3_27 
REMARK   10  A    between atoms: C19_29  and  C20_30 
REMARK   11  A    between atoms: C20_30  and  C21_31 
REMARK   12  A    between atoms: C24_36  and  O4_37 
REMARK   13  A    between atoms: C25_39  and  C26_40 
REMARK   14  A    between atoms: C30_47  and  C31_48 
REMARK   15  A    between atoms: C34_53  and  O6_54 
ROOT
HETATM    1  C5  UNL     1      18.386  -8.794 -14.430  1.00  0.00     0.177 C 
HETATM    2  N1  UNL     1      19.587  -8.054 -14.141  1.00  0.00    -0.346 N 
ATOM      3  H1  UNL     1      19.845  -7.395 -14.876  1.00  0.00     0.163 HD
HETATM    4  C6  UNL     1      20.462  -8.057 -13.067  1.00  0.00     0.241 C 
HETATM    5  O1  UNL     1      21.628  -8.582 -13.252  1.00  0.00    -0.271 OA
HETATM    6  C7  UNL     1      20.273  -7.534 -11.688  1.00  0.00     0.176 C 
HETATM    7  N2  UNL     1      20.824  -8.389 -10.672  1.00  0.00    -0.346 N 
ATOM      8  H2  UNL     1      20.306  -9.256 -10.526  1.00  0.00     0.163 HD
HETATM    9  C12 UNL     1      21.952  -8.239  -9.844  1.00  0.00     0.241 C 
HETATM   10  O2  UNL     1      21.740  -8.274  -8.584  1.00  0.00    -0.271 OA
HETATM   11  C13 UNL     1      23.364  -8.054 -10.210  1.00  0.00     0.175 C 
HETATM   12  N3  UNL     1      24.068  -9.354 -10.068  1.00  0.00    -0.359 N 
ATOM     13  H3  UNL     1      24.249  -9.638  -9.105  1.00  0.00     0.162 HD
HETATM   14  C18 UNL     1      24.519 -10.243 -11.029  1.00  0.00     0.135 C 
HETATM   15  C19 UNL     1      25.548 -10.120 -12.088  1.00  0.00     0.158 C 
HETATM   16  N4  UNL     1      25.136  -9.411 -13.273  1.00  0.00    -0.357 N 
ATOM     17  H4  UNL     1      24.886  -8.442 -13.073  1.00  0.00     0.162 HD
HETATM   18  C24 UNL     1      24.998  -9.712 -14.592  1.00  0.00     0.160 C 
HETATM   19  C25 UNL     1      25.333 -10.836 -15.479  1.00  0.00     0.066 C 
HETATM   20  N5  UNL     1      24.712 -10.746 -16.785  1.00  0.00    -0.325 N 
ATOM     21  H5  UNL     1      25.074  -9.963 -17.329  1.00  0.00     0.169 HD
HETATM   22  C29 UNL     1      23.753 -11.457 -17.474  1.00  0.00     0.245 C 
HETATM   23  O5  UNL     1      24.030 -12.006 -18.581  1.00  0.00    -0.271 OA
HETATM   24  C30 UNL     1      22.298 -11.749 -17.166  1.00  0.00     0.181 C 
HETATM   25  N6  UNL     1      21.732 -10.691 -16.368  1.00  0.00    -0.343 N 
ATOM     26  H6  UNL     1      22.006 -10.735 -15.386  1.00  0.00     0.164 HD
HETATM   27  C34 UNL     1      20.886  -9.616 -16.657  1.00  0.00     0.220 C 
HETATM   28  N7  UNL     1      19.484  -9.470 -16.684  1.00  0.00    -0.291 N 
ATOM     29  H7  UNL     1      19.109  -9.206 -17.594  1.00  0.00     0.172 HD
HETATM   30  C35 UNL     1      18.519  -9.621 -15.690  1.00  0.00     0.247 C 
HETATM   31  O7  UNL     1      17.629 -10.534 -15.801  1.00  0.00    -0.271 OA
ENDROOT
BRANCH   1  32
HETATM   32  C4  UNL     1      17.182  -7.908 -14.709  1.00  0.00     0.035 C 
BRANCH  32  33
HETATM   33  C3  UNL     1      16.071  -8.094 -13.724  1.00  0.00     0.002 C 
BRANCH  33  34
HETATM   34  C2  UNL     1      14.884  -8.811 -14.332  1.00  0.00    -0.004 C 
HETATM   35  C1  UNL     1      14.693  -8.446 -15.785  1.00  0.00     0.005 C 
ENDBRANCH  33  34
ENDBRANCH  32  33
ENDBRANCH   1  32
BRANCH   6  36
HETATM   36  C8  UNL     1      18.767  -7.312 -11.434  1.00  0.00     0.035 C 
BRANCH  36  37
HETATM   37  C9  UNL     1      18.228  -8.448 -10.595  1.00  0.00     0.002 C 
BRANCH  37  38
HETATM   38  C10 UNL     1      17.649  -7.974  -9.299  1.00  0.00    -0.004 C 
HETATM   39  C11 UNL     1      18.074  -8.805  -8.121  1.00  0.00     0.005 C 
ENDBRANCH  37  38
ENDBRANCH  36  37
ENDBRANCH   6  36
BRANCH  27  40
HETATM   40  O6  UNL     1      21.505  -8.501 -16.967  1.00  0.00    -0.332 OA
ATOM     41  H6  UNL     1      21.498  -7.842 -16.282  1.00  0.00     0.220 HD
ENDBRANCH  27  40
BRANCH  24  42
HETATM   42  C31 UNL     1      21.475 -12.088 -18.359  1.00  0.00     0.009 C 
HETATM   43  C32 UNL     1      20.053 -12.486 -18.064  1.00  0.00     0.012 C 
HETATM   44  C33 UNL     1      21.344 -10.863 -19.282  1.00  0.00     0.012 C 
ENDBRANCH  24  42
BRANCH  11  45
HETATM   45  C14 UNL     1      24.061  -7.034  -9.370  1.00  0.00     0.038 C 
BRANCH  45  46
HETATM   46  C15 UNL     1      23.912  -5.602  -9.681  1.00  0.00    -0.020 C 
HETATM   47  C16 UNL     1      22.642  -4.902  -9.412  1.00  0.00     0.009 C 
HETATM   48  C17 UNL     1      25.119  -4.823  -9.151  1.00  0.00     0.009 C 
ENDBRANCH  45  46
ENDBRANCH  11  45
BRANCH  14  49
HETATM   49  O3  UNL     1      23.951 -11.420 -11.026  1.00  0.00    -0.348 OA
ATOM     50  H3  UNL     1      24.440 -12.113 -10.597  1.00  0.00     0.219 HD
ENDBRANCH  14  49
BRANCH  19  51
HETATM   51  C26 UNL     1      25.466 -12.190 -14.922  1.00  0.00     0.032 C 
HETATM   52  C27 UNL     1      24.250 -12.931 -14.507  1.00  0.00     0.016 C 
HETATM   53  C28 UNL     1      26.104 -13.060 -16.025  1.00  0.00     0.016 C 
ENDBRANCH  19  51
BRANCH  15  54
HETATM   54  C20 UNL     1      26.805  -9.383 -11.541  1.00  0.00     0.037 C 
BRANCH  54  55
HETATM   55  C21 UNL     1      27.081  -8.144 -12.335  1.00  0.00    -0.020 C 
HETATM   56  C22 UNL     1      28.342  -8.296 -13.118  1.00  0.00     0.009 C 
HETATM   57  C23 UNL     1      27.143  -6.972 -11.373  1.00  0.00     0.009 C 
ENDBRANCH  54  55
ENDBRANCH  15  54
BRANCH  18  58
HETATM   58  O4  UNL     1      24.414  -8.759 -15.279  1.00  0.00    -0.345 OA
ATOM     59  H4  UNL     1      24.512  -8.864 -16.218  1.00  0.00     0.219 HD
ENDBRANCH  18  58
TORSDOF 15
ENDMDL
MODEL 5
REMARK VINA RESULT: -6.094691322      2.234      9.106
REMARK  15 active torsions:
REMARK  status: ('A' for Active; 'I' for Inactive)
REMARK    1  A    between atoms: C2_2  and  C3_3 
REMARK    2  A    between atoms: C3_3  and  C4_4 
REMARK    3  A    between atoms: C4_4  and  C5_5 
REMARK    4  A    between atoms: C7_10  and  C8_11 
REMARK    5  A    between atoms: C8_11  and  C9_12 
REMARK    6  A    between atoms: C9_12  and  C10_13 
REMARK    7  A    between atoms: C13_19  and  C14_20 
REMARK    8  A    between atoms: C14_20  and  C15_21 
REMARK    9  A    between atoms: C18_26  and  O3_27 
REMARK   10  A    between atoms: C19_29  and  C20_30 
REMARK   11  A    between atoms: C20_30  and  C21_31 
REMARK   12  A    between atoms: C24_36  and  O4_37 
REMARK   13  A    between atoms: C25_39  and  C26_40 
REMARK   14  A    between atoms: C30_47  and  C31_48 
REMARK   15  A    between atoms: C34_53  and  O6_54 
ROOT
HETATM    1  C5  UNL     1      26.140  -8.789 -11.647  1.00  0.00     0.177 C 
HETATM    2  N1  UNL     1      24.931  -9.180 -10.969  1.00  0.00    -0.346 N 
ATOM      3  H1  UNL     1      24.939 -10.149 -10.652  1.00  0.00     0.163 HD
HETATM    4  C6  UNL     1      23.761  -8.505 -10.662  1.00  0.00     0.241 C 
HETATM    5  O1  UNL     1      22.700  -8.824 -11.325  1.00  0.00    -0.271 OA
HETATM    6  C7  UNL     1      23.518  -7.438  -9.656  1.00  0.00     0.176 C 
HETATM    7  N2  UNL     1      22.649  -6.395 -10.128  1.00  0.00    -0.346 N 
ATOM      8  H2  UNL     1      23.069  -5.783 -10.828  1.00  0.00     0.163 HD
HETATM    9  C12 UNL     1      21.321  -6.069  -9.792  1.00  0.00     0.241 C 
HETATM   10  O2  UNL     1      21.122  -4.889  -9.344  1.00  0.00    -0.271 OA
HETATM   11  C13 UNL     1      20.105  -6.889  -9.887  1.00  0.00     0.175 C 
HETATM   12  N3  UNL     1      19.354  -6.489 -11.105  1.00  0.00    -0.359 N 
ATOM     13  H3  UNL     1      18.869  -5.595 -11.034  1.00  0.00     0.162 HD
HETATM   14  C18 UNL     1      19.206  -7.133 -12.323  1.00  0.00     0.135 C 
HETATM   15  C19 UNL     1      18.570  -8.419 -12.693  1.00  0.00     0.158 C 
HETATM   16  N4  UNL     1      19.356  -9.597 -12.430  1.00  0.00    -0.357 N 
ATOM     17  H4  UNL     1      19.558  -9.711 -11.437  1.00  0.00     0.162 HD
HETATM   18  C24 UNL     1      19.897 -10.597 -13.179  1.00  0.00     0.160 C 
HETATM   19  C25 UNL     1      19.828 -11.051 -14.575  1.00  0.00     0.066 C 
HETATM   20  N5  UNL     1      20.833 -12.039 -14.911  1.00  0.00    -0.325 N 
ATOM     21  H5  UNL     1      20.685 -12.920 -14.419  1.00  0.00     0.169 HD
HETATM   22  C29 UNL     1      21.941 -12.083 -15.731  1.00  0.00     0.245 C 
HETATM   23  O5  UNL     1      22.012 -12.929 -16.671  1.00  0.00    -0.271 OA
HETATM   24  C30 UNL     1      23.214 -11.261 -15.752  1.00  0.00     0.181 C 
HETATM   25  N6  UNL     1      23.528 -10.789 -14.427  1.00  0.00    -0.343 N 
ATOM     26  H6  UNL     1      22.955  -9.996 -14.135  1.00  0.00     0.164 HD
HETATM   27  C34 UNL     1      24.453 -11.189 -13.458  1.00  0.00     0.220 C 
HETATM   28  N7  UNL     1      25.794 -10.841 -13.200  1.00  0.00    -0.291 N 
ATOM     29  H7  UNL     1      26.446 -11.623 -13.254  1.00  0.00     0.172 HD
HETATM   30  C35 UNL     1      26.389  -9.621 -12.886  1.00  0.00     0.247 C 
HETATM   31  O7  UNL     1      27.242  -9.104 -13.689  1.00  0.00    -0.271 OA
ENDROOT
BRANCH   1  32
HETATM   32  C4  UNL     1      27.395  -9.001 -10.815  1.00  0.00     0.035 C 
BRANCH  32  33
HETATM   33  C3  UNL     1      28.062  -7.722 -10.416  1.00  0.00     0.002 C 
BRANCH  33  34
HETATM   34  C2  UNL     1      27.838  -6.621 -11.430  1.00  0.00    -0.004 C 
HETATM   35  C1  UNL     1      28.597  -5.365 -11.069  1.00  0.00     0.005 C 
ENDBRANCH  33  34
ENDBRANCH  32  33
ENDBRANCH   1  32
BRANCH   6  36
HETATM   36  C8  UNL     1      24.872  -6.842  -9.215  1.00  0.00     0.035 C 
BRANCH  36  37
HETATM   37  C9  UNL     1      24.928  -5.383  -9.610  1.00  0.00     0.002 C 
BRANCH  37  38
HETATM   38  C10 UNL     1      25.808  -4.581  -8.702  1.00  0.00    -0.004 C 
HETATM   39  C11 UNL     1      26.638  -5.430  -7.782  1.00  0.00     0.005 C 
ENDBRANCH  37  38
ENDBRANCH  36  37
ENDBRANCH   6  36
BRANCH  27  40
HETATM   40  O6  UNL     1      23.996 -12.067 -12.597  1.00  0.00    -0.332 OA
ATOM     41  H6  UNL     1      24.589 -12.263 -11.881  1.00  0.00     0.220 HD
ENDBRANCH  27  40
BRANCH  24  42
HETATM   42  C31 UNL     1      24.362 -11.927 -16.425  1.00  0.00     0.009 C 
HETATM   43  C32 UNL     1      25.597 -11.077 -16.575  1.00  0.00     0.012 C 
HETATM   44  C33 UNL     1      24.832 -13.140 -15.601  1.00  0.00     0.012 C 
ENDBRANCH  24  42
BRANCH  11  45
HETATM   45  C14 UNL     1      19.207  -6.749  -8.701  1.00  0.00     0.038 C 
BRANCH  45  46
HETATM   46  C15 UNL     1      17.848  -7.315  -8.740  1.00  0.00    -0.020 C 
HETATM   47  C16 UNL     1      17.558  -8.620  -8.116  1.00  0.00     0.009 C 
HETATM   48  C17 UNL     1      16.825  -6.249  -8.339  1.00  0.00     0.009 C 
ENDBRANCH  45  46
ENDBRANCH  11  45
BRANCH  14  49
HETATM   49  O3  UNL     1      19.709  -6.514 -13.358  1.00  0.00    -0.348 OA
ATOM     50  H3  UNL     1      19.299  -6.705 -14.193  1.00  0.00     0.219 HD
ENDBRANCH  14  49
BRANCH  19  51
HETATM   51  C26 UNL     1      19.487 -10.094 -15.638  1.00  0.00     0.032 C 
HETATM   52  C27 UNL     1      19.980 -10.328 -17.017  1.00  0.00     0.016 C 
HETATM   53  C28 UNL     1      17.948 -10.100 -15.759  1.00  0.00     0.016 C 
ENDBRANCH  19  51
BRANCH  15  54
HETATM   54  C20 UNL     1      17.226  -8.600 -11.929  1.00  0.00     0.037 C 
BRANCH  54  55
HETATM   55  C21 UNL     1      16.230  -7.565 -12.353  1.00  0.00    -0.020 C 
HETATM   56  C22 UNL     1      15.122  -7.468 -11.359  1.00  0.00     0.009 C 
HETATM   57  C23 UNL     1      15.727  -7.935 -13.736  1.00  0.00     0.009 C 
ENDBRANCH  54  55
ENDBRANCH  15  54
BRANCH  18  58
HETATM   58  O4  UNL     1      20.695 -11.378 -12.492  1.00  0.00    -0.345 OA
ATOM     59  H4  UNL     1      21.530 -11.527 -12.922  1.00  0.00     0.219 HD
ENDBRANCH  18  58
TORSDOF 15
ENDMDL
