MODEL 1
REMARK VINA RESULT: -7.660088613      0.000      0.000
REMARK  15 active torsions:
REMARK  status: ('A' for Active; 'I' for Inactive)
REMARK    1  A    between atoms: C2_2  and  C3_3 
REMARK    2  A    between atoms: C3_3  and  C4_4 
REMARK    3  A    between atoms: C6_9  and  C7_10 
REMARK    4  A    between atoms: C7_10  and  C8_11 
REMARK    5  A    between atoms: C11_16  and  O2_17 
REMARK    6  A    between atoms: C12_19  and  C13_20 
REMARK    7  A    between atoms: C17_27  and  C18_28 
REMARK    8  A    between atoms: C18_28  and  C19_29 
REMARK    9  A    between atoms: C22_34  and  O4_35 
REMARK   10  A    between atoms: C23_37  and  C24_38 
REMARK   11  A    between atoms: C29_45  and  C30_46 
REMARK   12  A    between atoms: C30_46  and  C31_47 
REMARK   13  A    between atoms: C31_47  and  C32_48 
REMARK   14  A    between atoms: C32_48  and  N6_49 
REMARK   15  A    between atoms: C34_56  and  O6_57 
ROOT
HETATM    1  C4  UNL     1      11.580  -7.373  -9.708  1.00  0.00     0.159 C 
HETATM    2  N1  UNL     1      11.706  -8.658  -9.104  1.00  0.00    -0.347 N 
ATOM      3  H1  UNL     1      10.984  -9.330  -9.363  1.00  0.00     0.163 HD
HETATM    4  C5  UNL     1      12.681  -9.143  -8.199  1.00  0.00     0.241 C 
HETATM    5  O1  UNL     1      13.235 -10.252  -8.464  1.00  0.00    -0.271 OA
HETATM    6  C6  UNL     1      13.136  -8.491  -6.950  1.00  0.00     0.175 C 
HETATM    7  N2  UNL     1      12.803  -9.466  -5.886  1.00  0.00    -0.359 N 
ATOM      8  H2  UNL     1      13.105 -10.424  -6.064  1.00  0.00     0.162 HD
HETATM    9  C11 UNL     1      12.147  -9.273  -4.692  1.00  0.00     0.135 C 
HETATM   10  C12 UNL     1      11.467  -8.093  -4.136  1.00  0.00     0.162 C 
HETATM   11  N3  UNL     1      10.250  -7.778  -4.861  1.00  0.00    -0.347 N 
ATOM     12  H3  UNL     1      10.295  -7.879  -5.874  1.00  0.00     0.163 HD
HETATM   13  C16 UNL     1       9.026  -7.352  -4.341  1.00  0.00     0.241 C 
HETATM   14  O3  UNL     1       8.575  -6.248  -4.830  1.00  0.00    -0.271 OA
HETATM   15  C17 UNL     1       8.153  -7.947  -3.322  1.00  0.00     0.175 C 
HETATM   16  N4  UNL     1       6.752  -7.680  -3.677  1.00  0.00    -0.359 N 
ATOM     17  H4  UNL     1       6.095  -7.640  -2.897  1.00  0.00     0.162 HD
HETATM   18  C22 UNL     1       6.208  -7.475  -4.941  1.00  0.00     0.136 C 
HETATM   19  C23 UNL     1       6.351  -8.212  -6.200  1.00  0.00     0.164 C 
HETATM   20  N5  UNL     1       6.015  -7.388  -7.347  1.00  0.00    -0.342 N 
HETATM   21  C27 UNL     1       4.616  -7.030  -7.653  1.00  0.00     0.153 C 
HETATM   22  C28 UNL     1       6.935  -6.840  -8.273  1.00  0.00     0.243 C 
HETATM   23  O5  UNL     1       6.795  -5.629  -8.696  1.00  0.00    -0.271 OA
HETATM   24  C29 UNL     1       8.127  -7.520  -8.868  1.00  0.00     0.175 C 
HETATM   25  N9  UNL     1       9.325  -6.752  -8.548  1.00  0.00    -0.359 N 
ATOM     26  H9  UNL     1       9.283  -6.304  -7.632  1.00  0.00     0.162 HD
HETATM   27  C34 UNL     1      10.504  -6.502  -9.221  1.00  0.00     0.135 C 
ENDROOT
BRANCH  24  28
HETATM   28  C30 UNL     1       7.852  -7.561 -10.347  1.00  0.00     0.036 C 
BRANCH  28  29
HETATM   29  C31 UNL     1       7.650  -8.901 -10.938  1.00  0.00     0.022 C 
BRANCH  29  30
HETATM   30  C32 UNL     1       8.633  -9.839 -10.210  1.00  0.00     0.122 C 
BRANCH  30  31
HETATM   31  N6  UNL     1       7.943 -10.909  -9.552  1.00  0.00    -0.367 N 
HETATM   32  C33 UNL     1       7.920 -11.010  -8.278  1.00  0.00     0.196 C 
HETATM   33  N7  UNL     1       8.572 -10.074  -7.431  1.00  0.00    -0.067 NA
HETATM   34  N8  UNL     1       7.221 -12.088  -7.669  1.00  0.00    -0.067 NA
ATOM     35  H6  UNL     1       7.458 -11.608 -10.115  1.00  0.00     0.161 HD
ENDBRANCH  30  31
ENDBRANCH  29  30
ENDBRANCH  28  29
ENDBRANCH  24  28
BRANCH  27  36
HETATM   36  O6  UNL     1      10.715  -5.239  -9.475  1.00  0.00    -0.348 OA
ATOM     37  H6  UNL     1      10.602  -4.684  -8.713  1.00  0.00     0.219 HD
ENDBRANCH  27  36
BRANCH  19  38
HETATM   38  C24 UNL     1       5.673  -9.542  -6.218  1.00  0.00     0.008 C 
HETATM   39  C25 UNL     1       4.773  -9.828  -5.043  1.00  0.00     0.012 C 
HETATM   40  C26 UNL     1       4.868  -9.750  -7.512  1.00  0.00     0.012 C 
ENDBRANCH  19  38
BRANCH   1  41
HETATM   41  C3  UNL     1      11.660  -7.565 -11.207  1.00  0.00     0.033 C 
BRANCH  41  42
HETATM   42  C2  UNL     1      12.844  -8.367 -11.659  1.00  0.00    -0.002 C 
HETATM   43  C1  UNL     1      14.023  -7.384 -11.709  1.00  0.00     0.005 C 
ENDBRANCH  41  42
ENDBRANCH   1  41
BRANCH  18  44
HETATM   44  O4  UNL     1       5.426  -6.439  -5.018  1.00  0.00    -0.348 OA
ATOM     45  H4  UNL     1       4.790  -6.488  -5.722  1.00  0.00     0.219 HD
ENDBRANCH  18  44
BRANCH  15  46
HETATM   46  C18 UNL     1       8.302  -9.413  -3.092  1.00  0.00     0.038 C 
BRANCH  46  47
HETATM   47  C19 UNL     1       7.662  -9.978  -1.862  1.00  0.00    -0.020 C 
HETATM   48  C20 UNL     1       7.368  -8.888  -0.834  1.00  0.00     0.009 C 
HETATM   49  C21 UNL     1       6.465 -10.814  -1.991  1.00  0.00     0.009 C 
ENDBRANCH  46  47
ENDBRANCH  15  46
BRANCH   6  50
HETATM   50  C7  UNL     1      14.592  -8.327  -6.852  1.00  0.00     0.038 C 
BRANCH  50  51
HETATM   51  C8  UNL     1      15.457  -8.039  -7.994  1.00  0.00    -0.020 C 
HETATM   52  C9  UNL     1      16.851  -8.533  -7.920  1.00  0.00     0.009 C 
HETATM   53  C10 UNL     1      15.419  -6.601  -8.415  1.00  0.00     0.009 C 
ENDBRANCH  50  51
ENDBRANCH   6  50
BRANCH   9  54
HETATM   54  O2  UNL     1      12.113 -10.307  -3.903  1.00  0.00    -0.348 OA
ATOM     55  H2  UNL     1      11.644 -11.061  -4.243  1.00  0.00     0.219 HD
ENDBRANCH   9  54
BRANCH  10  56
HETATM   56  C13 UNL     1      12.330  -6.879  -3.943  1.00  0.00     0.008 C 
HETATM   57  C14 UNL     1      13.796  -7.299  -3.740  1.00  0.00     0.012 C 
HETATM   58  C15 UNL     1      11.935  -6.179  -2.656  1.00  0.00     0.012 C 
ENDBRANCH  10  56
TORSDOF 15
ENDMDL
MODEL 2
REMARK VINA RESULT: -7.421613107     10.478     15.921
REMARK  15 active torsions:
REMARK  status: ('A' for Active; 'I' for Inactive)
REMARK    1  A    between atoms: C2_2  and  C3_3 
REMARK    2  A    between atoms: C3_3  and  C4_4 
REMARK    3  A    between atoms: C6_9  and  C7_10 
REMARK    4  A    between atoms: C7_10  and  C8_11 
REMARK    5  A    between atoms: C11_16  and  O2_17 
REMARK    6  A    between atoms: C12_19  and  C13_20 
REMARK    7  A    between atoms: C17_27  and  C18_28 
REMARK    8  A    between atoms: C18_28  and  C19_29 
REMARK    9  A    between atoms: C22_34  and  O4_35 
REMARK   10  A    between atoms: C23_37  and  C24_38 
REMARK   11  A    between atoms: C29_45  and  C30_46 
REMARK   12  A    between atoms: C30_46  and  C31_47 
REMARK   13  A    between atoms: C31_47  and  C32_48 
REMARK   14  A    between atoms: C32_48  and  N6_49 
REMARK   15  A    between atoms: C34_56  and  O6_57 
ROOT
HETATM    1  C4  UNL     1      18.403  -8.806 -14.580  1.00  0.00     0.159 C 
HETATM    2  N1  UNL     1      19.222  -7.881 -13.868  1.00  0.00    -0.347 N 
ATOM      3  H1  UNL     1      19.807  -7.283 -14.452  1.00  0.00     0.163 HD
HETATM    4  C5  UNL     1      19.348  -7.666 -12.474  1.00  0.00     0.241 C 
HETATM    5  O1  UNL     1      19.263  -6.475 -12.049  1.00  0.00    -0.271 OA
HETATM    6  C6  UNL     1      19.574  -8.694 -11.433  1.00  0.00     0.175 C 
HETATM    7  N2  UNL     1      20.862  -8.309 -10.811  1.00  0.00    -0.359 N 
ATOM      8  H2  UNL     1      20.936  -7.328 -10.540  1.00  0.00     0.162 HD
HETATM    9  C11 UNL     1      21.971  -9.076 -10.544  1.00  0.00     0.135 C 
HETATM   10  C12 UNL     1      22.294 -10.471 -10.884  1.00  0.00     0.162 C 
HETATM   11  N3  UNL     1      22.512 -10.645 -12.307  1.00  0.00    -0.347 N 
ATOM     12  H3  UNL     1      21.882 -10.129 -12.922  1.00  0.00     0.163 HD
HETATM   13  C16 UNL     1      23.477 -11.432 -12.939  1.00  0.00     0.241 C 
HETATM   14  O3  UNL     1      23.018 -12.292 -13.783  1.00  0.00    -0.271 OA
HETATM   15  C17 UNL     1      24.938 -11.453 -12.809  1.00  0.00     0.175 C 
HETATM   16  N4  UNL     1      25.531 -11.765 -14.118  1.00  0.00    -0.359 N 
ATOM     17  H4  UNL     1      26.441 -12.225 -14.096  1.00  0.00     0.162 HD
HETATM   18  C22 UNL     1      25.007 -11.514 -15.382  1.00  0.00     0.136 C 
HETATM   19  C23 UNL     1      24.414 -10.311 -15.975  1.00  0.00     0.164 C 
HETATM   20  N5  UNL     1      23.577 -10.631 -17.117  1.00  0.00    -0.342 N 
HETATM   21  C27 UNL     1      24.162 -11.045 -18.408  1.00  0.00     0.153 C 
HETATM   22  C28 UNL     1      22.163 -10.599 -17.143  1.00  0.00     0.243 C 
HETATM   23  O5  UNL     1      21.497 -11.534 -17.733  1.00  0.00    -0.271 OA
HETATM   24  C29 UNL     1      21.274  -9.557 -16.540  1.00  0.00     0.175 C 
HETATM   25  N9  UNL     1      20.375 -10.192 -15.582  1.00  0.00    -0.359 N 
ATOM     26  H9  UNL     1      20.801 -10.978 -15.090  1.00  0.00     0.162 HD
HETATM   27  C34 UNL     1      19.069  -9.955 -15.201  1.00  0.00     0.135 C 
ENDROOT
BRANCH  24  28
HETATM   28  C30 UNL     1      20.536  -8.955 -17.705  1.00  0.00     0.036 C 
BRANCH  28  29
HETATM   29  C31 UNL     1      21.310  -8.030 -18.562  1.00  0.00     0.022 C 
BRANCH  29  30
HETATM   30  C32 UNL     1      21.079  -8.503 -20.011  1.00  0.00     0.122 C 
BRANCH  30  31
HETATM   31  N6  UNL     1      20.708  -7.411 -20.863  1.00  0.00    -0.367 N 
HETATM   32  C33 UNL     1      20.720  -7.521 -22.137  1.00  0.00     0.196 C 
HETATM   33  N7  UNL     1      21.099  -8.723 -22.791  1.00  0.00    -0.067 NA
HETATM   34  N8  UNL     1      20.343  -6.411 -22.942  1.00  0.00    -0.067 NA
ATOM     35  H6  UNL     1      20.428  -6.525 -20.442  1.00  0.00     0.161 HD
ENDBRANCH  30  31
ENDBRANCH  29  30
ENDBRANCH  28  29
ENDBRANCH  24  28
BRANCH  27  36
HETATM   36  O6  UNL     1      18.258 -10.952 -15.431  1.00  0.00    -0.348 OA
ATOM     37  H6  UNL     1      18.402 -11.360 -16.277  1.00  0.00     0.219 HD
ENDBRANCH  27  36
BRANCH  19  38
HETATM   38  C24 UNL     1      25.389  -9.216 -16.255  1.00  0.00     0.008 C 
HETATM   39  C25 UNL     1      26.731  -9.659 -16.779  1.00  0.00     0.012 C 
HETATM   40  C26 UNL     1      24.806  -8.172 -17.223  1.00  0.00     0.012 C 
ENDBRANCH  19  38
BRANCH   1  41
HETATM   41  C3  UNL     1      17.480  -8.004 -15.471  1.00  0.00     0.033 C 
BRANCH  41  42
HETATM   42  C2  UNL     1      16.054  -7.973 -15.005  1.00  0.00    -0.002 C 
HETATM   43  C1  UNL     1      15.317  -9.033 -15.837  1.00  0.00     0.005 C 
ENDBRANCH  41  42
ENDBRANCH   1  41
BRANCH  18  44
HETATM   44  O4  UNL     1      25.056 -12.534 -16.186  1.00  0.00    -0.348 OA
ATOM     45  H4  UNL     1      24.300 -12.611 -16.757  1.00  0.00     0.219 HD
ENDBRANCH  18  44
BRANCH  15  46
HETATM   46  C18 UNL     1      25.579 -10.209 -12.295  1.00  0.00     0.038 C 
BRANCH  46  47
HETATM   47  C19 UNL     1      26.229 -10.284 -10.948  1.00  0.00    -0.020 C 
HETATM   48  C20 UNL     1      26.384  -8.899 -10.324  1.00  0.00     0.009 C 
HETATM   49  C21 UNL     1      25.677 -11.181  -9.929  1.00  0.00     0.009 C 
ENDBRANCH  46  47
ENDBRANCH  15  46
BRANCH   6  50
HETATM   50  C7  UNL     1      18.608  -8.655 -10.327  1.00  0.00     0.038 C 
BRANCH  50  51
HETATM   51  C8  UNL     1      18.938  -8.214  -8.974  1.00  0.00    -0.020 C 
HETATM   52  C9  UNL     1      18.529  -9.101  -7.861  1.00  0.00     0.009 C 
HETATM   53  C10 UNL     1      18.540  -6.793  -8.703  1.00  0.00     0.009 C 
ENDBRANCH  50  51
ENDBRANCH   6  50
BRANCH   9  54
HETATM   54  O2  UNL     1      22.912  -8.478  -9.873  1.00  0.00    -0.348 OA
ATOM     55  H2  UNL     1      22.613  -7.918  -9.166  1.00  0.00     0.219 HD
ENDBRANCH   9  54
BRANCH  10  56
HETATM   56  C13 UNL     1      21.356 -11.506 -10.333  1.00  0.00     0.008 C 
HETATM   57  C14 UNL     1      22.097 -12.839 -10.132  1.00  0.00     0.012 C 
HETATM   58  C15 UNL     1      20.275 -11.802 -11.355  1.00  0.00     0.012 C 
ENDBRANCH  10  56
TORSDOF 15
ENDMDL
MODEL 3
REMARK VINA RESULT: -7.395646573     10.656     16.002
REMARK  15 active torsions:
REMARK  status: ('A' for Active; 'I' for Inactive)
REMARK    1  A    between atoms: C2_2  and  C3_3 
REMARK    2  A    between atoms: C3_3  and  C4_4 
REMARK    3  A    between atoms: C6_9  and  C7_10 
REMARK    4  A    between atoms: C7_10  and  C8_11 
REMARK    5  A    between atoms: C11_16  and  O2_17 
REMARK    6  A    between atoms: C12_19  and  C13_20 
REMARK    7  A    between atoms: C17_27  and  C18_28 
REMARK    8  A    between atoms: C18_28  and  C19_29 
REMARK    9  A    between atoms: C22_34  and  O4_35 
REMARK   10  A    between atoms: C23_37  and  C24_38 
REMARK   11  A    between atoms: C29_45  and  C30_46 
REMARK   12  A    between atoms: C30_46  and  C31_47 
REMARK   13  A    between atoms: C31_47  and  C32_48 
REMARK   14  A    between atoms: C32_48  and  N6_49 
REMARK   15  A    between atoms: C34_56  and  O6_57 
ROOT
HETATM    1  C4  UNL     1      18.593  -8.917 -14.671  1.00  0.00     0.159 C 
HETATM    2  N1  UNL     1      19.437  -8.011 -13.964  1.00  0.00    -0.347 N 
ATOM      3  H1  UNL     1      20.049  -7.443 -14.550  1.00  0.00     0.163 HD
HETATM    4  C5  UNL     1      19.553  -7.779 -12.572  1.00  0.00     0.241 C 
HETATM    5  O1  UNL     1      19.506  -6.579 -12.166  1.00  0.00    -0.271 OA
HETATM    6  C6  UNL     1      19.730  -8.798 -11.512  1.00  0.00     0.175 C 
HETATM    7  N2  UNL     1      21.024  -8.449 -10.881  1.00  0.00    -0.359 N 
ATOM      8  H2  UNL     1      21.130  -7.468 -10.624  1.00  0.00     0.162 HD
HETATM    9  C11 UNL     1      22.102  -9.251 -10.588  1.00  0.00     0.135 C 
HETATM   10  C12 UNL     1      22.379 -10.661 -10.902  1.00  0.00     0.162 C 
HETATM   11  N3  UNL     1      22.607 -10.866 -12.320  1.00  0.00    -0.347 N 
ATOM     12  H3  UNL     1      22.003 -10.338 -12.950  1.00  0.00     0.163 HD
HETATM   13  C16 UNL     1      23.551 -11.696 -12.929  1.00  0.00     0.241 C 
HETATM   14  O3  UNL     1      23.072 -12.553 -13.764  1.00  0.00    -0.271 OA
HETATM   15  C17 UNL     1      25.009 -11.767 -12.781  1.00  0.00     0.175 C 
HETATM   16  N4  UNL     1      25.605 -12.121 -14.076  1.00  0.00    -0.359 N 
ATOM     17  H4  UNL     1      26.498 -12.612 -14.037  1.00  0.00     0.162 HD
HETATM   18  C22 UNL     1      25.106 -11.870 -15.351  1.00  0.00     0.136 C 
HETATM   19  C23 UNL     1      24.563 -10.657 -15.969  1.00  0.00     0.164 C 
HETATM   20  N5  UNL     1      23.728 -10.965 -17.117  1.00  0.00    -0.342 N 
HETATM   21  C27 UNL     1      24.313 -11.420 -18.394  1.00  0.00     0.153 C 
HETATM   22  C28 UNL     1      22.316 -10.883 -17.161  1.00  0.00     0.243 C 
HETATM   23  O5  UNL     1      21.624 -11.803 -17.744  1.00  0.00    -0.271 OA
HETATM   24  C29 UNL     1      21.458  -9.801 -16.584  1.00  0.00     0.175 C 
HETATM   25  N9  UNL     1      20.526 -10.389 -15.628  1.00  0.00    -0.359 N 
ATOM     26  H9  UNL     1      20.918 -11.181 -15.119  1.00  0.00     0.162 HD
HETATM   27  C34 UNL     1      19.225 -10.100 -15.267  1.00  0.00     0.135 C 
ENDROOT
BRANCH  24  28
HETATM   28  C30 UNL     1      20.756  -9.191 -17.767  1.00  0.00     0.036 C 
BRANCH  28  29
HETATM   29  C31 UNL     1      21.618  -8.760 -18.889  1.00  0.00     0.022 C 
BRANCH  29  30
HETATM   30  C32 UNL     1      21.610  -7.219 -18.863  1.00  0.00     0.122 C 
BRANCH  30  31
HETATM   31  N6  UNL     1      22.740  -6.704 -18.148  1.00  0.00    -0.367 N 
HETATM   32  C33 UNL     1      23.039  -5.461 -18.172  1.00  0.00     0.196 C 
HETATM   33  N7  UNL     1      22.276  -4.511 -18.902  1.00  0.00    -0.067 NA
HETATM   34  N8  UNL     1      24.169  -4.994 -17.447  1.00  0.00    -0.067 NA
ATOM     35  H6  UNL     1      23.321  -7.345 -17.608  1.00  0.00     0.161 HD
ENDBRANCH  30  31
ENDBRANCH  29  30
ENDBRANCH  28  29
ENDBRANCH  24  28
BRANCH  27  36
HETATM   36  O6  UNL     1      18.382 -11.070 -15.491  1.00  0.00    -0.348 OA
ATOM     37  H6  UNL     1      18.764 -11.931 -15.367  1.00  0.00     0.219 HD
ENDBRANCH  27  36
BRANCH  19  38
HETATM   38  C24 UNL     1      25.580  -9.601 -16.254  1.00  0.00     0.008 C 
HETATM   39  C25 UNL     1      25.724  -8.537 -15.197  1.00  0.00     0.012 C 
HETATM   40  C26 UNL     1      26.965 -10.209 -16.530  1.00  0.00     0.012 C 
ENDBRANCH  19  38
BRANCH   1  41
HETATM   41  C3  UNL     1      17.710  -8.097 -15.586  1.00  0.00     0.033 C 
BRANCH  41  42
HETATM   42  C2  UNL     1      16.290  -7.975 -15.117  1.00  0.00    -0.002 C 
HETATM   43  C1  UNL     1      15.497  -9.034 -15.897  1.00  0.00     0.005 C 
ENDBRANCH  41  42
ENDBRANCH   1  41
BRANCH  18  44
HETATM   44  O4  UNL     1      25.127 -12.904 -16.139  1.00  0.00    -0.348 OA
ATOM     45  H4  UNL     1      24.853 -12.717 -17.029  1.00  0.00     0.219 HD
ENDBRANCH  18  44
BRANCH  15  46
HETATM   46  C18 UNL     1      25.687 -10.538 -12.277  1.00  0.00     0.038 C 
BRANCH  46  47
HETATM   47  C19 UNL     1      26.325 -10.617 -10.924  1.00  0.00    -0.020 C 
HETATM   48  C20 UNL     1      26.523  -9.230 -10.318  1.00  0.00     0.009 C 
HETATM   49  C21 UNL     1      25.734 -11.481  -9.898  1.00  0.00     0.009 C 
ENDBRANCH  46  47
ENDBRANCH  15  46
BRANCH   6  50
HETATM   50  C7  UNL     1      18.754  -8.707 -10.420  1.00  0.00     0.038 C 
BRANCH  50  51
HETATM   51  C8  UNL     1      19.087  -8.274  -9.064  1.00  0.00    -0.020 C 
HETATM   52  C9  UNL     1      18.655  -9.153  -7.954  1.00  0.00     0.009 C 
HETATM   53  C10 UNL     1      18.717  -6.846  -8.794  1.00  0.00     0.009 C 
ENDBRANCH  50  51
ENDBRANCH   6  50
BRANCH   9  54
HETATM   54  O2  UNL     1      23.055  -8.676  -9.915  1.00  0.00    -0.348 OA
ATOM     55  H2  UNL     1      23.930  -9.006 -10.087  1.00  0.00     0.219 HD
ENDBRANCH   9  54
BRANCH  10  56
HETATM   56  C13 UNL     1      21.398 -11.653 -10.347  1.00  0.00     0.008 C 
HETATM   57  C14 UNL     1      22.108 -12.983 -10.035  1.00  0.00     0.012 C 
HETATM   58  C15 UNL     1      20.368 -11.992 -11.408  1.00  0.00     0.012 C 
ENDBRANCH  10  56
TORSDOF 15
ENDMDL
MODEL 4
REMARK VINA RESULT: -7.360770944     10.018     15.900
REMARK  15 active torsions:
REMARK  status: ('A' for Active; 'I' for Inactive)
REMARK    1  A    between atoms: C2_2  and  C3_3 
REMARK    2  A    between atoms: C3_3  and  C4_4 
REMARK    3  A    between atoms: C6_9  and  C7_10 
REMARK    4  A    between atoms: C7_10  and  C8_11 
REMARK    5  A    between atoms: C11_16  and  O2_17 
REMARK    6  A    between atoms: C12_19  and  C13_20 
REMARK    7  A    between atoms: C17_27  and  C18_28 
REMARK    8  A    between atoms: C18_28  and  C19_29 
REMARK    9  A    between atoms: C22_34  and  O4_35 
REMARK   10  A    between atoms: C23_37  and  C24_38 
REMARK   11  A    between atoms: C29_45  and  C30_46 
REMARK   12  A    between atoms: C30_46  and  C31_47 
REMARK   13  A    between atoms: C31_47  and  C32_48 
REMARK   14  A    between atoms: C32_48  and  N6_49 
REMARK   15  A    between atoms: C34_56  and  O6_57 
ROOT
HETATM    1  C4  UNL     1      20.572  -8.834 -10.783  1.00  0.00     0.159 C 
HETATM    2  N1  UNL     1      21.441  -7.786 -11.205  1.00  0.00    -0.347 N 
ATOM      3  H1  UNL     1      21.096  -7.226 -11.984  1.00  0.00     0.163 HD
HETATM    4  C5  UNL     1      22.711  -7.406 -10.706  1.00  0.00     0.241 C 
HETATM    5  O1  UNL     1      22.898  -6.180 -10.440  1.00  0.00    -0.271 OA
HETATM    6  C6  UNL     1      23.870  -8.291 -10.457  1.00  0.00     0.175 C 
HETATM    7  N2  UNL     1      24.933  -7.761 -11.341  1.00  0.00    -0.359 N 
ATOM      8  H2  UNL     1      25.080  -6.753 -11.287  1.00  0.00     0.162 HD
HETATM    9  C11 UNL     1      25.753  -8.424 -12.224  1.00  0.00     0.135 C 
HETATM   10  C12 UNL     1      25.771  -9.827 -12.668  1.00  0.00     0.162 C 
HETATM   11  N3  UNL     1      24.619 -10.151 -13.488  1.00  0.00    -0.347 N 
ATOM     12  H3  UNL     1      23.731  -9.748 -13.189  1.00  0.00     0.163 HD
HETATM   13  C16 UNL     1      24.576 -10.947 -14.634  1.00  0.00     0.241 C 
HETATM   14  O3  UNL     1      23.736 -11.924 -14.594  1.00  0.00    -0.271 OA
HETATM   15  C17 UNL     1      25.328 -10.865 -15.892  1.00  0.00     0.175 C 
HETATM   16  N4  UNL     1      24.459 -11.291 -16.998  1.00  0.00    -0.359 N 
ATOM     17  H4  UNL     1      24.933 -11.690 -17.809  1.00  0.00     0.162 HD
HETATM   18  C22 UNL     1      23.071 -11.218 -17.080  1.00  0.00     0.136 C 
HETATM   19  C23 UNL     1      22.130 -10.129 -16.803  1.00  0.00     0.164 C 
HETATM   20  N5  UNL     1      20.790 -10.628 -16.551  1.00  0.00    -0.342 N 
HETATM   21  C27 UNL     1      19.946 -11.152 -17.643  1.00  0.00     0.153 C 
HETATM   22  C28 UNL     1      20.149 -10.684 -15.291  1.00  0.00     0.243 C 
HETATM   23  O5  UNL     1      19.455 -11.719 -14.953  1.00  0.00    -0.271 OA
HETATM   24  C29 UNL     1      20.166  -9.635 -14.224  1.00  0.00     0.175 C 
HETATM   25  N9  UNL     1      20.712 -10.207 -12.998  1.00  0.00    -0.359 N 
ATOM     26  H9  UNL     1      21.438 -10.904 -13.169  1.00  0.00     0.162 HD
HETATM   27  C34 UNL     1      20.456 -10.006 -11.657  1.00  0.00     0.135 C 
ENDROOT
BRANCH  24  28
HETATM   28  C30 UNL     1      18.729  -9.215 -14.069  1.00  0.00     0.036 C 
BRANCH  28  29
HETATM   29  C31 UNL     1      18.480  -7.762 -13.954  1.00  0.00     0.022 C 
BRANCH  29  30
HETATM   30  C32 UNL     1      17.095  -7.621 -13.293  1.00  0.00     0.122 C 
BRANCH  30  31
HETATM   31  N6  UNL     1      16.186  -8.624 -13.766  1.00  0.00    -0.367 N 
HETATM   32  C33 UNL     1      15.440  -8.425 -14.785  1.00  0.00     0.196 C 
HETATM   33  N7  UNL     1      15.459  -7.205 -15.513  1.00  0.00    -0.067 NA
HETATM   34  N8  UNL     1      14.554  -9.448 -15.220  1.00  0.00    -0.067 NA
ATOM     35  H6  UNL     1      16.134  -9.518 -13.278  1.00  0.00     0.161 HD
ENDBRANCH  30  31
ENDBRANCH  29  30
ENDBRANCH  28  29
ENDBRANCH  24  28
BRANCH  27  36
HETATM   36  O6  UNL     1      20.028 -11.069 -11.032  1.00  0.00    -0.348 OA
ATOM     37  H6  UNL     1      20.662 -11.776 -11.025  1.00  0.00     0.219 HD
ENDBRANCH  27  36
BRANCH  19  38
HETATM   38  C24 UNL     1      22.161  -9.017 -17.799  1.00  0.00     0.008 C 
HETATM   39  C25 UNL     1      23.160  -7.924 -17.520  1.00  0.00     0.012 C 
HETATM   40  C26 UNL     1      22.393  -9.541 -19.226  1.00  0.00     0.012 C 
ENDBRANCH  19  38
BRANCH   1  41
HETATM   41  C3  UNL     1      19.272  -8.197 -10.340  1.00  0.00     0.033 C 
BRANCH  41  42
HETATM   42  C2  UNL     1      19.195  -7.924  -8.867  1.00  0.00    -0.002 C 
HETATM   43  C1  UNL     1      18.459  -9.124  -8.254  1.00  0.00     0.005 C 
ENDBRANCH  41  42
ENDBRANCH   1  41
BRANCH  18  44
HETATM   44  O4  UNL     1      22.508 -12.320 -17.479  1.00  0.00    -0.348 OA
ATOM     45  H4  UNL     1      21.989 -12.223 -18.269  1.00  0.00     0.219 HD
ENDBRANCH  18  44
BRANCH  15  46
HETATM   46  C18 UNL     1      25.903  -9.534 -16.238  1.00  0.00     0.038 C 
BRANCH  46  47
HETATM   47  C19 UNL     1      27.396  -9.422 -16.263  1.00  0.00    -0.020 C 
HETATM   48  C20 UNL     1      27.850  -7.971 -16.122  1.00  0.00     0.009 C 
HETATM   49  C21 UNL     1      28.197 -10.239 -15.346  1.00  0.00     0.009 C 
ENDBRANCH  46  47
ENDBRANCH  15  46
BRANCH   6  50
HETATM   50  C7  UNL     1      24.432  -8.183  -9.105  1.00  0.00     0.038 C 
BRANCH  50  51
HETATM   51  C8  UNL     1      25.843  -7.921  -8.829  1.00  0.00    -0.020 C 
HETATM   52  C9  UNL     1      26.663  -9.070  -8.382  1.00  0.00     0.009 C 
HETATM   53  C10 UNL     1      26.060  -6.730  -7.943  1.00  0.00     0.009 C 
ENDBRANCH  50  51
ENDBRANCH   6  50
BRANCH   9  54
HETATM   54  O2  UNL     1      26.681  -7.698 -12.775  1.00  0.00    -0.348 OA
ATOM     55  H2  UNL     1      27.573  -7.967 -12.584  1.00  0.00     0.219 HD
ENDBRANCH   9  54
BRANCH  10  56
HETATM   56  C13 UNL     1      25.989 -10.846 -11.587  1.00  0.00     0.008 C 
HETATM   57  C14 UNL     1      26.901 -11.975 -12.099  1.00  0.00     0.012 C 
HETATM   58  C15 UNL     1      24.672 -11.519 -11.254  1.00  0.00     0.012 C 
ENDBRANCH  10  56
TORSDOF 15
ENDMDL
MODEL 5
REMARK VINA RESULT: -7.111293982     10.985     16.240
REMARK  15 active torsions:
REMARK  status: ('A' for Active; 'I' for Inactive)
REMARK    1  A    between atoms: C2_2  and  C3_3 
REMARK    2  A    between atoms: C3_3  and  C4_4 
REMARK    3  A    between atoms: C6_9  and  C7_10 
REMARK    4  A    between atoms: C7_10  and  C8_11 
REMARK    5  A    between atoms: C11_16  and  O2_17 
REMARK    6  A    between atoms: C12_19  and  C13_20 
REMARK    7  A    between atoms: C17_27  and  C18_28 
REMARK    8  A    between atoms: C18_28  and  C19_29 
REMARK    9  A    between atoms: C22_34  and  O4_35 
REMARK   10  A    between atoms: C23_37  and  C24_38 
REMARK   11  A    between atoms: C29_45  and  C30_46 
REMARK   12  A    between atoms: C30_46  and  C31_47 
REMARK   13  A    between atoms: C31_47  and  C32_48 
REMARK   14  A    between atoms: C32_48  and  N6_49 
REMARK   15  A    between atoms: C34_56  and  O6_57 
ROOT
HETATM    1  C4  UNL     1      21.412 -11.866 -15.209  1.00  0.00     0.159 C 
HETATM    2  N1  UNL     1      21.416 -10.465 -15.472  1.00  0.00    -0.347 N 
ATOM      3  H1  UNL     1      22.290 -10.098 -15.849  1.00  0.00     0.163 HD
HETATM    4  C5  UNL     1      20.391  -9.505 -15.290  1.00  0.00     0.241 C 
HETATM    5  O1  UNL     1      20.123  -8.734 -16.260  1.00  0.00    -0.271 OA
HETATM    6  C6  UNL     1      19.580  -9.291 -14.070  1.00  0.00     0.175 C 
HETATM    7  N2  UNL     1      19.874  -7.895 -13.674  1.00  0.00    -0.359 N 
ATOM      8  H2  UNL     1      19.802  -7.207 -14.424  1.00  0.00     0.162 HD
HETATM    9  C11 UNL     1      20.229  -7.387 -12.446  1.00  0.00     0.135 C 
HETATM   10  C12 UNL     1      20.547  -8.053 -11.173  1.00  0.00     0.162 C 
HETATM   11  N3  UNL     1      21.800  -8.780 -11.240  1.00  0.00    -0.347 N 
ATOM     12  H3  UNL     1      21.979  -9.283 -12.109  1.00  0.00     0.163 HD
HETATM   13  C16 UNL     1      22.792  -8.875 -10.261  1.00  0.00     0.241 C 
HETATM   14  O3  UNL     1      23.112 -10.076  -9.918  1.00  0.00    -0.271 OA
HETATM   15  C17 UNL     1      23.541  -7.837  -9.545  1.00  0.00     0.175 C 
HETATM   16  N4  UNL     1      24.907  -8.318  -9.296  1.00  0.00    -0.359 N 
ATOM     17  H4  UNL     1      25.376  -7.926  -8.479  1.00  0.00     0.162 HD
HETATM   18  C22 UNL     1      25.644  -9.240 -10.033  1.00  0.00     0.136 C 
HETATM   19  C23 UNL     1      25.898  -9.365 -11.472  1.00  0.00     0.164 C 
HETATM   20  N5  UNL     1      26.292 -10.714 -11.833  1.00  0.00    -0.342 N 
HETATM   21  C27 UNL     1      27.629 -11.241 -11.496  1.00  0.00     0.153 C 
HETATM   22  C28 UNL     1      25.488 -11.659 -12.514  1.00  0.00     0.243 C 
HETATM   23  O5  UNL     1      25.475 -12.896 -12.145  1.00  0.00    -0.271 OA
HETATM   24  C29 UNL     1      24.591 -11.402 -13.684  1.00  0.00     0.175 C 
HETATM   25  N9  UNL     1      23.229 -11.791 -13.336  1.00  0.00    -0.359 N 
ATOM     26  H9  UNL     1      23.001 -11.626 -12.355  1.00  0.00     0.162 HD
HETATM   27  C34 UNL     1      22.182 -12.336 -14.053  1.00  0.00     0.135 C 
ENDROOT
BRANCH  24  28
HETATM   28  C30 UNL     1      25.158 -12.237 -14.799  1.00  0.00     0.036 C 
BRANCH  28  29
HETATM   29  C31 UNL     1      26.244 -11.622 -15.592  1.00  0.00     0.022 C 
BRANCH  29  30
HETATM   30  C32 UNL     1      25.553 -10.884 -16.756  1.00  0.00     0.122 C 
BRANCH  30  31
HETATM   31  N6  UNL     1      25.979  -9.518 -16.833  1.00  0.00    -0.367 N 
HETATM   32  C33 UNL     1      25.179  -8.551 -16.587  1.00  0.00     0.196 C 
HETATM   33  N7  UNL     1      23.822  -8.763 -16.222  1.00  0.00    -0.067 NA
HETATM   34  N8  UNL     1      25.645  -7.211 -16.675  1.00  0.00    -0.067 NA
ATOM     35  H6  UNL     1      26.944  -9.311 -17.092  1.00  0.00     0.161 HD
ENDBRANCH  30  31
ENDBRANCH  29  30
ENDBRANCH  28  29
ENDBRANCH  24  28
BRANCH  27  36
HETATM   36  O6  UNL     1      21.789 -13.502 -13.618  1.00  0.00    -0.348 OA
ATOM     37  H6  UNL     1      22.344 -13.848 -12.929  1.00  0.00     0.219 HD
ENDBRANCH  27  36
BRANCH  19  38
HETATM   38  C24 UNL     1      26.808  -8.321 -12.031  1.00  0.00     0.008 C 
HETATM   39  C25 UNL     1      28.044  -8.036 -11.218  1.00  0.00     0.012 C 
HETATM   40  C26 UNL     1      27.234  -8.654 -13.470  1.00  0.00     0.012 C 
ENDBRANCH  19  38
BRANCH   1  41
HETATM   41  C3  UNL     1      21.671 -12.576 -16.521  1.00  0.00     0.033 C 
BRANCH  41  42
HETATM   42  C2  UNL     1      20.427 -12.978 -17.255  1.00  0.00    -0.002 C 
HETATM   43  C1  UNL     1      20.260 -11.957 -18.391  1.00  0.00     0.005 C 
ENDBRANCH  41  42
ENDBRANCH   1  41
BRANCH  18  44
HETATM   44  O4  UNL     1      26.212 -10.160  -9.311  1.00  0.00    -0.348 OA
ATOM     45  H4  UNL     1      26.967 -10.563  -9.725  1.00  0.00     0.219 HD
ENDBRANCH  18  44
BRANCH  15  46
HETATM   46  C18 UNL     1      23.632  -6.504 -10.209  1.00  0.00     0.038 C 
BRANCH  46  47
HETATM   47  C19 UNL     1      24.124  -5.361  -9.377  1.00  0.00    -0.020 C 
HETATM   48  C20 UNL     1      25.469  -4.841  -9.880  1.00  0.00     0.009 C 
HETATM   49  C21 UNL     1      23.250  -4.207  -9.146  1.00  0.00     0.009 C 
ENDBRANCH  46  47
ENDBRANCH  15  46
BRANCH   6  50
HETATM   50  C7  UNL     1      18.130  -9.308 -14.300  1.00  0.00     0.038 C 
BRANCH  50  51
HETATM   51  C8  UNL     1      17.280  -8.121 -14.225  1.00  0.00    -0.020 C 
HETATM   52  C9  UNL     1      16.523  -7.917 -12.968  1.00  0.00     0.009 C 
HETATM   53  C10 UNL     1      16.390  -7.955 -15.421  1.00  0.00     0.009 C 
ENDBRANCH  50  51
ENDBRANCH   6  50
BRANCH   9  54
HETATM   54  O2  UNL     1      20.303  -6.090 -12.381  1.00  0.00    -0.348 OA
ATOM     55  H2  UNL     1      21.067  -5.749 -11.932  1.00  0.00     0.219 HD
ENDBRANCH   9  54
BRANCH  10  56
HETATM   56  C13 UNL     1      19.447  -8.892 -10.590  1.00  0.00     0.008 C 
HETATM   57  C14 UNL     1      19.341  -8.648  -9.074  1.00  0.00     0.012 C 
HETATM   58  C15 UNL     1      19.803 -10.360 -10.731  1.00  0.00     0.012 C 
ENDBRANCH  10  56
TORSDOF 15
ENDMDL
