MODEL 1
REMARK VINA RESULT: -6.844087188      0.000      0.000
REMARK  12 active torsions:
REMARK  status: ('A' for Active; 'I' for Inactive)
REMARK    1  A    between atoms: C2_2  and  C3_3 
REMARK    2  A    between atoms: C3_3  and  C4_4 
REMARK    3  A    between atoms: C4_4  and  C5_5 
REMARK    4  A    between atoms: C5_5  and  C6_6 
REMARK    5  A    between atoms: C6_6  and  N1_7 
REMARK    6  A    between atoms: N1_7  and  C7_9 
REMARK    7  A    between atoms: C7_9  and  N2_11 
REMARK    8  A    between atoms: N2_11  and  O1_13 
REMARK    9  A    between atoms: O1_13  and  C8_14 
REMARK   10  A    between atoms: C8_14  and  C9_15 
REMARK   11  A    between atoms: C9_15  and  O2_16 
REMARK   12  A    between atoms: C9_15  and  C10_18 
ROOT
HETATM    1  C9  UNL     1      11.476  44.646  -3.557  1.00  0.00     0.164 C 
ENDROOT
BRANCH   1   2
HETATM    2  C8  UNL     1      10.104  44.427  -4.262  1.00  0.00     0.234 C 
BRANCH   2   3
HETATM    3  O1  UNL     1       9.157  44.115  -3.388  1.00  0.00    -0.276 OA
BRANCH   3   4
HETATM    4  N2  UNL     1       8.799  42.932  -3.016  1.00  0.00    -0.241 N 
ATOM      5  H2  UNL     1       7.800  42.771  -3.146  1.00  0.00     0.197 HD
BRANCH   4   6
HETATM    6  C7  UNL     1       9.451  41.816  -2.476  1.00  0.00     0.191 C 
HETATM    7  S1  UNL     1       8.651  40.343  -2.624  1.00  0.00    -0.039 SA
BRANCH   6   8
HETATM    8  N1  UNL     1      10.689  41.811  -1.836  1.00  0.00    -0.366 N 
ATOM      9  H1  UNL     1      11.229  42.672  -1.749  1.00  0.00     0.161 HD
BRANCH   8  10
HETATM   10  C6  UNL     1      11.209  40.545  -1.286  1.00  0.00     0.122 C 
BRANCH  10  11
HETATM   11  C5  UNL     1      12.060  40.830  -0.043  1.00  0.00     0.020 C 
BRANCH  11  12
HETATM   12  C4  UNL     1      12.757  39.610   0.384  1.00  0.00     0.002 C 
BRANCH  12  13
HETATM   13  C3  UNL     1      13.671  39.634   1.524  1.00  0.00    -0.000 C 
BRANCH  13  14
HETATM   14  C2  UNL     1      14.814  38.707   1.590  1.00  0.00    -0.005 C 
HETATM   15  C1  UNL     1      15.612  38.711   2.861  1.00  0.00     0.005 C 
ENDBRANCH  13  14
ENDBRANCH  12  13
ENDBRANCH  11  12
ENDBRANCH  10  11
ENDBRANCH   8  10
ENDBRANCH   6   8
ENDBRANCH   4   6
ENDBRANCH   3   4
ENDBRANCH   2   3
ENDBRANCH   1   2
BRANCH   1  16
HETATM   16  O2  UNL     1      11.597  46.040  -3.495  1.00  0.00    -0.392 OA
ATOM     17  H2  UNL     1      11.859  46.203  -2.597  1.00  0.00     0.210 HD
ENDBRANCH   1  16
BRANCH   1  18
HETATM   18  C10 UNL     1      12.520  44.154  -4.502  1.00  0.00     0.113 A 
HETATM   19  C11 UNL     1      13.859  43.802  -4.068  1.00  0.00     0.086 A 
HETATM   20  C12 UNL     1      14.323  43.697  -2.659  1.00  0.00     0.027 C 
HETATM   21  N4  UNL     1      12.864  42.694  -4.335  1.00  0.00    -0.258 NA
HETATM   22  C13 UNL     1      14.495  42.303  -2.177  1.00  0.00     0.002 C 
HETATM   23  C14 UNL     1      15.776  42.033  -1.433  1.00  0.00    -0.014 C 
HETATM   24  C18 UNL     1      14.683  41.337  -3.359  1.00  0.00     0.051 C 
HETATM   25  C15 UNL     1      15.580  42.421   0.013  1.00  0.00     0.010 C 
HETATM   26  C16 UNL     1      15.870  40.512  -1.512  1.00  0.00     0.005 C 
HETATM   27  C17 UNL     1      14.962  40.072  -2.644  1.00  0.00     0.012 C 
HETATM   28  C19 UNL     1      13.413  41.403  -4.110  1.00  0.00     0.057 C 
HETATM   29  N3  UNL     1      12.777  40.396  -4.565  1.00  0.00    -0.393 N 
ATOM     30  H32 UNL     1      13.172  39.470  -4.404  1.00  0.00     0.157 HD
ATOM     31  H31 UNL     1      11.900  40.442  -5.084  1.00  0.00     0.157 HD
ENDBRANCH   1  18
TORSDOF 12
ENDMDL
MODEL 2
REMARK VINA RESULT: -6.828232255      1.562      2.453
REMARK  12 active torsions:
REMARK  status: ('A' for Active; 'I' for Inactive)
REMARK    1  A    between atoms: C2_2  and  C3_3 
REMARK    2  A    between atoms: C3_3  and  C4_4 
REMARK    3  A    between atoms: C4_4  and  C5_5 
REMARK    4  A    between atoms: C5_5  and  C6_6 
REMARK    5  A    between atoms: C6_6  and  N1_7 
REMARK    6  A    between atoms: N1_7  and  C7_9 
REMARK    7  A    between atoms: C7_9  and  N2_11 
REMARK    8  A    between atoms: N2_11  and  O1_13 
REMARK    9  A    between atoms: O1_13  and  C8_14 
REMARK   10  A    between atoms: C8_14  and  C9_15 
REMARK   11  A    between atoms: C9_15  and  O2_16 
REMARK   12  A    between atoms: C9_15  and  C10_18 
ROOT
HETATM    1  C9  UNL     1      11.516  44.432  -3.189  1.00  0.00     0.164 C 
ENDROOT
BRANCH   1   2
HETATM    2  C8  UNL     1      10.310  44.568  -4.164  1.00  0.00     0.234 C 
BRANCH   2   3
HETATM    3  O1  UNL     1       9.165  44.277  -3.559  1.00  0.00    -0.276 OA
BRANCH   3   4
HETATM    4  N2  UNL     1       8.458  43.207  -3.704  1.00  0.00    -0.241 N 
ATOM      5  H2  UNL     1       7.456  43.395  -3.652  1.00  0.00     0.197 HD
BRANCH   4   6
HETATM    6  C7  UNL     1       8.733  41.851  -3.915  1.00  0.00     0.191 C 
HETATM    7  S1  UNL     1       7.460  40.915  -4.494  1.00  0.00    -0.039 SA
BRANCH   6   8
HETATM    8  N1  UNL     1       9.951  41.210  -3.694  1.00  0.00    -0.366 N 
ATOM      9  H1  UNL     1      10.679  41.224  -4.407  1.00  0.00     0.161 HD
BRANCH   8  10
HETATM   10  C6  UNL     1      10.173  40.510  -2.414  1.00  0.00     0.122 C 
BRANCH  10  11
HETATM   11  C5  UNL     1      10.813  41.470  -1.404  1.00  0.00     0.020 C 
BRANCH  11  12
HETATM   12  C4  UNL     1      10.939  40.815  -0.095  1.00  0.00     0.002 C 
BRANCH  12  13
HETATM   13  C3  UNL     1      10.019  41.139   0.993  1.00  0.00    -0.000 C 
BRANCH  13  14
HETATM   14  C2  UNL     1       8.580  40.849   0.872  1.00  0.00    -0.005 C 
HETATM   15  C1  UNL     1       7.777  40.880   2.141  1.00  0.00     0.005 C 
ENDBRANCH  13  14
ENDBRANCH  12  13
ENDBRANCH  11  12
ENDBRANCH  10  11
ENDBRANCH   8  10
ENDBRANCH   6   8
ENDBRANCH   4   6
ENDBRANCH   3   4
ENDBRANCH   2   3
ENDBRANCH   1   2
BRANCH   1  16
HETATM   16  O2  UNL     1      11.704  45.735  -2.710  1.00  0.00    -0.392 OA
ATOM     17  H2  UNL     1      12.623  45.754  -2.468  1.00  0.00     0.210 HD
ENDBRANCH   1  16
BRANCH   1  18
HETATM   18  C10 UNL     1      12.702  44.094  -4.028  1.00  0.00     0.113 A 
HETATM   19  C11 UNL     1      13.958  43.644  -3.456  1.00  0.00     0.086 A 
HETATM   20  C12 UNL     1      14.191  43.279  -2.034  1.00  0.00     0.027 C 
HETATM   21  N4  UNL     1      13.027  42.622  -4.072  1.00  0.00    -0.258 NA
HETATM   22  C13 UNL     1      14.295  41.818  -1.789  1.00  0.00     0.002 C 
HETATM   23  C14 UNL     1      15.442  41.394  -0.911  1.00  0.00    -0.014 C 
HETATM   24  C18 UNL     1      14.678  41.075  -3.079  1.00  0.00     0.051 C 
HETATM   25  C15 UNL     1      15.014  41.522   0.532  1.00  0.00     0.010 C 
HETATM   26  C16 UNL     1      15.560  39.910  -1.245  1.00  0.00     0.005 C 
HETATM   27  C17 UNL     1      14.849  39.697  -2.568  1.00  0.00     0.012 C 
HETATM   28  C19 UNL     1      13.544  41.300  -3.998  1.00  0.00     0.057 C 
HETATM   29  N3  UNL     1      12.998  40.404  -4.722  1.00  0.00    -0.393 N 
ATOM     30  H32 UNL     1      13.369  39.456  -4.669  1.00  0.00     0.157 HD
ATOM     31  H31 UNL     1      12.215  40.559  -5.357  1.00  0.00     0.157 HD
ENDBRANCH   1  18
TORSDOF 12
ENDMDL
MODEL 3
REMARK VINA RESULT: -6.779022049      2.500      4.919
REMARK  12 active torsions:
REMARK  status: ('A' for Active; 'I' for Inactive)
REMARK    1  A    between atoms: C2_2  and  C3_3 
REMARK    2  A    between atoms: C3_3  and  C4_4 
REMARK    3  A    between atoms: C4_4  and  C5_5 
REMARK    4  A    between atoms: C5_5  and  C6_6 
REMARK    5  A    between atoms: C6_6  and  N1_7 
REMARK    6  A    between atoms: N1_7  and  C7_9 
REMARK    7  A    between atoms: C7_9  and  N2_11 
REMARK    8  A    between atoms: N2_11  and  O1_13 
REMARK    9  A    between atoms: O1_13  and  C8_14 
REMARK   10  A    between atoms: C8_14  and  C9_15 
REMARK   11  A    between atoms: C9_15  and  O2_16 
REMARK   12  A    between atoms: C9_15  and  C10_18 
ROOT
HETATM    1  C9  UNL     1      11.631  44.570  -3.130  1.00  0.00     0.164 C 
ENDROOT
BRANCH   1   2
HETATM    2  C8  UNL     1      10.385  44.632  -4.062  1.00  0.00     0.234 C 
BRANCH   2   3
HETATM    3  O1  UNL     1       9.267  44.392  -3.389  1.00  0.00    -0.276 OA
BRANCH   3   4
HETATM    4  N2  UNL     1       8.572  43.305  -3.396  1.00  0.00    -0.241 N 
ATOM      5  H2  UNL     1       7.630  43.445  -3.031  1.00  0.00     0.197 HD
BRANCH   4   6
HETATM    6  C7  UNL     1       8.799  41.979  -3.785  1.00  0.00     0.191 C 
HETATM    7  S1  UNL     1       9.715  41.041  -2.731  1.00  0.00    -0.039 SA
BRANCH   6   8
HETATM    8  N1  UNL     1       8.340  41.369  -4.951  1.00  0.00    -0.366 N 
ATOM      9  H1  UNL     1       8.853  41.475  -5.826  1.00  0.00     0.161 HD
BRANCH   8  10
HETATM   10  C6  UNL     1       7.102  40.567  -4.905  1.00  0.00     0.122 C 
BRANCH  10  11
HETATM   11  C5  UNL     1       5.883  41.491  -4.995  1.00  0.00     0.020 C 
BRANCH  11  12
HETATM   12  C4  UNL     1       5.003  41.282  -3.838  1.00  0.00     0.002 C 
BRANCH  12  13
HETATM   13  C3  UNL     1       5.285  41.932  -2.559  1.00  0.00    -0.000 C 
BRANCH  13  14
HETATM   14  C2  UNL     1       4.189  42.311  -1.652  1.00  0.00    -0.005 C 
HETATM   15  C1  UNL     1       2.796  41.977  -2.101  1.00  0.00     0.005 C 
ENDBRANCH  13  14
ENDBRANCH  12  13
ENDBRANCH  11  12
ENDBRANCH  10  11
ENDBRANCH   8  10
ENDBRANCH   6   8
ENDBRANCH   4   6
ENDBRANCH   3   4
ENDBRANCH   2   3
ENDBRANCH   1   2
BRANCH   1  16
HETATM   16  O2  UNL     1      11.859  45.911  -2.791  1.00  0.00    -0.392 OA
ATOM     17  H2  UNL     1      12.067  46.320  -3.623  1.00  0.00     0.210 HD
ENDBRANCH   1  16
BRANCH   1  18
HETATM   18  C10 UNL     1      12.774  44.131  -3.981  1.00  0.00     0.113 A 
HETATM   19  C11 UNL     1      14.003  43.599  -3.421  1.00  0.00     0.086 A 
HETATM   20  C12 UNL     1      14.233  43.244  -1.995  1.00  0.00     0.027 C 
HETATM   21  N4  UNL     1      12.989  42.637  -4.001  1.00  0.00    -0.258 NA
HETATM   22  C13 UNL     1      14.233  41.785  -1.722  1.00  0.00     0.002 C 
HETATM   23  C14 UNL     1      15.361  41.293  -0.855  1.00  0.00    -0.014 C 
HETATM   24  C18 UNL     1      14.538  40.991  -3.004  1.00  0.00     0.051 C 
HETATM   25  C15 UNL     1      14.969  41.479   0.591  1.00  0.00     0.010 C 
HETATM   26  C16 UNL     1      15.363  39.798  -1.162  1.00  0.00     0.005 C 
HETATM   27  C17 UNL     1      14.615  39.614  -2.468  1.00  0.00     0.012 C 
HETATM   28  C19 UNL     1      13.407  41.283  -3.909  1.00  0.00     0.057 C 
HETATM   29  N3  UNL     1      12.784  40.416  -4.607  1.00  0.00    -0.393 N 
ATOM     30  H32 UNL     1      13.085  39.444  -4.540  1.00  0.00     0.157 HD
ATOM     31  H31 UNL     1      12.004  40.617  -5.232  1.00  0.00     0.157 HD
ENDBRANCH   1  18
TORSDOF 12
ENDMDL
MODEL 4
REMARK VINA RESULT: -6.700634569      0.902      1.025
REMARK  12 active torsions:
REMARK  status: ('A' for Active; 'I' for Inactive)
REMARK    1  A    between atoms: C2_2  and  C3_3 
REMARK    2  A    between atoms: C3_3  and  C4_4 
REMARK    3  A    between atoms: C4_4  and  C5_5 
REMARK    4  A    between atoms: C5_5  and  C6_6 
REMARK    5  A    between atoms: C6_6  and  N1_7 
REMARK    6  A    between atoms: N1_7  and  C7_9 
REMARK    7  A    between atoms: C7_9  and  N2_11 
REMARK    8  A    between atoms: N2_11  and  O1_13 
REMARK    9  A    between atoms: O1_13  and  C8_14 
REMARK   10  A    between atoms: C8_14  and  C9_15 
REMARK   11  A    between atoms: C9_15  and  O2_16 
REMARK   12  A    between atoms: C9_15  and  C10_18 
ROOT
HETATM    1  C9  UNL     1      11.530  44.446  -3.167  1.00  0.00     0.164 C 
ENDROOT
BRANCH   1   2
HETATM    2  C8  UNL     1      10.295  44.577  -4.107  1.00  0.00     0.234 C 
BRANCH   2   3
HETATM    3  O1  UNL     1       9.166  44.317  -3.460  1.00  0.00    -0.276 OA
BRANCH   3   4
HETATM    4  N2  UNL     1       8.730  43.160  -3.088  1.00  0.00    -0.241 N 
ATOM      5  H2  UNL     1       7.973  43.232  -2.408  1.00  0.00     0.197 HD
BRANCH   4   6
HETATM    6  C7  UNL     1       9.045  41.830  -3.394  1.00  0.00     0.191 C 
HETATM    7  S1  UNL     1       8.024  41.055  -4.483  1.00  0.00    -0.039 SA
BRANCH   6   8
HETATM    8  N1  UNL     1      10.116  41.097  -2.886  1.00  0.00    -0.366 N 
ATOM      9  H1  UNL     1      10.668  40.498  -3.499  1.00  0.00     0.161 HD
BRANCH   8  10
HETATM   10  C6  UNL     1      10.442  41.198  -1.451  1.00  0.00     0.122 C 
BRANCH  10  11
HETATM   11  C5  UNL     1      11.208  39.948  -1.004  1.00  0.00     0.020 C 
BRANCH  11  12
HETATM   12  C4  UNL     1      11.740  40.140   0.352  1.00  0.00     0.002 C 
BRANCH  12  13
HETATM   13  C3  UNL     1      12.430  39.051   1.043  1.00  0.00    -0.000 C 
BRANCH  13  14
HETATM   14  C2  UNL     1      12.790  39.174   2.466  1.00  0.00    -0.005 C 
HETATM   15  C1  UNL     1      14.209  38.845   2.832  1.00  0.00     0.005 C 
ENDBRANCH  13  14
ENDBRANCH  12  13
ENDBRANCH  11  12
ENDBRANCH  10  11
ENDBRANCH   8  10
ENDBRANCH   6   8
ENDBRANCH   4   6
ENDBRANCH   3   4
ENDBRANCH   2   3
ENDBRANCH   1   2
BRANCH   1  16
HETATM   16  O2  UNL     1      11.772  45.763  -2.753  1.00  0.00    -0.392 OA
ATOM     17  H2  UNL     1      12.289  45.658  -1.963  1.00  0.00     0.210 HD
ENDBRANCH   1  16
BRANCH   1  18
HETATM   18  C10 UNL     1      12.675  44.037  -4.029  1.00  0.00     0.113 A 
HETATM   19  C11 UNL     1      13.939  43.580  -3.481  1.00  0.00     0.086 A 
HETATM   20  C12 UNL     1      14.214  43.278  -2.051  1.00  0.00     0.027 C 
HETATM   21  N4  UNL     1      12.961  42.556  -4.014  1.00  0.00    -0.258 NA
HETATM   22  C13 UNL     1      14.289  41.828  -1.739  1.00  0.00     0.002 C 
HETATM   23  C14 UNL     1      15.456  41.415  -0.882  1.00  0.00    -0.014 C 
HETATM   24  C18 UNL     1      14.607  41.013  -3.004  1.00  0.00     0.051 C 
HETATM   25  C15 UNL     1      15.084  41.623   0.567  1.00  0.00     0.010 C 
HETATM   26  C16 UNL     1      15.524  39.914  -1.147  1.00  0.00     0.005 C 
HETATM   27  C17 UNL     1      14.761  39.658  -2.432  1.00  0.00     0.012 C 
HETATM   28  C19 UNL     1      13.446  41.226  -3.893  1.00  0.00     0.057 C 
HETATM   29  N3  UNL     1      12.851  40.311  -4.553  1.00  0.00    -0.393 N 
ATOM     30  H32 UNL     1      13.200  39.356  -4.467  1.00  0.00     0.157 HD
ATOM     31  H31 UNL     1      12.050  40.457  -5.167  1.00  0.00     0.157 HD
ENDBRANCH   1  18
TORSDOF 12
ENDMDL
MODEL 5
REMARK VINA RESULT: -6.691268881      2.802      5.611
REMARK  12 active torsions:
REMARK  status: ('A' for Active; 'I' for Inactive)
REMARK    1  A    between atoms: C2_2  and  C3_3 
REMARK    2  A    between atoms: C3_3  and  C4_4 
REMARK    3  A    between atoms: C4_4  and  C5_5 
REMARK    4  A    between atoms: C5_5  and  C6_6 
REMARK    5  A    between atoms: C6_6  and  N1_7 
REMARK    6  A    between atoms: N1_7  and  C7_9 
REMARK    7  A    between atoms: C7_9  and  N2_11 
REMARK    8  A    between atoms: N2_11  and  O1_13 
REMARK    9  A    between atoms: O1_13  and  C8_14 
REMARK   10  A    between atoms: C8_14  and  C9_15 
REMARK   11  A    between atoms: C9_15  and  O2_16 
REMARK   12  A    between atoms: C9_15  and  C10_18 
ROOT
HETATM    1  C9  UNL     1      13.366  40.148  -3.585  1.00  0.00     0.164 C 
ENDROOT
BRANCH   1   2
HETATM    2  C8  UNL     1      14.545  40.883  -4.289  1.00  0.00     0.234 C 
BRANCH   2   3
HETATM    3  O1  UNL     1      14.293  42.178  -4.426  1.00  0.00    -0.276 OA
BRANCH   3   4
HETATM    4  N2  UNL     1      13.854  42.780  -5.480  1.00  0.00    -0.241 N 
ATOM      5  H2  UNL     1      13.800  42.158  -6.286  1.00  0.00     0.197 HD
BRANCH   4   6
HETATM    6  C7  UNL     1      13.436  44.081  -5.783  1.00  0.00     0.191 C 
HETATM    7  S1  UNL     1      14.349  44.908  -6.929  1.00  0.00    -0.039 SA
BRANCH   6   8
HETATM    8  N1  UNL     1      12.344  44.749  -5.232  1.00  0.00    -0.366 N 
ATOM      9  H1  UNL     1      11.976  45.591  -5.674  1.00  0.00     0.161 HD
BRANCH   8  10
HETATM   10  C6  UNL     1      11.726  44.222  -4.000  1.00  0.00     0.122 C 
BRANCH  10  11
HETATM   11  C5  UNL     1      10.246  44.619  -3.952  1.00  0.00     0.020 C 
BRANCH  11  12
HETATM   12  C4  UNL     1       9.403  43.478  -4.331  1.00  0.00     0.002 C 
BRANCH  12  13
HETATM   13  C3  UNL     1       8.669  42.724  -3.317  1.00  0.00    -0.000 C 
BRANCH  13  14
HETATM   14  C2  UNL     1       9.194  41.447  -2.803  1.00  0.00    -0.005 C 
HETATM   15  C1  UNL     1       8.875  41.114  -1.374  1.00  0.00     0.005 C 
ENDBRANCH  13  14
ENDBRANCH  12  13
ENDBRANCH  11  12
ENDBRANCH  10  11
ENDBRANCH   8  10
ENDBRANCH   6   8
ENDBRANCH   4   6
ENDBRANCH   3   4
ENDBRANCH   2   3
ENDBRANCH   1   2
BRANCH   1  16
HETATM   16  O2  UNL     1      12.372  40.096  -4.570  1.00  0.00    -0.392 OA
ATOM     17  H2  UNL     1      11.601  39.809  -4.096  1.00  0.00     0.210 HD
ENDBRANCH   1  16
BRANCH   1  18
HETATM   18  C10 UNL     1      12.878  41.062  -2.513  1.00  0.00     0.113 A 
HETATM   19  C11 UNL     1      12.613  40.607  -1.160  1.00  0.00     0.086 A 
HETATM   20  C12 UNL     1      12.954  39.270  -0.605  1.00  0.00     0.027 C 
HETATM   21  N4  UNL     1      13.897  41.356  -1.440  1.00  0.00    -0.258 NA
HETATM   22  C13 UNL     1      14.123  39.270   0.309  1.00  0.00     0.002 C 
HETATM   23  C14 UNL     1      13.935  38.505   1.592  1.00  0.00    -0.014 C 
HETATM   24  C18 UNL     1      14.362  40.675   0.888  1.00  0.00     0.051 C 
HETATM   25  C15 UNL     1      14.244  37.050   1.332  1.00  0.00     0.010 C 
HETATM   26  C16 UNL     1      15.045  39.081   2.467  1.00  0.00     0.005 C 
HETATM   27  C17 UNL     1      15.458  40.400   1.844  1.00  0.00     0.012 C 
HETATM   28  C19 UNL     1      14.701  41.514  -0.279  1.00  0.00     0.057 C 
HETATM   29  N3  UNL     1      15.654  42.360  -0.322  1.00  0.00    -0.393 N 
ATOM     30  H32 UNL     1      16.230  42.472   0.512  1.00  0.00     0.157 HD
ATOM     31  H31 UNL     1      15.888  42.939  -1.128  1.00  0.00     0.157 HD
ENDBRANCH   1  18
TORSDOF 12
ENDMDL
