MODEL 1
REMARK VINA RESULT: -6.829811698      0.000      0.000
REMARK  13 active torsions:
REMARK  status: ('A' for Active; 'I' for Inactive)
REMARK    1  A    between atoms: C2_2  and  O1_5 
REMARK    2  A    between atoms: O1_5  and  C5_6 
REMARK       I    between atoms: C5_6  and  N1_8 
REMARK    3  A    between atoms: N1_8  and  C6_10 
REMARK    4  A    between atoms: C6_10  and  C7_11 
REMARK    5  A    between atoms: C7_11  and  C8_12 
REMARK    6  A    between atoms: C8_12  and  C9_13 
REMARK    7  A    between atoms: C9_13  and  C10_14 
REMARK    8  A    between atoms: C10_14  and  C11_15 
REMARK    9  A    between atoms: C11_15  and  N3_19 
REMARK   10  A    between atoms: N3_19  and  C12_21 
REMARK   11  A    between atoms: C12_21  and  C13_22 
REMARK   12  A    between atoms: C13_22  and  C14_23 
REMARK   13  A    between atoms: C14_23  and  N4_24 
ROOT
HETATM    1  C11 UNL     1      11.712  44.461  -3.764  1.00  0.00     0.070 C 
HETATM    2  N2  UNL     1      11.544  45.362  -2.858  1.00  0.00    -0.389 N 
ATOM      3  H21 UNL     1      10.682  45.905  -2.812  1.00  0.00     0.157 HD
ATOM      4  H22 UNL     1      12.313  45.509  -2.205  1.00  0.00     0.157 HD
ENDROOT
BRANCH   1   5
HETATM    5  C10 UNL     1      12.962  43.673  -3.830  1.00  0.00     0.075 C 
BRANCH   5   6
HETATM    6  C9  UNL     1      13.490  43.242  -2.512  1.00  0.00     0.007 C 
BRANCH   6   7
HETATM    7  C8  UNL     1      14.922  43.551  -2.240  1.00  0.00     0.002 C 
BRANCH   7   8
HETATM    8  C7  UNL     1      15.398  42.837  -0.999  1.00  0.00     0.020 C 
BRANCH   8   9
HETATM    9  C6  UNL     1      14.410  41.794  -0.623  1.00  0.00     0.125 C 
BRANCH   9  10
HETATM   10  N1  UNL     1      15.014  40.689   0.105  1.00  0.00    -0.337 N 
HETATM   11  C5  UNL     1      14.678  39.377  -0.281  1.00  0.00     0.361 C 
HETATM   12  O2  UNL     1      13.877  39.201  -1.229  1.00  0.00    -0.238 OA
ATOM     13  H1  UNL     1      15.663  40.859   0.874  1.00  0.00     0.164 HD
BRANCH  11  14
HETATM   14  O1  UNL     1      15.184  38.241   0.333  1.00  0.00    -0.294 OA
BRANCH  14  15
HETATM   15  C2  UNL     1      14.741  37.684   1.530  1.00  0.00     0.061 C 
HETATM   16  C1  UNL     1      13.282  37.903   1.817  1.00  0.00     0.046 C 
HETATM   17  C3  UNL     1      15.549  38.346   2.649  1.00  0.00     0.046 C 
HETATM   18  C4  UNL     1      14.997  36.193   1.611  1.00  0.00     0.046 C 
ENDBRANCH  14  15
ENDBRANCH  11  14
ENDBRANCH   9  10
ENDBRANCH   8   9
ENDBRANCH   7   8
ENDBRANCH   6   7
ENDBRANCH   5   6
ENDBRANCH   1   5
BRANCH   1  19
HETATM   19  N3  UNL     1      10.643  44.257  -4.672  1.00  0.00    -0.380 N 
ATOM     20  H3  UNL     1      10.783  44.500  -5.653  1.00  0.00     0.160 HD
BRANCH  19  21
HETATM   21  C12 UNL     1       9.389  43.731  -4.277  1.00  0.00     0.122 C 
BRANCH  21  22
HETATM   22  C13 UNL     1       9.419  42.344  -3.793  1.00  0.00     0.039 C 
BRANCH  22  23
HETATM   23  C14 UNL     1       8.367  41.940  -2.823  1.00  0.00     0.127 C 
BRANCH  23  24
HETATM   24  N4  UNL     1       9.036  41.253  -1.684  1.00  0.00    -0.358 N 
HETATM   25  C15 UNL     1      10.465  41.364  -1.546  1.00  0.00     0.127 C 
HETATM   26  C16 UNL     1      10.812  41.261  -0.072  1.00  0.00     0.039 C 
HETATM   27  C17 UNL     1      10.426  39.887   0.467  1.00  0.00     0.123 C 
HETATM   28  N5  UNL     1       9.030  39.626   0.125  1.00  0.00    -0.367 N 
HETATM   29  C18 UNL     1       8.307  40.492  -0.744  1.00  0.00     0.169 C 
ATOM     30  H5  UNL     1       8.564  38.807   0.515  1.00  0.00     0.161 HD
HETATM   31  S1  UNL     1       6.679  40.621  -0.673  1.00  0.00    -0.041 SA
ENDBRANCH  23  24
ENDBRANCH  22  23
ENDBRANCH  21  22
ENDBRANCH  19  21
ENDBRANCH   1  19
TORSDOF 13
ENDMDL
MODEL 2
REMARK VINA RESULT: -6.762490174      1.159      1.302
REMARK  13 active torsions:
REMARK  status: ('A' for Active; 'I' for Inactive)
REMARK    1  A    between atoms: C2_2  and  O1_5 
REMARK    2  A    between atoms: O1_5  and  C5_6 
REMARK       I    between atoms: C5_6  and  N1_8 
REMARK    3  A    between atoms: N1_8  and  C6_10 
REMARK    4  A    between atoms: C6_10  and  C7_11 
REMARK    5  A    between atoms: C7_11  and  C8_12 
REMARK    6  A    between atoms: C8_12  and  C9_13 
REMARK    7  A    between atoms: C9_13  and  C10_14 
REMARK    8  A    between atoms: C10_14  and  C11_15 
REMARK    9  A    between atoms: C11_15  and  N3_19 
REMARK   10  A    between atoms: N3_19  and  C12_21 
REMARK   11  A    between atoms: C12_21  and  C13_22 
REMARK   12  A    between atoms: C13_22  and  C14_23 
REMARK   13  A    between atoms: C14_23  and  N4_24 
ROOT
HETATM    1  C11 UNL     1      11.805  44.405  -3.796  1.00  0.00     0.070 C 
HETATM    2  N2  UNL     1      11.661  45.294  -2.874  1.00  0.00    -0.389 N 
ATOM      3  H21 UNL     1      10.874  45.942  -2.890  1.00  0.00     0.157 HD
ATOM      4  H22 UNL     1      12.373  45.322  -2.144  1.00  0.00     0.157 HD
ENDROOT
BRANCH   1   5
HETATM    5  C10 UNL     1      12.947  43.464  -3.772  1.00  0.00     0.075 C 
BRANCH   5   6
HETATM    6  C9  UNL     1      13.447  43.133  -2.415  1.00  0.00     0.007 C 
BRANCH   6   7
HETATM    7  C8  UNL     1      14.885  43.420  -2.153  1.00  0.00     0.002 C 
BRANCH   7   8
HETATM    8  C7  UNL     1      15.353  42.717  -0.903  1.00  0.00     0.020 C 
BRANCH   8   9
HETATM    9  C6  UNL     1      14.353  41.688  -0.514  1.00  0.00     0.125 C 
BRANCH   9  10
HETATM   10  N1  UNL     1      14.943  40.592   0.237  1.00  0.00    -0.337 N 
HETATM   11  C5  UNL     1      14.760  39.282  -0.247  1.00  0.00     0.361 C 
HETATM   12  O2  UNL     1      14.101  39.100  -1.297  1.00  0.00    -0.238 OA
ATOM     13  H1  UNL     1      15.475  40.766   1.090  1.00  0.00     0.164 HD
BRANCH  11  14
HETATM   14  O1  UNL     1      15.270  38.153   0.377  1.00  0.00    -0.294 OA
BRANCH  14  15
HETATM   15  C2  UNL     1      14.759  37.540   1.519  1.00  0.00     0.061 C 
HETATM   16  C1  UNL     1      13.276  37.701   1.702  1.00  0.00     0.046 C 
HETATM   17  C3  UNL     1      15.458  38.188   2.716  1.00  0.00     0.046 C 
HETATM   18  C4  UNL     1      15.060  36.056   1.569  1.00  0.00     0.046 C 
ENDBRANCH  14  15
ENDBRANCH  11  14
ENDBRANCH   9  10
ENDBRANCH   8   9
ENDBRANCH   7   8
ENDBRANCH   6   7
ENDBRANCH   5   6
ENDBRANCH   1   5
BRANCH   1  19
HETATM   19  N3  UNL     1      10.817  44.366  -4.810  1.00  0.00    -0.380 N 
ATOM     20  H3  UNL     1      11.099  44.545  -5.774  1.00  0.00     0.160 HD
BRANCH  19  21
HETATM   21  C12 UNL     1       9.453  44.091  -4.544  1.00  0.00     0.122 C 
BRANCH  21  22
HETATM   22  C13 UNL     1       9.196  42.814  -3.863  1.00  0.00     0.039 C 
BRANCH  22  23
HETATM   23  C14 UNL     1       7.779  42.380  -3.747  1.00  0.00     0.127 C 
BRANCH  23  24
HETATM   24  N4  UNL     1       7.658  41.539  -2.525  1.00  0.00    -0.358 N 
HETATM   25  C15 UNL     1       8.856  41.026  -1.911  1.00  0.00     0.127 C 
HETATM   26  C16 UNL     1       8.602  40.869  -0.423  1.00  0.00     0.039 C 
HETATM   27  C17 UNL     1       7.507  39.833  -0.180  1.00  0.00     0.123 C 
HETATM   28  N5  UNL     1       6.343  40.185  -0.989  1.00  0.00    -0.367 N 
HETATM   29  C18 UNL     1       6.402  41.227  -1.958  1.00  0.00     0.169 C 
ATOM     30  H5  UNL     1       5.470  39.674  -0.857  1.00  0.00     0.161 HD
HETATM   31  S1  UNL     1       5.070  42.055  -2.417  1.00  0.00    -0.041 SA
ENDBRANCH  23  24
ENDBRANCH  22  23
ENDBRANCH  21  22
ENDBRANCH  19  21
ENDBRANCH   1  19
TORSDOF 13
ENDMDL
MODEL 3
REMARK VINA RESULT: -6.647121703      2.539      3.370
REMARK  13 active torsions:
REMARK  status: ('A' for Active; 'I' for Inactive)
REMARK    1  A    between atoms: C2_2  and  O1_5 
REMARK    2  A    between atoms: O1_5  and  C5_6 
REMARK       I    between atoms: C5_6  and  N1_8 
REMARK    3  A    between atoms: N1_8  and  C6_10 
REMARK    4  A    between atoms: C6_10  and  C7_11 
REMARK    5  A    between atoms: C7_11  and  C8_12 
REMARK    6  A    between atoms: C8_12  and  C9_13 
REMARK    7  A    between atoms: C9_13  and  C10_14 
REMARK    8  A    between atoms: C10_14  and  C11_15 
REMARK    9  A    between atoms: C11_15  and  N3_19 
REMARK   10  A    between atoms: N3_19  and  C12_21 
REMARK   11  A    between atoms: C12_21  and  C13_22 
REMARK   12  A    between atoms: C13_22  and  C14_23 
REMARK   13  A    between atoms: C14_23  and  N4_24 
ROOT
HETATM    1  C11 UNL     1      10.338  44.191  -4.090  1.00  0.00     0.070 C 
HETATM    2  N2  UNL     1      10.090  44.272  -5.353  1.00  0.00    -0.389 N 
ATOM      3  H21 UNL     1       9.224  43.901  -5.741  1.00  0.00     0.157 HD
ATOM      4  H22 UNL     1      10.803  44.710  -5.935  1.00  0.00     0.157 HD
ENDROOT
BRANCH   1   5
HETATM    5  C10 UNL     1      11.596  44.730  -3.527  1.00  0.00     0.075 C 
BRANCH   5   6
HETATM    6  C9  UNL     1      12.416  43.739  -2.789  1.00  0.00     0.007 C 
BRANCH   6   7
HETATM    7  C8  UNL     1      13.884  43.775  -3.045  1.00  0.00     0.002 C 
BRANCH   7   8
HETATM    8  C7  UNL     1      14.636  43.050  -1.957  1.00  0.00     0.020 C 
BRANCH   8   9
HETATM    9  C6  UNL     1      13.832  41.890  -1.492  1.00  0.00     0.125 C 
BRANCH   9  10
HETATM   10  N1  UNL     1      14.183  41.469  -0.145  1.00  0.00    -0.337 N 
HETATM   11  C5  UNL     1      14.970  40.311   0.005  1.00  0.00     0.361 C 
HETATM   12  O2  UNL     1      15.340  39.682  -1.014  1.00  0.00    -0.238 OA
ATOM     13  H1  UNL     1      13.868  41.999   0.668  1.00  0.00     0.164 HD
BRANCH  11  14
HETATM   14  O1  UNL     1      15.370  39.807   1.233  1.00  0.00    -0.294 OA
BRANCH  14  15
HETATM   15  C2  UNL     1      14.776  38.755   1.926  1.00  0.00     0.061 C 
HETATM   16  C1  UNL     1      13.369  39.025   2.382  1.00  0.00     0.046 C 
HETATM   17  C3  UNL     1      15.636  38.503   3.167  1.00  0.00     0.046 C 
HETATM   18  C4  UNL     1      14.750  37.469   1.126  1.00  0.00     0.046 C 
ENDBRANCH  14  15
ENDBRANCH  11  14
ENDBRANCH   9  10
ENDBRANCH   8   9
ENDBRANCH   7   8
ENDBRANCH   6   7
ENDBRANCH   5   6
ENDBRANCH   1   5
BRANCH   1  19
HETATM   19  N3  UNL     1       9.349  43.581  -3.280  1.00  0.00    -0.380 N 
ATOM     20  H3  UNL     1       9.082  44.039  -2.408  1.00  0.00     0.160 HD
BRANCH  19  21
HETATM   21  C12 UNL     1       8.713  42.364  -3.628  1.00  0.00     0.122 C 
BRANCH  21  22
HETATM   22  C13 UNL     1       7.270  42.314  -3.354  1.00  0.00     0.039 C 
BRANCH  22  23
HETATM   23  C14 UNL     1       6.808  41.347  -2.324  1.00  0.00     0.127 C 
BRANCH  23  24
HETATM   24  N4  UNL     1       5.339  41.524  -2.157  1.00  0.00    -0.358 N 
HETATM   25  C15 UNL     1       4.553  41.924  -3.296  1.00  0.00     0.127 C 
HETATM   26  C16 UNL     1       3.154  41.359  -3.133  1.00  0.00     0.039 C 
HETATM   27  C17 UNL     1       2.481  41.960  -1.902  1.00  0.00     0.123 C 
HETATM   28  N5  UNL     1       3.370  41.793  -0.755  1.00  0.00    -0.367 N 
HETATM   29  C18 UNL     1       4.702  41.317  -0.914  1.00  0.00     0.169 C 
ATOM     30  H5  UNL     1       3.029  42.023   0.178  1.00  0.00     0.161 HD
HETATM   31  S1  UNL     1       5.492  40.547   0.292  1.00  0.00    -0.041 SA
ENDBRANCH  23  24
ENDBRANCH  22  23
ENDBRANCH  21  22
ENDBRANCH  19  21
ENDBRANCH   1  19
TORSDOF 13
ENDMDL
MODEL 4
REMARK VINA RESULT: -6.593333939      3.190      6.485
REMARK  13 active torsions:
REMARK  status: ('A' for Active; 'I' for Inactive)
REMARK    1  A    between atoms: C2_2  and  O1_5 
REMARK    2  A    between atoms: O1_5  and  C5_6 
REMARK       I    between atoms: C5_6  and  N1_8 
REMARK    3  A    between atoms: N1_8  and  C6_10 
REMARK    4  A    between atoms: C6_10  and  C7_11 
REMARK    5  A    between atoms: C7_11  and  C8_12 
REMARK    6  A    between atoms: C8_12  and  C9_13 
REMARK    7  A    between atoms: C9_13  and  C10_14 
REMARK    8  A    between atoms: C10_14  and  C11_15 
REMARK    9  A    between atoms: C11_15  and  N3_19 
REMARK   10  A    between atoms: N3_19  and  C12_21 
REMARK   11  A    between atoms: C12_21  and  C13_22 
REMARK   12  A    between atoms: C13_22  and  C14_23 
REMARK   13  A    between atoms: C14_23  and  N4_24 
ROOT
HETATM    1  C11 UNL     1      13.609  40.603  -3.406  1.00  0.00     0.070 C 
HETATM    2  N2  UNL     1      13.053  40.540  -4.568  1.00  0.00    -0.389 N 
ATOM      3  H21 UNL     1      12.212  39.983  -4.717  1.00  0.00     0.157 HD
ATOM      4  H22 UNL     1      13.500  41.061  -5.321  1.00  0.00     0.157 HD
ENDROOT
BRANCH   1   5
HETATM    5  C10 UNL     1      14.828  41.412  -3.189  1.00  0.00     0.075 C 
BRANCH   5   6
HETATM    6  C9  UNL     1      14.597  42.704  -2.499  1.00  0.00     0.007 C 
BRANCH   6   7
HETATM    7  C8  UNL     1      13.883  43.753  -3.281  1.00  0.00     0.002 C 
BRANCH   7   8
HETATM    8  C7  UNL     1      12.525  44.033  -2.687  1.00  0.00     0.020 C 
BRANCH   8   9
HETATM    9  C6  UNL     1      11.486  43.866  -3.736  1.00  0.00     0.125 C 
BRANCH   9  10
HETATM   10  N1  UNL     1      10.252  43.300  -3.215  1.00  0.00    -0.337 N 
HETATM   11  C5  UNL     1       9.039  43.690  -3.814  1.00  0.00     0.361 C 
HETATM   12  O2  UNL     1       9.056  44.504  -4.766  1.00  0.00    -0.238 OA
ATOM     13  H1  UNL     1      10.264  42.640  -2.437  1.00  0.00     0.164 HD
BRANCH  11  14
HETATM   14  O1  UNL     1       7.796  43.224  -3.409  1.00  0.00    -0.294 OA
BRANCH  14  15
HETATM   15  C2  UNL     1       7.318  41.923  -3.550  1.00  0.00     0.061 C 
HETATM   16  C1  UNL     1       5.851  41.829  -3.866  1.00  0.00     0.046 C 
HETATM   17  C3  UNL     1       7.562  41.216  -2.215  1.00  0.00     0.046 C 
HETATM   18  C4  UNL     1       8.058  41.141  -4.616  1.00  0.00     0.046 C 
ENDBRANCH  14  15
ENDBRANCH  11  14
ENDBRANCH   9  10
ENDBRANCH   8   9
ENDBRANCH   7   8
ENDBRANCH   6   7
ENDBRANCH   5   6
ENDBRANCH   1   5
BRANCH   1  19
HETATM   19  N3  UNL     1      12.988  39.879  -2.359  1.00  0.00    -0.380 N 
ATOM     20  H3  UNL     1      13.347  38.953  -2.125  1.00  0.00     0.160 HD
BRANCH  19  21
HETATM   21  C12 UNL     1      11.889  40.384  -1.621  1.00  0.00     0.122 C 
BRANCH  21  22
HETATM   22  C13 UNL     1      12.202  40.807  -0.249  1.00  0.00     0.039 C 
BRANCH  22  23
HETATM   23  C14 UNL     1      11.815  39.885   0.851  1.00  0.00     0.127 C 
BRANCH  23  24
HETATM   24  N4  UNL     1      12.955  38.959   1.093  1.00  0.00    -0.358 N 
HETATM   25  C15 UNL     1      14.125  39.457   1.771  1.00  0.00     0.127 C 
HETATM   26  C16 UNL     1      14.769  38.306   2.522  1.00  0.00     0.039 C 
HETATM   27  C17 UNL     1      15.251  37.240   1.543  1.00  0.00     0.123 C 
HETATM   28  N5  UNL     1      14.143  36.880   0.660  1.00  0.00    -0.367 N 
HETATM   29  C18 UNL     1      12.922  37.611   0.671  1.00  0.00     0.169 C 
ATOM     30  H5  UNL     1      14.247  36.090   0.024  1.00  0.00     0.161 HD
HETATM   31  S1  UNL     1      11.507  36.934   0.214  1.00  0.00    -0.041 SA
ENDBRANCH  23  24
ENDBRANCH  22  23
ENDBRANCH  21  22
ENDBRANCH  19  21
ENDBRANCH   1  19
TORSDOF 13
ENDMDL
MODEL 5
REMARK VINA RESULT: -6.551573934      2.759      3.968
REMARK  13 active torsions:
REMARK  status: ('A' for Active; 'I' for Inactive)
REMARK    1  A    between atoms: C2_2  and  O1_5 
REMARK    2  A    between atoms: O1_5  and  C5_6 
REMARK       I    between atoms: C5_6  and  N1_8 
REMARK    3  A    between atoms: N1_8  and  C6_10 
REMARK    4  A    between atoms: C6_10  and  C7_11 
REMARK    5  A    between atoms: C7_11  and  C8_12 
REMARK    6  A    between atoms: C8_12  and  C9_13 
REMARK    7  A    between atoms: C9_13  and  C10_14 
REMARK    8  A    between atoms: C10_14  and  C11_15 
REMARK    9  A    between atoms: C11_15  and  N3_19 
REMARK   10  A    between atoms: N3_19  and  C12_21 
REMARK   11  A    between atoms: C12_21  and  C13_22 
REMARK   12  A    between atoms: C13_22  and  C14_23 
REMARK   13  A    between atoms: C14_23  and  N4_24 
ROOT
HETATM    1  C11 UNL     1      10.248  44.269  -4.105  1.00  0.00     0.070 C 
HETATM    2  N2  UNL     1      10.005  44.328  -5.369  1.00  0.00    -0.389 N 
ATOM      3  H21 UNL     1       9.137  43.956  -5.754  1.00  0.00     0.157 HD
ATOM      4  H22 UNL     1      10.723  44.749  -5.958  1.00  0.00     0.157 HD
ENDROOT
BRANCH   1   5
HETATM    5  C10 UNL     1      11.508  44.809  -3.547  1.00  0.00     0.075 C 
BRANCH   5   6
HETATM    6  C9  UNL     1      12.288  43.843  -2.736  1.00  0.00     0.007 C 
BRANCH   6   7
HETATM    7  C8  UNL     1      13.694  43.602  -3.167  1.00  0.00     0.002 C 
BRANCH   7   8
HETATM    8  C7  UNL     1      13.736  43.026  -4.561  1.00  0.00     0.020 C 
BRANCH   8   9
HETATM    9  C6  UNL     1      14.089  41.585  -4.488  1.00  0.00     0.125 C 
BRANCH   9  10
HETATM   10  N1  UNL     1      14.468  41.170  -3.147  1.00  0.00    -0.337 N 
HETATM   11  C5  UNL     1      13.840  40.033  -2.602  1.00  0.00     0.361 C 
HETATM   12  O2  UNL     1      12.983  39.419  -3.279  1.00  0.00    -0.238 OA
ATOM     13  H1  UNL     1      15.169  41.687  -2.615  1.00  0.00     0.164 HD
BRANCH  11  14
HETATM   14  O1  UNL     1      14.113  39.536  -1.336  1.00  0.00    -0.294 OA
BRANCH  14  15
HETATM   15  C2  UNL     1      13.812  40.156  -0.125  1.00  0.00     0.061 C 
HETATM   16  C1  UNL     1      14.863  41.114   0.363  1.00  0.00     0.046 C 
HETATM   17  C3  UNL     1      13.666  39.043   0.915  1.00  0.00     0.046 C 
HETATM   18  C4  UNL     1      12.499  40.911  -0.165  1.00  0.00     0.046 C 
ENDBRANCH  14  15
ENDBRANCH  11  14
ENDBRANCH   9  10
ENDBRANCH   8   9
ENDBRANCH   7   8
ENDBRANCH   6   7
ENDBRANCH   5   6
ENDBRANCH   1   5
BRANCH   1  19
HETATM   19  N3  UNL     1       9.251  43.683  -3.287  1.00  0.00    -0.380 N 
ATOM     20  H3  UNL     1       8.939  44.190  -2.459  1.00  0.00     0.160 HD
BRANCH  19  21
HETATM   21  C12 UNL     1       8.669  42.422  -3.568  1.00  0.00     0.122 C 
BRANCH  21  22
HETATM   22  C13 UNL     1       7.220  42.341  -3.339  1.00  0.00     0.039 C 
BRANCH  22  23
HETATM   23  C14 UNL     1       6.742  41.319  -2.371  1.00  0.00     0.127 C 
BRANCH  23  24
HETATM   24  N4  UNL     1       5.273  41.499  -2.204  1.00  0.00    -0.358 N 
HETATM   25  C15 UNL     1       4.486  41.887  -3.346  1.00  0.00     0.127 C 
HETATM   26  C16 UNL     1       3.086  41.324  -3.174  1.00  0.00     0.039 C 
HETATM   27  C17 UNL     1       2.416  41.941  -1.950  1.00  0.00     0.123 C 
HETATM   28  N5  UNL     1       3.306  41.788  -0.802  1.00  0.00    -0.367 N 
HETATM   29  C18 UNL     1       4.637  41.308  -0.957  1.00  0.00     0.169 C 
ATOM     30  H5  UNL     1       2.968  42.029   0.129  1.00  0.00     0.161 HD
HETATM   31  S1  UNL     1       5.429  40.552   0.256  1.00  0.00    -0.041 SA
ENDBRANCH  23  24
ENDBRANCH  22  23
ENDBRANCH  21  22
ENDBRANCH  19  21
ENDBRANCH   1  19
TORSDOF 13
ENDMDL
