MODEL 1
REMARK VINA RESULT: -8.090539294      0.000      0.000
REMARK  10 active torsions:
REMARK  status: ('A' for Active; 'I' for Inactive)
REMARK    1  A    between atoms: C1_2  and  C2_3 
REMARK       I    between atoms: C1_2  and  N4_24 
REMARK    2  A    between atoms: C2_3  and  N1_4 
REMARK    3  A    between atoms: C5_7  and  N2_8 
REMARK    4  A    between atoms: N2_8  and  C6_10 
REMARK    5  A    between atoms: C6_10  and  C7_11 
REMARK    6  A    between atoms: C7_11  and  C8_12 
REMARK    7  A    between atoms: C8_12  and  C9_13 
REMARK    8  A    between atoms: C9_13  and  N3_14 
REMARK    9  A    between atoms: N3_14  and  C10_16 
REMARK   10  A    between atoms: N4_24  and  C18_26 
ROOT
HETATM    1  N1  UNL     1       6.532  41.580  -3.587  1.00  0.00     0.097 N 
HETATM    2  C3  UNL     1       6.068  41.867  -2.272  1.00  0.00     0.275 C 
HETATM    3  C4  UNL     1       4.608  42.344  -2.292  1.00  0.00     0.055 C 
HETATM    4  C5  UNL     1       3.755  41.327  -3.025  1.00  0.00     0.079 C 
HETATM    5  C16 UNL     1       4.264  41.104  -4.424  1.00  0.00     0.055 C 
HETATM    6  C17 UNL     1       5.560  41.859  -4.631  1.00  0.00     0.275 C 
ENDROOT
BRANCH   4   7
HETATM    7  N2  UNL     1       2.398  41.728  -3.057  1.00  0.00    -0.417 N 
ATOM      8  H2  UNL     1       2.086  42.502  -3.643  1.00  0.00     0.153 HD
BRANCH   7   9
HETATM    9  C6  UNL     1       1.488  41.002  -2.234  1.00  0.00     0.114 C 
BRANCH   9  10
HETATM   10  C7  UNL     1       0.714  42.063  -1.432  1.00  0.00     0.021 C 
BRANCH  10  11
HETATM   11  C8  UNL     1      -0.541  41.465  -0.888  1.00  0.00     0.021 C 
BRANCH  11  12
HETATM   12  C9  UNL     1      -1.157  40.579  -1.971  1.00  0.00     0.114 C 
BRANCH  12  13
HETATM   13  N3  UNL     1      -2.337  41.237  -2.446  1.00  0.00    -0.417 N 
ATOM     14  H3  UNL     1      -2.593  42.178  -2.146  1.00  0.00     0.153 HD
BRANCH  13  15
HETATM   15  C10 UNL     1      -3.131  40.489  -3.366  1.00  0.00     0.076 C 
HETATM   16  C11 UNL     1      -3.048  39.025  -2.914  1.00  0.00     0.024 C 
HETATM   17  C12 UNL     1      -3.880  38.221  -3.882  1.00  0.00     0.002 C 
HETATM   18  C13 UNL     1      -5.330  38.515  -3.545  1.00  0.00     0.000 C 
HETATM   19  C14 UNL     1      -5.467  39.848  -2.842  1.00  0.00     0.002 C 
HETATM   20  C15 UNL     1      -4.563  40.893  -3.469  1.00  0.00     0.024 C 
ENDBRANCH  13  15
ENDBRANCH  12  13
ENDBRANCH  11  12
ENDBRANCH  10  11
ENDBRANCH   9  10
ENDBRANCH   7   9
ENDBRANCH   4   7
BRANCH   1  21
HETATM   21  C2  UNL     1       7.704  42.330  -3.906  1.00  0.00     0.374 C 
BRANCH  21  22
HETATM   22  C1  UNL     1       8.969  41.732  -3.507  1.00  0.00     0.246 C 
HETATM   23  O1  UNL     1       9.303  40.646  -4.076  1.00  0.00    -0.272 OA
HETATM   24  N4  UNL     1       9.807  42.291  -2.542  1.00  0.00    -0.355 N 
ATOM     25  H4  UNL     1       9.546  43.162  -2.081  1.00  0.00     0.162 HD
BRANCH  24  26
HETATM   26  C18 UNL     1      11.071  41.617  -2.191  1.00  0.00     0.084 C 
HETATM   27  C19 UNL     1      10.860  41.086  -0.797  1.00  0.00     0.025 C 
HETATM   28  C20 UNL     1      12.153  40.977  -0.026  1.00  0.00     0.002 C 
HETATM   29  C21 UNL     1      13.290  40.789  -1.035  1.00  0.00     0.000 C 
HETATM   30  C22 UNL     1      13.477  42.123  -1.725  1.00  0.00     0.002 C 
HETATM   31  C23 UNL     1      12.161  42.651  -2.256  1.00  0.00     0.025 C 
ENDBRANCH  24  26
ENDBRANCH  21  22
ENDBRANCH   1  21
TORSDOF 10
ENDMDL
MODEL 2
REMARK VINA RESULT: -8.076499642      1.233      1.932
REMARK  10 active torsions:
REMARK  status: ('A' for Active; 'I' for Inactive)
REMARK    1  A    between atoms: C1_2  and  C2_3 
REMARK       I    between atoms: C1_2  and  N4_24 
REMARK    2  A    between atoms: C2_3  and  N1_4 
REMARK    3  A    between atoms: C5_7  and  N2_8 
REMARK    4  A    between atoms: N2_8  and  C6_10 
REMARK    5  A    between atoms: C6_10  and  C7_11 
REMARK    6  A    between atoms: C7_11  and  C8_12 
REMARK    7  A    between atoms: C8_12  and  C9_13 
REMARK    8  A    between atoms: C9_13  and  N3_14 
REMARK    9  A    between atoms: N3_14  and  C10_16 
REMARK   10  A    between atoms: N4_24  and  C18_26 
ROOT
HETATM    1  N1  UNL     1       6.612  41.470  -2.318  1.00  0.00     0.097 N 
HETATM    2  C3  UNL     1       6.181  41.869  -3.615  1.00  0.00     0.275 C 
HETATM    3  C4  UNL     1       4.687  41.572  -3.817  1.00  0.00     0.055 C 
HETATM    4  C5  UNL     1       3.890  42.207  -2.694  1.00  0.00     0.079 C 
HETATM    5  C16 UNL     1       4.357  41.708  -1.353  1.00  0.00     0.055 C 
HETATM    6  C17 UNL     1       5.578  40.829  -1.523  1.00  0.00     0.275 C 
ENDROOT
BRANCH   4   7
HETATM    7  N2  UNL     1       2.505  41.963  -2.851  1.00  0.00    -0.417 N 
ATOM      8  H2  UNL     1       1.808  42.500  -2.334  1.00  0.00     0.153 HD
BRANCH   7   9
HETATM    9  C6  UNL     1       2.126  40.934  -3.761  1.00  0.00     0.114 C 
BRANCH   9  10
HETATM   10  C7  UNL     1       0.950  40.199  -3.095  1.00  0.00     0.021 C 
BRANCH  10  11
HETATM   11  C8  UNL     1       0.353  41.064  -2.035  1.00  0.00     0.021 C 
BRANCH  11  12
HETATM   12  C9  UNL     1      -0.945  40.412  -1.559  1.00  0.00     0.114 C 
BRANCH  12  13
HETATM   13  N3  UNL     1      -2.032  41.176  -2.093  1.00  0.00    -0.417 N 
ATOM     14  H3  UNL     1      -2.285  42.093  -1.725  1.00  0.00     0.153 HD
BRANCH  13  15
HETATM   15  C10 UNL     1      -2.738  40.569  -3.175  1.00  0.00     0.076 C 
HETATM   16  C11 UNL     1      -3.074  39.142  -2.722  1.00  0.00     0.024 C 
HETATM   17  C12 UNL     1      -3.818  38.487  -3.859  1.00  0.00     0.002 C 
HETATM   18  C13 UNL     1      -5.210  39.092  -3.865  1.00  0.00     0.000 C 
HETATM   19  C14 UNL     1      -5.214  40.454  -3.208  1.00  0.00     0.002 C 
HETATM   20  C15 UNL     1      -3.989  41.258  -3.604  1.00  0.00     0.024 C 
ENDBRANCH  13  15
ENDBRANCH  12  13
ENDBRANCH  11  12
ENDBRANCH  10  11
ENDBRANCH   9  10
ENDBRANCH   7   9
ENDBRANCH   4   7
BRANCH   1  21
HETATM   21  C2  UNL     1       7.705  40.554  -2.386  1.00  0.00     0.374 C 
BRANCH  21  22
HETATM   22  C1  UNL     1       8.911  41.052  -3.029  1.00  0.00     0.246 C 
HETATM   23  O1  UNL     1       9.231  40.534  -4.143  1.00  0.00    -0.272 OA
HETATM   24  N4  UNL     1       9.712  42.052  -2.478  1.00  0.00    -0.355 N 
ATOM     25  H4  UNL     1       9.462  42.474  -1.584  1.00  0.00     0.162 HD
BRANCH  24  26
HETATM   26  C18 UNL     1      10.923  42.498  -3.193  1.00  0.00     0.084 C 
HETATM   27  C19 UNL     1      12.034  42.404  -2.181  1.00  0.00     0.025 C 
HETATM   28  C20 UNL     1      13.143  43.390  -2.456  1.00  0.00     0.002 C 
HETATM   29  C21 UNL     1      13.145  43.689  -3.959  1.00  0.00     0.000 C 
HETATM   30  C22 UNL     1      11.925  44.543  -4.230  1.00  0.00     0.002 C 
HETATM   31  C23 UNL     1      10.678  43.908  -3.652  1.00  0.00     0.025 C 
ENDBRANCH  24  26
ENDBRANCH  21  22
ENDBRANCH   1  21
TORSDOF 10
ENDMDL
MODEL 3
REMARK VINA RESULT: -7.978130742      1.428      2.235
REMARK  10 active torsions:
REMARK  status: ('A' for Active; 'I' for Inactive)
REMARK    1  A    between atoms: C1_2  and  C2_3 
REMARK       I    between atoms: C1_2  and  N4_24 
REMARK    2  A    between atoms: C2_3  and  N1_4 
REMARK    3  A    between atoms: C5_7  and  N2_8 
REMARK    4  A    between atoms: N2_8  and  C6_10 
REMARK    5  A    between atoms: C6_10  and  C7_11 
REMARK    6  A    between atoms: C7_11  and  C8_12 
REMARK    7  A    between atoms: C8_12  and  C9_13 
REMARK    8  A    between atoms: C9_13  and  N3_14 
REMARK    9  A    between atoms: N3_14  and  C10_16 
REMARK   10  A    between atoms: N4_24  and  C18_26 
ROOT
HETATM    1  N1  UNL     1       7.137  41.588  -2.901  1.00  0.00     0.097 N 
HETATM    2  C3  UNL     1       6.529  41.908  -4.148  1.00  0.00     0.275 C 
HETATM    3  C4  UNL     1       5.038  41.535  -4.148  1.00  0.00     0.055 C 
HETATM    4  C5  UNL     1       4.356  42.183  -2.960  1.00  0.00     0.079 C 
HETATM    5  C16 UNL     1       5.011  41.767  -1.669  1.00  0.00     0.055 C 
HETATM    6  C17 UNL     1       6.243  40.937  -1.958  1.00  0.00     0.275 C 
ENDROOT
BRANCH   4   7
HETATM    7  N2  UNL     1       2.976  41.870  -2.931  1.00  0.00    -0.417 N 
ATOM      8  H2  UNL     1       2.498  41.495  -3.751  1.00  0.00     0.153 HD
BRANCH   7   9
HETATM    9  C6  UNL     1       2.284  42.102  -1.707  1.00  0.00     0.114 C 
BRANCH   9  10
HETATM   10  C7  UNL     1       0.943  41.359  -1.838  1.00  0.00     0.021 C 
BRANCH  10  11
HETATM   11  C8  UNL     1       1.029  40.360  -2.944  1.00  0.00     0.021 C 
BRANCH  11  12
HETATM   12  C9  UNL     1      -0.330  39.672  -3.073  1.00  0.00     0.114 C 
BRANCH  12  13
HETATM   13  N3  UNL     1      -1.284  40.669  -3.454  1.00  0.00    -0.417 N 
ATOM     14  H3  UNL     1      -1.042  41.446  -4.069  1.00  0.00     0.153 HD
BRANCH  13  15
HETATM   15  C10 UNL     1      -2.595  40.505  -2.916  1.00  0.00     0.076 C 
HETATM   16  C11 UNL     1      -3.532  41.337  -3.802  1.00  0.00     0.024 C 
HETATM   17  C12 UNL     1      -4.922  41.176  -3.241  1.00  0.00     0.002 C 
HETATM   18  C13 UNL     1      -5.378  39.779  -3.623  1.00  0.00     0.000 C 
HETATM   19  C14 UNL     1      -4.195  38.869  -3.870  1.00  0.00     0.002 C 
HETATM   20  C15 UNL     1      -3.099  39.103  -2.846  1.00  0.00     0.024 C 
ENDBRANCH  13  15
ENDBRANCH  12  13
ENDBRANCH  11  12
ENDBRANCH  10  11
ENDBRANCH   9  10
ENDBRANCH   7   9
ENDBRANCH   4   7
BRANCH   1  21
HETATM   21  C2  UNL     1       8.258  40.720  -3.070  1.00  0.00     0.374 C 
BRANCH  21  22
HETATM   22  C1  UNL     1       9.539  41.244  -2.623  1.00  0.00     0.246 C 
HETATM   23  O1  UNL     1       9.627  41.603  -1.408  1.00  0.00    -0.272 OA
HETATM   24  N4  UNL     1      10.648  41.367  -3.460  1.00  0.00    -0.355 N 
ATOM     25  H4  UNL     1      10.586  41.080  -4.437  1.00  0.00     0.162 HD
BRANCH  24  26
HETATM   26  C18 UNL     1      11.910  41.913  -2.928  1.00  0.00     0.084 C 
HETATM   27  C19 UNL     1      11.952  43.342  -3.401  1.00  0.00     0.025 C 
HETATM   28  C20 UNL     1      13.363  43.852  -3.557  1.00  0.00     0.002 C 
HETATM   29  C21 UNL     1      14.258  43.063  -2.596  1.00  0.00     0.000 C 
HETATM   30  C22 UNL     1      14.389  41.671  -3.176  1.00  0.00     0.002 C 
HETATM   31  C23 UNL     1      13.030  41.085  -3.495  1.00  0.00     0.025 C 
ENDBRANCH  24  26
ENDBRANCH  21  22
ENDBRANCH   1  21
TORSDOF 10
ENDMDL
MODEL 4
REMARK VINA RESULT: -7.975912534      6.211     10.715
REMARK  10 active torsions:
REMARK  status: ('A' for Active; 'I' for Inactive)
REMARK    1  A    between atoms: C1_2  and  C2_3 
REMARK       I    between atoms: C1_2  and  N4_24 
REMARK    2  A    between atoms: C2_3  and  N1_4 
REMARK    3  A    between atoms: C5_7  and  N2_8 
REMARK    4  A    between atoms: N2_8  and  C6_10 
REMARK    5  A    between atoms: C6_10  and  C7_11 
REMARK    6  A    between atoms: C7_11  and  C8_12 
REMARK    7  A    between atoms: C8_12  and  C9_13 
REMARK    8  A    between atoms: C9_13  and  N3_14 
REMARK    9  A    between atoms: N3_14  and  C10_16 
REMARK   10  A    between atoms: N4_24  and  C18_26 
ROOT
HETATM    1  N1  UNL     1      12.533  43.120  -3.302  1.00  0.00     0.097 N 
HETATM    2  C3  UNL     1      13.873  43.590  -3.408  1.00  0.00     0.275 C 
HETATM    3  C4  UNL     1      14.705  43.169  -2.186  1.00  0.00     0.055 C 
HETATM    4  C5  UNL     1      14.605  41.668  -2.001  1.00  0.00     0.079 C 
HETATM    5  C16 UNL     1      13.170  41.238  -1.845  1.00  0.00     0.055 C 
HETATM    6  C17 UNL     1      12.249  42.419  -2.061  1.00  0.00     0.275 C 
ENDROOT
BRANCH   4   7
HETATM    7  N2  UNL     1      15.367  41.239  -0.889  1.00  0.00    -0.417 N 
ATOM      8  H2  UNL     1      16.328  40.914  -0.996  1.00  0.00     0.153 HD
BRANCH   7   9
HETATM    9  C6  UNL     1      14.733  41.282   0.387  1.00  0.00     0.114 C 
BRANCH   9  10
HETATM   10  C7  UNL     1      14.835  39.853   0.951  1.00  0.00     0.021 C 
BRANCH  10  11
HETATM   11  C8  UNL     1      13.980  39.732   2.168  1.00  0.00     0.021 C 
BRANCH  11  12
HETATM   12  C9  UNL     1      12.826  38.781   1.849  1.00  0.00     0.114 C 
BRANCH  12  13
HETATM   13  N3  UNL     1      11.608  39.523   1.977  1.00  0.00    -0.417 N 
ATOM     14  H3  UNL     1      11.144  39.656   2.875  1.00  0.00     0.153 HD
BRANCH  13  15
HETATM   15  C10 UNL     1      11.086  40.063   0.763  1.00  0.00     0.076 C 
HETATM   16  C11 UNL     1      10.355  38.912   0.059  1.00  0.00     0.024 C 
HETATM   17  C12 UNL     1       9.802  39.469  -1.229  1.00  0.00     0.002 C 
HETATM   18  C13 UNL     1       8.616  40.335  -0.846  1.00  0.00     0.000 C 
HETATM   19  C14 UNL     1       8.733  40.817   0.583  1.00  0.00     0.002 C 
HETATM   20  C15 UNL     1      10.158  41.221   0.912  1.00  0.00     0.024 C 
ENDBRANCH  13  15
ENDBRANCH  12  13
ENDBRANCH  11  12
ENDBRANCH  10  11
ENDBRANCH   9  10
ENDBRANCH   7   9
ENDBRANCH   4   7
BRANCH   1  21
HETATM   21  C2  UNL     1      11.592  44.189  -3.396  1.00  0.00     0.374 C 
BRANCH  21  22
HETATM   22  C1  UNL     1      10.280  43.836  -3.915  1.00  0.00     0.246 C 
HETATM   23  O1  UNL     1       9.658  44.724  -4.576  1.00  0.00    -0.272 OA
HETATM   24  N4  UNL     1       9.691  42.588  -3.715  1.00  0.00    -0.355 N 
ATOM     25  H4  UNL     1      10.183  41.868  -3.185  1.00  0.00     0.162 HD
BRANCH  24  26
HETATM   26  C18 UNL     1       8.353  42.311  -4.271  1.00  0.00     0.084 C 
HETATM   27  C19 UNL     1       7.385  42.751  -3.205  1.00  0.00     0.025 C 
HETATM   28  C20 UNL     1       6.087  41.983  -3.259  1.00  0.00     0.002 C 
HETATM   29  C21 UNL     1       5.880  41.508  -4.700  1.00  0.00     0.000 C 
HETATM   30  C22 UNL     1       6.883  40.398  -4.935  1.00  0.00     0.002 C 
HETATM   31  C23 UNL     1       8.278  40.834  -4.544  1.00  0.00     0.025 C 
ENDBRANCH  24  26
ENDBRANCH  21  22
ENDBRANCH   1  21
TORSDOF 10
ENDMDL
MODEL 5
REMARK VINA RESULT: -7.964315076      4.571     12.400
REMARK  10 active torsions:
REMARK  status: ('A' for Active; 'I' for Inactive)
REMARK    1  A    between atoms: C1_2  and  C2_3 
REMARK       I    between atoms: C1_2  and  N4_24 
REMARK    2  A    between atoms: C2_3  and  N1_4 
REMARK    3  A    between atoms: C5_7  and  N2_8 
REMARK    4  A    between atoms: N2_8  and  C6_10 
REMARK    5  A    between atoms: C6_10  and  C7_11 
REMARK    6  A    between atoms: C7_11  and  C8_12 
REMARK    7  A    between atoms: C8_12  and  C9_13 
REMARK    8  A    between atoms: C9_13  and  N3_14 
REMARK    9  A    between atoms: N3_14  and  C10_16 
REMARK   10  A    between atoms: N4_24  and  C18_26 
ROOT
HETATM    1  N1  UNL     1      10.503  42.577  -3.110  1.00  0.00     0.097 N 
HETATM    2  C3  UNL     1      11.167  41.374  -2.736  1.00  0.00     0.275 C 
HETATM    3  C4  UNL     1      12.686  41.499  -2.926  1.00  0.00     0.055 C 
HETATM    4  C5  UNL     1      13.190  42.721  -2.184  1.00  0.00     0.079 C 
HETATM    5  C16 UNL     1      12.488  43.966  -2.658  1.00  0.00     0.055 C 
HETATM    6  C17 UNL     1      11.390  43.602  -3.635  1.00  0.00     0.275 C 
ENDROOT
BRANCH   4   7
HETATM    7  N2  UNL     1      14.590  42.865  -2.328  1.00  0.00    -0.417 N 
ATOM      8  H2  UNL     1      15.025  42.945  -3.247  1.00  0.00     0.153 HD
BRANCH   7   9
HETATM    9  C6  UNL     1      15.365  42.893  -1.133  1.00  0.00     0.114 C 
BRANCH   9  10
HETATM   10  C7  UNL     1      15.598  41.421  -0.751  1.00  0.00     0.021 C 
BRANCH  10  11
HETATM   11  C8  UNL     1      14.920  41.124   0.545  1.00  0.00     0.021 C 
BRANCH  11  12
HETATM   12  C9  UNL     1      13.970  39.946   0.331  1.00  0.00     0.114 C 
BRANCH  12  13
HETATM   13  N3  UNL     1      13.331  39.675   1.582  1.00  0.00    -0.417 N 
ATOM     14  H3  UNL     1      12.786  40.380   2.079  1.00  0.00     0.153 HD
BRANCH  13  15
HETATM   15  C10 UNL     1      13.505  38.352   2.089  1.00  0.00     0.076 C 
HETATM   16  C11 UNL     1      13.144  37.400   0.941  1.00  0.00     0.024 C 
HETATM   17  C12 UNL     1      13.320  35.998   1.466  1.00  0.00     0.002 C 
HETATM   18  C13 UNL     1      14.817  35.754   1.544  1.00  0.00     0.000 C 
HETATM   19  C14 UNL     1      15.575  37.059   1.658  1.00  0.00     0.002 C 
HETATM   20  C15 UNL     1      14.869  38.023   2.594  1.00  0.00     0.024 C 
ENDBRANCH  13  15
ENDBRANCH  12  13
ENDBRANCH  11  12
ENDBRANCH  10  11
ENDBRANCH   9  10
ENDBRANCH   7   9
ENDBRANCH   4   7
BRANCH   1  21
HETATM   21  C2  UNL     1       9.511  42.341  -4.109  1.00  0.00     0.374 C 
BRANCH  21  22
HETATM   22  C1  UNL     1       8.140  42.638  -3.724  1.00  0.00     0.246 C 
HETATM   23  O1  UNL     1       7.888  43.823  -3.341  1.00  0.00    -0.272 OA
HETATM   24  N4  UNL     1       7.116  41.692  -3.756  1.00  0.00    -0.355 N 
ATOM     25  H4  UNL     1       7.309  40.739  -4.062  1.00  0.00     0.162 HD
BRANCH  24  26
HETATM   26  C18 UNL     1       5.752  42.074  -3.344  1.00  0.00     0.084 C 
HETATM   27  C19 UNL     1       5.598  41.537  -1.945  1.00  0.00     0.025 C 
HETATM   28  C20 UNL     1       4.161  41.222  -1.609  1.00  0.00     0.002 C 
HETATM   29  C21 UNL     1       3.268  42.125  -2.466  1.00  0.00     0.000 C 
HETATM   30  C22 UNL     1       3.355  41.598  -3.882  1.00  0.00     0.002 C 
HETATM   31  C23 UNL     1       4.797  41.438  -4.315  1.00  0.00     0.025 C 
ENDBRANCH  24  26
ENDBRANCH  21  22
ENDBRANCH   1  21
TORSDOF 10
ENDMDL
