MODEL 1
REMARK VINA RESULT: -8.041441042      0.000      0.000
REMARK  9 active torsions:
REMARK  status: ('A' for Active; 'I' for Inactive)
REMARK       I    between atoms: C1_2  and  N1_3 
REMARK    1  A    between atoms: C1_2  and  C16_26 
REMARK    2  A    between atoms: N1_3  and  C2_5 
REMARK    3  A    between atoms: C5_11  and  C6_12 
REMARK    4  A    between atoms: N3_13  and  C7_15 
REMARK    5  A    between atoms: C7_15  and  C8_16 
REMARK    6  A    between atoms: C8_16  and  C9_17 
REMARK    7  A    between atoms: C9_17  and  C10_18 
REMARK    8  A    between atoms: C10_18  and  N4_19 
REMARK    9  A    between atoms: N4_19  and  C11_21 
ROOT
HETATM    1  C2  UNL     1       9.337  41.945  -2.778  1.00  0.00     0.120 C 
HETATM    2  C3  UNL     1       9.258  40.964  -4.017  1.00  0.00     0.257 C 
HETATM    3  N2  UNL     1       8.161  41.381  -4.800  1.00  0.00    -0.072 N 
ATOM      4  H21 UNL     1       7.602  40.600  -5.144  1.00  0.00     0.277 HD
ATOM      5  H22 UNL     1       8.442  41.757  -5.706  1.00  0.00     0.277 HD
HETATM    6  C4  UNL     1       7.385  42.326  -4.014  1.00  0.00     0.244 C 
HETATM    7  C5  UNL     1       8.536  43.089  -3.323  1.00  0.00     0.074 C 
ENDROOT
BRANCH   7   8
HETATM    8  C6  UNL     1       9.382  43.699  -4.452  1.00  0.00     0.068 C 
HETATM    9  N3  UNL     1      10.045  44.855  -4.277  1.00  0.00    -0.382 N 
ATOM     10  H3  UNL     1       9.615  45.658  -4.737  1.00  0.00     0.164 HD
BRANCH   9  11
HETATM   11  C7  UNL     1      11.211  45.153  -3.581  1.00  0.00     0.060 C 
BRANCH  11  12
HETATM   12  C8  UNL     1      12.218  44.060  -3.834  1.00  0.00     0.046 C 
BRANCH  12  13
HETATM   13  C9  UNL     1      12.968  43.623  -2.636  1.00  0.00     0.024 C 
BRANCH  13  14
HETATM   14  C10 UNL     1      14.420  43.415  -3.054  1.00  0.00     0.114 C 
BRANCH  14  15
HETATM   15  N4  UNL     1      15.271  43.510  -1.930  1.00  0.00    -0.417 N 
ATOM     16  H4  UNL     1      15.510  44.405  -1.502  1.00  0.00     0.153 HD
BRANCH  15  17
HETATM   17  C11 UNL     1      15.769  42.283  -1.439  1.00  0.00     0.076 C 
HETATM   18  C12 UNL     1      15.480  41.160  -2.444  1.00  0.00     0.024 C 
HETATM   19  C13 UNL     1      15.120  39.995  -1.549  1.00  0.00     0.002 C 
HETATM   20  C14 UNL     1      14.284  40.628  -0.459  1.00  0.00     0.002 C 
HETATM   21  C15 UNL     1      15.022  41.903  -0.166  1.00  0.00     0.024 C 
ENDBRANCH  15  17
ENDBRANCH  14  15
ENDBRANCH  13  14
ENDBRANCH  12  13
ENDBRANCH  11  12
ENDBRANCH   9  11
ENDBRANCH   7   8
BRANCH   1  22
HETATM   22  N1  UNL     1       8.677  41.198  -1.716  1.00  0.00    -0.354 N 
HETATM   23  C1  UNL     1       9.380  41.045  -0.466  1.00  0.00     0.222 C 
HETATM   24  O1  UNL     1      10.507  41.600  -0.392  1.00  0.00    -0.273 OA
ATOM     25  H1  UNL     1       7.749  40.797  -1.851  1.00  0.00     0.162 HD
BRANCH  23  26
HETATM   26  C16 UNL     1       8.777  40.281   0.597  1.00  0.00     0.082 C 
HETATM   27  C17 UNL     1       8.483  41.053   1.877  1.00  0.00     0.019 C 
HETATM   28  C18 UNL     1       7.572  40.111   2.646  1.00  0.00    -0.013 C 
HETATM   29  C19 UNL     1       6.216  40.777   2.861  1.00  0.00     0.005 C 
HETATM   30  C23 UNL     1       7.257  38.949   1.681  1.00  0.00     0.010 C 
HETATM   31  C20 UNL     1       5.426  40.707   1.584  1.00  0.00     0.001 C 
HETATM   32  C21 UNL     1       6.301  40.747   0.344  1.00  0.00     0.005 C 
HETATM   33  C22 UNL     1       7.391  39.710   0.343  1.00  0.00    -0.001 C 
ENDBRANCH  23  26
ENDBRANCH   1  22
TORSDOF 9
ENDMDL
MODEL 2
REMARK VINA RESULT: -8.021311203      1.918      7.290
REMARK  9 active torsions:
REMARK  status: ('A' for Active; 'I' for Inactive)
REMARK       I    between atoms: C1_2  and  N1_3 
REMARK    1  A    between atoms: C1_2  and  C16_26 
REMARK    2  A    between atoms: N1_3  and  C2_5 
REMARK    3  A    between atoms: C5_11  and  C6_12 
REMARK    4  A    between atoms: N3_13  and  C7_15 
REMARK    5  A    between atoms: C7_15  and  C8_16 
REMARK    6  A    between atoms: C8_16  and  C9_17 
REMARK    7  A    between atoms: C9_17  and  C10_18 
REMARK    8  A    between atoms: C10_18  and  N4_19 
REMARK    9  A    between atoms: N4_19  and  C11_21 
ROOT
HETATM    1  C2  UNL     1       9.219  41.869  -2.501  1.00  0.00     0.120 C 
HETATM    2  C3  UNL     1       9.518  42.935  -3.632  1.00  0.00     0.257 C 
HETATM    3  N2  UNL     1       8.906  42.462  -4.812  1.00  0.00    -0.072 N 
ATOM      4  H21 UNL     1       9.494  42.581  -5.637  1.00  0.00     0.277 HD
ATOM      5  H22 UNL     1       8.127  43.047  -5.114  1.00  0.00     0.277 HD
HETATM    6  C4  UNL     1       8.519  41.079  -4.591  1.00  0.00     0.244 C 
HETATM    7  C5  UNL     1       8.045  41.176  -3.125  1.00  0.00     0.074 C 
ENDROOT
BRANCH   7   8
HETATM    8  C6  UNL     1       6.896  42.198  -3.116  1.00  0.00     0.068 C 
HETATM    9  N3  UNL     1       5.710  41.915  -3.681  1.00  0.00    -0.382 N 
ATOM     10  H3  UNL     1       5.552  42.377  -4.577  1.00  0.00     0.164 HD
BRANCH   9  11
HETATM   11  C7  UNL     1       4.659  41.104  -3.264  1.00  0.00     0.060 C 
BRANCH  11  12
HETATM   12  C8  UNL     1       3.611  41.969  -2.612  1.00  0.00     0.046 C 
BRANCH  12  13
HETATM   13  C9  UNL     1       3.795  42.172  -1.158  1.00  0.00     0.024 C 
BRANCH  13  14
HETATM   14  C10 UNL     1       4.293  40.856  -0.570  1.00  0.00     0.114 C 
BRANCH  14  15
HETATM   15  N4  UNL     1       4.615  41.021   0.796  1.00  0.00    -0.417 N 
ATOM     16  H4  UNL     1       4.115  41.676   1.397  1.00  0.00     0.153 HD
BRANCH  15  17
HETATM   17  C11 UNL     1       5.676  40.219   1.272  1.00  0.00     0.076 C 
HETATM   18  C12 UNL     1       6.135  40.721   2.647  1.00  0.00     0.024 C 
HETATM   19  C13 UNL     1       7.637  40.559   2.577  1.00  0.00     0.002 C 
HETATM   20  C14 UNL     1       7.978  40.991   1.168  1.00  0.00     0.002 C 
HETATM   21  C15 UNL     1       6.881  40.370   0.352  1.00  0.00     0.024 C 
ENDBRANCH  15  17
ENDBRANCH  14  15
ENDBRANCH  13  14
ENDBRANCH  12  13
ENDBRANCH  11  12
ENDBRANCH   9  11
ENDBRANCH   7   8
BRANCH   1  22
HETATM   22  N1  UNL     1      10.437  41.072  -2.459  1.00  0.00    -0.354 N 
HETATM   23  C1  UNL     1      11.295  41.217  -1.308  1.00  0.00     0.222 C 
HETATM   24  O1  UNL     1      10.897  42.010  -0.416  1.00  0.00    -0.273 OA
ATOM     25  H1  UNL     1      10.676  40.433  -3.217  1.00  0.00     0.162 HD
BRANCH  23  26
HETATM   26  C16 UNL     1      12.527  40.473  -1.246  1.00  0.00     0.082 C 
HETATM   27  C17 UNL     1      13.162  40.136  -2.590  1.00  0.00     0.019 C 
HETATM   28  C18 UNL     1      14.559  39.679  -2.206  1.00  0.00    -0.013 C 
HETATM   29  C19 UNL     1      15.590  40.612  -2.837  1.00  0.00     0.005 C 
HETATM   30  C23 UNL     1      14.693  39.959  -0.695  1.00  0.00     0.010 C 
HETATM   31  C20 UNL     1      15.649  41.887  -2.044  1.00  0.00     0.001 C 
HETATM   32  C21 UNL     1      14.318  42.255  -1.416  1.00  0.00     0.005 C 
HETATM   33  C22 UNL     1      13.718  41.152  -0.587  1.00  0.00    -0.001 C 
ENDBRANCH  23  26
ENDBRANCH   1  22
TORSDOF 9
ENDMDL
MODEL 3
REMARK VINA RESULT: -8.009073583      8.357     12.920
REMARK  9 active torsions:
REMARK  status: ('A' for Active; 'I' for Inactive)
REMARK       I    between atoms: C1_2  and  N1_3 
REMARK    1  A    between atoms: C1_2  and  C16_26 
REMARK    2  A    between atoms: N1_3  and  C2_5 
REMARK    3  A    between atoms: C5_11  and  C6_12 
REMARK    4  A    between atoms: N3_13  and  C7_15 
REMARK    5  A    between atoms: C7_15  and  C8_16 
REMARK    6  A    between atoms: C8_16  and  C9_17 
REMARK    7  A    between atoms: C9_17  and  C10_18 
REMARK    8  A    between atoms: C10_18  and  N4_19 
REMARK    9  A    between atoms: N4_19  and  C11_21 
ROOT
HETATM    1  C2  UNL     1       0.767  40.093  -2.256  1.00  0.00     0.120 C 
HETATM    2  C3  UNL     1       0.632  39.613  -0.754  1.00  0.00     0.257 C 
HETATM    3  N2  UNL     1      -0.145  40.582  -0.084  1.00  0.00    -0.072 N 
ATOM      4  H21 UNL     1       0.217  40.805   0.843  1.00  0.00     0.277 HD
ATOM      5  H22 UNL     1      -1.055  40.226   0.207  1.00  0.00     0.277 HD
HETATM    6  C4  UNL     1      -0.246  41.748  -0.945  1.00  0.00     0.244 C 
HETATM    7  C5  UNL     1      -0.390  41.045  -2.312  1.00  0.00     0.074 C 
ENDROOT
BRANCH   7   8
HETATM    8  C6  UNL     1      -1.656  40.178  -2.214  1.00  0.00     0.068 C 
HETATM    9  N3  UNL     1      -2.880  40.719  -2.343  1.00  0.00    -0.382 N 
ATOM     10  H3  UNL     1      -3.389  40.818  -1.464  1.00  0.00     0.164 HD
BRANCH   9  11
HETATM   11  C7  UNL     1      -3.577  41.169  -3.460  1.00  0.00     0.060 C 
BRANCH  11  12
HETATM   12  C8  UNL     1      -4.967  40.589  -3.428  1.00  0.00     0.046 C 
BRANCH  12  13
HETATM   13  C9  UNL     1      -5.025  39.141  -3.131  1.00  0.00     0.024 C 
BRANCH  13  14
HETATM   14  C10 UNL     1      -5.215  38.407  -4.454  1.00  0.00     0.114 C 
BRANCH  14  15
HETATM   15  N4  UNL     1      -3.984  37.878  -4.901  1.00  0.00    -0.417 N 
ATOM     16  H4  UNL     1      -3.629  38.046  -5.843  1.00  0.00     0.153 HD
BRANCH  15  17
HETATM   17  C11 UNL     1      -3.278  37.099  -3.957  1.00  0.00     0.076 C 
HETATM   18  C12 UNL     1      -1.867  36.796  -4.479  1.00  0.00     0.024 C 
HETATM   19  C13 UNL     1      -1.646  35.368  -4.031  1.00  0.00     0.002 C 
HETATM   20  C14 UNL     1      -2.985  34.707  -4.270  1.00  0.00     0.002 C 
HETATM   21  C15 UNL     1      -3.961  35.746  -3.799  1.00  0.00     0.024 C 
ENDBRANCH  15  17
ENDBRANCH  14  15
ENDBRANCH  13  14
ENDBRANCH  12  13
ENDBRANCH  11  12
ENDBRANCH   9  11
ENDBRANCH   7   8
BRANCH   1  22
HETATM   22  N1  UNL     1       2.076  40.732  -2.289  1.00  0.00    -0.354 N 
HETATM   23  C1  UNL     1       2.628  41.067  -3.578  1.00  0.00     0.222 C 
HETATM   24  O1  UNL     1       1.908  40.800  -4.575  1.00  0.00    -0.273 OA
ATOM     25  H1  UNL     1       2.585  40.935  -1.428  1.00  0.00     0.162 HD
BRANCH  23  26
HETATM   26  C16 UNL     1       3.936  41.666  -3.654  1.00  0.00     0.082 C 
HETATM   27  C17 UNL     1       4.603  41.964  -2.317  1.00  0.00     0.019 C 
HETATM   28  C18 UNL     1       6.043  42.252  -2.707  1.00  0.00    -0.013 C 
HETATM   29  C19 UNL     1       6.962  41.226  -2.049  1.00  0.00     0.005 C 
HETATM   30  C23 UNL     1       6.146  41.920  -4.210  1.00  0.00     0.010 C 
HETATM   31  C20 UNL     1       6.878  39.932  -2.809  1.00  0.00     0.001 C 
HETATM   32  C21 UNL     1       5.515  39.699  -3.433  1.00  0.00     0.005 C 
HETATM   33  C22 UNL     1       5.043  40.842  -4.292  1.00  0.00    -0.001 C 
ENDBRANCH  23  26
ENDBRANCH   1  22
TORSDOF 9
ENDMDL
MODEL 4
REMARK VINA RESULT: -7.909658085      2.345      4.478
REMARK  9 active torsions:
REMARK  status: ('A' for Active; 'I' for Inactive)
REMARK       I    between atoms: C1_2  and  N1_3 
REMARK    1  A    between atoms: C1_2  and  C16_26 
REMARK    2  A    between atoms: N1_3  and  C2_5 
REMARK    3  A    between atoms: C5_11  and  C6_12 
REMARK    4  A    between atoms: N3_13  and  C7_15 
REMARK    5  A    between atoms: C7_15  and  C8_16 
REMARK    6  A    between atoms: C8_16  and  C9_17 
REMARK    7  A    between atoms: C9_17  and  C10_18 
REMARK    8  A    between atoms: C10_18  and  N4_19 
REMARK    9  A    between atoms: N4_19  and  C11_21 
ROOT
HETATM    1  C2  UNL     1      10.681  43.177  -3.912  1.00  0.00     0.120 C 
HETATM    2  C3  UNL     1      10.720  44.524  -4.741  1.00  0.00     0.257 C 
HETATM    3  N2  UNL     1      11.409  45.470  -3.953  1.00  0.00    -0.072 N 
ATOM      4  H21 UNL     1      10.971  46.391  -3.967  1.00  0.00     0.277 HD
ATOM      5  H22 UNL     1      12.307  45.740  -4.354  1.00  0.00     0.277 HD
HETATM    6  C4  UNL     1      11.534  44.927  -2.610  1.00  0.00     0.244 C 
HETATM    7  C5  UNL     1      11.805  43.447  -2.957  1.00  0.00     0.074 C 
ENDROOT
BRANCH   7   8
HETATM    8  C6  UNL     1      13.091  43.437  -3.801  1.00  0.00     0.068 C 
HETATM    9  N3  UNL     1      14.303  43.442  -3.221  1.00  0.00    -0.382 N 
ATOM     10  H3  UNL     1      14.784  44.340  -3.265  1.00  0.00     0.164 HD
BRANCH   9  11
HETATM   11  C7  UNL     1      15.019  42.442  -2.571  1.00  0.00     0.060 C 
BRANCH  11  12
HETATM   12  C8  UNL     1      15.333  42.904  -1.171  1.00  0.00     0.046 C 
BRANCH  12  13
HETATM   13  C9  UNL     1      15.084  41.896  -0.118  1.00  0.00     0.024 C 
BRANCH  13  14
HETATM   14  C10 UNL     1      14.041  40.921  -0.652  1.00  0.00     0.114 C 
BRANCH  14  15
HETATM   15  N4  UNL     1      13.291  40.373   0.413  1.00  0.00    -0.417 N 
ATOM     16  H4  UNL     1      13.604  40.426   1.382  1.00  0.00     0.153 HD
BRANCH  15  17
HETATM   17  C11 UNL     1      12.080  39.747   0.045  1.00  0.00     0.076 C 
HETATM   18  C12 UNL     1      11.864  39.873  -1.469  1.00  0.00     0.024 C 
HETATM   19  C13 UNL     1      10.375  40.117  -1.576  1.00  0.00     0.002 C 
HETATM   20  C14 UNL     1      10.084  41.052  -0.423  1.00  0.00     0.002 C 
HETATM   21  C15 UNL     1      10.911  40.479   0.692  1.00  0.00     0.024 C 
ENDBRANCH  15  17
ENDBRANCH  14  15
ENDBRANCH  13  14
ENDBRANCH  12  13
ENDBRANCH  11  12
ENDBRANCH   9  11
ENDBRANCH   7   8
BRANCH   1  22
HETATM   22  N1  UNL     1       9.358  43.193  -3.305  1.00  0.00    -0.354 N 
HETATM   23  C1  UNL     1       8.394  42.225  -3.770  1.00  0.00     0.222 C 
HETATM   24  O1  UNL     1       8.796  41.423  -4.652  1.00  0.00    -0.273 OA
ATOM     25  H1  UNL     1       9.120  43.865  -2.577  1.00  0.00     0.162 HD
BRANCH  23  26
HETATM   26  C16 UNL     1       7.062  42.233  -3.221  1.00  0.00     0.082 C 
HETATM   27  C17 UNL     1       5.948  41.859  -4.190  1.00  0.00     0.019 C 
HETATM   28  C18 UNL     1       4.758  41.625  -3.274  1.00  0.00    -0.013 C 
HETATM   29  C19 UNL     1       4.292  40.178  -3.404  1.00  0.00     0.005 C 
HETATM   30  C23 UNL     1       5.313  41.700  -1.836  1.00  0.00     0.010 C 
HETATM   31  C20 UNL     1       5.226  39.289  -2.633  1.00  0.00     0.001 C 
HETATM   32  C21 UNL     1       6.650  39.812  -2.601  1.00  0.00     0.005 C 
HETATM   33  C22 UNL     1       6.759  41.233  -2.116  1.00  0.00    -0.001 C 
ENDBRANCH  23  26
ENDBRANCH   1  22
TORSDOF 9
ENDMDL
MODEL 5
REMARK VINA RESULT: -7.899664665      2.102      6.835
REMARK  9 active torsions:
REMARK  status: ('A' for Active; 'I' for Inactive)
REMARK       I    between atoms: C1_2  and  N1_3 
REMARK    1  A    between atoms: C1_2  and  C16_26 
REMARK    2  A    between atoms: N1_3  and  C2_5 
REMARK    3  A    between atoms: C5_11  and  C6_12 
REMARK    4  A    between atoms: N3_13  and  C7_15 
REMARK    5  A    between atoms: C7_15  and  C8_16 
REMARK    6  A    between atoms: C8_16  and  C9_17 
REMARK    7  A    between atoms: C9_17  and  C10_18 
REMARK    8  A    between atoms: C10_18  and  N4_19 
REMARK    9  A    between atoms: N4_19  and  C11_21 
ROOT
HETATM    1  C2  UNL     1       9.195  41.831  -2.427  1.00  0.00     0.120 C 
HETATM    2  C3  UNL     1       9.550  42.849  -3.585  1.00  0.00     0.257 C 
HETATM    3  N2  UNL     1       8.981  42.335  -4.770  1.00  0.00    -0.072 N 
ATOM      4  H21 UNL     1       9.602  42.416  -5.574  1.00  0.00     0.277 HD
ATOM      5  H22 UNL     1       8.220  42.914  -5.126  1.00  0.00     0.277 HD
HETATM    6  C4  UNL     1       8.571  40.965  -4.511  1.00  0.00     0.244 C 
HETATM    7  C5  UNL     1       8.040  41.124  -3.070  1.00  0.00     0.074 C 
ENDROOT
BRANCH   7   8
HETATM    8  C6  UNL     1       6.902  42.156  -3.148  1.00  0.00     0.068 C 
HETATM    9  N3  UNL     1       5.728  41.853  -3.729  1.00  0.00    -0.382 N 
ATOM     10  H3  UNL     1       5.599  42.267  -4.653  1.00  0.00     0.164 HD
BRANCH   9  11
HETATM   11  C7  UNL     1       4.658  41.075  -3.298  1.00  0.00     0.060 C 
BRANCH  11  12
HETATM   12  C8  UNL     1       3.619  41.980  -2.687  1.00  0.00     0.046 C 
BRANCH  12  13
HETATM   13  C9  UNL     1       3.783  42.218  -1.236  1.00  0.00     0.024 C 
BRANCH  13  14
HETATM   14  C10 UNL     1       4.289  40.921  -0.612  1.00  0.00     0.114 C 
BRANCH  14  15
HETATM   15  N4  UNL     1       4.623  41.128   0.744  1.00  0.00    -0.417 N 
ATOM     16  H4  UNL     1       4.173  41.846   1.312  1.00  0.00     0.153 HD
BRANCH  15  17
HETATM   17  C11 UNL     1       5.623  40.274   1.262  1.00  0.00     0.076 C 
HETATM   18  C12 UNL     1       5.974  40.688   2.697  1.00  0.00     0.024 C 
HETATM   19  C13 UNL     1       7.473  40.491   2.744  1.00  0.00     0.002 C 
HETATM   20  C14 UNL     1       7.941  40.991   1.395  1.00  0.00     0.002 C 
HETATM   21  C15 UNL     1       6.904  40.444   0.456  1.00  0.00     0.024 C 
ENDBRANCH  15  17
ENDBRANCH  14  15
ENDBRANCH  13  14
ENDBRANCH  12  13
ENDBRANCH  11  12
ENDBRANCH   9  11
ENDBRANCH   7   8
BRANCH   1  22
HETATM   22  N1  UNL     1      10.402  41.026  -2.304  1.00  0.00    -0.354 N 
HETATM   23  C1  UNL     1      11.206  41.197  -1.119  1.00  0.00     0.222 C 
HETATM   24  O1  UNL     1      10.774  42.019  -0.270  1.00  0.00    -0.273 OA
ATOM     25  H1  UNL     1      10.670  40.363  -3.032  1.00  0.00     0.162 HD
BRANCH  23  26
HETATM   26  C16 UNL     1      12.427  40.446  -0.978  1.00  0.00     0.082 C 
HETATM   27  C17 UNL     1      13.586  41.189  -0.325  1.00  0.00     0.019 C 
HETATM   28  C18 UNL     1      14.575  40.079  -0.011  1.00  0.00    -0.013 C 
HETATM   29  C19 UNL     1      14.796  40.006   1.497  1.00  0.00     0.005 C 
HETATM   30  C23 UNL     1      13.842  38.760  -0.334  1.00  0.00     0.010 C 
HETATM   31  C20 UNL     1      13.622  39.318   2.134  1.00  0.00     0.001 C 
HETATM   32  C21 UNL     1      12.320  39.559   1.392  1.00  0.00     0.005 C 
HETATM   33  C22 UNL     1      12.392  39.224  -0.073  1.00  0.00    -0.001 C 
ENDBRANCH  23  26
ENDBRANCH   1  22
TORSDOF 9
ENDMDL
