MODEL 1
REMARK VINA RESULT: -7.110082166      0.000      0.000
REMARK  9 active torsions:
REMARK  status: ('A' for Active; 'I' for Inactive)
REMARK    1  A    between atoms: C2_2  and  C3_3 
REMARK    2  A    between atoms: C3_3  and  O1_4 
REMARK    3  A    between atoms: C3_3  and  C4_6 
REMARK    4  A    between atoms: C3_3  and  C5_8 
REMARK    5  A    between atoms: C8_13  and  O2_14 
REMARK    6  A    between atoms: C8_13  and  C10_16 
REMARK    7  A    between atoms: C10_16  and  C11_17 
REMARK    8  A    between atoms: C10_16  and  C20_33 
REMARK       I    between atoms: C11_17  and  N2_19 
REMARK       I    between atoms: N2_19  and  C12_21 
REMARK    9  A    between atoms: C12_21  and  C13_23 
ROOT
HETATM    1  C10 UNL     1      24.291   6.700  13.604  1.00  0.00     0.202 C 
ENDROOT
BRANCH   1   2
HETATM    2  C8  UNL     1      25.515   6.643  12.719  1.00  0.00     0.267 C 
HETATM    3  N1  UNL     1      25.270   7.274  11.470  1.00  0.00    -0.366 N 
HETATM    4  C7  UNL     1      26.375   7.348  10.591  1.00  0.00     0.141 C 
ATOM      5  H1  UNL     1      24.355   7.651  11.222  1.00  0.00     0.158 HD
HETATM    6  C5  UNL     1      27.640   7.859  11.247  1.00  0.00     0.093 C 
HETATM    7  C6  UNL     1      27.646   9.393  11.095  1.00  0.00     0.031 C 
HETATM    8  C22 UNL     1      27.699   7.618  12.697  1.00  0.00     0.276 C 
HETATM    9  O5  UNL     1      26.572   7.265  13.382  1.00  0.00    -0.262 OA
HETATM   10  O6  UNL     1      28.785   7.739  13.300  1.00  0.00    -0.264 OA
BRANCH   6  11
HETATM   11  C3  UNL     1      28.864   7.375  10.534  1.00  0.00     0.101 C 
BRANCH  11  12
HETATM   12  C2  UNL     1      28.649   7.567   9.037  1.00  0.00     0.037 C 
HETATM   13  C1  UNL     1      29.908   7.140   8.273  1.00  0.00     0.008 C 
ENDBRANCH  11  12
BRANCH  11  14
HETATM   14  O1  UNL     1      29.950   8.152  10.900  1.00  0.00    -0.386 OA
ATOM     15  H1  UNL     1      30.280   7.810  11.723  1.00  0.00     0.210 HD
ENDBRANCH  11  14
BRANCH  11  16
HETATM   16  C4  UNL     1      29.196   5.934  10.739  1.00  0.00     0.261 C 
HETATM   17  F1  UNL     1      30.453   5.675  11.189  1.00  0.00    -0.252 F 
ENDBRANCH  11  16
ENDBRANCH   6  11
BRANCH   2  18
HETATM   18  O2  UNL     1      25.817   5.326  12.438  1.00  0.00    -0.342 OA
HETATM   19  C9  UNL     1      24.988   4.686  11.561  1.00  0.00     0.207 C 
ENDBRANCH   2  18
ENDBRANCH   1   2
BRANCH   1  20
HETATM   20  C11 UNL     1      24.035   8.170  13.938  1.00  0.00     0.238 C 
HETATM   21  O3  UNL     1      23.123   8.812  13.372  1.00  0.00    -0.272 OA
HETATM   22  N2  UNL     1      24.828   8.862  14.906  1.00  0.00    -0.295 N 
HETATM   23  C12 UNL     1      24.613  10.230  15.199  1.00  0.00     0.255 C 
ATOM     24  H2  UNL     1      25.566   8.358  15.397  1.00  0.00     0.171 HD
HETATM   25  O4  UNL     1      23.685  10.830  14.554  1.00  0.00    -0.271 OA
BRANCH  23  26
HETATM   26  C13 UNL     1      25.413  10.936  16.191  1.00  0.00     0.285 C 
HETATM   27  N3  UNL     1      25.443  10.153  17.464  1.00  0.00    -0.062 N 
HETATM   28  C14 UNL     1      25.731  11.115  18.486  1.00  0.00     0.233 C 
ATOM     29  H32 UNL     1      24.597   9.610  17.636  1.00  0.00     0.278 HD
ATOM     30  H31 UNL     1      26.088   9.364  17.448  1.00  0.00     0.278 HD
HETATM   31  C15 UNL     1      26.878  12.009  18.229  1.00  0.00     0.028 C 
HETATM   32  C16 UNL     1      27.540  11.923  16.924  1.00  0.00     0.013 C 
HETATM   33  C17 UNL     1      26.870  11.075  15.882  1.00  0.00    -0.010 C 
HETATM   34  C18 UNL     1      27.473   9.668  16.021  1.00  0.00     0.017 C 
HETATM   35  C19 UNL     1      27.202  11.551  14.500  1.00  0.00     0.017 C 
ENDBRANCH  23  26
ENDBRANCH   1  20
BRANCH   1  36
HETATM   36  C20 UNL     1      24.508   5.987  14.912  1.00  0.00     0.129 C 
HETATM   37  C21 UNL     1      23.837   6.561  16.118  1.00  0.00     0.051 C 
HETATM   38 CL1  UNL     1      26.270   5.845  15.294  1.00  0.00    -0.101 Cl
HETATM   39 CL2  UNL     1      23.947   4.278  14.806  1.00  0.00    -0.101 Cl
ENDBRANCH   1  36
TORSDOF 9
ENDMDL
MODEL 2
REMARK VINA RESULT: -7.103985522      3.036      6.604
REMARK  9 active torsions:
REMARK  status: ('A' for Active; 'I' for Inactive)
REMARK    1  A    between atoms: C2_2  and  C3_3 
REMARK    2  A    between atoms: C3_3  and  O1_4 
REMARK    3  A    between atoms: C3_3  and  C4_6 
REMARK    4  A    between atoms: C3_3  and  C5_8 
REMARK    5  A    between atoms: C8_13  and  O2_14 
REMARK    6  A    between atoms: C8_13  and  C10_16 
REMARK    7  A    between atoms: C10_16  and  C11_17 
REMARK    8  A    between atoms: C10_16  and  C20_33 
REMARK       I    between atoms: C11_17  and  N2_19 
REMARK       I    between atoms: N2_19  and  C12_21 
REMARK    9  A    between atoms: C12_21  and  C13_23 
ROOT
HETATM    1  C10 UNL     1      26.109  10.334  13.921  1.00  0.00     0.202 C 
ENDROOT
BRANCH   1   2
HETATM    2  C8  UNL     1      25.597   9.017  14.460  1.00  0.00     0.267 C 
HETATM    3  N1  UNL     1      24.793   8.351  13.497  1.00  0.00    -0.366 N 
HETATM    4  C7  UNL     1      24.325   7.069  13.868  1.00  0.00     0.141 C 
ATOM      5  H1  UNL     1      24.566   8.770  12.595  1.00  0.00     0.158 HD
HETATM    6  C5  UNL     1      25.403   6.168  14.428  1.00  0.00     0.093 C 
HETATM    7  C6  UNL     1      26.020   5.401  13.242  1.00  0.00     0.031 C 
HETATM    8  C22 UNL     1      26.528   6.892  15.042  1.00  0.00     0.276 C 
HETATM    9  O5  UNL     1      26.691   8.229  14.814  1.00  0.00    -0.262 OA
HETATM   10  O6  UNL     1      27.333   6.279  15.772  1.00  0.00    -0.264 OA
BRANCH   6  11
HETATM   11  C3  UNL     1      24.831   5.122  15.335  1.00  0.00     0.101 C 
BRANCH  11  12
HETATM   12  C2  UNL     1      23.733   4.385  14.576  1.00  0.00     0.037 C 
HETATM   13  C1  UNL     1      22.633   3.948  15.549  1.00  0.00     0.008 C 
ENDBRANCH  11  12
BRANCH  11  14
HETATM   14  O1  UNL     1      25.811   4.196  15.649  1.00  0.00    -0.386 OA
ATOM     15  H1  UNL     1      25.379   3.363  15.799  1.00  0.00     0.210 HD
ENDBRANCH  11  14
BRANCH  11  16
HETATM   16  C4  UNL     1      24.214   5.635  16.593  1.00  0.00     0.261 C 
HETATM   17  F1  UNL     1      23.587   6.838  16.495  1.00  0.00    -0.252 F 
ENDBRANCH  11  16
ENDBRANCH   6  11
BRANCH   2  18
HETATM   18  O2  UNL     1      24.786   9.252  15.551  1.00  0.00    -0.342 OA
HETATM   19  C9  UNL     1      24.046  10.399  15.523  1.00  0.00     0.207 C 
ENDBRANCH   2  18
ENDBRANCH   1   2
BRANCH   1  20
HETATM   20  C11 UNL     1      26.121  10.232  12.396  1.00  0.00     0.238 C 
HETATM   21  O3  UNL     1      25.302  10.869  11.698  1.00  0.00    -0.272 OA
HETATM   22  N2  UNL     1      27.067   9.404  11.714  1.00  0.00    -0.295 N 
HETATM   23  C12 UNL     1      27.065   9.284  10.304  1.00  0.00     0.255 C 
ATOM     24  H2  UNL     1      27.759   8.887  12.257  1.00  0.00     0.171 HD
HETATM   25  O4  UNL     1      26.175   9.938   9.660  1.00  0.00    -0.271 OA
BRANCH  23  26
HETATM   26  C13 UNL     1      28.032   8.449   9.605  1.00  0.00     0.285 C 
HETATM   27  N3  UNL     1      29.417   8.799  10.050  1.00  0.00    -0.062 N 
HETATM   28  C14 UNL     1      30.270   8.383   8.977  1.00  0.00     0.233 C 
ATOM     29  H32 UNL     1      29.531   9.779  10.311  1.00  0.00     0.278 HD
ATOM     30  H31 UNL     1      29.671   8.406  10.955  1.00  0.00     0.278 HD
HETATM   31  C15 UNL     1      30.061   7.008   8.479  1.00  0.00     0.028 C 
HETATM   32  C16 UNL     1      28.940   6.239   9.030  1.00  0.00     0.013 C 
HETATM   33  C17 UNL     1      27.976   6.985   9.906  1.00  0.00    -0.010 C 
HETATM   34  C18 UNL     1      28.491   6.823  11.346  1.00  0.00     0.017 C 
HETATM   35  C19 UNL     1      26.613   6.362   9.864  1.00  0.00     0.017 C 
ENDBRANCH  23  26
ENDBRANCH   1  20
BRANCH   1  36
HETATM   36  C20 UNL     1      27.525  10.607  14.353  1.00  0.00     0.129 C 
HETATM   37  C21 UNL     1      28.556   9.591  13.981  1.00  0.00     0.051 C 
HETATM   38 CL1  UNL     1      27.628  10.847  16.142  1.00  0.00    -0.101 Cl
HETATM   39 CL2  UNL     1      28.109  12.169  13.669  1.00  0.00    -0.101 Cl
ENDBRANCH   1  36
TORSDOF 9
ENDMDL
MODEL 3
REMARK VINA RESULT: -6.968316867      3.047      7.353
REMARK  9 active torsions:
REMARK  status: ('A' for Active; 'I' for Inactive)
REMARK    1  A    between atoms: C2_2  and  C3_3 
REMARK    2  A    between atoms: C3_3  and  O1_4 
REMARK    3  A    between atoms: C3_3  and  C4_6 
REMARK    4  A    between atoms: C3_3  and  C5_8 
REMARK    5  A    between atoms: C8_13  and  O2_14 
REMARK    6  A    between atoms: C8_13  and  C10_16 
REMARK    7  A    between atoms: C10_16  and  C11_17 
REMARK    8  A    between atoms: C10_16  and  C20_33 
REMARK       I    between atoms: C11_17  and  N2_19 
REMARK       I    between atoms: N2_19  and  C12_21 
REMARK    9  A    between atoms: C12_21  and  C13_23 
ROOT
HETATM    1  C10 UNL     1      26.253   6.904  13.513  1.00  0.00     0.202 C 
ENDROOT
BRANCH   1   2
HETATM    2  C8  UNL     1      25.900   8.350  13.245  1.00  0.00     0.267 C 
HETATM    3  N1  UNL     1      24.497   8.557  13.337  1.00  0.00    -0.366 N 
HETATM    4  C7  UNL     1      24.062   9.893  13.182  1.00  0.00     0.141 C 
ATOM      5  H1  UNL     1      23.845   7.790  13.504  1.00  0.00     0.158 HD
HETATM    6  C5  UNL     1      24.838  10.886  14.019  1.00  0.00     0.093 C 
HETATM    7  C6  UNL     1      24.120  10.999  15.377  1.00  0.00     0.031 C 
HETATM    8  C22 UNL     1      26.206  10.451  14.345  1.00  0.00     0.276 C 
HETATM    9  O5  UNL     1      26.574   9.148  14.168  1.00  0.00    -0.262 OA
HETATM   10  O6  UNL     1      27.029  11.280  14.786  1.00  0.00    -0.264 OA
BRANCH   6  11
HETATM   11  C3  UNL     1      24.799  12.259  13.422  1.00  0.00     0.101 C 
BRANCH  11  12
HETATM   12  C2  UNL     1      23.360  12.562  13.022  1.00  0.00     0.037 C 
HETATM   13  C1  UNL     1      23.345  13.505  11.814  1.00  0.00     0.008 C 
ENDBRANCH  11  12
BRANCH  11  14
HETATM   14  O1  UNL     1      25.169  13.190  14.379  1.00  0.00    -0.386 OA
ATOM     15  H1  UNL     1      26.036  13.504  14.151  1.00  0.00     0.210 HD
ENDBRANCH  11  14
BRANCH  11  16
HETATM   16  C4  UNL     1      25.634  12.449  12.200  1.00  0.00     0.261 C 
HETATM   17  F1  UNL     1      26.691  13.295  12.331  1.00  0.00    -0.252 F 
ENDBRANCH  11  16
ENDBRANCH   6  11
BRANCH   2  18
HETATM   18  O2  UNL     1      26.260   8.678  11.954  1.00  0.00    -0.342 OA
HETATM   19  C9  UNL     1      27.587   8.584  11.649  1.00  0.00     0.207 C 
ENDBRANCH   2  18
ENDBRANCH   1   2
BRANCH   1  20
HETATM   20  C11 UNL     1      25.259   6.038  12.738  1.00  0.00     0.238 C 
HETATM   21  O3  UNL     1      24.157   5.717  13.235  1.00  0.00    -0.272 OA
HETATM   22  N2  UNL     1      25.553   5.565  11.421  1.00  0.00    -0.295 N 
HETATM   23  C12 UNL     1      24.649   4.741  10.711  1.00  0.00     0.255 C 
ATOM     24  H2  UNL     1      26.437   5.828  10.984  1.00  0.00     0.171 HD
HETATM   25  O4  UNL     1      23.557   4.424  11.298  1.00  0.00    -0.271 OA
BRANCH  23  26
HETATM   26  C13 UNL     1      24.941   4.264   9.366  1.00  0.00     0.285 C 
HETATM   27  N3  UNL     1      26.414   4.054   9.214  1.00  0.00    -0.062 N 
HETATM   28  C14 UNL     1      26.660   4.145   7.805  1.00  0.00     0.233 C 
ATOM     29  H32 UNL     1      26.982   4.691   9.773  1.00  0.00     0.278 HD
ATOM     30  H31 UNL     1      26.754   3.191   9.637  1.00  0.00     0.278 HD
HETATM   31  C15 UNL     1      25.781   3.332   6.941  1.00  0.00     0.028 C 
HETATM   32  C16 UNL     1      24.673   2.606   7.572  1.00  0.00     0.013 C 
HETATM   33  C17 UNL     1      24.402   2.913   9.016  1.00  0.00    -0.010 C 
HETATM   34  C18 UNL     1      25.223   1.900   9.832  1.00  0.00     0.017 C 
HETATM   35  C19 UNL     1      22.962   2.676   9.360  1.00  0.00     0.017 C 
ENDBRANCH  23  26
ENDBRANCH   1  20
BRANCH   1  36
HETATM   36  C20 UNL     1      26.103   6.547  14.967  1.00  0.00     0.129 C 
HETATM   37  C21 UNL     1      26.011   5.094  15.303  1.00  0.00     0.051 C 
HETATM   38 CL1  UNL     1      24.659   7.359  15.693  1.00  0.00    -0.101 Cl
HETATM   39 CL2  UNL     1      27.489   7.185  15.926  1.00  0.00    -0.101 Cl
ENDBRANCH   1  36
TORSDOF 9
ENDMDL
MODEL 4
REMARK VINA RESULT: -6.922566460      2.924      6.496
REMARK  9 active torsions:
REMARK  status: ('A' for Active; 'I' for Inactive)
REMARK    1  A    between atoms: C2_2  and  C3_3 
REMARK    2  A    between atoms: C3_3  and  O1_4 
REMARK    3  A    between atoms: C3_3  and  C4_6 
REMARK    4  A    between atoms: C3_3  and  C5_8 
REMARK    5  A    between atoms: C8_13  and  O2_14 
REMARK    6  A    between atoms: C8_13  and  C10_16 
REMARK    7  A    between atoms: C10_16  and  C11_17 
REMARK    8  A    between atoms: C10_16  and  C20_33 
REMARK       I    between atoms: C11_17  and  N2_19 
REMARK       I    between atoms: N2_19  and  C12_21 
REMARK    9  A    between atoms: C12_21  and  C13_23 
ROOT
HETATM    1  C10 UNL     1      26.222  10.770  14.166  1.00  0.00     0.202 C 
ENDROOT
BRANCH   1   2
HETATM    2  C8  UNL     1      25.736   9.379  14.507  1.00  0.00     0.267 C 
HETATM    3  N1  UNL     1      25.108   8.770  13.387  1.00  0.00    -0.366 N 
HETATM    4  C7  UNL     1      24.685   7.434  13.572  1.00  0.00     0.141 C 
ATOM      5  H1  UNL     1      24.970   9.266  12.506  1.00  0.00     0.158 HD
HETATM    6  C5  UNL     1      25.741   6.541  14.184  1.00  0.00     0.093 C 
HETATM    7  C6  UNL     1      26.555   5.934  13.025  1.00  0.00     0.031 C 
HETATM    8  C22 UNL     1      26.727   7.261  15.007  1.00  0.00     0.276 C 
HETATM    9  O5  UNL     1      26.827   8.620  14.928  1.00  0.00    -0.262 OA
HETATM   10  O6  UNL     1      27.473   6.622  15.778  1.00  0.00    -0.264 OA
BRANCH   6  11
HETATM   11  C3  UNL     1      25.131   5.379  14.905  1.00  0.00     0.101 C 
BRANCH  11  12
HETATM   12  C2  UNL     1      24.077   4.758  13.996  1.00  0.00     0.037 C 
HETATM   13  C1  UNL     1      23.065   3.970  14.837  1.00  0.00     0.008 C 
ENDBRANCH  11  12
BRANCH  11  14
HETATM   14  O1  UNL     1      26.099   4.417  15.136  1.00  0.00    -0.386 OA
ATOM     15  H1  UNL     1      25.975   4.094  16.020  1.00  0.00     0.210 HD
ENDBRANCH  11  14
BRANCH  11  16
HETATM   16  C4  UNL     1      24.448   5.711  16.190  1.00  0.00     0.261 C 
HETATM   17  F1  UNL     1      23.613   6.785  16.155  1.00  0.00    -0.252 F 
ENDBRANCH  11  16
ENDBRANCH   6  11
BRANCH   2  18
HETATM   18  O2  UNL     1      24.778   9.458  15.497  1.00  0.00    -0.342 OA
HETATM   19  C9  UNL     1      23.847  10.447  15.366  1.00  0.00     0.207 C 
ENDBRANCH   2  18
ENDBRANCH   1   2
BRANCH   1  20
HETATM   20  C11 UNL     1      26.803  10.719  12.752  1.00  0.00     0.238 C 
HETATM   21  O3  UNL     1      26.744  11.712  11.993  1.00  0.00    -0.272 OA
HETATM   22  N2  UNL     1      27.431   9.537  12.248  1.00  0.00    -0.295 N 
HETATM   23  C12 UNL     1      27.946   9.476  10.932  1.00  0.00     0.255 C 
ATOM     24  H2  UNL     1      27.510   8.719  12.852  1.00  0.00     0.171 HD
HETATM   25  O4  UNL     1      27.817  10.519  10.201  1.00  0.00    -0.271 OA
BRANCH  23  26
HETATM   26  C13 UNL     1      28.594   8.278  10.418  1.00  0.00     0.285 C 
HETATM   27  N3  UNL     1      28.758   8.389   8.935  1.00  0.00    -0.062 N 
HETATM   28  C14 UNL     1      28.857   7.038   8.468  1.00  0.00     0.233 C 
ATOM     29  H32 UNL     1      28.024   8.931   8.478  1.00  0.00     0.278 HD
ATOM     30  H31 UNL     1      29.537   8.982   8.649  1.00  0.00     0.278 HD
HETATM   31  C15 UNL     1      29.822   6.176   9.180  1.00  0.00     0.028 C 
HETATM   32  C16 UNL     1      30.499   6.726  10.359  1.00  0.00     0.013 C 
HETATM   33  C17 UNL     1      30.004   8.050  10.864  1.00  0.00    -0.010 C 
HETATM   34  C18 UNL     1      30.854   9.123  10.164  1.00  0.00     0.017 C 
HETATM   35  C19 UNL     1      30.253   8.196  12.335  1.00  0.00     0.017 C 
ENDBRANCH  23  26
ENDBRANCH   1  20
BRANCH   1  36
HETATM   36  C20 UNL     1      27.331  11.219  15.078  1.00  0.00     0.129 C 
HETATM   37  C21 UNL     1      28.707  10.720  14.771  1.00  0.00     0.051 C 
HETATM   38 CL1  UNL     1      26.976  10.789  16.799  1.00  0.00    -0.101 Cl
HETATM   39 CL2  UNL     1      27.455  13.016  15.095  1.00  0.00    -0.101 Cl
ENDBRANCH   1  36
TORSDOF 9
ENDMDL
MODEL 5
REMARK VINA RESULT: -6.878310631      2.810      7.166
REMARK  9 active torsions:
REMARK  status: ('A' for Active; 'I' for Inactive)
REMARK    1  A    between atoms: C2_2  and  C3_3 
REMARK    2  A    between atoms: C3_3  and  O1_4 
REMARK    3  A    between atoms: C3_3  and  C4_6 
REMARK    4  A    between atoms: C3_3  and  C5_8 
REMARK    5  A    between atoms: C8_13  and  O2_14 
REMARK    6  A    between atoms: C8_13  and  C10_16 
REMARK    7  A    between atoms: C10_16  and  C11_17 
REMARK    8  A    between atoms: C10_16  and  C20_33 
REMARK       I    between atoms: C11_17  and  N2_19 
REMARK       I    between atoms: N2_19  and  C12_21 
REMARK    9  A    between atoms: C12_21  and  C13_23 
ROOT
HETATM    1  C10 UNL     1      25.192   5.417  14.370  1.00  0.00     0.202 C 
ENDROOT
BRANCH   1   2
HETATM    2  C8  UNL     1      25.378   6.898  14.131  1.00  0.00     0.267 C 
HETATM    3  N1  UNL     1      24.130   7.539  13.910  1.00  0.00    -0.366 N 
HETATM    4  C7  UNL     1      24.179   8.944  13.753  1.00  0.00     0.141 C 
ATOM      5  H1  UNL     1      23.253   7.020  13.868  1.00  0.00     0.158 HD
HETATM    6  C5  UNL     1      24.998   9.645  14.814  1.00  0.00     0.093 C 
HETATM    7  C6  UNL     1      24.045   9.990  15.975  1.00  0.00     0.031 C 
HETATM    8  C22 UNL     1      26.044   8.802  15.416  1.00  0.00     0.276 C 
HETATM    9  O5  UNL     1      26.023   7.448  15.238  1.00  0.00    -0.262 OA
HETATM   10  O6  UNL     1      26.951   9.330  16.092  1.00  0.00    -0.264 OA
BRANCH   6  11
HETATM   11  C3  UNL     1      25.531  10.956  14.322  1.00  0.00     0.101 C 
BRANCH  11  12
HETATM   12  C2  UNL     1      24.398  11.694  13.619  1.00  0.00     0.037 C 
HETATM   13  C1  UNL     1      24.379  13.161  14.064  1.00  0.00     0.008 C 
ENDBRANCH  11  12
BRANCH  11  14
HETATM   14  O1  UNL     1      25.923  11.730  15.401  1.00  0.00    -0.386 OA
ATOM     15  H1  UNL     1      25.225  11.696  16.045  1.00  0.00     0.210 HD
ENDBRANCH  11  14
BRANCH  11  16
HETATM   16  C4  UNL     1      26.655  10.863  13.345  1.00  0.00     0.261 C 
HETATM   17  F1  UNL     1      26.325  11.073  12.042  1.00  0.00    -0.252 F 
ENDBRANCH  11  16
ENDBRANCH   6  11
BRANCH   2  18
HETATM   18  O2  UNL     1      26.122   7.087  12.983  1.00  0.00    -0.342 OA
HETATM   19  C9  UNL     1      27.477   6.993  13.114  1.00  0.00     0.207 C 
ENDBRANCH   2  18
ENDBRANCH   1   2
BRANCH   1  20
HETATM   20  C11 UNL     1      24.331   4.873  13.230  1.00  0.00     0.238 C 
HETATM   21  O3  UNL     1      23.128   4.581  13.411  1.00  0.00    -0.272 OA
HETATM   22  N2  UNL     1      24.869   4.676  11.920  1.00  0.00    -0.295 N 
HETATM   23  C12 UNL     1      24.085   4.147  10.868  1.00  0.00     0.255 C 
ATOM     24  H2  UNL     1      25.843   4.923  11.739  1.00  0.00     0.171 HD
HETATM   25  O4  UNL     1      22.873   3.839  11.137  1.00  0.00    -0.271 OA
BRANCH  23  26
HETATM   26  C13 UNL     1      24.627   3.953   9.530  1.00  0.00     0.285 C 
HETATM   27  N3  UNL     1      26.120   3.889   9.595  1.00  0.00    -0.062 N 
HETATM   28  C14 UNL     1      26.566   4.260   8.285  1.00  0.00     0.233 C 
ATOM     29  H32 UNL     1      26.525   4.452  10.343  1.00  0.00     0.278 HD
ATOM     30  H31 UNL     1      26.481   2.991   9.914  1.00  0.00     0.278 HD
HETATM   31  C15 UNL     1      25.919   3.558   7.158  1.00  0.00     0.028 C 
HETATM   32  C16 UNL     1      24.812   2.645   7.459  1.00  0.00     0.013 C 
HETATM   33  C17 UNL     1      24.294   2.654   8.868  1.00  0.00    -0.010 C 
HETATM   34  C18 UNL     1      25.083   1.573   9.623  1.00  0.00     0.017 C 
HETATM   35  C19 UNL     1      22.852   2.248   8.917  1.00  0.00     0.017 C 
ENDBRANCH  23  26
ENDBRANCH   1  20
BRANCH   1  36
HETATM   36  C20 UNL     1      24.448   5.142  15.649  1.00  0.00     0.129 C 
HETATM   37  C21 UNL     1      23.611   6.252  16.200  1.00  0.00     0.051 C 
HETATM   38 CL1  UNL     1      25.577   4.620  16.963  1.00  0.00    -0.101 Cl
HETATM   39 CL2  UNL     1      23.334   3.741  15.450  1.00  0.00    -0.101 Cl
ENDBRANCH   1  36
TORSDOF 9
ENDMDL
