MODEL 1
REMARK VINA RESULT: -8.312629567      0.000      0.000
REMARK  14 active torsions:
REMARK  status: ('A' for Active; 'I' for Inactive)
REMARK    1  A    between atoms: C2_2  and  C3_3 
REMARK    2  A    between atoms: C2_2  and  C23_39 
REMARK    3  A    between atoms: C3_3  and  N1_4 
REMARK    4  A    between atoms: N1_4  and  C4_7 
REMARK    5  A    between atoms: C4_7  and  C5_8 
REMARK    6  A    between atoms: C4_7  and  C12_15 
REMARK    7  A    between atoms: C5_8  and  C6_9 
REMARK    8  A    between atoms: C12_15  and  N2_16 
REMARK    9  A    between atoms: C15_22  and  C16_23 
REMARK   10  A    between atoms: C16_23  and  O2_25 
REMARK   11  A    between atoms: O2_25  and  C17_26 
REMARK   12  A    between atoms: C19_29  and  C20_30 
REMARK   13  A    between atoms: C21_33  and  O4_34 
REMARK   14  A    between atoms: C22_36  and  O5_37 
ROOT
HETATM    1  N2  UNL     1      25.438   5.449  13.708  1.00  0.00    -0.355 N 
HETATM    2  C13 UNL     1      24.578   4.829  14.562  1.00  0.00     0.152 C 
HETATM    3  C14 UNL     1      25.420   4.640  15.827  1.00  0.00     0.255 C 
HETATM    4  N3  UNL     1      26.677   5.411  15.616  1.00  0.00    -0.043 N 
ATOM      5  H31 UNL     1      27.512   4.845  15.467  1.00  0.00     0.280 HD
ATOM      6  H32 UNL     1      27.035   5.891  16.442  1.00  0.00     0.280 HD
HETATM    7  C15 UNL     1      26.307   6.281  14.502  1.00  0.00     0.386 C 
ENDROOT
BRANCH   1   8
HETATM    8  C12 UNL     1      26.090   4.996  12.554  1.00  0.00     0.093 C 
BRANCH   8   9
HETATM    9  C4  UNL     1      26.557   5.983  11.541  1.00  0.00     0.224 C 
BRANCH   9  10
HETATM   10  N1  UNL     1      25.768   5.906  10.326  1.00  0.00    -0.066 N 
ATOM     11  H12 UNL     1      26.369   5.914   9.503  1.00  0.00     0.278 HD
ATOM     12  H11 UNL     1      25.257   6.775  10.171  1.00  0.00     0.278 HD
BRANCH  10  13
HETATM   13  C3  UNL     1      24.879   4.784  10.296  1.00  0.00     0.238 C 
BRANCH  13  14
HETATM   14  C2  UNL     1      25.414   3.667   9.444  1.00  0.00     0.014 C 
HETATM   15  C1  UNL     1      26.269   4.140   8.288  1.00  0.00     0.012 C 
BRANCH  14  16
HETATM   16  C23 UNL     1      24.510   2.534   9.154  1.00  0.00    -0.047 C 
HETATM   17  C24 UNL     1      24.934   1.181   9.588  1.00  0.00     0.015 C 
HETATM   18  C25 UNL     1      24.197   2.547   7.643  1.00  0.00     0.015 C 
HETATM   19  C26 UNL     1      23.145   2.817   9.803  1.00  0.00     0.015 C 
ENDBRANCH  14  16
ENDBRANCH  13  14
ENDBRANCH  10  13
ENDBRANCH   9  10
BRANCH   9  20
HETATM   20  C5  UNL     1      27.957   5.636  11.109  1.00  0.00     0.043 C 
BRANCH  20  21
HETATM   21  C6  UNL     1      28.800   6.513  10.298  1.00  0.00    -0.012 C 
HETATM   22  C7  UNL     1      28.995   6.384   8.861  1.00  0.00     0.005 C 
HETATM   23  C8  UNL     1      30.169   7.271   8.412  1.00  0.00     0.000 C 
HETATM   24  C9  UNL     1      30.582   8.233   9.499  1.00  0.00     0.000 C 
HETATM   25  C10 UNL     1      30.996   7.537  10.763  1.00  0.00     0.000 C 
HETATM   26  C11 UNL     1      30.235   6.262  10.902  1.00  0.00     0.005 C 
ENDBRANCH  20  21
ENDBRANCH   9  20
ENDBRANCH   8   9
ENDBRANCH   1   8
BRANCH   7  27
HETATM   27  C16 UNL     1      25.835   7.572  14.850  1.00  0.00     0.312 C 
HETATM   28  O1  UNL     1      26.111   8.057  16.015  1.00  0.00    -0.261 OA
BRANCH  27  29
HETATM   29  O2  UNL     1      25.071   8.379  14.050  1.00  0.00    -0.284 OA
BRANCH  29  30
HETATM   30  C17 UNL     1      25.608   9.572  13.513  1.00  0.00     0.300 C 
HETATM   31  O3  UNL     1      26.884   9.535  13.257  1.00  0.00    -0.357 OA
HETATM   32  C18 UNL     1      27.478   9.316  12.069  1.00  0.00     0.183 C 
HETATM   33  C19 UNL     1      26.691   9.708  10.871  1.00  0.00     0.106 C 
HETATM   34  C21 UNL     1      25.548  10.638  11.279  1.00  0.00     0.163 C 
HETATM   35  C22 UNL     1      24.727   9.781  12.232  1.00  0.00     0.203 C 
BRANCH  33  36
HETATM   36  C20 UNL     1      27.450  10.416   9.782  1.00  0.00     0.361 C 
HETATM   37  F1  UNL     1      28.716  10.760  10.185  1.00  0.00    -0.214 F 
HETATM   38  F2  UNL     1      27.592   9.483   8.743  1.00  0.00    -0.214 F 
ENDBRANCH  33  36
BRANCH  34  39
HETATM   39  O4  UNL     1      26.118  11.735  11.879  1.00  0.00    -0.392 OA
ATOM     40  H4  UNL     1      25.422  12.195  12.335  1.00  0.00     0.210 HD
ENDBRANCH  34  39
BRANCH  35  41
HETATM   41  O5  UNL     1      24.475   8.563  11.681  1.00  0.00    -0.388 OA
ATOM     42  H5  UNL     1      24.737   8.587  10.768  1.00  0.00     0.210 HD
ENDBRANCH  35  41
ENDBRANCH  29  30
ENDBRANCH  27  29
ENDBRANCH   7  27
TORSDOF 14
ENDMDL
MODEL 2
REMARK VINA RESULT: -8.258585219      1.061      1.341
REMARK  14 active torsions:
REMARK  status: ('A' for Active; 'I' for Inactive)
REMARK    1  A    between atoms: C2_2  and  C3_3 
REMARK    2  A    between atoms: C2_2  and  C23_39 
REMARK    3  A    between atoms: C3_3  and  N1_4 
REMARK    4  A    between atoms: N1_4  and  C4_7 
REMARK    5  A    between atoms: C4_7  and  C5_8 
REMARK    6  A    between atoms: C4_7  and  C12_15 
REMARK    7  A    between atoms: C5_8  and  C6_9 
REMARK    8  A    between atoms: C12_15  and  N2_16 
REMARK    9  A    between atoms: C15_22  and  C16_23 
REMARK   10  A    between atoms: C16_23  and  O2_25 
REMARK   11  A    between atoms: O2_25  and  C17_26 
REMARK   12  A    between atoms: C19_29  and  C20_30 
REMARK   13  A    between atoms: C21_33  and  O4_34 
REMARK   14  A    between atoms: C22_36  and  O5_37 
ROOT
HETATM    1  N2  UNL     1      24.856   5.302  13.933  1.00  0.00    -0.355 N 
HETATM    2  C13 UNL     1      23.810   4.495  14.259  1.00  0.00     0.152 C 
HETATM    3  C14 UNL     1      24.089   4.137  15.722  1.00  0.00     0.255 C 
HETATM    4  N3  UNL     1      25.219   5.003  16.159  1.00  0.00    -0.043 N 
ATOM      5  H31 UNL     1      26.107   4.522  16.296  1.00  0.00     0.280 HD
ATOM      6  H32 UNL     1      25.154   5.353  17.115  1.00  0.00     0.280 HD
HETATM    7  C15 UNL     1      25.223   6.032  15.120  1.00  0.00     0.386 C 
ENDROOT
BRANCH   1   8
HETATM    8  C12 UNL     1      25.966   5.095  13.105  1.00  0.00     0.093 C 
BRANCH   8   9
HETATM    9  C4  UNL     1      26.129   5.922  11.876  1.00  0.00     0.224 C 
BRANCH   9  10
HETATM   10  N1  UNL     1      24.962   5.825  11.019  1.00  0.00    -0.066 N 
ATOM     11  H12 UNL     1      24.547   6.744  10.869  1.00  0.00     0.278 HD
ATOM     12  H11 UNL     1      24.191   5.369  11.507  1.00  0.00     0.278 HD
BRANCH  10  13
HETATM   13  C3  UNL     1      25.226   5.177   9.770  1.00  0.00     0.238 C 
BRANCH  13  14
HETATM   14  C2  UNL     1      24.286   4.031   9.523  1.00  0.00     0.014 C 
HETATM   15  C1  UNL     1      23.370   3.732  10.691  1.00  0.00     0.012 C 
BRANCH  14  16
HETATM   16  C23 UNL     1      24.816   2.853   8.804  1.00  0.00    -0.047 C 
HETATM   17  C24 UNL     1      24.873   1.564   9.535  1.00  0.00     0.015 C 
HETATM   18  C25 UNL     1      26.205   3.221   8.241  1.00  0.00     0.015 C 
HETATM   19  C26 UNL     1      23.969   2.626   7.541  1.00  0.00     0.015 C 
ENDBRANCH  14  16
ENDBRANCH  13  14
ENDBRANCH  10  13
ENDBRANCH   9  10
BRANCH   9  20
HETATM   20  C5  UNL     1      27.259   5.373  11.047  1.00  0.00     0.043 C 
BRANCH  20  21
HETATM   21  C6  UNL     1      28.236   6.207  10.349  1.00  0.00    -0.012 C 
HETATM   22  C7  UNL     1      28.384   6.280   8.902  1.00  0.00     0.005 C 
HETATM   23  C8  UNL     1      29.694   7.007   8.549  1.00  0.00     0.000 C 
HETATM   24  C9  UNL     1      30.288   7.692   9.755  1.00  0.00     0.000 C 
HETATM   25  C10 UNL     1      30.586   6.738  10.875  1.00  0.00     0.000 C 
HETATM   26  C11 UNL     1      29.609   5.612  10.844  1.00  0.00     0.005 C 
ENDBRANCH  20  21
ENDBRANCH   9  20
ENDBRANCH   8   9
ENDBRANCH   1   8
BRANCH   7  27
HETATM   27  C16 UNL     1      24.494   7.213  15.411  1.00  0.00     0.312 C 
HETATM   28  O1  UNL     1      24.127   7.451  16.627  1.00  0.00    -0.261 OA
BRANCH  27  29
HETATM   29  O2  UNL     1      24.112   8.154  14.493  1.00  0.00    -0.284 OA
BRANCH  29  30
HETATM   30  C17 UNL     1      24.911   9.300  14.265  1.00  0.00     0.300 C 
HETATM   31  O3  UNL     1      26.195   9.096  14.324  1.00  0.00    -0.357 OA
HETATM   32  C18 UNL     1      27.045   8.907  13.297  1.00  0.00     0.183 C 
HETATM   33  C19 UNL     1      26.647   9.528  12.007  1.00  0.00     0.106 C 
HETATM   34  C21 UNL     1      25.560  10.575  12.246  1.00  0.00     0.163 C 
HETATM   35  C22 UNL     1      24.423   9.763  12.849  1.00  0.00     0.203 C 
BRANCH  33  36
HETATM   36  C20 UNL     1      27.742  10.217  11.238  1.00  0.00     0.361 C 
HETATM   37  F1  UNL     1      28.985   9.892  11.722  1.00  0.00    -0.214 F 
HETATM   38  F2  UNL     1      27.670   9.711   9.930  1.00  0.00    -0.214 F 
ENDBRANCH  33  36
BRANCH  34  39
HETATM   39  O4  UNL     1      26.083  11.510  13.105  1.00  0.00    -0.392 OA
ATOM     40  H4  UNL     1      26.159  12.323  12.620  1.00  0.00     0.210 HD
ENDBRANCH  34  39
BRANCH  35  41
HETATM   41  O5  UNL     1      24.176   8.656  12.097  1.00  0.00    -0.388 OA
ATOM     42  H5  UNL     1      23.354   8.783  11.638  1.00  0.00     0.210 HD
ENDBRANCH  35  41
ENDBRANCH  29  30
ENDBRANCH  27  29
ENDBRANCH   7  27
TORSDOF 14
ENDMDL
MODEL 3
REMARK VINA RESULT: -8.188419999      1.687      4.267
REMARK  14 active torsions:
REMARK  status: ('A' for Active; 'I' for Inactive)
REMARK    1  A    between atoms: C2_2  and  C3_3 
REMARK    2  A    between atoms: C2_2  and  C23_39 
REMARK    3  A    between atoms: C3_3  and  N1_4 
REMARK    4  A    between atoms: N1_4  and  C4_7 
REMARK    5  A    between atoms: C4_7  and  C5_8 
REMARK    6  A    between atoms: C4_7  and  C12_15 
REMARK    7  A    between atoms: C5_8  and  C6_9 
REMARK    8  A    between atoms: C12_15  and  N2_16 
REMARK    9  A    between atoms: C15_22  and  C16_23 
REMARK   10  A    between atoms: C16_23  and  O2_25 
REMARK   11  A    between atoms: O2_25  and  C17_26 
REMARK   12  A    between atoms: C19_29  and  C20_30 
REMARK   13  A    between atoms: C21_33  and  O4_34 
REMARK   14  A    between atoms: C22_36  and  O5_37 
ROOT
HETATM    1  N2  UNL     1      25.261   5.463  13.522  1.00  0.00    -0.355 N 
HETATM    2  C13 UNL     1      24.108   4.780  13.759  1.00  0.00     0.152 C 
HETATM    3  C14 UNL     1      24.211   4.430  15.247  1.00  0.00     0.255 C 
HETATM    4  N3  UNL     1      25.383   5.181  15.777  1.00  0.00    -0.043 N 
ATOM      5  H31 UNL     1      26.197   4.611  16.003  1.00  0.00     0.280 HD
ATOM      6  H32 UNL     1      25.268   5.558  16.717  1.00  0.00     0.280 HD
HETATM    7  C15 UNL     1      25.593   6.178  14.729  1.00  0.00     0.386 C 
ENDROOT
BRANCH   1   8
HETATM    8  C12 UNL     1      26.414   5.120  12.805  1.00  0.00     0.093 C 
BRANCH   8   9
HETATM    9  C4  UNL     1      26.699   5.794  11.508  1.00  0.00     0.224 C 
BRANCH   9  10
HETATM   10  N1  UNL     1      26.996   7.202  11.701  1.00  0.00    -0.066 N 
ATOM     11  H12 UNL     1      26.630   7.529  12.595  1.00  0.00     0.278 HD
ATOM     12  H11 UNL     1      26.441   7.779  11.069  1.00  0.00     0.278 HD
BRANCH  10  13
HETATM   13  C3  UNL     1      28.389   7.511  11.578  1.00  0.00     0.238 C 
BRANCH  13  14
HETATM   14  C2  UNL     1      29.056   6.686  10.514  1.00  0.00     0.014 C 
HETATM   15  C1  UNL     1      30.232   5.877  11.020  1.00  0.00     0.012 C 
BRANCH  14  16
HETATM   16  C23 UNL     1      29.222   7.296   9.178  1.00  0.00    -0.047 C 
HETATM   17  C24 UNL     1      28.001   7.555   8.378  1.00  0.00     0.015 C 
HETATM   18  C25 UNL     1      30.223   6.434   8.380  1.00  0.00     0.015 C 
HETATM   19  C26 UNL     1      29.957   8.637   9.339  1.00  0.00     0.015 C 
ENDBRANCH  14  16
ENDBRANCH  13  14
ENDBRANCH  10  13
ENDBRANCH   9  10
BRANCH   9  20
HETATM   20  C5  UNL     1      25.461   5.780  10.651  1.00  0.00     0.043 C 
BRANCH  20  21
HETATM   21  C6  UNL     1      25.099   4.675   9.764  1.00  0.00    -0.012 C 
HETATM   22  C7  UNL     1      24.541   3.404  10.204  1.00  0.00     0.005 C 
HETATM   23  C8  UNL     1      24.578   2.391   9.046  1.00  0.00     0.000 C 
HETATM   24  C9  UNL     1      24.887   3.065   7.732  1.00  0.00     0.000 C 
HETATM   25  C10 UNL     1      26.203   3.787   7.745  1.00  0.00     0.000 C 
HETATM   26  C11 UNL     1      26.485   4.284   9.122  1.00  0.00     0.005 C 
ENDBRANCH  20  21
ENDBRANCH   9  20
ENDBRANCH   8   9
ENDBRANCH   1   8
BRANCH   7  27
HETATM   27  C16 UNL     1      24.973   7.437  14.934  1.00  0.00     0.312 C 
HETATM   28  O1  UNL     1      24.550   7.753  16.112  1.00  0.00    -0.261 OA
BRANCH  27  29
HETATM   29  O2  UNL     1      24.754   8.379  13.964  1.00  0.00    -0.284 OA
BRANCH  29  30
HETATM   30  C17 UNL     1      25.388   9.642  14.036  1.00  0.00     0.300 C 
HETATM   31  O3  UNL     1      26.200   9.907  13.053  1.00  0.00    -0.357 OA
HETATM   32  C18 UNL     1      25.948  10.646  11.956  1.00  0.00     0.183 C 
HETATM   33  C19 UNL     1      24.914  11.701  12.112  1.00  0.00     0.106 C 
HETATM   34  C21 UNL     1      24.657  11.965  13.596  1.00  0.00     0.163 C 
HETATM   35  C22 UNL     1      24.164  10.620  14.107  1.00  0.00     0.203 C 
BRANCH  33  36
HETATM   36  C20 UNL     1      25.228  13.035  11.489  1.00  0.00     0.361 C 
HETATM   37  F1  UNL     1      25.878  12.894  10.288  1.00  0.00    -0.214 F 
HETATM   38  F2  UNL     1      23.987  13.632  11.212  1.00  0.00    -0.214 F 
ENDBRANCH  33  36
BRANCH  34  39
HETATM   39  O4  UNL     1      25.852  12.358  14.147  1.00  0.00    -0.392 OA
ATOM     40  H4  UNL     1      26.485  11.676  13.955  1.00  0.00     0.210 HD
ENDBRANCH  34  39
BRANCH  35  41
HETATM   41  O5  UNL     1      23.180  10.135  13.302  1.00  0.00    -0.388 OA
ATOM     42  H5  UNL     1      22.383  10.064  13.813  1.00  0.00     0.210 HD
ENDBRANCH  35  41
ENDBRANCH  29  30
ENDBRANCH  27  29
ENDBRANCH   7  27
TORSDOF 14
ENDMDL
MODEL 4
REMARK VINA RESULT: -8.078056465      1.274      1.759
REMARK  14 active torsions:
REMARK  status: ('A' for Active; 'I' for Inactive)
REMARK    1  A    between atoms: C2_2  and  C3_3 
REMARK    2  A    between atoms: C2_2  and  C23_39 
REMARK    3  A    between atoms: C3_3  and  N1_4 
REMARK    4  A    between atoms: N1_4  and  C4_7 
REMARK    5  A    between atoms: C4_7  and  C5_8 
REMARK    6  A    between atoms: C4_7  and  C12_15 
REMARK    7  A    between atoms: C5_8  and  C6_9 
REMARK    8  A    between atoms: C12_15  and  N2_16 
REMARK    9  A    between atoms: C15_22  and  C16_23 
REMARK   10  A    between atoms: C16_23  and  O2_25 
REMARK   11  A    between atoms: O2_25  and  C17_26 
REMARK   12  A    between atoms: C19_29  and  C20_30 
REMARK   13  A    between atoms: C21_33  and  O4_34 
REMARK   14  A    between atoms: C22_36  and  O5_37 
ROOT
HETATM    1  N2  UNL     1      25.009   5.531  13.853  1.00  0.00    -0.355 N 
HETATM    2  C13 UNL     1      23.885   4.777  13.714  1.00  0.00     0.152 C 
HETATM    3  C14 UNL     1      23.722   4.136  15.096  1.00  0.00     0.255 C 
HETATM    4  N3  UNL     1      24.711   4.802  15.988  1.00  0.00    -0.043 N 
ATOM      5  H31 UNL     1      25.505   4.225  16.263  1.00  0.00     0.280 HD
ATOM      6  H32 UNL     1      24.388   4.977  16.940  1.00  0.00     0.280 HD
HETATM    7  C15 UNL     1      25.048   5.997  15.217  1.00  0.00     0.386 C 
ENDROOT
BRANCH   1   8
HETATM    8  C12 UNL     1      26.301   5.378  13.336  1.00  0.00     0.093 C 
BRANCH   8   9
HETATM    9  C4  UNL     1      26.599   5.853  11.956  1.00  0.00     0.224 C 
BRANCH   9  10
HETATM   10  N1  UNL     1      26.663   4.746  11.020  1.00  0.00    -0.066 N 
ATOM     11  H12 UNL     1      26.559   3.855  11.506  1.00  0.00     0.278 HD
ATOM     12  H11 UNL     1      27.610   4.631  10.659  1.00  0.00     0.278 HD
BRANCH  10  13
HETATM   13  C3  UNL     1      25.721   4.852   9.947  1.00  0.00     0.238 C 
BRANCH  13  14
HETATM   14  C2  UNL     1      25.786   3.670   9.023  1.00  0.00     0.014 C 
HETATM   15  C1  UNL     1      26.560   3.936   7.748  1.00  0.00     0.012 C 
BRANCH  14  16
HETATM   16  C23 UNL     1      24.566   2.848   8.874  1.00  0.00    -0.047 C 
HETATM   17  C24 UNL     1      24.091   2.557   7.500  1.00  0.00     0.015 C 
HETATM   18  C25 UNL     1      23.446   3.499   9.711  1.00  0.00     0.015 C 
HETATM   19  C26 UNL     1      24.796   1.498   9.574  1.00  0.00     0.015 C 
ENDBRANCH  14  16
ENDBRANCH  13  14
ENDBRANCH  10  13
ENDBRANCH   9  10
BRANCH   9  20
HETATM   20  C5  UNL     1      27.976   6.462  11.920  1.00  0.00     0.043 C 
BRANCH  20  21
HETATM   21  C6  UNL     1      28.767   6.615  10.700  1.00  0.00    -0.012 C 
HETATM   22  C7  UNL     1      30.126   7.136  10.649  1.00  0.00     0.005 C 
HETATM   23  C8  UNL     1      30.514   7.439   9.191  1.00  0.00     0.000 C 
HETATM   24  C9  UNL     1      29.523   6.843   8.221  1.00  0.00     0.000 C 
HETATM   25  C10 UNL     1      28.126   7.349   8.433  1.00  0.00     0.000 C 
HETATM   26  C11 UNL     1      27.925   7.664   9.876  1.00  0.00     0.005 C 
ENDBRANCH  20  21
ENDBRANCH   9  20
ENDBRANCH   8   9
ENDBRANCH   1   8
BRANCH   7  27
HETATM   27  C16 UNL     1      24.310   7.168  15.528  1.00  0.00     0.312 C 
HETATM   28  O1  UNL     1      23.958   7.391  16.750  1.00  0.00    -0.261 OA
BRANCH  27  29
HETATM   29  O2  UNL     1      23.903   8.111  14.623  1.00  0.00    -0.284 OA
BRANCH  29  30
HETATM   30  C17 UNL     1      24.572   9.355  14.534  1.00  0.00     0.300 C 
HETATM   31  O3  UNL     1      25.852   9.310  14.767  1.00  0.00    -0.357 OA
HETATM   32  C18 UNL     1      26.851   9.268  13.865  1.00  0.00     0.183 C 
HETATM   33  C19 UNL     1      26.556   9.886  12.546  1.00  0.00     0.106 C 
HETATM   34  C21 UNL     1      25.320  10.780  12.653  1.00  0.00     0.163 C 
HETATM   35  C22 UNL     1      24.226   9.810  13.073  1.00  0.00     0.203 C 
BRANCH  33  36
HETATM   36  C20 UNL     1      27.647  10.735  11.953  1.00  0.00     0.361 C 
HETATM   37  F1  UNL     1      28.862  10.096  11.985  1.00  0.00    -0.214 F 
HETATM   38  F2  UNL     1      27.311  10.903  10.600  1.00  0.00    -0.214 F 
ENDBRANCH  33  36
BRANCH  34  39
HETATM   39  O4  UNL     1      25.598  11.738  13.598  1.00  0.00    -0.392 OA
ATOM     40  H4  UNL     1      25.966  12.483  13.138  1.00  0.00     0.210 HD
ENDBRANCH  34  39
BRANCH  35  41
HETATM   41  O5  UNL     1      24.227   8.712  12.270  1.00  0.00    -0.388 OA
ATOM     42  H5  UNL     1      25.022   8.721  11.751  1.00  0.00     0.210 HD
ENDBRANCH  35  41
ENDBRANCH  29  30
ENDBRANCH  27  29
ENDBRANCH   7  27
TORSDOF 14
ENDMDL
MODEL 5
REMARK VINA RESULT: -8.073880960      2.865      4.772
REMARK  14 active torsions:
REMARK  status: ('A' for Active; 'I' for Inactive)
REMARK    1  A    between atoms: C2_2  and  C3_3 
REMARK    2  A    between atoms: C2_2  and  C23_39 
REMARK    3  A    between atoms: C3_3  and  N1_4 
REMARK    4  A    between atoms: N1_4  and  C4_7 
REMARK    5  A    between atoms: C4_7  and  C5_8 
REMARK    6  A    between atoms: C4_7  and  C12_15 
REMARK    7  A    between atoms: C5_8  and  C6_9 
REMARK    8  A    between atoms: C12_15  and  N2_16 
REMARK    9  A    between atoms: C15_22  and  C16_23 
REMARK   10  A    between atoms: C16_23  and  O2_25 
REMARK   11  A    between atoms: O2_25  and  C17_26 
REMARK   12  A    between atoms: C19_29  and  C20_30 
REMARK   13  A    between atoms: C21_33  and  O4_34 
REMARK   14  A    between atoms: C22_36  and  O5_37 
ROOT
HETATM    1  N2  UNL     1      25.619   9.306  11.731  1.00  0.00    -0.355 N 
HETATM    2  C13 UNL     1      26.263  10.460  11.407  1.00  0.00     0.152 C 
HETATM    3  C14 UNL     1      25.350  11.543  11.989  1.00  0.00     0.255 C 
HETATM    4  N3  UNL     1      24.333  10.838  12.816  1.00  0.00    -0.043 N 
ATOM      5  H31 UNL     1      23.391  10.825  12.428  1.00  0.00     0.280 HD
ATOM      6  H32 UNL     1      24.072  11.311  13.681  1.00  0.00     0.280 HD
HETATM    7  C15 UNL     1      24.952   9.525  12.990  1.00  0.00     0.386 C 
ENDROOT
BRANCH   1   8
HETATM    8  C12 UNL     1      24.923   8.378  10.946  1.00  0.00     0.093 C 
BRANCH   8   9
HETATM    9  C4  UNL     1      25.527   7.042  10.682  1.00  0.00     0.224 C 
BRANCH   9  10
HETATM   10  N1  UNL     1      24.840   5.999  11.419  1.00  0.00    -0.066 N 
ATOM     11  H12 UNL     1      23.829   6.101  11.333  1.00  0.00     0.278 HD
ATOM     12  H11 UNL     1      24.938   6.141  12.425  1.00  0.00     0.278 HD
BRANCH  10  13
HETATM   13  C3  UNL     1      25.250   4.677  11.052  1.00  0.00     0.238 C 
BRANCH  13  14
HETATM   14  C2  UNL     1      24.399   4.111   9.951  1.00  0.00     0.014 C 
HETATM   15  C1  UNL     1      23.022   3.677  10.408  1.00  0.00     0.012 C 
BRANCH  14  16
HETATM   16  C23 UNL     1      25.056   3.228   8.963  1.00  0.00    -0.047 C 
HETATM   17  C24 UNL     1      26.348   3.674   8.388  1.00  0.00     0.015 C 
HETATM   18  C25 UNL     1      24.038   2.923   7.843  1.00  0.00     0.015 C 
HETATM   19  C26 UNL     1      25.293   1.855   9.613  1.00  0.00     0.015 C 
ENDBRANCH  14  16
ENDBRANCH  13  14
ENDBRANCH  10  13
ENDBRANCH   9  10
BRANCH   9  20
HETATM   20  C5  UNL     1      26.938   7.015  11.207  1.00  0.00     0.043 C 
BRANCH  20  21
HETATM   21  C6  UNL     1      28.124   6.984  10.353  1.00  0.00    -0.012 C 
HETATM   22  C7  UNL     1      28.102   6.841   8.904  1.00  0.00     0.005 C 
HETATM   23  C8  UNL     1      29.521   6.540   8.389  1.00  0.00     0.000 C 
HETATM   24  C9  UNL     1      30.558   6.776   9.459  1.00  0.00     0.000 C 
HETATM   25  C10 UNL     1      30.332   5.935  10.682  1.00  0.00     0.000 C 
HETATM   26  C11 UNL     1      28.872   5.690  10.854  1.00  0.00     0.005 C 
ENDBRANCH  20  21
ENDBRANCH   9  20
ENDBRANCH   8   9
ENDBRANCH   1   8
BRANCH   7  27
HETATM   27  C16 UNL     1      25.715   9.347  14.172  1.00  0.00     0.312 C 
HETATM   28  O1  UNL     1      25.965  10.366  14.926  1.00  0.00    -0.261 OA
BRANCH  27  29
HETATM   29  O2  UNL     1      26.248   8.161  14.601  1.00  0.00    -0.284 OA
BRANCH  29  30
HETATM   30  C17 UNL     1      25.547   7.354  15.528  1.00  0.00     0.300 C 
HETATM   31  O3  UNL     1      24.255   7.334  15.374  1.00  0.00    -0.357 OA
HETATM   32  C18 UNL     1      23.516   6.396  14.751  1.00  0.00     0.183 C 
HETATM   33  C19 UNL     1      24.091   5.027  14.734  1.00  0.00     0.106 C 
HETATM   34  C21 UNL     1      25.204   4.915  15.776  1.00  0.00     0.163 C 
HETATM   35  C22 UNL     1      26.217   5.951  15.313  1.00  0.00     0.203 C 
BRANCH  33  36
HETATM   36  C20 UNL     1      23.131   3.901  15.012  1.00  0.00     0.361 C 
HETATM   37  F1  UNL     1      21.985   4.350  15.621  1.00  0.00    -0.214 F 
HETATM   38  F2  UNL     1      22.755   3.397  13.757  1.00  0.00    -0.214 F 
ENDBRANCH  33  36
BRANCH  34  39
HETATM   39  O4  UNL     1      24.642   5.202  16.996  1.00  0.00    -0.392 OA
ATOM     40  H4  UNL     1      25.354   5.434  17.582  1.00  0.00     0.210 HD
ENDBRANCH  34  39
BRANCH  35  41
HETATM   41  O5  UNL     1      26.482   5.801  13.987  1.00  0.00    -0.388 OA
ATOM     42  H5  UNL     1      25.665   5.627  13.536  1.00  0.00     0.210 HD
ENDBRANCH  35  41
ENDBRANCH  29  30
ENDBRANCH  27  29
ENDBRANCH   7  27
TORSDOF 14
ENDMDL
