MODEL 1
REMARK VINA RESULT: -7.083054454      0.000      0.000
REMARK  13 active torsions:
REMARK  status: ('A' for Active; 'I' for Inactive)
REMARK    1  A    between atoms: O1_2  and  C2_3 
REMARK    2  A    between atoms: C5_6  and  O2_7 
REMARK    3  A    between atoms: C10_14  and  O3_15 
REMARK    4  A    between atoms: N1_17  and  C11_18 
REMARK    5  A    between atoms: C11_18  and  C12_19 
REMARK    6  A    between atoms: C12_19  and  N2_20 
REMARK    7  A    between atoms: N2_20  and  C13_21 
REMARK    8  A    between atoms: N2_20  and  C15_24 
REMARK    9  A    between atoms: C13_21  and  C14_22 
REMARK   10  A    between atoms: C15_24  and  C16_25 
REMARK   11  A    between atoms: C16_25  and  C17_26 
REMARK   12  A    between atoms: C18_28  and  O4_29 
REMARK   13  A    between atoms: C21_33  and  O5_34 
ROOT
HETATM    1  C2  UNL     1      24.082  11.903  13.250  1.00  0.00     0.129 C 
HETATM    2  C3  UNL     1      25.181  12.501  14.135  1.00  0.00     0.048 C 
HETATM    3  C4  UNL     1      25.604  11.217  14.875  1.00  0.00     0.027 C 
HETATM    4  C5  UNL     1      26.655  11.435  15.790  1.00  0.00     0.170 C 
HETATM    5  C6  UNL     1      27.488  10.349  16.283  1.00  0.00     0.019 C 
HETATM    6 BR1  UNL     1      28.790  10.929  17.586  1.00  0.00    -0.053 Br
HETATM    7  C7  UNL     1      27.534   9.059  16.022  1.00  0.00     0.034 C 
HETATM    8  C8  UNL     1      26.705   8.307  15.101  1.00  0.00     0.027 A 
HETATM    9  C9  UNL     1      25.857   8.839  14.128  1.00  0.00     0.013 A 
HETATM   10  C10 UNL     1      25.271   7.773  13.487  1.00  0.00     0.152 A 
HETATM   11  N1  UNL     1      25.726   6.615  14.028  1.00  0.00    -0.306 N 
HETATM   12  C18 UNL     1      26.595   6.935  15.007  1.00  0.00     0.155 A 
HETATM   13  C19 UNL     1      25.585  10.228  13.790  1.00  0.00     0.047 C 
HETATM   14  C20 UNL     1      24.093  10.499  13.776  1.00  0.00     0.054 C 
HETATM   15  C21 UNL     1      24.250  10.702  15.292  1.00  0.00     0.137 C 
ENDROOT
BRANCH  11  16
HETATM   16  C11 UNL     1      25.315   5.268  13.600  1.00  0.00     0.153 C 
BRANCH  16  17
HETATM   17  C12 UNL     1      26.097   4.922  12.333  1.00  0.00     0.142 C 
BRANCH  17  18
HETATM   18  N2  UNL     1      25.159   4.850  11.268  1.00  0.00    -0.391 N 
BRANCH  18  19
HETATM   19  C13 UNL     1      25.579   5.415  10.038  1.00  0.00     0.137 C 
BRANCH  19  20
HETATM   20  C14 UNL     1      26.781   4.683   9.499  1.00  0.00     0.134 C 
HETATM   21 CL1  UNL     1      26.368   3.818   7.991  1.00  0.00    -0.129 Cl
ENDBRANCH  19  20
ENDBRANCH  18  19
BRANCH  18  22
HETATM   22  C15 UNL     1      24.092   3.975  11.300  1.00  0.00     0.060 C 
BRANCH  22  23
HETATM   23  C16 UNL     1      23.369   3.458  10.144  1.00  0.00     0.075 C 
BRANCH  23  24
HETATM   24  C17 UNL     1      23.565   2.077   9.675  1.00  0.00     0.227 C 
HETATM   25  F1  UNL     1      24.811   1.544   9.872  1.00  0.00    -0.255 F 
ENDBRANCH  23  24
ENDBRANCH  22  23
ENDBRANCH  18  22
ENDBRANCH  17  18
ENDBRANCH  16  17
ENDBRANCH  11  16
BRANCH  10  26
HETATM   26  O3  UNL     1      24.360   7.793  12.452  1.00  0.00    -0.345 OA
ATOM     27  H3  UNL     1      23.421   7.658  12.492  1.00  0.00     0.219 HD
ENDBRANCH  10  26
BRANCH  12  28
HETATM   28  O4  UNL     1      27.298   6.034  15.822  1.00  0.00    -0.345 OA
ATOM     29  H4  UNL     1      27.181   5.092  15.796  1.00  0.00     0.219 HD
ENDBRANCH  12  28
BRANCH   4  30
HETATM   30  O2  UNL     1      26.134  12.061  16.956  1.00  0.00    -0.389 OA
ATOM     31  H2  UNL     1      25.632  12.826  16.699  1.00  0.00     0.210 HD
ENDBRANCH   4  30
BRANCH  15  32
HETATM   32  O5  UNL     1      23.348  11.628  15.754  1.00  0.00    -0.394 OA
ATOM     33  H5  UNL     1      22.463  11.576  15.409  1.00  0.00     0.210 HD
ENDBRANCH  15  32
BRANCH   1  34
HETATM   34  O1  UNL     1      22.883  12.551  13.365  1.00  0.00    -0.390 OA
HETATM   35  C1  UNL     1      22.748  13.359  12.212  1.00  0.00     0.202 C 
ENDBRANCH   1  34
TORSDOF 13
ENDMDL
MODEL 2
REMARK VINA RESULT: -7.041963648      1.075      1.637
REMARK  13 active torsions:
REMARK  status: ('A' for Active; 'I' for Inactive)
REMARK    1  A    between atoms: O1_2  and  C2_3 
REMARK    2  A    between atoms: C5_6  and  O2_7 
REMARK    3  A    between atoms: C10_14  and  O3_15 
REMARK    4  A    between atoms: N1_17  and  C11_18 
REMARK    5  A    between atoms: C11_18  and  C12_19 
REMARK    6  A    between atoms: C12_19  and  N2_20 
REMARK    7  A    between atoms: N2_20  and  C13_21 
REMARK    8  A    between atoms: N2_20  and  C15_24 
REMARK    9  A    between atoms: C13_21  and  C14_22 
REMARK   10  A    between atoms: C15_24  and  C16_25 
REMARK   11  A    between atoms: C16_25  and  C17_26 
REMARK   12  A    between atoms: C18_28  and  O4_29 
REMARK   13  A    between atoms: C21_33  and  O5_34 
ROOT
HETATM    1  C2  UNL     1      24.173  11.905  13.217  1.00  0.00     0.129 C 
HETATM    2  C3  UNL     1      25.222  12.500  14.161  1.00  0.00     0.048 C 
HETATM    3  C4  UNL     1      25.623  11.209  14.903  1.00  0.00     0.027 C 
HETATM    4  C5  UNL     1      26.628  11.424  15.869  1.00  0.00     0.170 C 
HETATM    5  C6  UNL     1      27.448  10.338  16.385  1.00  0.00     0.019 C 
HETATM    6 BR1  UNL     1      28.680  10.911  17.756  1.00  0.00    -0.053 Br
HETATM    7  C7  UNL     1      27.518   9.052  16.108  1.00  0.00     0.034 C 
HETATM    8  C8  UNL     1      26.741   8.306  15.139  1.00  0.00     0.027 A 
HETATM    9  C9  UNL     1      25.935   8.845  14.135  1.00  0.00     0.013 A 
HETATM   10  C10 UNL     1      25.391   7.783  13.451  1.00  0.00     0.152 A 
HETATM   11  N1  UNL     1      25.831   6.621  13.997  1.00  0.00    -0.306 N 
HETATM   12  C18 UNL     1      26.650   6.934  15.020  1.00  0.00     0.155 A 
HETATM   13  C19 UNL     1      25.666  10.235  13.804  1.00  0.00     0.047 C 
HETATM   14  C20 UNL     1      24.172  10.492  13.723  1.00  0.00     0.054 C 
HETATM   15  C21 UNL     1      24.256  10.675  15.248  1.00  0.00     0.137 C 
ENDROOT
BRANCH  11  16
HETATM   16  C11 UNL     1      25.454   5.277  13.531  1.00  0.00     0.153 C 
BRANCH  16  17
HETATM   17  C12 UNL     1      26.313   4.948  12.311  1.00  0.00     0.142 C 
BRANCH  17  18
HETATM   18  N2  UNL     1      25.427   4.706  11.227  1.00  0.00    -0.391 N 
BRANCH  18  19
HETATM   19  C13 UNL     1      24.149   4.202  11.575  1.00  0.00     0.137 C 
BRANCH  19  20
HETATM   20  C14 UNL     1      23.405   3.744  10.348  1.00  0.00     0.134 C 
HETATM   21 CL1  UNL     1      23.835   2.057   9.944  1.00  0.00    -0.129 Cl
ENDBRANCH  19  20
ENDBRANCH  18  19
BRANCH  18  22
HETATM   22  C15 UNL     1      25.635   5.268   9.983  1.00  0.00     0.060 C 
BRANCH  22  23
HETATM   23  C16 UNL     1      26.604   4.822   8.989  1.00  0.00     0.075 C 
BRANCH  23  24
HETATM   24  C17 UNL     1      26.285   3.740   8.043  1.00  0.00     0.227 C 
HETATM   25  F1  UNL     1      27.085   3.651   6.935  1.00  0.00    -0.255 F 
ENDBRANCH  23  24
ENDBRANCH  22  23
ENDBRANCH  18  22
ENDBRANCH  17  18
ENDBRANCH  16  17
ENDBRANCH  11  16
BRANCH  10  26
HETATM   26  O3  UNL     1      24.529   7.809  12.375  1.00  0.00    -0.345 OA
ATOM     27  H3  UNL     1      24.131   7.076  11.921  1.00  0.00     0.219 HD
ENDBRANCH  10  26
BRANCH  12  28
HETATM   28  O4  UNL     1      27.323   6.029  15.855  1.00  0.00    -0.345 OA
ATOM     29  H4  UNL     1      26.894   5.498  16.517  1.00  0.00     0.219 HD
ENDBRANCH  12  28
BRANCH   4  30
HETATM   30  O2  UNL     1      26.046  12.027  17.018  1.00  0.00    -0.389 OA
ATOM     31  H2  UNL     1      25.868  11.355  17.665  1.00  0.00     0.210 HD
ENDBRANCH   4  30
BRANCH  15  32
HETATM   32  O5  UNL     1      23.324  11.586  15.679  1.00  0.00    -0.394 OA
ATOM     33  H5  UNL     1      22.416  11.302  15.685  1.00  0.00     0.210 HD
ENDBRANCH  15  32
BRANCH   1  34
HETATM   34  O1  UNL     1      22.963  12.539  13.285  1.00  0.00    -0.390 OA
HETATM   35  C1  UNL     1      22.881  13.374  12.146  1.00  0.00     0.202 C 
ENDBRANCH   1  34
TORSDOF 13
ENDMDL
MODEL 3
REMARK VINA RESULT: -6.999979623      4.625      7.410
REMARK  13 active torsions:
REMARK  status: ('A' for Active; 'I' for Inactive)
REMARK    1  A    between atoms: O1_2  and  C2_3 
REMARK    2  A    between atoms: C5_6  and  O2_7 
REMARK    3  A    between atoms: C10_14  and  O3_15 
REMARK    4  A    between atoms: N1_17  and  C11_18 
REMARK    5  A    between atoms: C11_18  and  C12_19 
REMARK    6  A    between atoms: C12_19  and  N2_20 
REMARK    7  A    between atoms: N2_20  and  C13_21 
REMARK    8  A    between atoms: N2_20  and  C15_24 
REMARK    9  A    between atoms: C13_21  and  C14_22 
REMARK   10  A    between atoms: C15_24  and  C16_25 
REMARK   11  A    between atoms: C16_25  and  C17_26 
REMARK   12  A    between atoms: C18_28  and  O4_29 
REMARK   13  A    between atoms: C21_33  and  O5_34 
ROOT
HETATM    1  C2  UNL     1      26.022   5.865  14.401  1.00  0.00     0.129 C 
HETATM    2  C3  UNL     1      25.298   4.810  13.557  1.00  0.00     0.048 C 
HETATM    3  C4  UNL     1      25.738   5.292  12.160  1.00  0.00     0.027 C 
HETATM    4  C5  UNL     1      25.231   4.486  11.120  1.00  0.00     0.170 C 
HETATM    5  C6  UNL     1      25.823   4.478   9.791  1.00  0.00     0.019 C 
HETATM    6 BR1  UNL     1      24.871   3.346   8.550  1.00  0.00    -0.053 Br
HETATM    7  C7  UNL     1      26.869   5.082   9.267  1.00  0.00     0.034 C 
HETATM    8  C8  UNL     1      27.791   5.991   9.919  1.00  0.00     0.027 A 
HETATM    9  C9  UNL     1      27.898   6.217  11.292  1.00  0.00     0.013 A 
HETATM   10  C10 UNL     1      28.896   7.147  11.464  1.00  0.00     0.152 A 
HETATM   11  N1  UNL     1      29.400   7.498  10.254  1.00  0.00    -0.306 N 
HETATM   12  C18 UNL     1      28.733   6.799   9.315  1.00  0.00     0.155 A 
HETATM   13  C19 UNL     1      27.148   5.630  12.392  1.00  0.00     0.047 C 
HETATM   14  C20 UNL     1      26.581   6.710  13.295  1.00  0.00     0.054 C 
HETATM   15  C21 UNL     1      25.423   6.761  12.284  1.00  0.00     0.137 C 
ENDROOT
BRANCH  11  16
HETATM   16  C11 UNL     1      30.480   8.476  10.045  1.00  0.00     0.153 C 
BRANCH  16  17
HETATM   17  C12 UNL     1      29.836   9.806   9.656  1.00  0.00     0.142 C 
BRANCH  17  18
HETATM   18  N2  UNL     1      29.721  10.579  10.842  1.00  0.00    -0.391 N 
BRANCH  18  19
HETATM   19  C13 UNL     1      30.941  11.038  11.399  1.00  0.00     0.137 C 
BRANCH  19  20
HETATM   20  C14 UNL     1      30.938  10.873  12.897  1.00  0.00     0.134 C 
HETATM   21 CL1  UNL     1      32.142   9.653  13.399  1.00  0.00    -0.129 Cl
ENDBRANCH  19  20
ENDBRANCH  18  19
BRANCH  18  22
HETATM   22  C15 UNL     1      28.528  11.164  11.213  1.00  0.00     0.060 C 
BRANCH  22  23
HETATM   23  C16 UNL     1      27.356  10.471  11.738  1.00  0.00     0.075 C 
BRANCH  23  24
HETATM   24  C17 UNL     1      26.237  10.091  10.861  1.00  0.00     0.227 C 
HETATM   25  F1  UNL     1      26.463   9.038  10.015  1.00  0.00    -0.255 F 
ENDBRANCH  23  24
ENDBRANCH  22  23
ENDBRANCH  18  22
ENDBRANCH  17  18
ENDBRANCH  16  17
ENDBRANCH  11  16
BRANCH  10  26
HETATM   26  O3  UNL     1      29.367   7.688  12.642  1.00  0.00    -0.345 OA
ATOM     27  H3  UNL     1      29.995   8.391  12.757  1.00  0.00     0.219 HD
ENDBRANCH  10  26
BRANCH  12  28
HETATM   28  O4  UNL     1      28.941   6.860   7.928  1.00  0.00    -0.345 OA
ATOM     29  H4  UNL     1      28.823   7.646   7.408  1.00  0.00     0.219 HD
ENDBRANCH  12  28
BRANCH   4  30
HETATM   30  O2  UNL     1      23.859   4.802  10.913  1.00  0.00    -0.389 OA
ATOM     31  H2  UNL     1      23.363   4.543  11.681  1.00  0.00     0.210 HD
ENDBRANCH   4  30
BRANCH  15  32
HETATM   32  O5  UNL     1      24.248   7.095  12.910  1.00  0.00    -0.394 OA
ATOM     33  H5  UNL     1      23.682   7.714  12.462  1.00  0.00     0.210 HD
ENDBRANCH  15  32
BRANCH   1  34
HETATM   34  O1  UNL     1      25.194   6.525  15.267  1.00  0.00    -0.390 OA
HETATM   35  C1  UNL     1      24.413   5.538  15.911  1.00  0.00     0.202 C 
ENDBRANCH   1  34
TORSDOF 13
ENDMDL
MODEL 4
REMARK VINA RESULT: -6.888346913      3.190      5.055
REMARK  13 active torsions:
REMARK  status: ('A' for Active; 'I' for Inactive)
REMARK    1  A    between atoms: O1_2  and  C2_3 
REMARK    2  A    between atoms: C5_6  and  O2_7 
REMARK    3  A    between atoms: C10_14  and  O3_15 
REMARK    4  A    between atoms: N1_17  and  C11_18 
REMARK    5  A    between atoms: C11_18  and  C12_19 
REMARK    6  A    between atoms: C12_19  and  N2_20 
REMARK    7  A    between atoms: N2_20  and  C13_21 
REMARK    8  A    between atoms: N2_20  and  C15_24 
REMARK    9  A    between atoms: C13_21  and  C14_22 
REMARK   10  A    between atoms: C15_24  and  C16_25 
REMARK   11  A    between atoms: C16_25  and  C17_26 
REMARK   12  A    between atoms: C18_28  and  O4_29 
REMARK   13  A    between atoms: C21_33  and  O5_34 
ROOT
HETATM    1  C2  UNL     1      23.828   5.997  14.440  1.00  0.00     0.129 C 
HETATM    2  C3  UNL     1      23.494   7.035  15.517  1.00  0.00     0.048 C 
HETATM    3  C4  UNL     1      24.388   8.185  15.012  1.00  0.00     0.027 C 
HETATM    4  C5  UNL     1      24.291   9.343  15.812  1.00  0.00     0.170 C 
HETATM    5  C6  UNL     1      24.693  10.654  15.324  1.00  0.00     0.019 C 
HETATM    6 BR1  UNL     1      24.529  12.037  16.661  1.00  0.00    -0.053 Br
HETATM    7  C7  UNL     1      25.143  11.084  14.163  1.00  0.00     0.034 C 
HETATM    8  C8  UNL     1      25.379  10.314  12.959  1.00  0.00     0.027 A 
HETATM    9  C9  UNL     1      24.947   9.009  12.714  1.00  0.00     0.013 A 
HETATM   10  C10 UNL     1      25.388   8.676  11.455  1.00  0.00     0.152 A 
HETATM   11  N1  UNL     1      26.071   9.722  10.923  1.00  0.00    -0.306 N 
HETATM   12  C18 UNL     1      26.067  10.716  11.832  1.00  0.00     0.155 A 
HETATM   13  C19 UNL     1      24.180   8.109  13.560  1.00  0.00     0.047 C 
HETATM   14  C20 UNL     1      24.873   6.765  13.687  1.00  0.00     0.054 C 
HETATM   15  C21 UNL     1      25.680   7.437  14.810  1.00  0.00     0.137 C 
ENDROOT
BRANCH  11  16
HETATM   16  C11 UNL     1      26.695   9.729   9.591  1.00  0.00     0.153 C 
BRANCH  16  17
HETATM   17  C12 UNL     1      28.206   9.599   9.782  1.00  0.00     0.142 C 
BRANCH  17  18
HETATM   18  N2  UNL     1      28.526   8.219   9.669  1.00  0.00    -0.391 N 
BRANCH  18  19
HETATM   19  C13 UNL     1      29.024   7.603  10.845  1.00  0.00     0.137 C 
BRANCH  19  20
HETATM   20  C14 UNL     1      29.568   8.637  11.797  1.00  0.00     0.134 C 
HETATM   21 CL1  UNL     1      28.635   8.643  13.321  1.00  0.00    -0.129 Cl
ENDBRANCH  19  20
ENDBRANCH  18  19
BRANCH  18  22
HETATM   22  C15 UNL     1      28.040   7.445   8.635  1.00  0.00     0.060 C 
BRANCH  22  23
HETATM   23  C16 UNL     1      28.147   5.995   8.522  1.00  0.00     0.075 C 
BRANCH  23  24
HETATM   24  C17 UNL     1      27.007   5.117   8.835  1.00  0.00     0.227 C 
HETATM   25  F1  UNL     1      26.606   4.270   7.837  1.00  0.00    -0.255 F 
ENDBRANCH  23  24
ENDBRANCH  22  23
ENDBRANCH  18  22
ENDBRANCH  17  18
ENDBRANCH  16  17
ENDBRANCH  11  16
BRANCH  10  26
HETATM   26  O3  UNL     1      25.209   7.492  10.771  1.00  0.00    -0.345 OA
ATOM     27  H3  UNL     1      25.587   7.228   9.941  1.00  0.00     0.219 HD
ENDBRANCH  10  26
BRANCH  12  28
HETATM   28  O4  UNL     1      26.661  11.980  11.686  1.00  0.00    -0.345 OA
ATOM     29  H4  UNL     1      26.607  12.503  10.895  1.00  0.00     0.219 HD
ENDBRANCH  12  28
BRANCH   4  30
HETATM   30  O2  UNL     1      25.037   9.147  17.007  1.00  0.00    -0.389 OA
ATOM     31  H2  UNL     1      25.106   9.974  17.468  1.00  0.00     0.210 HD
ENDBRANCH   4  30
BRANCH  15  32
HETATM   32  O5  UNL     1      26.027   6.521  15.773  1.00  0.00    -0.394 OA
ATOM     33  H5  UNL     1      25.353   5.910  16.049  1.00  0.00     0.210 HD
ENDBRANCH  15  32
BRANCH   1  34
HETATM   34  O1  UNL     1      24.252   4.802  14.955  1.00  0.00    -0.390 OA
HETATM   35  C1  UNL     1      23.090   4.037  15.209  1.00  0.00     0.202 C 
ENDBRANCH   1  34
TORSDOF 13
ENDMDL
MODEL 5
REMARK VINA RESULT: -6.861035555      4.592      7.464
REMARK  13 active torsions:
REMARK  status: ('A' for Active; 'I' for Inactive)
REMARK    1  A    between atoms: O1_2  and  C2_3 
REMARK    2  A    between atoms: C5_6  and  O2_7 
REMARK    3  A    between atoms: C10_14  and  O3_15 
REMARK    4  A    between atoms: N1_17  and  C11_18 
REMARK    5  A    between atoms: C11_18  and  C12_19 
REMARK    6  A    between atoms: C12_19  and  N2_20 
REMARK    7  A    between atoms: N2_20  and  C13_21 
REMARK    8  A    between atoms: N2_20  and  C15_24 
REMARK    9  A    between atoms: C13_21  and  C14_22 
REMARK   10  A    between atoms: C15_24  and  C16_25 
REMARK   11  A    between atoms: C16_25  and  C17_26 
REMARK   12  A    between atoms: C18_28  and  O4_29 
REMARK   13  A    between atoms: C21_33  and  O5_34 
ROOT
HETATM    1  C2  UNL     1      26.010   5.872  14.452  1.00  0.00     0.129 C 
HETATM    2  C3  UNL     1      25.300   4.811  13.605  1.00  0.00     0.048 C 
HETATM    3  C4  UNL     1      25.735   5.302  12.210  1.00  0.00     0.027 C 
HETATM    4  C5  UNL     1      25.240   4.493  11.167  1.00  0.00     0.170 C 
HETATM    5  C6  UNL     1      25.833   4.495   9.838  1.00  0.00     0.019 C 
HETATM    6 BR1  UNL     1      24.897   3.355   8.593  1.00  0.00    -0.053 Br
HETATM    7  C7  UNL     1      26.873   5.114   9.317  1.00  0.00     0.034 C 
HETATM    8  C8  UNL     1      27.783   6.032   9.973  1.00  0.00     0.027 A 
HETATM    9  C9  UNL     1      27.885   6.255  11.346  1.00  0.00     0.013 A 
HETATM   10  C10 UNL     1      28.872   7.197  11.522  1.00  0.00     0.152 A 
HETATM   11  N1  UNL     1      29.373   7.557  10.314  1.00  0.00    -0.306 N 
HETATM   12  C18 UNL     1      28.716   6.853   9.372  1.00  0.00     0.155 A 
HETATM   13  C19 UNL     1      27.141   5.657  12.444  1.00  0.00     0.047 C 
HETATM   14  C20 UNL     1      26.560   6.727  13.349  1.00  0.00     0.054 C 
HETATM   15  C21 UNL     1      25.403   6.767  12.337  1.00  0.00     0.137 C 
ENDROOT
BRANCH  11  16
HETATM   16  C11 UNL     1      30.441   8.549  10.108  1.00  0.00     0.153 C 
BRANCH  16  17
HETATM   17  C12 UNL     1      29.874   9.672   9.241  1.00  0.00     0.142 C 
BRANCH  17  18
HETATM   18  N2  UNL     1      29.500  10.728  10.115  1.00  0.00    -0.391 N 
BRANCH  18  19
HETATM   19  C13 UNL     1      28.253  11.344   9.841  1.00  0.00     0.137 C 
BRANCH  19  20
HETATM   20  C14 UNL     1      27.337  10.390   9.120  1.00  0.00     0.134 C 
HETATM   21 CL1  UNL     1      26.292   9.521  10.280  1.00  0.00    -0.129 Cl
ENDBRANCH  19  20
ENDBRANCH  18  19
BRANCH  18  22
HETATM   22  C15 UNL     1      30.097  10.893  11.348  1.00  0.00     0.060 C 
BRANCH  22  23
HETATM   23  C16 UNL     1      29.584  11.697  12.452  1.00  0.00     0.075 C 
BRANCH  23  24
HETATM   24  C17 UNL     1      28.768  11.096  13.520  1.00  0.00     0.227 C 
HETATM   25  F1  UNL     1      27.663  10.396  13.114  1.00  0.00    -0.255 F 
ENDBRANCH  23  24
ENDBRANCH  22  23
ENDBRANCH  18  22
ENDBRANCH  17  18
ENDBRANCH  16  17
ENDBRANCH  11  16
BRANCH  10  26
HETATM   26  O3  UNL     1      29.335   7.741  12.702  1.00  0.00    -0.345 OA
ATOM     27  H3  UNL     1      29.730   8.593  12.843  1.00  0.00     0.219 HD
ENDBRANCH  10  26
BRANCH  12  28
HETATM   28  O4  UNL     1      28.925   6.920   7.986  1.00  0.00    -0.345 OA
ATOM     29  H4  UNL     1      28.236   6.814   7.340  1.00  0.00     0.219 HD
ENDBRANCH  12  28
BRANCH   4  30
HETATM   30  O2  UNL     1      23.865   4.793  10.959  1.00  0.00    -0.389 OA
ATOM     31  H2  UNL     1      23.609   4.492  10.095  1.00  0.00     0.210 HD
ENDBRANCH   4  30
BRANCH  15  32
HETATM   32  O5  UNL     1      24.222   7.085  12.962  1.00  0.00    -0.394 OA
ATOM     33  H5  UNL     1      23.779   7.873  12.669  1.00  0.00     0.210 HD
ENDBRANCH  15  32
BRANCH   1  34
HETATM   34  O1  UNL     1      25.173   6.521  15.318  1.00  0.00    -0.390 OA
HETATM   35  C1  UNL     1      24.379   5.525  15.934  1.00  0.00     0.202 C 
ENDBRANCH   1  34
TORSDOF 13
ENDMDL
