MODEL 1
REMARK VINA RESULT: -8.498176833      0.000      0.000
REMARK  13 active torsions:
REMARK  status: ('A' for Active; 'I' for Inactive)
REMARK    1  A    between atoms: C2_2  and  O1_5 
REMARK    2  A    between atoms: O1_5  and  C5_6 
REMARK       I    between atoms: C5_6  and  N1_8 
REMARK    3  A    between atoms: N1_8  and  C6_10 
REMARK    4  A    between atoms: C6_10  and  C7_11 
REMARK    5  A    between atoms: C6_10  and  C22_38 
REMARK       I    between atoms: C7_11  and  N2_13 
REMARK    6  A    between atoms: N2_13  and  C8_15 
REMARK    7  A    between atoms: C8_15  and  C9_16 
REMARK    8  A    between atoms: C8_15  and  C15_24 
REMARK    9  A    between atoms: C9_16  and  C10_17 
REMARK   10  A    between atoms: C15_24  and  O4_25 
REMARK   11  A    between atoms: C15_24  and  C16_27 
REMARK   12  A    between atoms: C16_27  and  N4_30 
REMARK   13  A    between atoms: C20_35  and  C21_36 
ROOT
HETATM    1  C8  UNL     1      25.911   8.289  13.580  1.00  0.00     0.122 C 
ENDROOT
BRANCH   1   2
HETATM    2  N2  UNL     1      26.262   7.692  12.310  1.00  0.00    -0.349 N 
HETATM    3  C7  UNL     1      27.473   7.163  11.860  1.00  0.00     0.265 C 
HETATM    4  O3  UNL     1      28.492   7.227  12.573  1.00  0.00    -0.266 OA
ATOM      5  H2  UNL     1      25.500   7.651  11.633  1.00  0.00     0.163 HD
BRANCH   3   6
HETATM    6  C6  UNL     1      27.592   6.509  10.512  1.00  0.00     0.089 C 
BRANCH   6   7
HETATM    7  N1  UNL     1      27.030   5.211  10.497  1.00  0.00    -0.300 N 
HETATM    8  C5  UNL     1      25.684   4.836  10.483  1.00  0.00     0.365 C 
HETATM    9  O2  UNL     1      24.781   5.712  10.483  1.00  0.00    -0.238 OA
ATOM     10  H1  UNL     1      27.700   4.442  10.498  1.00  0.00     0.171 HD
BRANCH   8  11
HETATM   11  O1  UNL     1      25.298   3.517  10.473  1.00  0.00    -0.294 OA
BRANCH  11  12
HETATM   12  C2  UNL     1      24.652   2.847   9.456  1.00  0.00     0.061 C 
HETATM   13  C1  UNL     1      24.956   1.355   9.624  1.00  0.00     0.046 C 
HETATM   14  C3  UNL     1      25.111   3.230   8.067  1.00  0.00     0.046 C 
HETATM   15  C4  UNL     1      23.166   3.027   9.569  1.00  0.00     0.046 C 
ENDBRANCH  11  12
ENDBRANCH   8  11
ENDBRANCH   6   7
BRANCH   6  16
HETATM   16  C22 UNL     1      28.889   6.787   9.877  1.00  0.00    -0.003 C 
HETATM   17  C23 UNL     1      28.849   6.283   8.407  1.00  0.00     0.021 C 
HETATM   18  C24 UNL     1      30.004   5.959  10.522  1.00  0.00     0.021 C 
HETATM   19  C25 UNL     1      29.265   8.234   9.809  1.00  0.00     0.021 C 
ENDBRANCH   6  16
ENDBRANCH   3   6
ENDBRANCH   1   2
BRANCH   1  20
HETATM   20  C9  UNL     1      25.816   7.210  14.541  1.00  0.00     0.034 C 
BRANCH  20  21
HETATM   21  C10 UNL     1      24.715   6.272  14.691  1.00  0.00     0.005 C 
HETATM   22  C11 UNL     1      23.547   6.724  15.559  1.00  0.00     0.008 C 
HETATM   23  C12 UNL     1      22.563   5.587  15.682  1.00  0.00     0.020 C 
HETATM   24  C13 UNL     1      23.114   4.252  15.218  1.00  0.00     0.113 C 
HETATM   25  N3  UNL     1      24.414   4.074  15.781  1.00  0.00    -0.421 N 
HETATM   26  C14 UNL     1      25.330   5.132  15.565  1.00  0.00     0.118 C 
ATOM     27  H3  UNL     1      24.667   3.236  16.305  1.00  0.00     0.153 HD
ENDBRANCH  20  21
ENDBRANCH   1  20
BRANCH   1  28
HETATM   28  C15 UNL     1      24.855   9.287  13.435  1.00  0.00     0.246 C 
BRANCH  28  29
HETATM   29  O4  UNL     1      23.793   8.833  12.594  1.00  0.00    -0.385 OA
ATOM     30  H4  UNL     1      22.981   9.297  12.757  1.00  0.00     0.210 HD
ENDBRANCH  28  29
BRANCH  28  31
HETATM   31  C16 UNL     1      25.199  10.702  13.002  1.00  0.00     0.467 C 
HETATM   32  F1  UNL     1      26.543  10.965  13.072  1.00  0.00    -0.170 F 
HETATM   33  F2  UNL     1      24.862  10.865  11.662  1.00  0.00    -0.170 F 
BRANCH  31  34
HETATM   34  N4  UNL     1      24.461  11.644  13.750  1.00  0.00     0.174 N 
HETATM   35  C17 UNL     1      24.843  11.797  15.098  1.00  0.00     0.307 C 
HETATM   36  C18 UNL     1      23.765  12.528  15.914  1.00  0.00     0.198 C 
HETATM   37  O5  UNL     1      23.133  13.444  15.096  1.00  0.00    -0.387 OA
HETATM   38  C19 UNL     1      24.094  13.976  14.218  1.00  0.00     0.206 C 
HETATM   39  C20 UNL     1      24.270  12.898  13.112  1.00  0.00     0.282 C 
BRANCH  39  40
HETATM   40  C21 UNL     1      22.978  13.011  12.317  1.00  0.00     0.260 C 
HETATM   41  F3  UNL     1      23.248  13.732  11.178  1.00  0.00    -0.253 F 
ENDBRANCH  39  40
ENDBRANCH  31  34
ENDBRANCH  28  31
ENDBRANCH   1  28
TORSDOF 13
ENDMDL
MODEL 2
REMARK VINA RESULT: -8.485243364      3.248      6.700
REMARK  13 active torsions:
REMARK  status: ('A' for Active; 'I' for Inactive)
REMARK    1  A    between atoms: C2_2  and  O1_5 
REMARK    2  A    between atoms: O1_5  and  C5_6 
REMARK       I    between atoms: C5_6  and  N1_8 
REMARK    3  A    between atoms: N1_8  and  C6_10 
REMARK    4  A    between atoms: C6_10  and  C7_11 
REMARK    5  A    between atoms: C6_10  and  C22_38 
REMARK       I    between atoms: C7_11  and  N2_13 
REMARK    6  A    between atoms: N2_13  and  C8_15 
REMARK    7  A    between atoms: C8_15  and  C9_16 
REMARK    8  A    between atoms: C8_15  and  C15_24 
REMARK    9  A    between atoms: C9_16  and  C10_17 
REMARK   10  A    between atoms: C15_24  and  O4_25 
REMARK   11  A    between atoms: C15_24  and  C16_27 
REMARK   12  A    between atoms: C16_27  and  N4_30 
REMARK   13  A    between atoms: C20_35  and  C21_36 
ROOT
HETATM    1  C8  UNL     1      26.950   6.165  10.091  1.00  0.00     0.122 C 
ENDROOT
BRANCH   1   2
HETATM    2  N2  UNL     1      26.804   6.937  11.306  1.00  0.00    -0.349 N 
HETATM    3  C7  UNL     1      25.810   7.837  11.695  1.00  0.00     0.265 C 
HETATM    4  O3  UNL     1      24.892   8.139  10.911  1.00  0.00    -0.266 OA
ATOM      5  H2  UNL     1      27.549   6.800  11.990  1.00  0.00     0.163 HD
BRANCH   3   6
HETATM    6  C6  UNL     1      25.816   8.473  13.058  1.00  0.00     0.089 C 
BRANCH   6   7
HETATM    7  N1  UNL     1      24.986   7.782  13.971  1.00  0.00    -0.300 N 
HETATM    8  C5  UNL     1      25.346   7.043  15.102  1.00  0.00     0.365 C 
HETATM    9  O2  UNL     1      26.557   6.924  15.423  1.00  0.00    -0.238 OA
ATOM     10  H1  UNL     1      23.985   7.829  13.779  1.00  0.00     0.171 HD
BRANCH   8  11
HETATM   11  O1  UNL     1      24.409   6.423  15.892  1.00  0.00    -0.294 OA
BRANCH  11  12
HETATM   12  C2  UNL     1      23.936   5.134  15.765  1.00  0.00     0.061 C 
HETATM   13  C1  UNL     1      24.792   4.241  16.670  1.00  0.00     0.046 C 
HETATM   14  C3  UNL     1      24.042   4.566  14.368  1.00  0.00     0.046 C 
HETATM   15  C4  UNL     1      22.517   5.045  16.246  1.00  0.00     0.046 C 
ENDBRANCH  11  12
ENDBRANCH   8  11
ENDBRANCH   6   7
BRANCH   6  16
HETATM   16  C22 UNL     1      25.812   9.941  12.981  1.00  0.00    -0.003 C 
HETATM   17  C23 UNL     1      26.670  10.510  14.145  1.00  0.00     0.021 C 
HETATM   18  C24 UNL     1      24.410  10.499  13.247  1.00  0.00     0.021 C 
HETATM   19  C25 UNL     1      26.387  10.513  11.724  1.00  0.00     0.021 C 
ENDBRANCH   6  16
ENDBRANCH   3   6
ENDBRANCH   1   2
BRANCH   1  20
HETATM   20  C9  UNL     1      26.771   4.775  10.452  1.00  0.00     0.034 C 
BRANCH  20  21
HETATM   21  C10 UNL     1      25.716   3.884   9.993  1.00  0.00     0.005 C 
HETATM   22  C11 UNL     1      25.624   3.654   8.491  1.00  0.00     0.008 C 
HETATM   23  C12 UNL     1      24.415   2.797   8.203  1.00  0.00     0.020 C 
HETATM   24  C13 UNL     1      23.465   2.670   9.378  1.00  0.00     0.113 C 
HETATM   25  N3  UNL     1      23.247   3.968   9.932  1.00  0.00    -0.421 N 
HETATM   26  C14 UNL     1      24.412   4.701  10.265  1.00  0.00     0.118 C 
ATOM     27  H3  UNL     1      22.310   4.345  10.078  1.00  0.00     0.153 HD
ENDBRANCH  20  21
ENDBRANCH   1  20
BRANCH   1  28
HETATM   28  C15 UNL     1      28.091   6.615   9.299  1.00  0.00     0.246 C 
BRANCH  28  29
HETATM   29  O4  UNL     1      28.185   5.931   8.049  1.00  0.00    -0.385 OA
ATOM     30  H4  UNL     1      28.872   5.275   8.047  1.00  0.00     0.210 HD
ENDBRANCH  28  29
BRANCH  28  31
HETATM   31  C16 UNL     1      29.483   6.630   9.909  1.00  0.00     0.467 C 
HETATM   32  F1  UNL     1      29.575   5.854  11.037  1.00  0.00    -0.170 F 
HETATM   33  F2  UNL     1      30.384   6.076   9.006  1.00  0.00    -0.170 F 
BRANCH  31  34
HETATM   34  N4  UNL     1      29.895   7.953  10.174  1.00  0.00     0.174 N 
HETATM   35  C17 UNL     1      29.070   8.972   9.657  1.00  0.00     0.307 C 
HETATM   36  C18 UNL     1      29.784  10.334   9.653  1.00  0.00     0.198 C 
HETATM   37  O5  UNL     1      30.635  10.393  10.739  1.00  0.00    -0.387 OA
HETATM   38  C19 UNL     1      30.021   9.716  11.807  1.00  0.00     0.206 C 
HETATM   39  C20 UNL     1      30.262   8.207  11.522  1.00  0.00     0.282 C 
BRANCH  39  40
HETATM   40  C21 UNL     1      31.745   8.038  11.815  1.00  0.00     0.260 C 
HETATM   41  F3  UNL     1      31.930   6.778  12.332  1.00  0.00    -0.253 F 
ENDBRANCH  39  40
ENDBRANCH  31  34
ENDBRANCH  28  31
ENDBRANCH   1  28
TORSDOF 13
ENDMDL
MODEL 3
REMARK VINA RESULT: -8.479678529      2.193      5.208
REMARK  13 active torsions:
REMARK  status: ('A' for Active; 'I' for Inactive)
REMARK    1  A    between atoms: C2_2  and  O1_5 
REMARK    2  A    between atoms: O1_5  and  C5_6 
REMARK       I    between atoms: C5_6  and  N1_8 
REMARK    3  A    between atoms: N1_8  and  C6_10 
REMARK    4  A    between atoms: C6_10  and  C7_11 
REMARK    5  A    between atoms: C6_10  and  C22_38 
REMARK       I    between atoms: C7_11  and  N2_13 
REMARK    6  A    between atoms: N2_13  and  C8_15 
REMARK    7  A    between atoms: C8_15  and  C9_16 
REMARK    8  A    between atoms: C8_15  and  C15_24 
REMARK    9  A    between atoms: C9_16  and  C10_17 
REMARK   10  A    between atoms: C15_24  and  O4_25 
REMARK   11  A    between atoms: C15_24  and  C16_27 
REMARK   12  A    between atoms: C16_27  and  N4_30 
REMARK   13  A    between atoms: C20_35  and  C21_36 
ROOT
HETATM    1  C8  UNL     1      25.411   8.976  12.398  1.00  0.00     0.122 C 
ENDROOT
BRANCH   1   2
HETATM    2  N2  UNL     1      26.191   7.990  11.685  1.00  0.00    -0.349 N 
HETATM    3  C7  UNL     1      26.896   8.084  10.483  1.00  0.00     0.265 C 
HETATM    4  O3  UNL     1      26.852   9.130   9.809  1.00  0.00    -0.266 OA
ATOM      5  H2  UNL     1      26.234   7.075  12.135  1.00  0.00     0.163 HD
BRANCH   3   6
HETATM    6  C6  UNL     1      27.718   6.939   9.962  1.00  0.00     0.089 C 
BRANCH   6   7
HETATM    7  N1  UNL     1      27.076   5.692  10.154  1.00  0.00    -0.300 N 
HETATM    8  C5  UNL     1      26.755   4.714   9.209  1.00  0.00     0.365 C 
HETATM    9  O2  UNL     1      27.038   4.887   7.995  1.00  0.00    -0.238 OA
ATOM     10  H1  UNL     1      26.812   5.477  11.115  1.00  0.00     0.171 HD
BRANCH   8  11
HETATM   11  O1  UNL     1      26.122   3.546   9.560  1.00  0.00    -0.294 OA
BRANCH  11  12
HETATM   12  C2  UNL     1      24.844   3.158   9.218  1.00  0.00     0.061 C 
HETATM   13  C1  UNL     1      24.611   1.769   9.821  1.00  0.00     0.046 C 
HETATM   14  C3  UNL     1      24.607   3.031   7.730  1.00  0.00     0.046 C 
HETATM   15  C4  UNL     1      23.833   4.092   9.818  1.00  0.00     0.046 C 
ENDBRANCH  11  12
ENDBRANCH   8  11
ENDBRANCH   6   7
BRANCH   6  16
HETATM   16  C22 UNL     1      29.150   7.113  10.248  1.00  0.00    -0.003 C 
HETATM   17  C23 UNL     1      29.903   7.363   8.911  1.00  0.00     0.021 C 
HETATM   18  C24 UNL     1      29.764   5.816  10.782  1.00  0.00     0.021 C 
HETATM   19  C25 UNL     1      29.484   8.270  11.135  1.00  0.00     0.021 C 
ENDBRANCH   6  16
ENDBRANCH   3   6
ENDBRANCH   1   2
BRANCH   1  20
HETATM   20  C9  UNL     1      26.346   9.928  12.960  1.00  0.00     0.034 C 
BRANCH  20  21
HETATM   21  C10 UNL     1      26.150  11.362  13.105  1.00  0.00     0.005 C 
HETATM   22  C11 UNL     1      25.201  11.812  14.208  1.00  0.00     0.008 C 
HETATM   23  C12 UNL     1      25.044  13.311  14.133  1.00  0.00     0.020 C 
HETATM   24  C13 UNL     1      25.574  13.916  12.847  1.00  0.00     0.113 C 
HETATM   25  N3  UNL     1      25.098  13.139  11.747  1.00  0.00    -0.421 N 
HETATM   26  C14 UNL     1      25.344  11.747  11.823  1.00  0.00     0.118 C 
ATOM     27  H3  UNL     1      24.612  13.561  10.956  1.00  0.00     0.153 HD
ENDBRANCH  20  21
ENDBRANCH   1  20
BRANCH   1  28
HETATM   28  C15 UNL     1      24.363   8.358  13.205  1.00  0.00     0.246 C 
BRANCH  28  29
HETATM   29  O4  UNL     1      23.139   9.092  13.157  1.00  0.00    -0.385 OA
ATOM     30  H4  UNL     1      22.414   8.610  13.538  1.00  0.00     0.210 HD
ENDBRANCH  28  29
BRANCH  28  31
HETATM   31  C16 UNL     1      24.626   8.015  14.661  1.00  0.00     0.467 C 
HETATM   32  F1  UNL     1      25.906   8.316  15.053  1.00  0.00    -0.170 F 
HETATM   33  F2  UNL     1      23.802   8.791  15.470  1.00  0.00    -0.170 F 
BRANCH  31  34
HETATM   34  N4  UNL     1      24.328   6.660  14.915  1.00  0.00     0.174 N 
HETATM   35  C17 UNL     1      23.038   6.394  15.416  1.00  0.00     0.307 C 
HETATM   36  C18 UNL     1      22.942   4.983  16.018  1.00  0.00     0.198 C 
HETATM   37  O5  UNL     1      23.772   4.139  15.306  1.00  0.00    -0.387 OA
HETATM   38  C19 UNL     1      23.736   4.533  13.957  1.00  0.00     0.206 C 
HETATM   39  C20 UNL     1      24.681   5.765  13.870  1.00  0.00     0.282 C 
BRANCH  39  40
HETATM   40  C21 UNL     1      26.063   5.144  14.011  1.00  0.00     0.260 C 
HETATM   41  F3  UNL     1      26.537   5.454  15.263  1.00  0.00    -0.253 F 
ENDBRANCH  39  40
ENDBRANCH  31  34
ENDBRANCH  28  31
ENDBRANCH   1  28
TORSDOF 13
ENDMDL
MODEL 4
REMARK VINA RESULT: -8.414218582      3.394      6.708
REMARK  13 active torsions:
REMARK  status: ('A' for Active; 'I' for Inactive)
REMARK    1  A    between atoms: C2_2  and  O1_5 
REMARK    2  A    between atoms: O1_5  and  C5_6 
REMARK       I    between atoms: C5_6  and  N1_8 
REMARK    3  A    between atoms: N1_8  and  C6_10 
REMARK    4  A    between atoms: C6_10  and  C7_11 
REMARK    5  A    between atoms: C6_10  and  C22_38 
REMARK       I    between atoms: C7_11  and  N2_13 
REMARK    6  A    between atoms: N2_13  and  C8_15 
REMARK    7  A    between atoms: C8_15  and  C9_16 
REMARK    8  A    between atoms: C8_15  and  C15_24 
REMARK    9  A    between atoms: C9_16  and  C10_17 
REMARK   10  A    between atoms: C15_24  and  O4_25 
REMARK   11  A    between atoms: C15_24  and  C16_27 
REMARK   12  A    between atoms: C16_27  and  N4_30 
REMARK   13  A    between atoms: C20_35  and  C21_36 
ROOT
HETATM    1  C8  UNL     1      25.779   6.131  12.075  1.00  0.00     0.122 C 
ENDROOT
BRANCH   1   2
HETATM    2  N2  UNL     1      26.984   6.632  11.451  1.00  0.00    -0.349 N 
HETATM    3  C7  UNL     1      28.175   5.981  11.124  1.00  0.00     0.265 C 
HETATM    4  O3  UNL     1      28.347   4.789  11.439  1.00  0.00    -0.266 OA
ATOM      5  H2  UNL     1      26.958   7.623  11.210  1.00  0.00     0.163 HD
BRANCH   3   6
HETATM    6  C6  UNL     1      29.282   6.689  10.394  1.00  0.00     0.089 C 
BRANCH   6   7
HETATM    7  N1  UNL     1      29.948   7.628  11.217  1.00  0.00    -0.300 N 
HETATM    8  C5  UNL     1      31.099   7.459  11.990  1.00  0.00     0.365 C 
HETATM    9  O2  UNL     1      31.689   6.348  12.017  1.00  0.00    -0.238 OA
ATOM     10  H1  UNL     1      29.529   8.558  11.250  1.00  0.00     0.171 HD
BRANCH   8  11
HETATM   11  O1  UNL     1      31.623   8.481  12.744  1.00  0.00    -0.294 OA
BRANCH  11  12
HETATM   12  C2  UNL     1      32.292   9.595  12.283  1.00  0.00     0.061 C 
HETATM   13  C1  UNL     1      32.838  10.340  13.507  1.00  0.00     0.046 C 
HETATM   14  C3  UNL     1      31.424  10.577  11.529  1.00  0.00     0.046 C 
HETATM   15  C4  UNL     1      33.462   9.192  11.434  1.00  0.00     0.046 C 
ENDBRANCH  11  12
ENDBRANCH   8  11
ENDBRANCH   6   7
BRANCH   6  16
HETATM   16  C22 UNL     1      28.909   7.015   9.010  1.00  0.00    -0.003 C 
HETATM   17  C23 UNL     1      30.195   7.063   8.139  1.00  0.00     0.021 C 
HETATM   18  C24 UNL     1      28.345   8.436   8.914  1.00  0.00     0.021 C 
HETATM   19  C25 UNL     1      27.997   6.030   8.349  1.00  0.00     0.021 C 
ENDBRANCH   6  16
ENDBRANCH   3   6
ENDBRANCH   1   2
BRANCH   1  20
HETATM   20  C9  UNL     1      24.945   5.604  11.016  1.00  0.00     0.034 C 
BRANCH  20  21
HETATM   21  C10 UNL     1      24.891   4.225  10.553  1.00  0.00     0.005 C 
HETATM   22  C11 UNL     1      25.405   3.960   9.144  1.00  0.00     0.008 C 
HETATM   23  C12 UNL     1      25.171   2.507   8.806  1.00  0.00     0.020 C 
HETATM   24  C13 UNL     1      24.234   1.802   9.769  1.00  0.00     0.113 C 
HETATM   25  N3  UNL     1      23.091   2.630   9.983  1.00  0.00    -0.421 N 
HETATM   26  C14 UNL     1      23.360   3.962  10.382  1.00  0.00     0.118 C 
ATOM     27  H3  UNL     1      22.140   2.284   9.858  1.00  0.00     0.153 HD
ENDBRANCH  20  21
ENDBRANCH   1  20
BRANCH   1  28
HETATM   28  C15 UNL     1      25.260   7.061  13.073  1.00  0.00     0.246 C 
BRANCH  28  29
HETATM   29  O4  UNL     1      25.538   8.422  12.742  1.00  0.00    -0.385 OA
ATOM     30  H4  UNL     1      24.749   8.947  12.679  1.00  0.00     0.210 HD
ENDBRANCH  28  29
BRANCH  28  31
HETATM   31  C16 UNL     1      25.608   6.875  14.541  1.00  0.00     0.467 C 
HETATM   32  F1  UNL     1      26.826   6.271  14.723  1.00  0.00    -0.170 F 
HETATM   33  F2  UNL     1      25.721   8.122  15.146  1.00  0.00    -0.170 F 
BRANCH  31  34
HETATM   34  N4  UNL     1      24.588   6.163  15.207  1.00  0.00     0.174 N 
HETATM   35  C17 UNL     1      23.274   6.399  14.756  1.00  0.00     0.307 C 
HETATM   36  C18 UNL     1      22.228   5.901  15.766  1.00  0.00     0.198 C 
HETATM   37  O5  UNL     1      22.724   4.780  16.403  1.00  0.00    -0.387 OA
HETATM   38  C19 UNL     1      23.473   4.046  15.466  1.00  0.00     0.206 C 
HETATM   39  C20 UNL     1      24.843   4.777  15.382  1.00  0.00     0.282 C 
BRANCH  39  40
HETATM   40  C21 UNL     1      25.501   4.418  16.706  1.00  0.00     0.260 C 
HETATM   41  F3  UNL     1      26.803   4.064  16.445  1.00  0.00    -0.253 F 
ENDBRANCH  39  40
ENDBRANCH  31  34
ENDBRANCH  28  31
ENDBRANCH   1  28
TORSDOF 13
ENDMDL
MODEL 5
REMARK VINA RESULT: -8.325089950      2.770      6.436
REMARK  13 active torsions:
REMARK  status: ('A' for Active; 'I' for Inactive)
REMARK    1  A    between atoms: C2_2  and  O1_5 
REMARK    2  A    between atoms: O1_5  and  C5_6 
REMARK       I    between atoms: C5_6  and  N1_8 
REMARK    3  A    between atoms: N1_8  and  C6_10 
REMARK    4  A    between atoms: C6_10  and  C7_11 
REMARK    5  A    between atoms: C6_10  and  C22_38 
REMARK       I    between atoms: C7_11  and  N2_13 
REMARK    6  A    between atoms: N2_13  and  C8_15 
REMARK    7  A    between atoms: C8_15  and  C9_16 
REMARK    8  A    between atoms: C8_15  and  C15_24 
REMARK    9  A    between atoms: C9_16  and  C10_17 
REMARK   10  A    between atoms: C15_24  and  O4_25 
REMARK   11  A    between atoms: C15_24  and  C16_27 
REMARK   12  A    between atoms: C16_27  and  N4_30 
REMARK   13  A    between atoms: C20_35  and  C21_36 
ROOT
HETATM    1  C8  UNL     1      27.013   6.256  10.187  1.00  0.00     0.122 C 
ENDROOT
BRANCH   1   2
HETATM    2  N2  UNL     1      26.824   7.012  11.405  1.00  0.00    -0.349 N 
HETATM    3  C7  UNL     1      25.804   7.889  11.780  1.00  0.00     0.265 C 
HETATM    4  O3  UNL     1      24.898   8.180  10.978  1.00  0.00    -0.266 OA
ATOM      5  H2  UNL     1      27.556   6.883  12.104  1.00  0.00     0.163 HD
BRANCH   3   6
HETATM    6  C6  UNL     1      25.766   8.510  13.149  1.00  0.00     0.089 C 
BRANCH   6   7
HETATM    7  N1  UNL     1      24.924   7.798  14.035  1.00  0.00    -0.300 N 
HETATM    8  C5  UNL     1      25.270   7.024  15.146  1.00  0.00     0.365 C 
HETATM    9  O2  UNL     1      26.477   6.888  15.473  1.00  0.00    -0.238 OA
ATOM     10  H1  UNL     1      23.926   7.857  13.835  1.00  0.00     0.171 HD
BRANCH   8  11
HETATM   11  O1  UNL     1      24.322   6.387  15.909  1.00  0.00    -0.294 OA
BRANCH  11  12
HETATM   12  C2  UNL     1      23.878   5.089  15.770  1.00  0.00     0.061 C 
HETATM   13  C1  UNL     1      24.742   4.209  16.680  1.00  0.00     0.046 C 
HETATM   14  C3  UNL     1      24.012   4.530  14.371  1.00  0.00     0.046 C 
HETATM   15  C4  UNL     1      22.455   4.968  16.234  1.00  0.00     0.046 C 
ENDBRANCH  11  12
ENDBRANCH   8  11
ENDBRANCH   6   7
BRANCH   6  16
HETATM   16  C22 UNL     1      25.742   9.979  13.086  1.00  0.00    -0.003 C 
HETATM   17  C23 UNL     1      26.587  10.548  14.260  1.00  0.00     0.021 C 
HETATM   18  C24 UNL     1      24.332  10.515  13.352  1.00  0.00     0.021 C 
HETATM   19  C25 UNL     1      26.314  10.572  11.837  1.00  0.00     0.021 C 
ENDBRANCH   6  16
ENDBRANCH   3   6
ENDBRANCH   1   2
BRANCH   1  20
HETATM   20  C9  UNL     1      26.818   4.861  10.522  1.00  0.00     0.034 C 
BRANCH  20  21
HETATM   21  C10 UNL     1      25.781   3.978  10.011  1.00  0.00     0.005 C 
HETATM   22  C11 UNL     1      25.758   3.756   8.504  1.00  0.00     0.008 C 
HETATM   23  C12 UNL     1      24.559   2.906   8.156  1.00  0.00     0.020 C 
HETATM   24  C13 UNL     1      23.555   2.779   9.286  1.00  0.00     0.113 C 
HETATM   25  N3  UNL     1      23.318   4.075   9.835  1.00  0.00    -0.421 N 
HETATM   26  C14 UNL     1      24.470   4.800  10.226  1.00  0.00     0.118 C 
ATOM     27  H3  UNL     1      22.377   4.456   9.940  1.00  0.00     0.153 HD
ENDBRANCH  20  21
ENDBRANCH   1  20
BRANCH   1  28
HETATM   28  C15 UNL     1      28.183   6.713   9.443  1.00  0.00     0.246 C 
BRANCH  28  29
HETATM   29  O4  UNL     1      28.333   6.031   8.197  1.00  0.00    -0.385 OA
ATOM     30  H4  UNL     1      27.583   5.485   7.992  1.00  0.00     0.210 HD
ENDBRANCH  28  29
BRANCH  28  31
HETATM   31  C16 UNL     1      29.548   6.736  10.110  1.00  0.00     0.467 C 
HETATM   32  F1  UNL     1      29.722   5.703  10.995  1.00  0.00    -0.170 F 
HETATM   33  F2  UNL     1      30.533   6.563   9.143  1.00  0.00    -0.170 F 
BRANCH  31  34
HETATM   34  N4  UNL     1      29.773   7.980  10.737  1.00  0.00     0.174 N 
HETATM   35  C17 UNL     1      30.147   7.929  12.095  1.00  0.00     0.307 C 
HETATM   36  C18 UNL     1      29.990   9.296  12.780  1.00  0.00     0.198 C 
HETATM   37  O5  UNL     1      30.257  10.288  11.858  1.00  0.00    -0.387 OA
HETATM   38  C19 UNL     1      31.286   9.831  11.016  1.00  0.00     0.206 C 
HETATM   39  C20 UNL     1      30.587   8.882  10.002  1.00  0.00     0.282 C 
BRANCH  39  40
HETATM   40  C21 UNL     1      29.816   9.845   9.111  1.00  0.00     0.260 C 
HETATM   41  F3  UNL     1      28.495   9.801   9.489  1.00  0.00    -0.253 F 
ENDBRANCH  39  40
ENDBRANCH  31  34
ENDBRANCH  28  31
ENDBRANCH   1  28
TORSDOF 13
ENDMDL
