MODEL 1
REMARK VINA RESULT: -8.522330365      0.000      0.000
REMARK  14 active torsions:
REMARK  status: ('A' for Active; 'I' for Inactive)
REMARK    1  A    between atoms: C2_2  and  N1_5 
REMARK    2  A    between atoms: N1_5  and  C5_7 
REMARK    3  A    between atoms: C5_7  and  C6_8 
REMARK    4  A    between atoms: C6_8  and  O2_10 
REMARK    5  A    between atoms: O2_10  and  C7_11 
REMARK    6  A    between atoms: C7_11  and  N2_12 
REMARK    7  A    between atoms: C7_11  and  C15_25 
REMARK    8  A    between atoms: N2_12  and  C8_14 
REMARK    9  A    between atoms: C11_17  and  C12_18 
REMARK   10  A    between atoms: C15_25  and  C16_27 
REMARK   11  A    between atoms: C16_27  and  N3_28 
REMARK   12  A    between atoms: C16_27  and  C22_36 
REMARK       I    between atoms: N3_28  and  C17_29 
REMARK   13  A    between atoms: C17_29  and  O7_31 
REMARK   14  A    between atoms: O7_31  and  C18_32 
ROOT
HETATM    1  C7  UNL     1      26.660   6.621  11.849  1.00  0.00     0.301 C 
ENDROOT
BRANCH   1   2
HETATM    2  O2  UNL     1      26.219   7.836  12.424  1.00  0.00    -0.287 OA
BRANCH   2   3
HETATM    3  C6  UNL     1      25.441   8.777  11.848  1.00  0.00     0.278 C 
HETATM    4  O1  UNL     1      24.423   8.444  11.191  1.00  0.00    -0.263 OA
BRANCH   3   5
HETATM    5  C5  UNL     1      25.838  10.221  12.028  1.00  0.00     0.226 C 
BRANCH   5   6
HETATM    6  N1  UNL     1      24.629  10.953  12.087  1.00  0.00    -0.405 N 
ATOM      7  H1  UNL     1      23.875  10.768  11.425  1.00  0.00     0.154 HD
BRANCH   6   8
HETATM    8  C2  UNL     1      24.487  11.949  13.086  1.00  0.00     0.015 C 
HETATM    9  C1  UNL     1      23.406  12.926  12.716  1.00  0.00     0.037 C 
HETATM   10  C3  UNL     1      25.825  12.651  13.309  1.00  0.00     0.037 C 
HETATM   11  C4  UNL     1      24.118  11.235  14.379  1.00  0.00     0.037 C 
ENDBRANCH   6   8
ENDBRANCH   5   6
ENDBRANCH   3   5
ENDBRANCH   2   3
ENDBRANCH   1   2
BRANCH   1  12
HETATM   12  N2  UNL     1      26.691   6.715  10.406  1.00  0.00    -0.380 N 
ATOM     13  H2  UNL     1      25.849   6.655   9.834  1.00  0.00     0.157 HD
BRANCH  12  14
HETATM   14  C8  UNL     1      27.947   6.890   9.864  1.00  0.00     0.048 C 
HETATM   15  C9  UNL     1      29.065   6.180  10.750  1.00  0.00     0.043 C 
HETATM   16  C10 UNL     1      29.930   7.235  10.121  1.00  0.00     0.077 C 
HETATM   17  C11 UNL     1      28.742   8.127  10.291  1.00  0.00     0.124 C 
HETATM   18  C13 UNL     1      29.923   6.837   8.682  1.00  0.00     0.250 C 
HETATM   19  F1  UNL     1      30.345   7.806   7.808  1.00  0.00    -0.206 F 
HETATM   20  F2  UNL     1      30.594   5.650   8.534  1.00  0.00    -0.206 F 
HETATM   21  C14 UNL     1      28.405   6.566   8.519  1.00  0.00     0.111 C 
BRANCH  17  22
HETATM   22  C12 UNL     1      28.604   9.329   9.504  1.00  0.00     0.180 C 
HETATM   23  O3  UNL     1      27.525   9.636   8.952  1.00  0.00    -0.648 OA
HETATM   24  O4  UNL     1      29.681  10.201   9.325  1.00  0.00    -0.648 OA
ENDBRANCH  17  22
ENDBRANCH  12  14
ENDBRANCH   1  12
BRANCH   1  25
HETATM   25  C15 UNL     1      26.074   5.422  12.432  1.00  0.00     0.211 C 
HETATM   26  O5  UNL     1      26.880   4.467  12.637  1.00  0.00    -0.290 OA
BRANCH  25  27
HETATM   27  C16 UNL     1      24.658   5.186  12.799  1.00  0.00     0.247 C 
BRANCH  27  28
HETATM   28  N3  UNL     1      23.935   4.326  11.993  1.00  0.00    -0.377 NA
HETATM   29  C17 UNL     1      23.215   3.470  11.200  1.00  0.00     0.436 C 
HETATM   30  O6  UNL     1      22.401   2.618  11.445  1.00  0.00    -0.221 OA
BRANCH  29  31
HETATM   31  O7  UNL     1      23.456   3.602   9.764  1.00  0.00    -0.283 OA
BRANCH  31  32
HETATM   32  C18 UNL     1      24.444   2.911   9.093  1.00  0.00     0.062 C 
HETATM   33  C19 UNL     1      24.763   1.567   9.655  1.00  0.00     0.046 C 
HETATM   34  C20 UNL     1      24.103   2.735   7.614  1.00  0.00     0.046 C 
HETATM   35  C21 UNL     1      25.736   3.749   9.094  1.00  0.00     0.046 C 
ENDBRANCH  31  32
ENDBRANCH  29  31
ENDBRANCH  27  28
BRANCH  27  36
HETATM   36  C22 UNL     1      24.567   4.828  14.288  1.00  0.00     0.029 A 
HETATM   37  C23 UNL     1      23.776   5.697  15.214  1.00  0.00     0.009 A 
HETATM   38  C24 UNL     1      23.389   4.220  14.890  1.00  0.00     0.009 A 
ENDBRANCH  27  36
ENDBRANCH  25  27
ENDBRANCH   1  25
TORSDOF 14
ENDMDL
MODEL 2
REMARK VINA RESULT: -8.506027582      0.927      1.365
REMARK  14 active torsions:
REMARK  status: ('A' for Active; 'I' for Inactive)
REMARK    1  A    between atoms: C2_2  and  N1_5 
REMARK    2  A    between atoms: N1_5  and  C5_7 
REMARK    3  A    between atoms: C5_7  and  C6_8 
REMARK    4  A    between atoms: C6_8  and  O2_10 
REMARK    5  A    between atoms: O2_10  and  C7_11 
REMARK    6  A    between atoms: C7_11  and  N2_12 
REMARK    7  A    between atoms: C7_11  and  C15_25 
REMARK    8  A    between atoms: N2_12  and  C8_14 
REMARK    9  A    between atoms: C11_17  and  C12_18 
REMARK   10  A    between atoms: C15_25  and  C16_27 
REMARK   11  A    between atoms: C16_27  and  N3_28 
REMARK   12  A    between atoms: C16_27  and  C22_36 
REMARK       I    between atoms: N3_28  and  C17_29 
REMARK   13  A    between atoms: C17_29  and  O7_31 
REMARK   14  A    between atoms: O7_31  and  C18_32 
ROOT
HETATM    1  C7  UNL     1      25.914   6.861  11.786  1.00  0.00     0.301 C 
ENDROOT
BRANCH   1   2
HETATM    2  O2  UNL     1      24.972   7.906  11.648  1.00  0.00    -0.287 OA
BRANCH   2   3
HETATM    3  C6  UNL     1      24.632   8.827  12.576  1.00  0.00     0.278 C 
HETATM    4  O1  UNL     1      23.631   8.645  13.313  1.00  0.00    -0.263 OA
BRANCH   3   5
HETATM    5  C5  UNL     1      25.495  10.059  12.691  1.00  0.00     0.226 C 
BRANCH   5   6
HETATM    6  N1  UNL     1      25.043  10.946  11.686  1.00  0.00    -0.405 N 
ATOM      7  H1  UNL     1      24.553  10.595  10.863  1.00  0.00     0.154 HD
BRANCH   6   8
HETATM    8  C2  UNL     1      25.287  12.333  11.847  1.00  0.00     0.015 C 
HETATM    9  C1  UNL     1      26.008  12.602  13.138  1.00  0.00     0.037 C 
HETATM   10  C3  UNL     1      23.970  13.102  11.769  1.00  0.00     0.037 C 
HETATM   11  C4  UNL     1      26.149  12.775  10.672  1.00  0.00     0.037 C 
ENDBRANCH   6   8
ENDBRANCH   5   6
ENDBRANCH   3   5
ENDBRANCH   2   3
ENDBRANCH   1   2
BRANCH   1  12
HETATM   12  N2  UNL     1      26.303   6.342  10.493  1.00  0.00    -0.380 N 
ATOM     13  H2  UNL     1      25.684   5.763   9.925  1.00  0.00     0.157 HD
BRANCH  12  14
HETATM   14  C8  UNL     1      27.573   6.691  10.086  1.00  0.00     0.048 C 
HETATM   15  C9  UNL     1      28.682   5.839  10.852  1.00  0.00     0.043 C 
HETATM   16  C10 UNL     1      29.519   7.046  10.540  1.00  0.00     0.077 C 
HETATM   17  C11 UNL     1      28.277   7.825  10.838  1.00  0.00     0.124 C 
HETATM   18  C13 UNL     1      29.608   6.998   9.051  1.00  0.00     0.250 C 
HETATM   19  F1  UNL     1      30.022   8.161   8.454  1.00  0.00    -0.206 F 
HETATM   20  F2  UNL     1      30.350   5.907   8.675  1.00  0.00    -0.206 F 
HETATM   21  C14 UNL     1      28.118   6.712   8.734  1.00  0.00     0.111 C 
BRANCH  17  22
HETATM   22  C12 UNL     1      28.115   9.171  10.344  1.00  0.00     0.180 C 
HETATM   23  O3  UNL     1      28.969  10.059  10.556  1.00  0.00    -0.648 OA
HETATM   24  O4  UNL     1      26.987   9.536   9.606  1.00  0.00    -0.648 OA
ENDBRANCH  17  22
ENDBRANCH  12  14
ENDBRANCH   1  12
BRANCH   1  25
HETATM   25  C15 UNL     1      25.606   5.896  12.832  1.00  0.00     0.211 C 
HETATM   26  O5  UNL     1      26.560   5.626  13.621  1.00  0.00    -0.290 OA
BRANCH  25  27
HETATM   27  C16 UNL     1      24.326   5.190  13.072  1.00  0.00     0.247 C 
BRANCH  27  28
HETATM   28  N3  UNL     1      23.880   4.342  12.075  1.00  0.00    -0.377 NA
HETATM   29  C17 UNL     1      23.433   3.497  11.092  1.00  0.00     0.436 C 
HETATM   30  O6  UNL     1      22.698   2.544  11.104  1.00  0.00    -0.221 OA
BRANCH  29  31
HETATM   31  O7  UNL     1      23.924   3.793   9.747  1.00  0.00    -0.283 OA
BRANCH  31  32
HETATM   32  C18 UNL     1      24.699   2.920   9.011  1.00  0.00     0.062 C 
HETATM   33  C19 UNL     1      24.915   1.587   9.643  1.00  0.00     0.046 C 
HETATM   34  C20 UNL     1      24.119   2.692   7.616  1.00  0.00     0.046 C 
HETATM   35  C21 UNL     1      26.077   3.559   8.757  1.00  0.00     0.046 C 
ENDBRANCH  31  32
ENDBRANCH  29  31
ENDBRANCH  27  28
BRANCH  27  36
HETATM   36  C22 UNL     1      24.360   4.523  14.453  1.00  0.00     0.029 A 
HETATM   37  C23 UNL     1      23.930   5.295  15.660  1.00  0.00     0.009 A 
HETATM   38  C24 UNL     1      23.166   4.040  15.132  1.00  0.00     0.009 A 
ENDBRANCH  27  36
ENDBRANCH  25  27
ENDBRANCH   1  25
TORSDOF 14
ENDMDL
MODEL 3
REMARK VINA RESULT: -8.502888354      0.849      1.157
REMARK  14 active torsions:
REMARK  status: ('A' for Active; 'I' for Inactive)
REMARK    1  A    between atoms: C2_2  and  N1_5 
REMARK    2  A    between atoms: N1_5  and  C5_7 
REMARK    3  A    between atoms: C5_7  and  C6_8 
REMARK    4  A    between atoms: C6_8  and  O2_10 
REMARK    5  A    between atoms: O2_10  and  C7_11 
REMARK    6  A    between atoms: C7_11  and  N2_12 
REMARK    7  A    between atoms: C7_11  and  C15_25 
REMARK    8  A    between atoms: N2_12  and  C8_14 
REMARK    9  A    between atoms: C11_17  and  C12_18 
REMARK   10  A    between atoms: C15_25  and  C16_27 
REMARK   11  A    between atoms: C16_27  and  N3_28 
REMARK   12  A    between atoms: C16_27  and  C22_36 
REMARK       I    between atoms: N3_28  and  C17_29 
REMARK   13  A    between atoms: C17_29  and  O7_31 
REMARK   14  A    between atoms: O7_31  and  C18_32 
ROOT
HETATM    1  C7  UNL     1      26.667   6.614  11.878  1.00  0.00     0.301 C 
ENDROOT
BRANCH   1   2
HETATM    2  O2  UNL     1      26.273   7.842  12.458  1.00  0.00    -0.287 OA
BRANCH   2   3
HETATM    3  C6  UNL     1      25.371   8.723  11.972  1.00  0.00     0.278 C 
HETATM    4  O1  UNL     1      24.519   8.355  11.125  1.00  0.00    -0.263 OA
BRANCH   3   5
HETATM    5  C5  UNL     1      25.427  10.140  12.485  1.00  0.00     0.226 C 
BRANCH   5   6
HETATM    6  N1  UNL     1      24.484  10.210  13.537  1.00  0.00    -0.405 N 
ATOM      7  H1  UNL     1      23.484  10.152  13.345  1.00  0.00     0.154 HD
BRANCH   6   8
HETATM    8  C2  UNL     1      24.959  10.364  14.864  1.00  0.00     0.015 C 
HETATM    9  C1  UNL     1      26.402  10.784  14.870  1.00  0.00     0.037 C 
HETATM   10  C3  UNL     1      24.749   9.065  15.641  1.00  0.00     0.037 C 
HETATM   11  C4  UNL     1      24.105  11.439  15.523  1.00  0.00     0.037 C 
ENDBRANCH   6   8
ENDBRANCH   5   6
ENDBRANCH   3   5
ENDBRANCH   2   3
ENDBRANCH   1   2
BRANCH   1  12
HETATM   12  N2  UNL     1      26.677   6.704  10.434  1.00  0.00    -0.380 N 
ATOM     13  H2  UNL     1      25.826   6.642   9.875  1.00  0.00     0.157 HD
BRANCH  12  14
HETATM   14  C8  UNL     1      27.924   6.880   9.873  1.00  0.00     0.048 C 
HETATM   15  C9  UNL     1      29.051   6.135  10.718  1.00  0.00     0.043 C 
HETATM   16  C10 UNL     1      29.915   7.196  10.100  1.00  0.00     0.077 C 
HETATM   17  C11 UNL     1      28.742   8.097  10.317  1.00  0.00     0.124 C 
HETATM   18  C13 UNL     1      29.876   6.836   8.652  1.00  0.00     0.250 C 
HETATM   19  F1  UNL     1      30.293   7.824   7.796  1.00  0.00    -0.206 F 
HETATM   20  F2  UNL     1      30.531   5.647   8.460  1.00  0.00    -0.206 F 
HETATM   21  C14 UNL     1      28.353   6.587   8.511  1.00  0.00     0.111 C 
BRANCH  17  22
HETATM   22  C12 UNL     1      28.602   9.320   9.564  1.00  0.00     0.180 C 
HETATM   23  O3  UNL     1      27.523   9.643   9.024  1.00  0.00    -0.648 OA
HETATM   24  O4  UNL     1      29.679  10.196   9.409  1.00  0.00    -0.648 OA
ENDBRANCH  17  22
ENDBRANCH  12  14
ENDBRANCH   1  12
BRANCH   1  25
HETATM   25  C15 UNL     1      26.055   5.435  12.473  1.00  0.00     0.211 C 
HETATM   26  O5  UNL     1      26.849   4.481  12.730  1.00  0.00    -0.290 OA
BRANCH  25  27
HETATM   27  C16 UNL     1      24.627   5.216  12.800  1.00  0.00     0.247 C 
BRANCH  27  28
HETATM   28  N3  UNL     1      23.923   4.347  11.987  1.00  0.00    -0.377 NA
HETATM   29  C17 UNL     1      23.221   3.482  11.186  1.00  0.00     0.436 C 
HETATM   30  O6  UNL     1      22.412   2.623  11.423  1.00  0.00    -0.221 OA
BRANCH  29  31
HETATM   31  O7  UNL     1      23.478   3.614   9.753  1.00  0.00    -0.283 OA
BRANCH  31  32
HETATM   32  C18 UNL     1      24.464   2.911   9.091  1.00  0.00     0.062 C 
HETATM   33  C19 UNL     1      24.759   1.562   9.654  1.00  0.00     0.046 C 
HETATM   34  C20 UNL     1      24.135   2.741   7.609  1.00  0.00     0.046 C 
HETATM   35  C21 UNL     1      25.766   3.731   9.105  1.00  0.00     0.046 C 
ENDBRANCH  31  32
ENDBRANCH  29  31
ENDBRANCH  27  28
BRANCH  27  36
HETATM   36  C22 UNL     1      24.487   4.884  14.291  1.00  0.00     0.029 A 
HETATM   37  C23 UNL     1      23.531   5.663  15.138  1.00  0.00     0.009 A 
HETATM   38  C24 UNL     1      23.361   4.141  14.839  1.00  0.00     0.009 A 
ENDBRANCH  27  36
ENDBRANCH  25  27
ENDBRANCH   1  25
TORSDOF 14
ENDMDL
MODEL 4
REMARK VINA RESULT: -8.356891607      1.235      1.612
REMARK  14 active torsions:
REMARK  status: ('A' for Active; 'I' for Inactive)
REMARK    1  A    between atoms: C2_2  and  N1_5 
REMARK    2  A    between atoms: N1_5  and  C5_7 
REMARK    3  A    between atoms: C5_7  and  C6_8 
REMARK    4  A    between atoms: C6_8  and  O2_10 
REMARK    5  A    between atoms: O2_10  and  C7_11 
REMARK    6  A    between atoms: C7_11  and  N2_12 
REMARK    7  A    between atoms: C7_11  and  C15_25 
REMARK    8  A    between atoms: N2_12  and  C8_14 
REMARK    9  A    between atoms: C11_17  and  C12_18 
REMARK   10  A    between atoms: C15_25  and  C16_27 
REMARK   11  A    between atoms: C16_27  and  N3_28 
REMARK   12  A    between atoms: C16_27  and  C22_36 
REMARK       I    between atoms: N3_28  and  C17_29 
REMARK   13  A    between atoms: C17_29  and  O7_31 
REMARK   14  A    between atoms: O7_31  and  C18_32 
ROOT
HETATM    1  C7  UNL     1      26.583   6.840  12.018  1.00  0.00     0.301 C 
ENDROOT
BRANCH   1   2
HETATM    2  O2  UNL     1      26.004   7.946  12.683  1.00  0.00    -0.287 OA
BRANCH   2   3
HETATM    3  C6  UNL     1      25.161   8.863  12.161  1.00  0.00     0.278 C 
HETATM    4  O1  UNL     1      24.338   8.533  11.271  1.00  0.00    -0.263 OA
BRANCH   3   5
HETATM    5  C5  UNL     1      25.244  10.274  12.688  1.00  0.00     0.226 C 
BRANCH   5   6
HETATM    6  N1  UNL     1      24.357  10.332  13.788  1.00  0.00    -0.405 N 
ATOM      7  H1  UNL     1      23.350  10.254  13.649  1.00  0.00     0.154 HD
BRANCH   6   8
HETATM    8  C2  UNL     1      24.898  10.502  15.087  1.00  0.00     0.015 C 
HETATM    9  C1  UNL     1      26.319  10.989  15.015  1.00  0.00     0.037 C 
HETATM   10  C3  UNL     1      24.794   9.192  15.866  1.00  0.00     0.037 C 
HETATM   11  C4  UNL     1      24.035  11.533  15.800  1.00  0.00     0.037 C 
ENDBRANCH   6   8
ENDBRANCH   5   6
ENDBRANCH   3   5
ENDBRANCH   2   3
ENDBRANCH   1   2
BRANCH   1  12
HETATM   12  N2  UNL     1      26.761   7.120  10.610  1.00  0.00    -0.380 N 
ATOM     13  H2  UNL     1      25.979   7.165   9.956  1.00  0.00     0.157 HD
BRANCH  12  14
HETATM   14  C8  UNL     1      28.067   7.322  10.220  1.00  0.00     0.048 C 
HETATM   15  C9  UNL     1      28.801   5.940   9.915  1.00  0.00     0.043 C 
HETATM   16  C10 UNL     1      30.014   6.752  10.268  1.00  0.00     0.077 C 
HETATM   17  C11 UNL     1      29.140   7.368  11.313  1.00  0.00     0.124 C 
HETATM   18  C13 UNL     1      30.066   7.748   9.157  1.00  0.00     0.250 C 
HETATM   19  F1  UNL     1      30.866   8.838   9.390  1.00  0.00    -0.206 F 
HETATM   20  F2  UNL     1      30.361   7.106   7.982  1.00  0.00    -0.206 F 
HETATM   21  C14 UNL     1      28.570   8.154   9.134  1.00  0.00     0.111 C 
BRANCH  17  22
HETATM   22  C12 UNL     1      29.469   8.649  11.888  1.00  0.00     0.180 C 
HETATM   23  O3  UNL     1      28.667   9.607  11.868  1.00  0.00    -0.648 OA
HETATM   24  O4  UNL     1      30.709   8.870  12.492  1.00  0.00    -0.648 OA
ENDBRANCH  17  22
ENDBRANCH  12  14
ENDBRANCH   1  12
BRANCH   1  25
HETATM   25  C15 UNL     1      26.019   5.548  12.380  1.00  0.00     0.211 C 
HETATM   26  O5  UNL     1      26.828   4.572  12.344  1.00  0.00    -0.290 OA
BRANCH  25  27
HETATM   27  C16 UNL     1      24.624   5.239  12.771  1.00  0.00     0.247 C 
BRANCH  27  28
HETATM   28  N3  UNL     1      23.923   4.366  11.959  1.00  0.00    -0.377 NA
HETATM   29  C17 UNL     1      23.224   3.498  11.160  1.00  0.00     0.436 C 
HETATM   30  O6  UNL     1      22.430   2.625  11.400  1.00  0.00    -0.221 OA
BRANCH  29  31
HETATM   31  O7  UNL     1      23.465   3.642   9.725  1.00  0.00    -0.283 OA
BRANCH  31  32
HETATM   32  C18 UNL     1      24.486   2.997   9.058  1.00  0.00     0.062 C 
HETATM   33  C19 UNL     1      24.891   1.687   9.644  1.00  0.00     0.046 C 
HETATM   34  C20 UNL     1      24.140   2.768   7.587  1.00  0.00     0.046 C 
HETATM   35  C21 UNL     1      25.725   3.911   9.025  1.00  0.00     0.046 C 
ENDBRANCH  31  32
ENDBRANCH  29  31
ENDBRANCH  27  28
BRANCH  27  36
HETATM   36  C22 UNL     1      24.582   4.842  14.251  1.00  0.00     0.029 A 
HETATM   37  C23 UNL     1      23.803   5.673  15.222  1.00  0.00     0.009 A 
HETATM   38  C24 UNL     1      23.432   4.198  14.871  1.00  0.00     0.009 A 
ENDBRANCH  27  36
ENDBRANCH  25  27
ENDBRANCH   1  25
TORSDOF 14
ENDMDL
MODEL 5
REMARK VINA RESULT: -8.315328410      1.288      1.921
REMARK  14 active torsions:
REMARK  status: ('A' for Active; 'I' for Inactive)
REMARK    1  A    between atoms: C2_2  and  N1_5 
REMARK    2  A    between atoms: N1_5  and  C5_7 
REMARK    3  A    between atoms: C5_7  and  C6_8 
REMARK    4  A    between atoms: C6_8  and  O2_10 
REMARK    5  A    between atoms: O2_10  and  C7_11 
REMARK    6  A    between atoms: C7_11  and  N2_12 
REMARK    7  A    between atoms: C7_11  and  C15_25 
REMARK    8  A    between atoms: N2_12  and  C8_14 
REMARK    9  A    between atoms: C11_17  and  C12_18 
REMARK   10  A    between atoms: C15_25  and  C16_27 
REMARK   11  A    between atoms: C16_27  and  N3_28 
REMARK   12  A    between atoms: C16_27  and  C22_36 
REMARK       I    between atoms: N3_28  and  C17_29 
REMARK   13  A    between atoms: C17_29  and  O7_31 
REMARK   14  A    between atoms: O7_31  and  C18_32 
ROOT
HETATM    1  C7  UNL     1      27.239   6.495  12.535  1.00  0.00     0.301 C 
ENDROOT
BRANCH   1   2
HETATM    2  O2  UNL     1      27.226   7.114  13.806  1.00  0.00    -0.287 OA
BRANCH   2   3
HETATM    3  C6  UNL     1      27.858   8.252  14.167  1.00  0.00     0.278 C 
HETATM    4  O1  UNL     1      29.080   8.405  13.918  1.00  0.00    -0.263 OA
BRANCH   3   5
HETATM    5  C5  UNL     1      27.046   9.315  14.864  1.00  0.00     0.226 C 
BRANCH   5   6
HETATM    6  N1  UNL     1      26.185   9.854  13.881  1.00  0.00    -0.405 N 
ATOM      7  H1  UNL     1      26.559  10.234  13.012  1.00  0.00     0.154 HD
BRANCH   6   8
HETATM    8  C2  UNL     1      24.789   9.856  14.130  1.00  0.00     0.015 C 
HETATM    9  C1  UNL     1      24.201  11.214  13.867  1.00  0.00     0.037 C 
HETATM   10  C3  UNL     1      24.519   9.396  15.562  1.00  0.00     0.037 C 
HETATM   11  C4  UNL     1      24.166   8.833  13.191  1.00  0.00     0.037 C 
ENDBRANCH   6   8
ENDBRANCH   5   6
ENDBRANCH   3   5
ENDBRANCH   2   3
ENDBRANCH   1   2
BRANCH   1  12
HETATM   12  N2  UNL     1      27.140   7.479  11.480  1.00  0.00    -0.380 N 
ATOM     13  H2  UNL     1      26.394   8.174  11.445  1.00  0.00     0.157 HD
BRANCH  12  14
HETATM   14  C8  UNL     1      28.132   7.407  10.525  1.00  0.00     0.048 C 
HETATM   15  C9  UNL     1      29.423   6.660  11.085  1.00  0.00     0.043 C 
HETATM   16  C10 UNL     1      30.099   7.497  10.036  1.00  0.00     0.077 C 
HETATM   17  C11 UNL     1      29.135   8.563  10.448  1.00  0.00     0.124 C 
HETATM   18  C13 UNL     1      29.546   6.930   8.771  1.00  0.00     0.250 C 
HETATM   19  F1  UNL     1      29.716   7.716   7.659  1.00  0.00    -0.206 F 
HETATM   20  F2  UNL     1      30.012   5.651   8.602  1.00  0.00    -0.206 F 
HETATM   21  C14 UNL     1      28.052   6.860   9.176  1.00  0.00     0.111 C 
BRANCH  17  22
HETATM   22  C12 UNL     1      28.835   9.666   9.568  1.00  0.00     0.180 C 
HETATM   23  O3  UNL     1      29.728  10.424   9.132  1.00  0.00    -0.648 OA
HETATM   24  O4  UNL     1      27.523   9.931   9.168  1.00  0.00    -0.648 OA
ENDBRANCH  17  22
ENDBRANCH  12  14
ENDBRANCH   1  12
BRANCH   1  25
HETATM   25  C15 UNL     1      26.404   5.307  12.426  1.00  0.00     0.211 C 
HETATM   26  O5  UNL     1      26.984   4.274  11.977  1.00  0.00    -0.290 OA
BRANCH  25  27
HETATM   27  C16 UNL     1      24.968   5.169  12.763  1.00  0.00     0.247 C 
BRANCH  27  28
HETATM   28  N3  UNL     1      24.200   4.381  11.927  1.00  0.00    -0.377 NA
HETATM   29  C17 UNL     1      23.433   3.597  11.103  1.00  0.00     0.436 C 
HETATM   30  O6  UNL     1      22.574   2.781  11.317  1.00  0.00    -0.221 OA
BRANCH  29  31
HETATM   31  O7  UNL     1      23.679   3.772   9.672  1.00  0.00    -0.283 OA
BRANCH  31  32
HETATM   32  C18 UNL     1      24.651   3.081   8.979  1.00  0.00     0.062 C 
HETATM   33  C19 UNL     1      25.943   3.807   8.815  1.00  0.00     0.046 C 
HETATM   34  C20 UNL     1      24.949   1.729   9.626  1.00  0.00     0.046 C 
HETATM   35  C21 UNL     1      24.118   2.729   7.578  1.00  0.00     0.046 C 
ENDBRANCH  31  32
ENDBRANCH  29  31
ENDBRANCH  27  28
BRANCH  27  36
HETATM   36  C22 UNL     1      24.824   4.788  14.242  1.00  0.00     0.029 A 
HETATM   37  C23 UNL     1      24.172   5.740  15.194  1.00  0.00     0.009 A 
HETATM   38  C24 UNL     1      23.567   4.348  14.832  1.00  0.00     0.009 A 
ENDBRANCH  27  36
ENDBRANCH  25  27
ENDBRANCH   1  25
TORSDOF 14
ENDMDL
