MODEL 1
REMARK VINA RESULT: -7.389246875      0.000      0.000
REMARK  9 active torsions:
REMARK  status: ('A' for Active; 'I' for Inactive)
REMARK    1  A    between atoms: C2_2  and  C4_4 
REMARK    2  A    between atoms: C4_4  and  S1_5 
REMARK    3  A    between atoms: C4_4  and  C7_14 
REMARK    4  A    between atoms: S1_5  and  C5_6 
REMARK       I    between atoms: C7_14  and  N4_16 
REMARK    5  A    between atoms: C11_20  and  C12_21 
REMARK       I    between atoms: C12_21  and  N5_23 
REMARK    6  A    between atoms: N5_23  and  C13_25 
REMARK    7  A    between atoms: C13_25  and  C14_26 
REMARK    8  A    between atoms: C13_25  and  C16_30 
REMARK    9  A    between atoms: C14_26  and  O3_28 
ROOT
HETATM    1  C7  UNL     1      24.040   1.098   2.906  1.00  0.00     0.235 C 
HETATM    2  O1  UNL     1      24.850   0.424   2.185  1.00  0.00    -0.272 OA
HETATM    3  N4  UNL     1      22.962   0.601   3.629  1.00  0.00    -0.338 N 
HETATM    4  C8  UNL     1      22.093   1.527   4.412  1.00  0.00     0.127 C 
HETATM    5  C9  UNL     1      22.216   0.827   5.755  1.00  0.00     0.022 C 
HETATM    6  C10 UNL     1      22.331  -0.644   5.433  1.00  0.00     0.037 C 
HETATM    7  C11 UNL     1      22.335  -0.619   3.890  1.00  0.00     0.179 C 
ENDROOT
BRANCH   1   8
HETATM    8  C4  UNL     1      24.376   2.564   2.906  1.00  0.00     0.151 C 
BRANCH   8   9
HETATM    9  C2  UNL     1      23.447   3.360   2.030  1.00  0.00     0.001 C 
HETATM   10  C1  UNL     1      24.038   3.622   0.662  1.00  0.00     0.011 C 
HETATM   11  C3  UNL     1      23.051   4.647   2.722  1.00  0.00     0.011 C 
ENDBRANCH   8   9
BRANCH   8  12
HETATM   12  S1  UNL     1      26.053   2.821   2.224  1.00  0.00    -0.078 SA
BRANCH  12  13
HETATM   13  C5  UNL     1      26.916   4.082   3.126  1.00  0.00     0.160 A 
HETATM   14  N1  UNL     1      26.578   5.375   3.236  1.00  0.00    -0.331 N 
HETATM   15  C6  UNL     1      27.489   6.015   4.004  1.00  0.00     0.199 A 
ATOM     16  H1  UNL     1      25.760   5.808   2.807  1.00  0.00     0.168 HD
HETATM   17  N2  UNL     1      28.396   5.100   4.368  1.00  0.00    -0.294 N 
HETATM   18  N3  UNL     1      28.045   3.928   3.833  1.00  0.00    -0.279 N 
ATOM     19  H2  UNL     1      29.215   5.270   4.952  1.00  0.00     0.187 HD
ATOM     20  H3  UNL     1      28.556   3.052   3.945  1.00  0.00     0.189 HD
ENDBRANCH  12  13
ENDBRANCH   8  12
ENDBRANCH   1   8
BRANCH   7  21
HETATM   21  C12 UNL     1      22.823  -1.873   3.355  1.00  0.00     0.241 C 
HETATM   22  O2  UNL     1      23.998  -2.256   3.521  1.00  0.00    -0.271 OA
HETATM   23  N5  UNL     1      22.006  -2.763   2.597  1.00  0.00    -0.344 N 
ATOM     24  H5  UNL     1      21.036  -2.494   2.432  1.00  0.00     0.163 HD
BRANCH  23  25
HETATM   25  C13 UNL     1      22.463  -4.021   2.048  1.00  0.00     0.220 C 
BRANCH  25  26
HETATM   26  C14 UNL     1      22.897  -3.829   0.599  1.00  0.00     0.145 C 
HETATM   27  C15 UNL     1      21.925  -2.984  -0.171  1.00  0.00     0.042 C 
BRANCH  26  28
HETATM   28  O3  UNL     1      24.192  -3.386   0.489  1.00  0.00    -0.394 OA
ATOM     29  H3  UNL     1      24.695  -3.882  -0.145  1.00  0.00     0.210 HD
ENDBRANCH  26  28
ENDBRANCH  25  26
BRANCH  25  30
HETATM   30  C16 UNL     1      21.414  -5.086   2.155  1.00  0.00     0.409 C 
HETATM   31  F1  UNL     1      21.573  -5.783   3.325  1.00  0.00    -0.169 F 
HETATM   32  F2  UNL     1      20.179  -4.438   2.249  1.00  0.00    -0.169 F 
HETATM   33  F3  UNL     1      21.449  -5.990   1.126  1.00  0.00    -0.169 F 
ENDBRANCH  25  30
ENDBRANCH  23  25
ENDBRANCH   7  21
TORSDOF 9
ENDMDL
MODEL 2
REMARK VINA RESULT: -7.245156240      1.342      1.584
REMARK  9 active torsions:
REMARK  status: ('A' for Active; 'I' for Inactive)
REMARK    1  A    between atoms: C2_2  and  C4_4 
REMARK    2  A    between atoms: C4_4  and  S1_5 
REMARK    3  A    between atoms: C4_4  and  C7_14 
REMARK    4  A    between atoms: S1_5  and  C5_6 
REMARK       I    between atoms: C7_14  and  N4_16 
REMARK    5  A    between atoms: C11_20  and  C12_21 
REMARK       I    between atoms: C12_21  and  N5_23 
REMARK    6  A    between atoms: N5_23  and  C13_25 
REMARK    7  A    between atoms: C13_25  and  C14_26 
REMARK    8  A    between atoms: C13_25  and  C16_30 
REMARK    9  A    between atoms: C14_26  and  O3_28 
ROOT
HETATM    1  C7  UNL     1      22.678   0.969   3.248  1.00  0.00     0.235 C 
HETATM    2  O1  UNL     1      23.262   0.645   2.161  1.00  0.00    -0.272 OA
HETATM    3  N4  UNL     1      22.225   0.104   4.237  1.00  0.00    -0.338 N 
HETATM    4  C8  UNL     1      21.540   0.642   5.448  1.00  0.00     0.127 C 
HETATM    5  C9  UNL     1      22.436  -0.009   6.488  1.00  0.00     0.022 C 
HETATM    6  C10 UNL     1      22.845  -1.335   5.894  1.00  0.00     0.037 C 
HETATM    7  C11 UNL     1      22.178  -1.265   4.505  1.00  0.00     0.179 C 
ENDROOT
BRANCH   1   8
HETATM    8  C4  UNL     1      22.514   2.460   3.374  1.00  0.00     0.151 C 
BRANCH   8   9
HETATM    9  C2  UNL     1      21.087   2.893   3.178  1.00  0.00     0.001 C 
HETATM   10  C1  UNL     1      20.499   2.355   1.891  1.00  0.00     0.011 C 
HETATM   11  C3  UNL     1      20.985   4.402   3.248  1.00  0.00     0.011 C 
ENDBRANCH   8   9
BRANCH   8  12
HETATM   12  S1  UNL     1      23.479   3.307   2.072  1.00  0.00    -0.078 SA
BRANCH  12  13
HETATM   13  C5  UNL     1      25.123   3.666   2.636  1.00  0.00     0.160 A 
HETATM   14  N1  UNL     1      25.634   4.870   2.927  1.00  0.00    -0.331 N 
HETATM   15  C6  UNL     1      26.921   4.731   3.320  1.00  0.00     0.199 A 
ATOM     16  H1  UNL     1      25.131   5.755   2.863  1.00  0.00     0.168 HD
HETATM   17  N2  UNL     1      27.200   3.423   3.267  1.00  0.00    -0.294 N 
HETATM   18  N3  UNL     1      26.105   2.780   2.852  1.00  0.00    -0.279 N 
ATOM     19  H2  UNL     1      28.093   2.992   3.504  1.00  0.00     0.187 HD
ATOM     20  H3  UNL     1      26.030   1.771   2.720  1.00  0.00     0.189 HD
ENDBRANCH  12  13
ENDBRANCH   8  12
ENDBRANCH   1   8
BRANCH   7  21
HETATM   21  C12 UNL     1      22.747  -2.252   3.608  1.00  0.00     0.241 C 
HETATM   22  O2  UNL     1      23.976  -2.352   3.424  1.00  0.00    -0.271 OA
HETATM   23  N5  UNL     1      21.953  -3.176   2.870  1.00  0.00    -0.344 N 
ATOM     24  H5  UNL     1      20.940  -3.133   2.985  1.00  0.00     0.163 HD
BRANCH  23  25
HETATM   25  C13 UNL     1      22.489  -4.172   1.967  1.00  0.00     0.220 C 
BRANCH  25  26
HETATM   26  C14 UNL     1      22.700  -3.561   0.586  1.00  0.00     0.145 C 
HETATM   27  C15 UNL     1      21.597  -2.613   0.216  1.00  0.00     0.042 C 
BRANCH  26  28
HETATM   28  O3  UNL     1      23.949  -3.011   0.437  1.00  0.00    -0.394 OA
ATOM     29  H3  UNL     1      24.232  -2.988  -0.469  1.00  0.00     0.210 HD
ENDBRANCH  26  28
ENDBRANCH  25  26
BRANCH  25  30
HETATM   30  C16 UNL     1      21.606  -5.381   1.887  1.00  0.00     0.409 C 
HETATM   31  F1  UNL     1      21.973  -6.291   2.845  1.00  0.00    -0.169 F 
HETATM   32  F2  UNL     1      20.312  -4.967   2.215  1.00  0.00    -0.169 F 
HETATM   33  F3  UNL     1      21.658  -6.013   0.673  1.00  0.00    -0.169 F 
ENDBRANCH  25  30
ENDBRANCH  23  25
ENDBRANCH   7  21
TORSDOF 9
ENDMDL
MODEL 3
REMARK VINA RESULT: -7.204183578      1.465      1.781
REMARK  9 active torsions:
REMARK  status: ('A' for Active; 'I' for Inactive)
REMARK    1  A    between atoms: C2_2  and  C4_4 
REMARK    2  A    between atoms: C4_4  and  S1_5 
REMARK    3  A    between atoms: C4_4  and  C7_14 
REMARK    4  A    between atoms: S1_5  and  C5_6 
REMARK       I    between atoms: C7_14  and  N4_16 
REMARK    5  A    between atoms: C11_20  and  C12_21 
REMARK       I    between atoms: C12_21  and  N5_23 
REMARK    6  A    between atoms: N5_23  and  C13_25 
REMARK    7  A    between atoms: C13_25  and  C14_26 
REMARK    8  A    between atoms: C13_25  and  C16_30 
REMARK    9  A    between atoms: C14_26  and  O3_28 
ROOT
HETATM    1  C7  UNL     1      22.689   0.996   3.041  1.00  0.00     0.235 C 
HETATM    2  O1  UNL     1      23.297   0.620   1.984  1.00  0.00    -0.272 OA
HETATM    3  N4  UNL     1      22.210   0.179   4.058  1.00  0.00    -0.338 N 
HETATM    4  C8  UNL     1      21.500   0.776   5.227  1.00  0.00     0.127 C 
HETATM    5  C9  UNL     1      22.369   0.170   6.317  1.00  0.00     0.022 C 
HETATM    6  C10 UNL     1      22.786  -1.184   5.794  1.00  0.00     0.037 C 
HETATM    7  C11 UNL     1      22.150  -1.176   4.388  1.00  0.00     0.179 C 
ENDROOT
BRANCH   1   8
HETATM    8  C4  UNL     1      22.530   2.492   3.094  1.00  0.00     0.151 C 
BRANCH   8   9
HETATM    9  C2  UNL     1      21.376   2.970   2.257  1.00  0.00     0.001 C 
HETATM   10  C1  UNL     1      21.833   3.601   0.960  1.00  0.00     0.011 C 
HETATM   11  C3  UNL     1      20.505   3.914   3.059  1.00  0.00     0.011 C 
ENDBRANCH   8   9
BRANCH   8  12
HETATM   12  S1  UNL     1      24.018   3.303   2.408  1.00  0.00    -0.078 SA
BRANCH  12  13
HETATM   13  C5  UNL     1      24.402   4.783   3.307  1.00  0.00     0.160 A 
HETATM   14  N1  UNL     1      25.524   5.513   3.224  1.00  0.00    -0.331 N 
HETATM   15  C6  UNL     1      25.441   6.566   4.070  1.00  0.00     0.199 A 
ATOM     16  H1  UNL     1      26.317   5.307   2.617  1.00  0.00     0.168 HD
HETATM   17  N2  UNL     1      24.251   6.477   4.678  1.00  0.00    -0.294 N 
HETATM   18  N3  UNL     1      23.624   5.394   4.212  1.00  0.00    -0.279 N 
ATOM     19  H2  UNL     1      23.887   7.125   5.376  1.00  0.00     0.187 HD
ATOM     20  H3  UNL     1      22.697   5.081   4.500  1.00  0.00     0.189 HD
ENDBRANCH  12  13
ENDBRANCH   8  12
ENDBRANCH   1   8
BRANCH   7  21
HETATM   21  C12 UNL     1      22.735  -2.205   3.552  1.00  0.00     0.241 C 
HETATM   22  O2  UNL     1      23.968  -2.341   3.429  1.00  0.00    -0.271 OA
HETATM   23  N5  UNL     1      21.952  -3.134   2.806  1.00  0.00    -0.344 N 
ATOM     24  H5  UNL     1      20.937  -3.063   2.872  1.00  0.00     0.163 HD
BRANCH  23  25
HETATM   25  C13 UNL     1      22.504  -4.172   1.962  1.00  0.00     0.220 C 
BRANCH  25  26
HETATM   26  C14 UNL     1      22.762  -3.622   0.563  1.00  0.00     0.145 C 
HETATM   27  C15 UNL     1      21.660  -2.710   0.107  1.00  0.00     0.042 C 
BRANCH  26  28
HETATM   28  O3  UNL     1      24.007  -3.058   0.438  1.00  0.00    -0.394 OA
ATOM     29  H3  UNL     1      23.983  -2.212   0.008  1.00  0.00     0.210 HD
ENDBRANCH  26  28
ENDBRANCH  25  26
BRANCH  25  30
HETATM   30  C16 UNL     1      21.612  -5.375   1.908  1.00  0.00     0.409 C 
HETATM   31  F1  UNL     1      21.971  -6.267   2.885  1.00  0.00    -0.169 F 
HETATM   32  F2  UNL     1      20.321  -4.944   2.225  1.00  0.00    -0.169 F 
HETATM   33  F3  UNL     1      21.660  -6.034   0.708  1.00  0.00    -0.169 F 
ENDBRANCH  25  30
ENDBRANCH  23  25
ENDBRANCH   7  21
TORSDOF 9
ENDMDL
MODEL 4
REMARK VINA RESULT: -7.184148318      1.951      2.592
REMARK  9 active torsions:
REMARK  status: ('A' for Active; 'I' for Inactive)
REMARK    1  A    between atoms: C2_2  and  C4_4 
REMARK    2  A    between atoms: C4_4  and  S1_5 
REMARK    3  A    between atoms: C4_4  and  C7_14 
REMARK    4  A    between atoms: S1_5  and  C5_6 
REMARK       I    between atoms: C7_14  and  N4_16 
REMARK    5  A    between atoms: C11_20  and  C12_21 
REMARK       I    between atoms: C12_21  and  N5_23 
REMARK    6  A    between atoms: N5_23  and  C13_25 
REMARK    7  A    between atoms: C13_25  and  C14_26 
REMARK    8  A    between atoms: C13_25  and  C16_30 
REMARK    9  A    between atoms: C14_26  and  O3_28 
ROOT
HETATM    1  C7  UNL     1      24.603   0.726   0.601  1.00  0.00     0.235 C 
HETATM    2  O1  UNL     1      24.807  -0.441   0.126  1.00  0.00    -0.272 OA
HETATM    3  N4  UNL     1      23.984   1.034   1.807  1.00  0.00    -0.338 N 
HETATM    4  C8  UNL     1      23.804   2.458   2.214  1.00  0.00     0.127 C 
HETATM    5  C9  UNL     1      24.483   2.364   3.570  1.00  0.00     0.022 C 
HETATM    6  C10 UNL     1      24.176   0.975   4.079  1.00  0.00     0.037 C 
HETATM    7  C11 UNL     1      23.392   0.382   2.890  1.00  0.00     0.179 C 
ENDROOT
BRANCH   1   8
HETATM    8  C4  UNL     1      25.124   1.802  -0.312  1.00  0.00     0.151 C 
BRANCH   8   9
HETATM    9  C2  UNL     1      24.669   1.610  -1.733  1.00  0.00     0.001 C 
HETATM   10  C1  UNL     1      25.733   2.013  -2.732  1.00  0.00     0.011 C 
HETATM   11  C3  UNL     1      23.372   2.354  -1.971  1.00  0.00     0.011 C 
ENDBRANCH   8   9
BRANCH   8  12
HETATM   12  S1  UNL     1      26.951   1.752  -0.358  1.00  0.00    -0.078 SA
BRANCH  12  13
HETATM   13  C5  UNL     1      27.641   2.508   1.091  1.00  0.00     0.160 A 
HETATM   14  N1  UNL     1      27.245   3.647   1.678  1.00  0.00    -0.331 N 
HETATM   15  C6  UNL     1      28.022   3.892   2.757  1.00  0.00     0.199 A 
ATOM     16  H1  UNL     1      26.476   4.237   1.359  1.00  0.00     0.168 HD
HETATM   17  N2  UNL     1      28.906   2.890   2.830  1.00  0.00    -0.294 N 
HETATM   18  N3  UNL     1      28.671   2.051   1.818  1.00  0.00    -0.279 N 
ATOM     19  H2  UNL     1      29.633   2.784   3.538  1.00  0.00     0.187 HD
ATOM     20  H3  UNL     1      29.194   1.196   1.627  1.00  0.00     0.189 HD
ENDBRANCH  12  13
ENDBRANCH   8  12
ENDBRANCH   1   8
BRANCH   7  21
HETATM   21  C12 UNL     1      23.326  -1.063   2.985  1.00  0.00     0.241 C 
HETATM   22  O2  UNL     1      23.940  -1.700   3.863  1.00  0.00    -0.271 OA
HETATM   23  N5  UNL     1      22.562  -1.864   2.087  1.00  0.00    -0.344 N 
ATOM     24  H5  UNL     1      22.043  -1.389   1.349  1.00  0.00     0.163 HD
BRANCH  23  25
HETATM   25  C13 UNL     1      22.476  -3.306   2.154  1.00  0.00     0.220 C 
BRANCH  25  26
HETATM   26  C14 UNL     1      22.957  -3.917   0.842  1.00  0.00     0.145 C 
HETATM   27  C15 UNL     1      22.029  -3.605  -0.296  1.00  0.00     0.042 C 
BRANCH  26  28
HETATM   28  O3  UNL     1      24.265  -3.608   0.562  1.00  0.00    -0.394 OA
ATOM     29  H3  UNL     1      24.350  -3.005  -0.166  1.00  0.00     0.210 HD
ENDBRANCH  26  28
ENDBRANCH  25  26
BRANCH  25  30
HETATM   30  C16 UNL     1      21.086  -3.765   2.479  1.00  0.00     0.409 C 
HETATM   31  F1  UNL     1      20.935  -5.081   2.130  1.00  0.00    -0.169 F 
HETATM   32  F2  UNL     1      20.952  -3.709   3.870  1.00  0.00    -0.169 F 
HETATM   33  F3  UNL     1      20.112  -3.049   1.834  1.00  0.00    -0.169 F 
ENDBRANCH  25  30
ENDBRANCH  23  25
ENDBRANCH   7  21
TORSDOF 9
ENDMDL
MODEL 5
REMARK VINA RESULT: -7.129406688      1.889      2.264
REMARK  9 active torsions:
REMARK  status: ('A' for Active; 'I' for Inactive)
REMARK    1  A    between atoms: C2_2  and  C4_4 
REMARK    2  A    between atoms: C4_4  and  S1_5 
REMARK    3  A    between atoms: C4_4  and  C7_14 
REMARK    4  A    between atoms: S1_5  and  C5_6 
REMARK       I    between atoms: C7_14  and  N4_16 
REMARK    5  A    between atoms: C11_20  and  C12_21 
REMARK       I    between atoms: C12_21  and  N5_23 
REMARK    6  A    between atoms: N5_23  and  C13_25 
REMARK    7  A    between atoms: C13_25  and  C14_26 
REMARK    8  A    between atoms: C13_25  and  C16_30 
REMARK    9  A    between atoms: C14_26  and  O3_28 
ROOT
HETATM    1  C7  UNL     1      22.357   0.973   2.021  1.00  0.00     0.235 C 
HETATM    2  O1  UNL     1      22.848   0.342   1.027  1.00  0.00    -0.272 OA
HETATM    3  N4  UNL     1      22.087   0.455   3.282  1.00  0.00    -0.338 N 
HETATM    4  C8  UNL     1      21.491   1.324   4.338  1.00  0.00     0.127 C 
HETATM    5  C9  UNL     1      22.544   1.089   5.407  1.00  0.00     0.022 C 
HETATM    6  C10 UNL     1      23.001  -0.338   5.216  1.00  0.00     0.037 C 
HETATM    7  C11 UNL     1      22.187  -0.754   3.973  1.00  0.00     0.179 C 
ENDROOT
BRANCH   1   8
HETATM    8  C4  UNL     1      22.079   2.414   1.689  1.00  0.00     0.151 C 
BRANCH   8   9
HETATM    9  C2  UNL     1      21.823   2.619   0.221  1.00  0.00     0.001 C 
HETATM   10  C1  UNL     1      22.261   3.989  -0.250  1.00  0.00     0.011 C 
HETATM   11  C3  UNL     1      20.365   2.362  -0.095  1.00  0.00     0.011 C 
ENDBRANCH   8   9
BRANCH   8  12
HETATM   12  S1  UNL     1      23.538   3.440   2.092  1.00  0.00    -0.078 SA
BRANCH  12  13
HETATM   13  C5  UNL     1      25.042   2.561   1.753  1.00  0.00     0.160 A 
HETATM   14  N1  UNL     1      25.453   2.087   0.568  1.00  0.00    -0.331 N 
HETATM   15  C6  UNL     1      26.650   1.473   0.718  1.00  0.00     0.199 A 
ATOM     16  H1  UNL     1      24.943   2.175  -0.311  1.00  0.00     0.168 HD
HETATM   17  N2  UNL     1      26.973   1.574   2.013  1.00  0.00    -0.294 N 
HETATM   18  N3  UNL     1      25.995   2.235   2.638  1.00  0.00    -0.279 N 
ATOM     19  H2  UNL     1      27.820   1.209   2.448  1.00  0.00     0.187 HD
ATOM     20  H3  UNL     1      25.976   2.458   3.633  1.00  0.00     0.189 HD
ENDBRANCH  12  13
ENDBRANCH   8  12
ENDBRANCH   1   8
BRANCH   7  21
HETATM   21  C12 UNL     1      22.741  -1.950   3.370  1.00  0.00     0.241 C 
HETATM   22  O2  UNL     1      23.955  -2.227   3.435  1.00  0.00    -0.271 OA
HETATM   23  N5  UNL     1      21.948  -2.896   2.657  1.00  0.00    -0.344 N 
ATOM     24  H5  UNL     1      20.948  -2.713   2.574  1.00  0.00     0.163 HD
BRANCH  23  25
HETATM   25  C13 UNL     1      22.469  -4.097   2.043  1.00  0.00     0.220 C 
BRANCH  25  26
HETATM   26  C14 UNL     1      22.873  -3.812   0.600  1.00  0.00     0.145 C 
HETATM   27  C15 UNL     1      21.876  -2.932  -0.097  1.00  0.00     0.042 C 
BRANCH  26  28
HETATM   28  O3  UNL     1      24.160  -3.348   0.493  1.00  0.00    -0.394 OA
ATOM     29  H3  UNL     1      24.206  -2.486   0.097  1.00  0.00     0.210 HD
ENDBRANCH  26  28
ENDBRANCH  25  26
BRANCH  25  30
HETATM   30  C16 UNL     1      21.485  -5.226   2.110  1.00  0.00     0.409 C 
HETATM   31  F1  UNL     1      21.737  -6.002   3.212  1.00  0.00    -0.169 F 
HETATM   32  F2  UNL     1      20.223  -4.659   2.309  1.00  0.00    -0.169 F 
HETATM   33  F3  UNL     1      21.520  -6.044   1.011  1.00  0.00    -0.169 F 
ENDBRANCH  25  30
ENDBRANCH  23  25
ENDBRANCH   7  21
TORSDOF 9
ENDMDL
