MODEL 1
REMARK VINA RESULT: -7.452484095      0.000      0.000
REMARK  11 active torsions:
REMARK  status: ('A' for Active; 'I' for Inactive)
REMARK    1  A    between atoms: C2_2  and  C4_4 
REMARK    2  A    between atoms: C4_4  and  C5_5 
REMARK    3  A    between atoms: C4_4  and  N2_22 
REMARK    4  A    between atoms: C5_5  and  C6_6 
REMARK    5  A    between atoms: C5_5  and  N1_17 
REMARK    6  A    between atoms: C6_6  and  O1_7 
REMARK    7  A    between atoms: C6_6  and  C7_9 
REMARK    8  A    between atoms: N1_17  and  O2_18 
REMARK    9  A    between atoms: N1_17  and  C13_20 
REMARK   10  A    between atoms: C16_26  and  C18_28 
REMARK   11  A    between atoms: C18_28  and  O4_29 
ROOT
HETATM    1  C5  UNL     1      22.590  -1.951   2.751  1.00  0.00     0.169 C 
ENDROOT
BRANCH   1   2
HETATM    2  C4  UNL     1      22.817  -0.672   2.025  1.00  0.00     0.118 C 
BRANCH   2   3
HETATM    3  C2  UNL     1      22.638   0.476   3.042  1.00  0.00     0.003 C 
HETATM    4  C1  UNL     1      21.331   1.165   2.937  1.00  0.00     0.011 C 
HETATM    5  C3  UNL     1      23.814   1.426   2.971  1.00  0.00     0.011 C 
ENDBRANCH   2   3
BRANCH   2   6
HETATM    6  N2  UNL     1      22.075  -0.433   0.843  1.00  0.00    -0.341 N 
HETATM    7  C14 UNL     1      20.741  -0.763   0.434  1.00  0.00     0.165 C 
HETATM    8  C15 UNL     1      20.579  -0.394  -1.023  1.00  0.00     0.207 C 
HETATM    9  F3  UNL     1      20.848  -1.432  -1.889  1.00  0.00    -0.246 F 
HETATM   10  C16 UNL     1      21.573   0.683  -1.199  1.00  0.00     0.091 C 
HETATM   11  C17 UNL     1      20.969   2.020  -0.951  1.00  0.00     0.031 C 
HETATM   12  C19 UNL     1      22.628   0.300  -0.252  1.00  0.00     0.233 C 
HETATM   13  O5  UNL     1      23.839   0.601  -0.429  1.00  0.00    -0.272 OA
BRANCH  10  14
HETATM   14  C18 UNL     1      22.095   0.675  -2.637  1.00  0.00     0.186 C 
BRANCH  14  15
HETATM   15  O4  UNL     1      22.837   1.828  -2.849  1.00  0.00    -0.400 OA
ATOM     16  H4  UNL     1      22.244   2.567  -2.902  1.00  0.00     0.209 HD
ENDBRANCH  14  15
ENDBRANCH  10  14
ENDBRANCH   2   6
ENDBRANCH   1   2
BRANCH   1  17
HETATM   17  C6  UNL     1      23.042  -3.196   2.073  1.00  0.00     0.149 C 
BRANCH  17  18
HETATM   18  O1  UNL     1      23.708  -3.010   0.876  1.00  0.00    -0.393 OA
ATOM     19  H1  UNL     1      24.141  -3.780   0.528  1.00  0.00     0.210 HD
ENDBRANCH  17  18
BRANCH  17  20
HETATM   20  C7  UNL     1      21.943  -4.166   1.725  1.00  0.00     0.017 C 
HETATM   21  C8  UNL     1      22.378  -5.451   1.126  1.00  0.00     0.013 C 
HETATM   22  C9  UNL     1      21.123  -6.261   0.829  1.00  0.00     0.079 C 
HETATM   23  C10 UNL     1      20.618  -6.716   2.198  1.00  0.00     0.243 C 
HETATM   24  F1  UNL     1      21.720  -7.212   2.872  1.00  0.00    -0.206 F 
HETATM   25  F2  UNL     1      19.636  -7.659   2.085  1.00  0.00    -0.206 F 
HETATM   26  C11 UNL     1      20.150  -5.464   2.902  1.00  0.00     0.079 C 
HETATM   27  C12 UNL     1      21.340  -4.548   3.094  1.00  0.00     0.013 C 
ENDBRANCH  17  20
ENDBRANCH   1  17
BRANCH   1  28
HETATM   28  N1  UNL     1      23.162  -1.812   4.085  1.00  0.00    -0.227 N 
BRANCH  28  29
HETATM   29  O2  UNL     1      24.485  -1.768   4.347  1.00  0.00    -0.285 OA
ATOM     30  H2  UNL     1      24.861  -1.778   5.220  1.00  0.00     0.245 HD
ENDBRANCH  28  29
BRANCH  28  31
HETATM   31  C13 UNL     1      22.321  -1.707   5.229  1.00  0.00     0.377 C 
HETATM   32  O3  UNL     1      21.979  -2.685   5.941  1.00  0.00    -0.281 OA
ENDBRANCH  28  31
ENDBRANCH   1  28
TORSDOF 11
ENDMDL
MODEL 2
REMARK VINA RESULT: -7.337596441      2.255      4.727
REMARK  11 active torsions:
REMARK  status: ('A' for Active; 'I' for Inactive)
REMARK    1  A    between atoms: C2_2  and  C4_4 
REMARK    2  A    between atoms: C4_4  and  C5_5 
REMARK    3  A    between atoms: C4_4  and  N2_22 
REMARK    4  A    between atoms: C5_5  and  C6_6 
REMARK    5  A    between atoms: C5_5  and  N1_17 
REMARK    6  A    between atoms: C6_6  and  O1_7 
REMARK    7  A    between atoms: C6_6  and  C7_9 
REMARK    8  A    between atoms: N1_17  and  O2_18 
REMARK    9  A    between atoms: N1_17  and  C13_20 
REMARK   10  A    between atoms: C16_26  and  C18_28 
REMARK   11  A    between atoms: C18_28  and  O4_29 
ROOT
HETATM    1  C5  UNL     1      22.500  -1.381   0.992  1.00  0.00     0.169 C 
ENDROOT
BRANCH   1   2
HETATM    2  C4  UNL     1      22.648  -0.006   1.543  1.00  0.00     0.118 C 
BRANCH   2   3
HETATM    3  C2  UNL     1      24.041   0.512   1.125  1.00  0.00     0.003 C 
HETATM    4  C1  UNL     1      24.176   1.985   1.208  1.00  0.00     0.011 C 
HETATM    5  C3  UNL     1      24.420  -0.040  -0.231  1.00  0.00     0.011 C 
ENDBRANCH   2   3
BRANCH   2   6
HETATM    6  N2  UNL     1      22.421   0.188   2.927  1.00  0.00    -0.341 N 
HETATM    7  C14 UNL     1      21.359   0.798   3.674  1.00  0.00     0.165 C 
HETATM    8  C15 UNL     1      21.770   0.864   5.127  1.00  0.00     0.207 C 
HETATM    9  F3  UNL     1      22.377   2.051   5.476  1.00  0.00    -0.246 F 
HETATM   10  C16 UNL     1      22.730  -0.251   5.246  1.00  0.00     0.091 C 
HETATM   11  C17 UNL     1      22.048  -1.509   5.654  1.00  0.00     0.031 C 
HETATM   12  C19 UNL     1      23.341  -0.288   3.910  1.00  0.00     0.233 C 
HETATM   13  O5  UNL     1      24.518  -0.693   3.715  1.00  0.00    -0.272 OA
BRANCH  10  14
HETATM   14  C18 UNL     1      23.771   0.075   6.318  1.00  0.00     0.186 C 
BRANCH  14  15
HETATM   15  O4  UNL     1      24.593  -1.028   6.492  1.00  0.00    -0.400 OA
ATOM     16  H4  UNL     1      25.479  -0.792   6.243  1.00  0.00     0.209 HD
ENDBRANCH  14  15
ENDBRANCH  10  14
ENDBRANCH   2   6
ENDBRANCH   1   2
BRANCH   1  17
HETATM   17  C6  UNL     1      22.602  -2.506   1.961  1.00  0.00     0.149 C 
BRANCH  17  18
HETATM   18  O1  UNL     1      23.866  -3.044   2.112  1.00  0.00    -0.393 OA
ATOM     19  H1  UNL     1      24.262  -3.382   1.317  1.00  0.00     0.210 HD
ENDBRANCH  17  18
BRANCH  17  20
HETATM   20  C7  UNL     1      21.739  -3.699   1.644  1.00  0.00     0.017 C 
HETATM   21  C8  UNL     1      22.450  -4.895   1.130  1.00  0.00     0.013 C 
HETATM   22  C9  UNL     1      21.399  -5.962   0.851  1.00  0.00     0.079 C 
HETATM   23  C10 UNL     1      20.952  -6.440   2.233  1.00  0.00     0.243 C 
HETATM   24  F1  UNL     1      22.109  -6.662   2.959  1.00  0.00    -0.206 F 
HETATM   25  F2  UNL     1      20.189  -7.572   2.152  1.00  0.00    -0.206 F 
HETATM   26  C11 UNL     1      20.213  -5.278   2.854  1.00  0.00     0.079 C 
HETATM   27  C12 UNL     1      21.182  -4.127   3.019  1.00  0.00     0.013 C 
ENDBRANCH  17  20
ENDBRANCH   1  17
BRANCH   1  28
HETATM   28  N1  UNL     1      21.259  -1.423   0.228  1.00  0.00    -0.227 N 
BRANCH  28  29
HETATM   29  O2  UNL     1      20.053  -1.063   0.714  1.00  0.00    -0.285 OA
ATOM     30  H2  UNL     1      19.398  -0.580   0.223  1.00  0.00     0.245 HD
ENDBRANCH  28  29
BRANCH  28  31
HETATM   31  C13 UNL     1      21.254  -1.858  -1.127  1.00  0.00     0.377 C 
HETATM   32  O3  UNL     1      21.239  -1.079  -2.115  1.00  0.00    -0.281 OA
ENDBRANCH  28  31
ENDBRANCH   1  28
TORSDOF 11
ENDMDL
MODEL 3
REMARK VINA RESULT: -7.252319581      3.014      5.434
REMARK  11 active torsions:
REMARK  status: ('A' for Active; 'I' for Inactive)
REMARK    1  A    between atoms: C2_2  and  C4_4 
REMARK    2  A    between atoms: C4_4  and  C5_5 
REMARK    3  A    between atoms: C4_4  and  N2_22 
REMARK    4  A    between atoms: C5_5  and  C6_6 
REMARK    5  A    between atoms: C5_5  and  N1_17 
REMARK    6  A    between atoms: C6_6  and  O1_7 
REMARK    7  A    between atoms: C6_6  and  C7_9 
REMARK    8  A    between atoms: N1_17  and  O2_18 
REMARK    9  A    between atoms: N1_17  and  C13_20 
REMARK   10  A    between atoms: C16_26  and  C18_28 
REMARK   11  A    between atoms: C18_28  and  O4_29 
ROOT
HETATM    1  C5  UNL     1      22.971   0.930   2.308  1.00  0.00     0.169 C 
ENDROOT
BRANCH   1   2
HETATM    2  C4  UNL     1      23.316  -0.099   1.290  1.00  0.00     0.118 C 
BRANCH   2   3
HETATM    3  C2  UNL     1      23.460   0.622  -0.067  1.00  0.00     0.003 C 
HETATM    4  C1  UNL     1      24.864   0.772  -0.515  1.00  0.00     0.011 C 
HETATM    5  C3  UNL     1      22.703   1.932  -0.047  1.00  0.00     0.011 C 
ENDBRANCH   2   3
BRANCH   2   6
HETATM    6  N2  UNL     1      22.482  -1.239   1.181  1.00  0.00    -0.341 N 
HETATM    7  C14 UNL     1      21.209  -1.472   0.564  1.00  0.00     0.165 C 
HETATM    8  C15 UNL     1      20.738  -2.858   0.942  1.00  0.00     0.207 C 
HETATM    9  F3  UNL     1      19.934  -2.881   2.061  1.00  0.00    -0.246 F 
HETATM   10  C16 UNL     1      22.002  -3.571   1.212  1.00  0.00     0.091 C 
HETATM   11  C17 UNL     1      22.513  -4.244  -0.013  1.00  0.00     0.031 C 
HETATM   12  C19 UNL     1      22.865  -2.501   1.731  1.00  0.00     0.233 C 
HETATM   13  O5  UNL     1      23.800  -2.721   2.547  1.00  0.00    -0.272 OA
BRANCH  10  14
HETATM   14  C18 UNL     1      21.771  -4.652   2.268  1.00  0.00     0.186 C 
BRANCH  14  15
HETATM   15  O4  UNL     1      21.596  -5.870   1.629  1.00  0.00    -0.400 OA
ATOM     16  H4  UNL     1      20.882  -5.790   1.008  1.00  0.00     0.209 HD
ENDBRANCH  14  15
ENDBRANCH  10  14
ENDBRANCH   2   6
ENDBRANCH   1   2
BRANCH   1  17
HETATM   17  C6  UNL     1      22.046   0.512   3.396  1.00  0.00     0.149 C 
BRANCH  17  18
HETATM   18  O1  UNL     1      21.369   1.541   4.025  1.00  0.00    -0.393 OA
ATOM     19  H1  UNL     1      20.546   1.298   4.431  1.00  0.00     0.210 HD
ENDBRANCH  17  18
BRANCH  17  20
HETATM   20  C7  UNL     1      22.694  -0.237   4.531  1.00  0.00     0.017 C 
HETATM   21  C8  UNL     1      22.826   0.508   5.808  1.00  0.00     0.013 C 
HETATM   22  C9  UNL     1      23.524  -0.414   6.800  1.00  0.00     0.079 C 
HETATM   23  C10 UNL     1      22.475  -1.464   7.163  1.00  0.00     0.243 C 
HETATM   24  F1  UNL     1      21.310  -0.769   7.438  1.00  0.00    -0.206 F 
HETATM   25  F2  UNL     1      22.868  -2.220   8.231  1.00  0.00    -0.206 F 
HETATM   26  C11 UNL     1      22.259  -2.283   5.912  1.00  0.00     0.079 C 
HETATM   27  C12 UNL     1      21.700  -1.378   4.836  1.00  0.00     0.013 C 
ENDBRANCH  17  20
ENDBRANCH   1  17
BRANCH   1  28
HETATM   28  N1  UNL     1      24.219   1.478   2.826  1.00  0.00    -0.227 N 
BRANCH  28  29
HETATM   29  O2  UNL     1      25.331   0.751   3.061  1.00  0.00    -0.285 OA
ATOM     30  H2  UNL     1      25.949   0.481   2.391  1.00  0.00     0.245 HD
ENDBRANCH  28  29
BRANCH  28  31
HETATM   31  C13 UNL     1      24.337   2.865   3.120  1.00  0.00     0.377 C 
HETATM   32  O3  UNL     1      23.534   3.499   3.852  1.00  0.00    -0.281 OA
ENDBRANCH  28  31
ENDBRANCH   1  28
TORSDOF 11
ENDMDL
MODEL 4
REMARK VINA RESULT: -7.231268059      3.771      5.350
REMARK  11 active torsions:
REMARK  status: ('A' for Active; 'I' for Inactive)
REMARK    1  A    between atoms: C2_2  and  C4_4 
REMARK    2  A    between atoms: C4_4  and  C5_5 
REMARK    3  A    between atoms: C4_4  and  N2_22 
REMARK    4  A    between atoms: C5_5  and  C6_6 
REMARK    5  A    between atoms: C5_5  and  N1_17 
REMARK    6  A    between atoms: C6_6  and  O1_7 
REMARK    7  A    between atoms: C6_6  and  C7_9 
REMARK    8  A    between atoms: N1_17  and  O2_18 
REMARK    9  A    between atoms: N1_17  and  C13_20 
REMARK   10  A    between atoms: C16_26  and  C18_28 
REMARK   11  A    between atoms: C18_28  and  O4_29 
ROOT
HETATM    1  C5  UNL     1      23.415   0.054   1.249  1.00  0.00     0.169 C 
ENDROOT
BRANCH   1   2
HETATM    2  C4  UNL     1      22.815   1.071   0.343  1.00  0.00     0.118 C 
BRANCH   2   3
HETATM    3  C2  UNL     1      23.820   1.321  -0.801  1.00  0.00     0.003 C 
HETATM    4  C1  UNL     1      23.223   1.205  -2.153  1.00  0.00     0.011 C 
HETATM    5  C3  UNL     1      25.046   0.454  -0.621  1.00  0.00     0.011 C 
ENDBRANCH   2   3
BRANCH   2   6
HETATM    6  N2  UNL     1      22.365   2.290   0.909  1.00  0.00    -0.341 N 
HETATM    7  C14 UNL     1      22.998   3.552   1.158  1.00  0.00     0.165 C 
HETATM    8  C15 UNL     1      22.049   4.417   1.956  1.00  0.00     0.207 C 
HETATM    9  F3  UNL     1      22.233   4.324   3.319  1.00  0.00    -0.246 F 
HETATM   10  C16 UNL     1      20.726   3.878   1.585  1.00  0.00     0.091 C 
HETATM   11  C17 UNL     1      20.158   4.600   0.415  1.00  0.00     0.031 C 
HETATM   12  C19 UNL     1      21.017   2.457   1.348  1.00  0.00     0.233 C 
HETATM   13  O5  UNL     1      20.158   1.551   1.525  1.00  0.00    -0.272 OA
BRANCH  10  14
HETATM   14  C18 UNL     1      19.751   4.052   2.751  1.00  0.00     0.186 C 
BRANCH  14  15
HETATM   15  O4  UNL     1      18.462   3.829   2.292  1.00  0.00    -0.400 OA
ATOM     16  H4  UNL     1      17.847   4.162   2.934  1.00  0.00     0.209 HD
ENDBRANCH  14  15
ENDBRANCH  10  14
ENDBRANCH   2   6
ENDBRANCH   1   2
BRANCH   1  17
HETATM   17  C6  UNL     1      23.696   0.484   2.646  1.00  0.00     0.149 C 
BRANCH  17  18
HETATM   18  O1  UNL     1      25.005   0.326   3.062  1.00  0.00    -0.393 OA
ATOM     19  H1  UNL     1      25.160  -0.406   3.647  1.00  0.00     0.210 HD
ENDBRANCH  17  18
BRANCH  17  20
HETATM   20  C7  UNL     1      22.894  -0.228   3.705  1.00  0.00     0.017 C 
HETATM   21  C8  UNL     1      23.637  -1.217   4.525  1.00  0.00     0.013 C 
HETATM   22  C9  UNL     1      22.644  -1.832   5.502  1.00  0.00     0.079 C 
HETATM   23  C10 UNL     1      22.368  -0.730   6.524  1.00  0.00     0.243 C 
HETATM   24  F1  UNL     1      23.602  -0.222   6.890  1.00  0.00    -0.206 F 
HETATM   25  F2  UNL     1      21.685  -1.207   7.608  1.00  0.00    -0.206 F 
HETATM   26  C11 UNL     1      21.610   0.344   5.780  1.00  0.00     0.079 C 
HETATM   27  C12 UNL     1      22.504   0.895   4.691  1.00  0.00     0.013 C 
ENDBRANCH  17  20
ENDBRANCH   1  17
BRANCH   1  28
HETATM   28  N1  UNL     1      22.576  -1.137   1.198  1.00  0.00    -0.227 N 
BRANCH  28  29
HETATM   29  O2  UNL     1      21.245  -1.142   1.421  1.00  0.00    -0.285 OA
ATOM     30  H2  UNL     1      20.789  -1.800   1.934  1.00  0.00     0.245 HD
ENDBRANCH  28  29
BRANCH  28  31
HETATM   31  C13 UNL     1      23.138  -2.408   0.893  1.00  0.00     0.377 C 
HETATM   32  O3  UNL     1      23.543  -3.224   1.761  1.00  0.00    -0.281 OA
ENDBRANCH  28  31
ENDBRANCH   1  28
TORSDOF 11
ENDMDL
MODEL 5
REMARK VINA RESULT: -7.118899491      2.711      3.908
REMARK  11 active torsions:
REMARK  status: ('A' for Active; 'I' for Inactive)
REMARK    1  A    between atoms: C2_2  and  C4_4 
REMARK    2  A    between atoms: C4_4  and  C5_5 
REMARK    3  A    between atoms: C4_4  and  N2_22 
REMARK    4  A    between atoms: C5_5  and  C6_6 
REMARK    5  A    between atoms: C5_5  and  N1_17 
REMARK    6  A    between atoms: C6_6  and  O1_7 
REMARK    7  A    between atoms: C6_6  and  C7_9 
REMARK    8  A    between atoms: N1_17  and  O2_18 
REMARK    9  A    between atoms: N1_17  and  C13_20 
REMARK   10  A    between atoms: C16_26  and  C18_28 
REMARK   11  A    between atoms: C18_28  and  O4_29 
ROOT
HETATM    1  C5  UNL     1      22.385   0.784   2.901  1.00  0.00     0.169 C 
ENDROOT
BRANCH   1   2
HETATM    2  C4  UNL     1      23.305   1.938   2.707  1.00  0.00     0.118 C 
BRANCH   2   3
HETATM    3  C2  UNL     1      22.490   3.226   2.949  1.00  0.00     0.003 C 
HETATM    4  C1  UNL     1      23.235   4.270   3.690  1.00  0.00     0.011 C 
HETATM    5  C3  UNL     1      21.157   2.891   3.582  1.00  0.00     0.011 C 
ENDBRANCH   2   3
BRANCH   2   6
HETATM    6  N2  UNL     1      24.039   2.013   1.498  1.00  0.00    -0.341 N 
HETATM    7  C14 UNL     1      23.721   2.483   0.181  1.00  0.00     0.165 C 
HETATM    8  C15 UNL     1      24.865   2.136  -0.744  1.00  0.00     0.207 C 
HETATM    9  F3  UNL     1      24.704   0.930  -1.392  1.00  0.00    -0.246 F 
HETATM   10  C16 UNL     1      26.018   2.065   0.175  1.00  0.00     0.091 C 
HETATM   11  C17 UNL     1      26.704   3.381   0.281  1.00  0.00     0.031 C 
HETATM   12  C19 UNL     1      25.402   1.592   1.422  1.00  0.00     0.233 C 
HETATM   13  O5  UNL     1      26.034   0.910   2.274  1.00  0.00    -0.272 OA
BRANCH  10  14
HETATM   14  C18 UNL     1      27.039   1.056  -0.351  1.00  0.00     0.186 C 
BRANCH  14  15
HETATM   15  O4  UNL     1      28.237   1.239   0.323  1.00  0.00    -0.400 OA
ATOM     16  H4  UNL     1      28.954   1.081  -0.279  1.00  0.00     0.209 HD
ENDBRANCH  14  15
ENDBRANCH  10  14
ENDBRANCH   2   6
ENDBRANCH   1   2
BRANCH   1  17
HETATM   17  C6  UNL     1      21.969   0.045   1.678  1.00  0.00     0.149 C 
BRANCH  17  18
HETATM   18  O1  UNL     1      20.654   0.228   1.295  1.00  0.00    -0.393 OA
ATOM     19  H1  UNL     1      20.504   0.937   0.681  1.00  0.00     0.210 HD
ENDBRANCH  17  18
BRANCH  17  20
HETATM   20  C7  UNL     1      22.115  -1.452   1.758  1.00  0.00     0.017 C 
HETATM   21  C8  UNL     1      20.912  -2.241   1.396  1.00  0.00     0.013 C 
HETATM   22  C9  UNL     1      21.265  -3.712   1.570  1.00  0.00     0.079 C 
HETATM   23  C10 UNL     1      22.203  -4.029   0.406  1.00  0.00     0.243 C 
HETATM   24  F1  UNL     1      21.607  -3.504  -0.727  1.00  0.00    -0.206 F 
HETATM   25  F2  UNL     1      22.414  -5.374   0.281  1.00  0.00    -0.206 F 
HETATM   26  C11 UNL     1      23.475  -3.260   0.678  1.00  0.00     0.079 C 
HETATM   27  C12 UNL     1      23.153  -1.781   0.663  1.00  0.00     0.013 C 
ENDBRANCH  17  20
ENDBRANCH   1  17
BRANCH   1  28
HETATM   28  N1  UNL     1      22.980  -0.096   3.900  1.00  0.00    -0.227 N 
BRANCH  28  29
HETATM   29  O2  UNL     1      24.222  -0.617   3.814  1.00  0.00    -0.285 OA
ATOM     30  H2  UNL     1      24.972  -0.302   4.306  1.00  0.00     0.245 HD
ENDBRANCH  28  29
BRANCH  28  31
HETATM   31  C13 UNL     1      22.255  -0.462   5.069  1.00  0.00     0.377 C 
HETATM   32  O3  UNL     1      21.589   0.346   5.765  1.00  0.00    -0.281 OA
ENDBRANCH  28  31
ENDBRANCH   1  28
TORSDOF 11
ENDMDL
