MODEL 1
REMARK VINA RESULT: -7.776613317      0.000      0.000
REMARK  8 active torsions:
REMARK  status: ('A' for Active; 'I' for Inactive)
REMARK       I    between atoms: N1_2  and  C2_4 
REMARK    1  A    between atoms: C2_4  and  C3_6 
REMARK    2  A    between atoms: C7_14  and  C8_15 
REMARK    3  A    between atoms: C8_15  and  C9_17 
REMARK    4  A    between atoms: C9_17  and  N5_18 
REMARK    5  A    between atoms: N5_18  and  C10_20 
REMARK    6  A    between atoms: C10_20  and  C11_21 
REMARK    7  A    between atoms: C10_20  and  C18_31 
REMARK       I    between atoms: C11_21  and  N6_23 
REMARK    8  A    between atoms: N6_23  and  C12_25 
ROOT
HETATM    1  C3  UNL     1      21.502   3.150   2.025  1.00  0.00     0.133 A 
HETATM    2  N2  UNL     1      21.805   2.975   0.727  1.00  0.00    -0.292 N 
ATOM      3  H2  UNL     1      21.251   3.316  -0.058  1.00  0.00     0.187 HD
HETATM    4  N3  UNL     1      22.929   2.294   0.626  1.00  0.00    -0.285 N 
HETATM    5  C4  UNL     1      23.618   1.786  -0.574  1.00  0.00     0.179 C 
HETATM    6  C5  UNL     1      23.412   1.994   1.881  1.00  0.00     0.147 A 
HETATM    7  C6  UNL     1      24.652   1.341   2.163  1.00  0.00     0.120 C 
HETATM    8  N4  UNL     1      25.676   0.821   2.377  1.00  0.00    -0.190 NA
HETATM    9  C7  UNL     1      22.492   2.534   2.806  1.00  0.00     0.088 A 
ENDROOT
BRANCH   9  10
HETATM   10  C8  UNL     1      22.387   2.233   4.193  1.00  0.00     0.202 C 
HETATM   11  O2  UNL     1      23.044   2.921   5.024  1.00  0.00    -0.286 OA
BRANCH  10  12
HETATM   12  C9  UNL     1      21.535   1.174   4.806  1.00  0.00     0.140 C 
BRANCH  12  13
HETATM   13  N5  UNL     1      22.227   0.445   5.748  1.00  0.00    -0.376 N 
ATOM     14  H5  UNL     1      22.167   0.868   6.675  1.00  0.00     0.160 HD
BRANCH  13  15
HETATM   15  C10 UNL     1      22.966  -0.685   5.758  1.00  0.00     0.282 C 
BRANCH  15  16
HETATM   16  C11 UNL     1      23.243  -1.381   4.482  1.00  0.00     0.249 C 
HETATM   17  O3  UNL     1      24.430  -1.789   4.304  1.00  0.00    -0.271 OA
HETATM   18  N6  UNL     1      22.295  -1.621   3.463  1.00  0.00    -0.354 N 
ATOM     19  H6  UNL     1      21.335  -1.292   3.561  1.00  0.00     0.162 HD
BRANCH  18  20
HETATM   20  C12 UNL     1      22.719  -2.364   2.245  1.00  0.00     0.084 C 
HETATM   21  C13 UNL     1      21.946  -3.646   2.155  1.00  0.00     0.025 C 
HETATM   22  C14 UNL     1      22.341  -4.361   0.906  1.00  0.00     0.002 C 
HETATM   23  C15 UNL     1      21.968  -3.478  -0.252  1.00  0.00     0.000 C 
HETATM   24  C16 UNL     1      22.799  -2.204  -0.165  1.00  0.00     0.002 C 
HETATM   25  C17 UNL     1      22.390  -1.436   1.068  1.00  0.00     0.025 C 
ENDBRANCH  18  20
ENDBRANCH  15  16
BRANCH  15  26
HETATM   26  C18 UNL     1      22.283  -1.654   6.744  1.00  0.00     0.416 C 
HETATM   27  F1  UNL     1      21.614  -2.660   6.188  1.00  0.00    -0.168 F 
HETATM   28  F2  UNL     1      21.522  -0.904   7.650  1.00  0.00    -0.168 F 
HETATM   29  F3  UNL     1      23.297  -2.192   7.522  1.00  0.00    -0.168 F 
ENDBRANCH  15  26
ENDBRANCH  13  15
ENDBRANCH  12  13
ENDBRANCH  10  12
ENDBRANCH   9  10
BRANCH   1  30
HETATM   30  C2  UNL     1      20.393   3.955   2.602  1.00  0.00     0.270 C 
HETATM   31  N1  UNL     1      20.743   5.293   2.967  1.00  0.00    -0.360 N 
HETATM   32  C1  UNL     1      19.910   6.286   3.509  1.00  0.00     0.149 C 
ATOM     33  H1  UNL     1      21.716   5.559   2.815  1.00  0.00     0.162 HD
HETATM   34  O1  UNL     1      19.258   3.537   2.765  1.00  0.00    -0.266 OA
ENDBRANCH   1  30
TORSDOF 8
ENDMDL
MODEL 2
REMARK VINA RESULT: -7.679973765      3.906      6.465
REMARK  8 active torsions:
REMARK  status: ('A' for Active; 'I' for Inactive)
REMARK       I    between atoms: N1_2  and  C2_4 
REMARK    1  A    between atoms: C2_4  and  C3_6 
REMARK    2  A    between atoms: C7_14  and  C8_15 
REMARK    3  A    between atoms: C8_15  and  C9_17 
REMARK    4  A    between atoms: C9_17  and  N5_18 
REMARK    5  A    between atoms: N5_18  and  C10_20 
REMARK    6  A    between atoms: C10_20  and  C11_21 
REMARK    7  A    between atoms: C10_20  and  C18_31 
REMARK       I    between atoms: C11_21  and  N6_23 
REMARK    8  A    between atoms: N6_23  and  C12_25 
ROOT
HETATM    1  C3  UNL     1      23.345  -0.199   4.873  1.00  0.00     0.133 A 
HETATM    2  N2  UNL     1      23.199  -0.218   6.209  1.00  0.00    -0.292 N 
ATOM      3  H2  UNL     1      23.563   0.486   6.850  1.00  0.00     0.187 HD
HETATM    4  N3  UNL     1      22.514  -1.287   6.560  1.00  0.00    -0.285 N 
HETATM    5  C4  UNL     1      22.174  -1.788   7.905  1.00  0.00     0.179 C 
HETATM    6  C5  UNL     1      22.179  -2.021   5.443  1.00  0.00     0.147 A 
HETATM    7  C6  UNL     1      21.365  -3.196   5.430  1.00  0.00     0.120 C 
HETATM    8  N4  UNL     1      20.684  -4.146   5.434  1.00  0.00    -0.190 NA
HETATM    9  C7  UNL     1      22.720  -1.334   4.334  1.00  0.00     0.088 A 
ENDROOT
BRANCH   9  10
HETATM   10  C8  UNL     1      22.904  -1.836   3.015  1.00  0.00     0.202 C 
HETATM   11  O2  UNL     1      23.610  -2.869   2.843  1.00  0.00    -0.286 OA
BRANCH  10  12
HETATM   12  C9  UNL     1      22.315  -1.275   1.765  1.00  0.00     0.140 C 
BRANCH  12  13
HETATM   13  N5  UNL     1      23.280  -0.734   0.946  1.00  0.00    -0.376 N 
ATOM     14  H5  UNL     1      24.037  -1.393   0.764  1.00  0.00     0.160 HD
BRANCH  13  15
HETATM   15  C10 UNL     1      23.481   0.446   0.321  1.00  0.00     0.282 C 
BRANCH  15  16
HETATM   16  C11 UNL     1      22.518   0.892  -0.710  1.00  0.00     0.249 C 
HETATM   17  O3  UNL     1      22.151   2.104  -0.657  1.00  0.00    -0.271 OA
HETATM   18  N6  UNL     1      21.990   0.079  -1.736  1.00  0.00    -0.354 N 
ATOM     19  H6  UNL     1      22.247  -0.906  -1.801  1.00  0.00     0.162 HD
BRANCH  18  20
HETATM   20  C12 UNL     1      21.052   0.682  -2.723  1.00  0.00     0.084 C 
HETATM   21  C13 UNL     1      21.801   1.009  -3.979  1.00  0.00     0.025 C 
HETATM   22  C14 UNL     1      20.844   1.566  -4.980  1.00  0.00     0.002 C 
HETATM   23  C15 UNL     1      19.831   0.497  -5.275  1.00  0.00     0.000 C 
HETATM   24  C16 UNL     1      19.051   0.216  -3.997  1.00  0.00     0.002 C 
HETATM   25  C17 UNL     1      19.985  -0.391  -2.978  1.00  0.00     0.025 C 
ENDBRANCH  18  20
ENDBRANCH  15  16
BRANCH  15  26
HETATM   26  C18 UNL     1      24.902   0.398  -0.275  1.00  0.00     0.416 C 
HETATM   27  F1  UNL     1      25.862   0.909   0.492  1.00  0.00    -0.168 F 
HETATM   28  F2  UNL     1      24.861   0.943  -1.565  1.00  0.00    -0.168 F 
HETATM   29  F3  UNL     1      25.188  -0.942  -0.486  1.00  0.00    -0.168 F 
ENDBRANCH  15  26
ENDBRANCH  13  15
ENDBRANCH  12  13
ENDBRANCH  10  12
ENDBRANCH   9  10
BRANCH   1  30
HETATM   30  C2  UNL     1      23.945   0.874   4.036  1.00  0.00     0.270 C 
HETATM   31  N1  UNL     1      23.234   2.116   4.043  1.00  0.00    -0.360 N 
HETATM   32  C1  UNL     1      23.566   3.305   3.374  1.00  0.00     0.149 C 
ATOM     33  H1  UNL     1      22.381   2.140   4.601  1.00  0.00     0.162 HD
HETATM   34  O1  UNL     1      24.966   0.741   3.381  1.00  0.00    -0.266 OA
ENDBRANCH   1  30
TORSDOF 8
ENDMDL
MODEL 3
REMARK VINA RESULT: -7.636098599      3.572      6.463
REMARK  8 active torsions:
REMARK  status: ('A' for Active; 'I' for Inactive)
REMARK       I    between atoms: N1_2  and  C2_4 
REMARK    1  A    between atoms: C2_4  and  C3_6 
REMARK    2  A    between atoms: C7_14  and  C8_15 
REMARK    3  A    between atoms: C8_15  and  C9_17 
REMARK    4  A    between atoms: C9_17  and  N5_18 
REMARK    5  A    between atoms: N5_18  and  C10_20 
REMARK    6  A    between atoms: C10_20  and  C11_21 
REMARK    7  A    between atoms: C10_20  and  C18_31 
REMARK       I    between atoms: C11_21  and  N6_23 
REMARK    8  A    between atoms: N6_23  and  C12_25 
ROOT
HETATM    1  C3  UNL     1      23.073   0.148   5.388  1.00  0.00     0.133 A 
HETATM    2  N2  UNL     1      22.933   0.001   6.717  1.00  0.00    -0.292 N 
ATOM      3  H2  UNL     1      23.222   0.683   7.418  1.00  0.00     0.187 HD
HETATM    4  N3  UNL     1      22.366  -1.160   6.975  1.00  0.00    -0.285 N 
HETATM    5  C4  UNL     1      22.084  -1.804   8.270  1.00  0.00     0.179 C 
HETATM    6  C5  UNL     1      22.106  -1.828   5.798  1.00  0.00     0.147 A 
HETATM    7  C6  UNL     1      21.420  -3.077   5.682  1.00  0.00     0.120 C 
HETATM    8  N4  UNL     1      20.844  -4.090   5.603  1.00  0.00    -0.190 NA
HETATM    9  C7  UNL     1      22.568  -0.999   4.753  1.00  0.00     0.088 A 
ENDROOT
BRANCH   9  10
HETATM   10  C8  UNL     1      22.800  -1.366   3.398  1.00  0.00     0.202 C 
HETATM   11  O2  UNL     1      23.776  -2.120   3.123  1.00  0.00    -0.286 OA
BRANCH  10  12
HETATM   12  C9  UNL     1      21.976  -0.968   2.220  1.00  0.00     0.140 C 
BRANCH  12  13
HETATM   13  N5  UNL     1      22.688  -1.064   1.045  1.00  0.00    -0.376 N 
ATOM     14  H5  UNL     1      23.677  -0.849   1.182  1.00  0.00     0.160 HD
BRANCH  13  15
HETATM   15  C10 UNL     1      22.414  -1.371  -0.241  1.00  0.00     0.282 C 
BRANCH  15  16
HETATM   16  C11 UNL     1      21.574  -0.452  -1.040  1.00  0.00     0.249 C 
HETATM   17  O3  UNL     1      20.617   0.116  -0.433  1.00  0.00    -0.271 OA
HETATM   18  N6  UNL     1      21.760  -0.162  -2.410  1.00  0.00    -0.354 N 
ATOM     19  H6  UNL     1      22.507  -0.613  -2.937  1.00  0.00     0.162 HD
BRANCH  18  20
HETATM   20  C12 UNL     1      20.849   0.811  -3.071  1.00  0.00     0.084 C 
HETATM   21  C13 UNL     1      21.602   1.542  -4.142  1.00  0.00     0.025 C 
HETATM   22  C14 UNL     1      20.669   2.480  -4.833  1.00  0.00     0.002 C 
HETATM   23  C15 UNL     1      19.589   1.651  -5.468  1.00  0.00     0.000 C 
HETATM   24  C16 UNL     1      18.809   0.956  -4.360  1.00  0.00     0.002 C 
HETATM   25  C17 UNL     1      19.716  -0.034  -3.669  1.00  0.00     0.025 C 
ENDBRANCH  18  20
ENDBRANCH  15  16
BRANCH  15  26
HETATM   26  C18 UNL     1      21.792  -2.781  -0.240  1.00  0.00     0.416 C 
HETATM   27  F1  UNL     1      21.404  -3.237  -1.428  1.00  0.00    -0.168 F 
HETATM   28  F2  UNL     1      20.788  -2.824   0.736  1.00  0.00    -0.168 F 
HETATM   29  F3  UNL     1      22.770  -3.635   0.248  1.00  0.00    -0.168 F 
ENDBRANCH  15  26
ENDBRANCH  13  15
ENDBRANCH  12  13
ENDBRANCH  10  12
ENDBRANCH   9  10
BRANCH   1  30
HETATM   30  C2  UNL     1      23.553   1.344   4.648  1.00  0.00     0.270 C 
HETATM   31  N1  UNL     1      24.601   1.093   3.706  1.00  0.00    -0.360 N 
HETATM   32  C1  UNL     1      25.234   2.013   2.854  1.00  0.00     0.149 C 
ATOM     33  H1  UNL     1      24.928   0.129   3.647  1.00  0.00     0.162 HD
HETATM   34  O1  UNL     1      23.108   2.470   4.806  1.00  0.00    -0.266 OA
ENDBRANCH   1  30
TORSDOF 8
ENDMDL
MODEL 4
REMARK VINA RESULT: -7.614993527      3.195      5.074
REMARK  8 active torsions:
REMARK  status: ('A' for Active; 'I' for Inactive)
REMARK       I    between atoms: N1_2  and  C2_4 
REMARK    1  A    between atoms: C2_4  and  C3_6 
REMARK    2  A    between atoms: C7_14  and  C8_15 
REMARK    3  A    between atoms: C8_15  and  C9_17 
REMARK    4  A    between atoms: C9_17  and  N5_18 
REMARK    5  A    between atoms: N5_18  and  C10_20 
REMARK    6  A    between atoms: C10_20  and  C11_21 
REMARK    7  A    between atoms: C10_20  and  C18_31 
REMARK       I    between atoms: C11_21  and  N6_23 
REMARK    8  A    between atoms: N6_23  and  C12_25 
ROOT
HETATM    1  C3  UNL     1      22.637   1.485   4.023  1.00  0.00     0.133 A 
HETATM    2  N2  UNL     1      21.594   2.303   4.246  1.00  0.00    -0.292 N 
ATOM      3  H2  UNL     1      20.915   2.199   4.999  1.00  0.00     0.187 HD
HETATM    4  N3  UNL     1      21.585   3.259   3.340  1.00  0.00    -0.285 N 
HETATM    5  C4  UNL     1      20.602   4.335   3.116  1.00  0.00     0.179 C 
HETATM    6  C5  UNL     1      22.645   3.099   2.474  1.00  0.00     0.147 A 
HETATM    7  C6  UNL     1      23.002   3.994   1.418  1.00  0.00     0.120 C 
HETATM    8  N4  UNL     1      23.291   4.744   0.570  1.00  0.00    -0.190 NA
HETATM    9  C7  UNL     1      23.337   1.943   2.895  1.00  0.00     0.088 A 
ENDROOT
BRANCH   9  10
HETATM   10  C8  UNL     1      24.305   1.201   2.162  1.00  0.00     0.202 C 
HETATM   11  O2  UNL     1      25.334   0.774   2.756  1.00  0.00    -0.286 OA
BRANCH  10  12
HETATM   12  C9  UNL     1      24.228   0.832   0.719  1.00  0.00     0.140 C 
BRANCH  12  13
HETATM   13  N5  UNL     1      23.615  -0.388   0.537  1.00  0.00    -0.376 N 
ATOM     14  H5  UNL     1      24.215  -1.044   0.036  1.00  0.00     0.160 HD
BRANCH  13  15
HETATM   15  C10 UNL     1      22.423  -0.939   0.853  1.00  0.00     0.282 C 
BRANCH  15  16
HETATM   16  C11 UNL     1      22.391  -2.192   1.639  1.00  0.00     0.249 C 
HETATM   17  O3  UNL     1      23.456  -2.508   2.248  1.00  0.00    -0.271 OA
HETATM   18  N6  UNL     1      21.274  -3.048   1.760  1.00  0.00    -0.354 N 
ATOM     19  H6  UNL     1      20.405  -2.838   1.270  1.00  0.00     0.162 HD
BRANCH  18  20
HETATM   20  C12 UNL     1      21.385  -4.261   2.615  1.00  0.00     0.084 C 
HETATM   21  C13 UNL     1      20.125  -4.421   3.411  1.00  0.00     0.025 C 
HETATM   22  C14 UNL     1      20.224  -5.666   4.228  1.00  0.00     0.002 C 
HETATM   23  C15 UNL     1      20.353  -6.819   3.273  1.00  0.00     0.000 C 
HETATM   24  C16 UNL     1      21.662  -6.660   2.510  1.00  0.00     0.002 C 
HETATM   25  C17 UNL     1      21.574  -5.430   1.639  1.00  0.00     0.025 C 
ENDBRANCH  18  20
ENDBRANCH  15  16
BRANCH  15  26
HETATM   26  C18 UNL     1      21.656  -1.131  -0.471  1.00  0.00     0.416 C 
HETATM   27  F1  UNL     1      20.384  -0.742  -0.457  1.00  0.00    -0.168 F 
HETATM   28  F2  UNL     1      21.838  -2.451  -0.902  1.00  0.00    -0.168 F 
HETATM   29  F3  UNL     1      22.327  -0.373  -1.419  1.00  0.00    -0.168 F 
ENDBRANCH  15  26
ENDBRANCH  13  15
ENDBRANCH  12  13
ENDBRANCH  10  12
ENDBRANCH   9  10
BRANCH   1  30
HETATM   30  C2  UNL     1      23.100   0.348   4.862  1.00  0.00     0.270 C 
HETATM   31  N1  UNL     1      22.267  -0.814   4.820  1.00  0.00    -0.360 N 
HETATM   32  C1  UNL     1      22.458  -2.038   5.483  1.00  0.00     0.149 C 
ATOM     33  H1  UNL     1      21.432  -0.746   4.238  1.00  0.00     0.162 HD
HETATM   34  O1  UNL     1      24.111   0.370   5.546  1.00  0.00    -0.266 OA
ENDBRANCH   1  30
TORSDOF 8
ENDMDL
MODEL 5
REMARK VINA RESULT: -7.612104754      3.567      6.170
REMARK  8 active torsions:
REMARK  status: ('A' for Active; 'I' for Inactive)
REMARK       I    between atoms: N1_2  and  C2_4 
REMARK    1  A    between atoms: C2_4  and  C3_6 
REMARK    2  A    between atoms: C7_14  and  C8_15 
REMARK    3  A    between atoms: C8_15  and  C9_17 
REMARK    4  A    between atoms: C9_17  and  N5_18 
REMARK    5  A    between atoms: N5_18  and  C10_20 
REMARK    6  A    between atoms: C10_20  and  C11_21 
REMARK    7  A    between atoms: C10_20  and  C18_31 
REMARK       I    between atoms: C11_21  and  N6_23 
REMARK    8  A    between atoms: N6_23  and  C12_25 
ROOT
HETATM    1  C3  UNL     1      23.041   0.135   5.346  1.00  0.00     0.133 A 
HETATM    2  N2  UNL     1      22.935  -0.020   6.677  1.00  0.00    -0.292 N 
ATOM      3  H2  UNL     1      23.244   0.656   7.374  1.00  0.00     0.187 HD
HETATM    4  N3  UNL     1      22.371  -1.181   6.941  1.00  0.00    -0.285 N 
HETATM    5  C4  UNL     1      22.121  -1.834   8.239  1.00  0.00     0.179 C 
HETATM    6  C5  UNL     1      22.080  -1.842   5.767  1.00  0.00     0.147 A 
HETATM    7  C6  UNL     1      21.388  -3.088   5.661  1.00  0.00     0.120 C 
HETATM    8  N4  UNL     1      20.806  -4.099   5.590  1.00  0.00    -0.190 NA
HETATM    9  C7  UNL     1      22.517  -1.006   4.716  1.00  0.00     0.088 A 
ENDROOT
BRANCH   9  10
HETATM   10  C8  UNL     1      22.713  -1.365   3.353  1.00  0.00     0.202 C 
HETATM   11  O2  UNL     1      23.798  -1.912   3.011  1.00  0.00    -0.286 OA
BRANCH  10  12
HETATM   12  C9  UNL     1      21.734  -1.185   2.242  1.00  0.00     0.140 C 
BRANCH  12  13
HETATM   13  N5  UNL     1      21.555   0.145   1.931  1.00  0.00    -0.376 N 
ATOM     14  H5  UNL     1      22.258   0.736   2.376  1.00  0.00     0.160 HD
BRANCH  13  15
HETATM   15  C10 UNL     1      20.689   0.866   1.189  1.00  0.00     0.282 C 
BRANCH  15  16
HETATM   16  C11 UNL     1      20.980   1.097  -0.243  1.00  0.00     0.249 C 
HETATM   17  O3  UNL     1      22.089   1.646  -0.515  1.00  0.00    -0.271 OA
HETATM   18  N6  UNL     1      20.126   0.753  -1.314  1.00  0.00    -0.354 N 
ATOM     19  H6  UNL     1      19.217   0.327  -1.134  1.00  0.00     0.162 HD
BRANCH  18  20
HETATM   20  C12 UNL     1      20.573   1.021  -2.708  1.00  0.00     0.084 C 
HETATM   21  C13 UNL     1      21.124  -0.242  -3.300  1.00  0.00     0.025 C 
HETATM   22  C14 UNL     1      21.523   0.023  -4.714  1.00  0.00     0.002 C 
HETATM   23  C15 UNL     1      20.283   0.419  -5.463  1.00  0.00     0.000 C 
HETATM   24  C16 UNL     1      19.770   1.727  -4.875  1.00  0.00     0.002 C 
HETATM   25  C17 UNL     1      19.315   1.480  -3.457  1.00  0.00     0.025 C 
ENDBRANCH  18  20
ENDBRANCH  15  16
BRANCH  15  26
HETATM   26  C18 UNL     1      20.501   2.216   1.909  1.00  0.00     0.416 C 
HETATM   27  F1  UNL     1      19.605   3.036   1.367  1.00  0.00    -0.168 F 
HETATM   28  F2  UNL     1      21.762   2.801   2.093  1.00  0.00    -0.168 F 
HETATM   29  F3  UNL     1      20.083   1.913   3.196  1.00  0.00    -0.168 F 
ENDBRANCH  15  26
ENDBRANCH  13  15
ENDBRANCH  12  13
ENDBRANCH  10  12
ENDBRANCH   9  10
BRANCH   1  30
HETATM   30  C2  UNL     1      23.505   1.335   4.601  1.00  0.00     0.270 C 
HETATM   31  N1  UNL     1      24.551   1.094   3.656  1.00  0.00    -0.360 N 
HETATM   32  C1  UNL     1      25.171   2.018   2.799  1.00  0.00     0.149 C 
ATOM     33  H1  UNL     1      24.889   0.133   3.597  1.00  0.00     0.162 HD
HETATM   34  O1  UNL     1      23.048   2.456   4.758  1.00  0.00    -0.266 OA
ENDBRANCH   1  30
TORSDOF 8
ENDMDL
