MODEL 1
REMARK VINA RESULT: -6.007282215      0.000      0.000
REMARK  8 active torsions:
REMARK  status: ('A' for Active; 'I' for Inactive)
REMARK    1  A    between atoms: C2_2  and  C3_3 
REMARK    2  A    between atoms: C3_3  and  C4_4 
REMARK       I    between atoms: C4_4  and  N1_6 
REMARK    3  A    between atoms: N1_6  and  C6_8 
REMARK    4  A    between atoms: C6_8  and  C7_9 
REMARK    5  A    between atoms: C6_8  and  C8_11 
REMARK    6  A    between atoms: C8_11  and  C9_13 
REMARK    7  A    between atoms: C13_19  and  N3_20 
REMARK    8  A    between atoms: C13_19  and  C14_24 
ROOT
HETATM    1  C9  UNL     1      -8.819 -26.893   2.764  1.00  0.00     0.104 C 
HETATM    2 BR1  UNL     1      -9.172 -25.708   4.294  1.00  0.00    -0.075 Br
HETATM    3  C10 UNL     1      -7.411 -26.644   2.323  1.00  0.00     0.092 C 
HETATM    4 BR2  UNL     1      -7.017 -26.677   0.460  1.00  0.00    -0.089 Br
HETATM    5  C11 UNL     1      -7.016 -27.889   3.093  1.00  0.00     0.047 A 
HETATM    6  C12 UNL     1      -8.521 -28.289   3.246  1.00  0.00     0.059 A 
HETATM    7  C13 UNL     1      -7.542 -29.209   2.710  1.00  0.00     0.143 A 
ENDROOT
BRANCH   1   8
HETATM    8  C8  UNL     1      -9.901 -26.765   1.795  1.00  0.00     0.198 C 
HETATM    9  O2  UNL     1     -10.219 -27.823   1.205  1.00  0.00    -0.289 OA
BRANCH   8  10
HETATM   10  C6  UNL     1     -10.608 -25.535   1.468  1.00  0.00     0.098 C 
BRANCH  10  11
HETATM   11  N1  UNL     1     -12.021 -25.523   1.476  1.00  0.00    -0.318 N 
HETATM   12  C4  UNL     1     -12.887 -25.846   0.397  1.00  0.00     0.224 C 
HETATM   13  O1  UNL     1     -12.521 -26.230  -0.742  1.00  0.00    -0.273 OA
HETATM   14  C5  UNL     1     -12.709 -25.115   2.722  1.00  0.00     0.159 C 
BRANCH  12  15
HETATM   15  C3  UNL     1     -14.368 -25.743   0.565  1.00  0.00     0.103 C 
BRANCH  15  16
HETATM   16  C2  UNL     1     -15.077 -25.618  -0.764  1.00  0.00     0.005 C 
HETATM   17  C1  UNL     1     -16.576 -25.670  -0.569  1.00  0.00     0.005 C 
ENDBRANCH  15  16
ENDBRANCH  12  15
ENDBRANCH  10  11
BRANCH  10  18
HETATM   18  C7  UNL     1     -10.033 -24.794   0.283  1.00  0.00     0.133 C 
HETATM   19  N2  UNL     1     -10.265 -23.405   0.220  1.00  0.00    -0.113 NA
ENDBRANCH  10  18
ENDBRANCH   8  10
ENDBRANCH   1   8
BRANCH   7  20
HETATM   20  N3  UNL     1      -7.107 -30.269   3.663  1.00  0.00    -0.069 N 
ATOM     21  H33 UNL     1      -7.407 -31.195   3.355  1.00  0.00     0.275 HD
ATOM     22  H32 UNL     1      -6.098 -30.410   3.629  1.00  0.00     0.275 HD
ATOM     23  H31 UNL     1      -7.425 -30.072   4.612  1.00  0.00     0.275 HD
ENDBRANCH   7  20
BRANCH   7  24
HETATM   24  C14 UNL     1      -7.498 -29.760   1.322  1.00  0.00     0.124 C 
HETATM   25 BR3  UNL     1      -5.695 -30.386   0.929  1.00  0.00    -0.094 Br
ENDBRANCH   7  24
TORSDOF 8
ENDMDL
MODEL 2
REMARK VINA RESULT: -5.988421196      2.356      2.857
REMARK  8 active torsions:
REMARK  status: ('A' for Active; 'I' for Inactive)
REMARK    1  A    between atoms: C2_2  and  C3_3 
REMARK    2  A    between atoms: C3_3  and  C4_4 
REMARK       I    between atoms: C4_4  and  N1_6 
REMARK    3  A    between atoms: N1_6  and  C6_8 
REMARK    4  A    between atoms: C6_8  and  C7_9 
REMARK    5  A    between atoms: C6_8  and  C8_11 
REMARK    6  A    between atoms: C8_11  and  C9_13 
REMARK    7  A    between atoms: C13_19  and  N3_20 
REMARK    8  A    between atoms: C13_19  and  C14_24 
ROOT
HETATM    1  C9  UNL     1     -10.482 -26.871   1.080  1.00  0.00     0.104 C 
HETATM    2 BR1  UNL     1     -12.096 -26.144   1.936  1.00  0.00    -0.075 Br
HETATM    3  C10 UNL     1      -9.306 -26.420   1.887  1.00  0.00     0.092 C 
HETATM    4 BR2  UNL     1      -7.699 -25.950   0.980  1.00  0.00    -0.089 Br
HETATM    5  C11 UNL     1      -9.307 -27.789   2.540  1.00  0.00     0.047 A 
HETATM    6  C12 UNL     1     -10.303 -28.320   1.454  1.00  0.00     0.059 A 
HETATM    7  C13 UNL     1      -9.060 -29.002   1.742  1.00  0.00     0.143 A 
ENDROOT
BRANCH   1   8
HETATM    8  C8  UNL     1     -10.519 -26.577  -0.348  1.00  0.00     0.198 C 
HETATM    9  O2  UNL     1      -9.954 -27.420  -1.083  1.00  0.00    -0.289 OA
BRANCH   8  10
HETATM   10  C6  UNL     1     -11.136 -25.409  -0.959  1.00  0.00     0.098 C 
BRANCH  10  11
HETATM   11  N1  UNL     1     -11.857 -25.556  -2.166  1.00  0.00    -0.318 N 
HETATM   12  C4  UNL     1     -13.221 -25.926  -2.310  1.00  0.00     0.224 C 
HETATM   13  O1  UNL     1     -14.019 -26.152  -1.366  1.00  0.00    -0.273 OA
HETATM   14  C5  UNL     1     -11.139 -25.327  -3.441  1.00  0.00     0.159 C 
BRANCH  12  15
HETATM   15  C3  UNL     1     -13.820 -26.075  -3.671  1.00  0.00     0.103 C 
BRANCH  15  16
HETATM   16  C2  UNL     1     -15.206 -26.674  -3.612  1.00  0.00     0.005 C 
HETATM   17  C1  UNL     1     -15.850 -26.651  -4.981  1.00  0.00     0.005 C 
ENDBRANCH  15  16
ENDBRANCH  12  15
ENDBRANCH  10  11
BRANCH  10  18
HETATM   18  C7  UNL     1     -10.256 -24.181  -0.962  1.00  0.00     0.133 C 
HETATM   19  N2  UNL     1     -10.285 -23.368   0.190  1.00  0.00    -0.113 NA
ENDBRANCH  10  18
ENDBRANCH   8  10
ENDBRANCH   1   8
BRANCH   7  20
HETATM   20  N3  UNL     1      -9.211 -30.237   2.563  1.00  0.00    -0.069 N 
ATOM     21  H33 UNL     1      -8.864 -31.059   2.070  1.00  0.00     0.275 HD
ATOM     22  H32 UNL     1      -8.565 -30.241   3.353  1.00  0.00     0.275 HD
ATOM     23  H31 UNL     1     -10.175 -30.366   2.870  1.00  0.00     0.275 HD
ENDBRANCH   7  20
BRANCH   7  24
HETATM   24  C14 UNL     1      -7.900 -29.177   0.818  1.00  0.00     0.124 C 
HETATM   25 BR3  UNL     1      -6.298 -29.576   1.853  1.00  0.00    -0.094 Br
ENDBRANCH   7  24
TORSDOF 8
ENDMDL
MODEL 3
REMARK VINA RESULT: -5.947527080      2.433      3.723
REMARK  8 active torsions:
REMARK  status: ('A' for Active; 'I' for Inactive)
REMARK    1  A    between atoms: C2_2  and  C3_3 
REMARK    2  A    between atoms: C3_3  and  C4_4 
REMARK       I    between atoms: C4_4  and  N1_6 
REMARK    3  A    between atoms: N1_6  and  C6_8 
REMARK    4  A    between atoms: C6_8  and  C7_9 
REMARK    5  A    between atoms: C6_8  and  C8_11 
REMARK    6  A    between atoms: C8_11  and  C9_13 
REMARK    7  A    between atoms: C13_19  and  N3_20 
REMARK    8  A    between atoms: C13_19  and  C14_24 
ROOT
HETATM    1  C9  UNL     1      -9.781 -26.188   1.160  1.00  0.00     0.104 C 
HETATM    2 BR1  UNL     1      -9.715 -24.367   0.421  1.00  0.00    -0.075 Br
HETATM    3  C10 UNL     1      -9.123 -27.097   0.170  1.00  0.00     0.092 C 
HETATM    4 BR2  UNL     1      -9.843 -28.840  -0.092  1.00  0.00    -0.089 Br
HETATM    5  C11 UNL     1      -7.877 -27.031   1.033  1.00  0.00     0.047 A 
HETATM    6  C12 UNL     1      -8.697 -26.370   2.191  1.00  0.00     0.059 A 
HETATM    7  C13 UNL     1      -7.888 -27.550   2.410  1.00  0.00     0.143 A 
ENDROOT
BRANCH   1   8
HETATM    8  C8  UNL     1     -11.140 -26.481   1.600  1.00  0.00     0.198 C 
HETATM    9  O2  UNL     1     -11.289 -27.578   2.186  1.00  0.00    -0.289 OA
BRANCH   8  10
HETATM   10  C6  UNL     1     -12.300 -25.623   1.404  1.00  0.00     0.098 C 
BRANCH  10  11
HETATM   11  N1  UNL     1     -13.011 -25.149   2.529  1.00  0.00    -0.318 N 
HETATM   12  C4  UNL     1     -12.465 -24.597   3.718  1.00  0.00     0.224 C 
HETATM   13  O1  UNL     1     -11.242 -24.414   3.942  1.00  0.00    -0.273 OA
HETATM   14  C5  UNL     1     -14.490 -25.240   2.510  1.00  0.00     0.159 C 
BRANCH  12  15
HETATM   15  C3  UNL     1     -13.365 -24.178   4.835  1.00  0.00     0.103 C 
BRANCH  15  16
HETATM   16  C2  UNL     1     -12.862 -24.665   6.175  1.00  0.00     0.005 C 
HETATM   17  C1  UNL     1     -13.554 -23.927   7.299  1.00  0.00     0.005 C 
ENDBRANCH  15  16
ENDBRANCH  12  15
ENDBRANCH  10  11
BRANCH  10  18
HETATM   18  C7  UNL     1     -13.219 -26.079   0.293  1.00  0.00     0.133 C 
HETATM   19  N2  UNL     1     -12.615 -26.471  -0.919  1.00  0.00    -0.113 NA
ENDBRANCH  10  18
ENDBRANCH   8  10
ENDBRANCH   1   8
BRANCH   7  20
HETATM   20  N3  UNL     1      -6.595 -27.288   3.104  1.00  0.00    -0.069 N 
ATOM     21  H33 UNL     1      -6.680 -27.410   4.113  1.00  0.00     0.275 HD
ATOM     22  H32 UNL     1      -5.914 -28.023   2.913  1.00  0.00     0.275 HD
ATOM     23  H31 UNL     1      -6.225 -26.367   2.870  1.00  0.00     0.275 HD
ENDBRANCH   7  20
BRANCH   7  24
HETATM   24  C14 UNL     1      -8.374 -28.909   2.792  1.00  0.00     0.124 C 
HETATM   25 BR3  UNL     1      -6.852 -30.038   3.248  1.00  0.00    -0.094 Br
ENDBRANCH   7  24
TORSDOF 8
ENDMDL
MODEL 4
REMARK VINA RESULT: -5.906878983      2.417      2.886
REMARK  8 active torsions:
REMARK  status: ('A' for Active; 'I' for Inactive)
REMARK    1  A    between atoms: C2_2  and  C3_3 
REMARK    2  A    between atoms: C3_3  and  C4_4 
REMARK       I    between atoms: C4_4  and  N1_6 
REMARK    3  A    between atoms: N1_6  and  C6_8 
REMARK    4  A    between atoms: C6_8  and  C7_9 
REMARK    5  A    between atoms: C6_8  and  C8_11 
REMARK    6  A    between atoms: C8_11  and  C9_13 
REMARK    7  A    between atoms: C13_19  and  N3_20 
REMARK    8  A    between atoms: C13_19  and  C14_24 
ROOT
HETATM    1  C9  UNL     1     -10.710 -26.615   1.150  1.00  0.00     0.104 C 
HETATM    2 BR1  UNL     1     -11.834 -25.674   2.461  1.00  0.00    -0.075 Br
HETATM    3  C10 UNL     1      -9.285 -26.281   1.461  1.00  0.00     0.092 C 
HETATM    4 BR2  UNL     1      -8.067 -26.035   0.018  1.00  0.00    -0.089 Br
HETATM    5  C11 UNL     1      -9.192 -27.619   2.170  1.00  0.00     0.047 A 
HETATM    6  C12 UNL     1     -10.555 -28.062   1.542  1.00  0.00     0.059 A 
HETATM    7  C13 UNL     1      -9.366 -28.877   1.426  1.00  0.00     0.143 A 
ENDROOT
BRANCH   1   8
HETATM    8  C8  UNL     1     -11.222 -26.365  -0.192  1.00  0.00     0.198 C 
HETATM    9  O2  UNL     1     -10.777 -27.123  -1.085  1.00  0.00    -0.289 OA
BRANCH   8  10
HETATM   10  C6  UNL     1     -12.174 -25.327  -0.559  1.00  0.00     0.098 C 
BRANCH  10  11
HETATM   11  N1  UNL     1     -13.410 -25.691  -1.141  1.00  0.00    -0.318 N 
HETATM   12  C4  UNL     1     -13.641 -26.079  -2.488  1.00  0.00     0.224 C 
HETATM   13  O1  UNL     1     -12.760 -26.190  -3.377  1.00  0.00    -0.273 OA
HETATM   14  C5  UNL     1     -14.620 -25.657  -0.289  1.00  0.00     0.159 C 
BRANCH  12  15
HETATM   15  C3  UNL     1     -15.026 -26.396  -2.951  1.00  0.00     0.103 C 
BRANCH  15  16
HETATM   16  C2  UNL     1     -15.019 -27.253  -4.197  1.00  0.00     0.005 C 
HETATM   17  C1  UNL     1     -15.720 -26.540  -5.331  1.00  0.00     0.005 C 
ENDBRANCH  15  16
ENDBRANCH  12  15
ENDBRANCH  10  11
BRANCH  10  18
HETATM   18  C7  UNL     1     -11.547 -24.133  -1.241  1.00  0.00     0.133 C 
HETATM   19  N2  UNL     1     -10.574 -23.417  -0.514  1.00  0.00    -0.113 NA
ENDBRANCH  10  18
ENDBRANCH   8  10
ENDBRANCH   1   8
BRANCH   7  20
HETATM   20  N3  UNL     1      -9.338 -30.058   2.335  1.00  0.00    -0.069 N 
ATOM     21  H33 UNL     1      -9.621 -30.910   1.850  1.00  0.00     0.275 HD
ATOM     22  H32 UNL     1      -8.383 -30.322   2.575  1.00  0.00     0.275 HD
ATOM     23  H31 UNL     1      -9.902 -29.900   3.171  1.00  0.00     0.275 HD
ENDBRANCH   7  20
BRANCH   7  24
HETATM   24  C14 UNL     1      -8.634 -29.219   0.170  1.00  0.00     0.124 C 
HETATM   25 BR3  UNL     1      -9.684 -30.489  -0.869  1.00  0.00    -0.094 Br
ENDBRANCH   7  24
TORSDOF 8
ENDMDL
MODEL 5
REMARK VINA RESULT: -5.892609204      2.834      4.180
REMARK  8 active torsions:
REMARK  status: ('A' for Active; 'I' for Inactive)
REMARK    1  A    between atoms: C2_2  and  C3_3 
REMARK    2  A    between atoms: C3_3  and  C4_4 
REMARK       I    between atoms: C4_4  and  N1_6 
REMARK    3  A    between atoms: N1_6  and  C6_8 
REMARK    4  A    between atoms: C6_8  and  C7_9 
REMARK    5  A    between atoms: C6_8  and  C8_11 
REMARK    6  A    between atoms: C8_11  and  C9_13 
REMARK    7  A    between atoms: C13_19  and  N3_20 
REMARK    8  A    between atoms: C13_19  and  C14_24 
ROOT
HETATM    1  C9  UNL     1      -8.953 -26.940   0.820  1.00  0.00     0.104 C 
HETATM    2 BR1  UNL     1      -7.539 -25.622   1.181  1.00  0.00    -0.075 Br
HETATM    3  C10 UNL     1      -9.085 -27.058  -0.665  1.00  0.00     0.092 C 
HETATM    4 BR2  UNL     1     -10.821 -27.288  -1.415  1.00  0.00    -0.089 Br
HETATM    5  C11 UNL     1      -8.243 -28.317  -0.577  1.00  0.00     0.047 A 
HETATM    6  C12 UNL     1      -8.414 -28.338   0.979  1.00  0.00     0.059 A 
HETATM    7  C13 UNL     1      -8.726 -29.493   0.166  1.00  0.00     0.143 A 
ENDROOT
BRANCH   1   8
HETATM    8  C8  UNL     1     -10.132 -26.612   1.615  1.00  0.00     0.198 C 
HETATM    9  O2  UNL     1     -10.763 -27.595   2.067  1.00  0.00    -0.289 OA
BRANCH   8  10
HETATM   10  C6  UNL     1     -10.616 -25.269   1.902  1.00  0.00     0.098 C 
BRANCH  10  11
HETATM   11  N1  UNL     1     -11.393 -25.045   3.061  1.00  0.00    -0.318 N 
HETATM   12  C4  UNL     1     -10.918 -24.818   4.381  1.00  0.00     0.224 C 
HETATM   13  O1  UNL     1      -9.710 -24.750   4.719  1.00  0.00    -0.273 OA
HETATM   14  C5  UNL     1     -12.868 -25.060   2.927  1.00  0.00     0.159 C 
BRANCH  12  15
HETATM   15  C3  UNL     1     -11.884 -24.637   5.506  1.00  0.00     0.103 C 
BRANCH  15  16
HETATM   16  C2  UNL     1     -11.548 -23.424   6.345  1.00  0.00     0.005 C 
HETATM   17  C1  UNL     1     -11.835 -23.696   7.804  1.00  0.00     0.005 C 
ENDBRANCH  15  16
ENDBRANCH  12  15
ENDBRANCH  10  11
BRANCH  10  18
HETATM   18  C7  UNL     1     -11.161 -24.543   0.695  1.00  0.00     0.133 C 
HETATM   19  N2  UNL     1     -10.383 -23.489   0.173  1.00  0.00    -0.113 NA
ENDBRANCH  10  18
ENDBRANCH   8  10
ENDBRANCH   1   8
BRANCH   7  20
HETATM   20  N3  UNL     1      -7.698 -30.572   0.210  1.00  0.00    -0.069 N 
ATOM     21  H33 UNL     1      -6.827 -30.275  -0.230  1.00  0.00     0.275 HD
ATOM     22  H32 UNL     1      -7.354 -30.721   1.158  1.00  0.00     0.275 HD
ATOM     23  H31 UNL     1      -8.047 -31.438  -0.200  1.00  0.00     0.275 HD
ENDBRANCH   7  20
BRANCH   7  24
HETATM   24  C14 UNL     1     -10.070 -30.115  -0.028  1.00  0.00     0.124 C 
HETATM   25 BR3  UNL     1     -10.018 -31.308  -1.568  1.00  0.00    -0.094 Br
ENDBRANCH   7  24
TORSDOF 8
ENDMDL
