MODEL 1
REMARK VINA RESULT: -7.133966228      0.000      0.000
REMARK  7 active torsions:
REMARK  status: ('A' for Active; 'I' for Inactive)
REMARK    1  A    between atoms: C3_3  and  C4_4 
REMARK    2  A    between atoms: C4_4  and  N1_5 
REMARK    3  A    between atoms: C6_10  and  N3_11 
REMARK    4  A    between atoms: N3_11  and  C7_13 
REMARK    5  A    between atoms: C7_13  and  C8_14 
REMARK    6  A    between atoms: C8_14  and  N4_15 
REMARK       I    between atoms: N4_15  and  C10_17 
REMARK    7  A    between atoms: C10_17  and  C11_19 
ROOT
HETATM    1  C1  UNL     1     -15.013 -23.801   7.462  1.00  0.00     0.012 C 
HETATM    2  C2  UNL     1     -13.818 -23.842   7.625  1.00  0.00    -0.116 C 
HETATM    3  C3  UNL     1     -12.345 -23.904   7.815  1.00  0.00     0.112 C 
ENDROOT
BRANCH   3   4
HETATM    4  C4  UNL     1     -11.749 -23.295   6.544  1.00  0.00     0.133 C 
BRANCH   4   5
HETATM    5  N1  UNL     1     -10.901 -24.146   5.866  1.00  0.00    -0.374 N 
HETATM    6  C5  UNL     1     -10.814 -24.814   4.824  1.00  0.00     0.137 A 
HETATM    7  N2  UNL     1      -9.673 -25.555   4.588  1.00  0.00    -0.176 N 
HETATM    8  C13 UNL     1     -11.772 -24.894   3.845  1.00  0.00     0.089 A 
HETATM    9  C6  UNL     1      -9.515 -26.298   3.483  1.00  0.00     0.680 A 
ATOM     10  H2  UNL     1      -8.923 -25.538   5.279  1.00  0.00     0.186 HD
HETATM   11  N5  UNL     1     -10.484 -26.346   2.548  1.00  0.00    -0.184 N 
HETATM   12  C12 UNL     1     -11.632 -25.661   2.685  1.00  0.00     0.117 A 
ATOM     13  H5  UNL     1     -10.343 -26.917   1.716  1.00  0.00     0.185 HD
HETATM   14 BR2  UNL     1     -12.994 -25.742   1.348  1.00  0.00    -0.029 Br
HETATM   15 BR3  UNL     1     -13.421 -23.945   3.982  1.00  0.00    -0.044 Br
ATOM     16  H1  UNL     1     -10.048 -24.268   6.412  1.00  0.00     0.161 HD
BRANCH   9  17
HETATM   17  N3  UNL     1      -8.424 -26.960   3.337  1.00  0.00    -0.224 N 
ATOM     18  H3  UNL     1      -7.555 -26.426   3.334  1.00  0.00     0.177 HD
BRANCH  17  19
HETATM   19  C7  UNL     1      -8.320 -28.376   3.179  1.00  0.00     0.158 C 
BRANCH  19  20
HETATM   20  C8  UNL     1      -6.927 -28.855   3.530  1.00  0.00     0.145 C 
BRANCH  20  21
HETATM   21  N4  UNL     1      -6.087 -28.751   2.372  1.00  0.00    -0.354 N 
HETATM   22  C9  UNL     1      -6.052 -29.884   1.468  1.00  0.00     0.152 C 
HETATM   23  C10 UNL     1      -5.298 -27.624   2.058  1.00  0.00     0.229 C 
HETATM   24  O1  UNL     1      -5.276 -26.592   2.805  1.00  0.00    -0.273 OA
BRANCH  23  25
HETATM   25  C11 UNL     1      -4.456 -27.582   0.852  1.00  0.00     0.188 C 
HETATM   26 BR1  UNL     1      -4.369 -25.809   0.086  1.00  0.00    -0.087 Br
ENDBRANCH  23  25
ENDBRANCH  20  21
ENDBRANCH  19  20
ENDBRANCH  17  19
ENDBRANCH   9  17
ENDBRANCH   4   5
ENDBRANCH   3   4
TORSDOF 7
ENDMDL
MODEL 2
REMARK VINA RESULT: -7.035679913      3.337      4.428
REMARK  7 active torsions:
REMARK  status: ('A' for Active; 'I' for Inactive)
REMARK    1  A    between atoms: C3_3  and  C4_4 
REMARK    2  A    between atoms: C4_4  and  N1_5 
REMARK    3  A    between atoms: C6_10  and  N3_11 
REMARK    4  A    between atoms: N3_11  and  C7_13 
REMARK    5  A    between atoms: C7_13  and  C8_14 
REMARK    6  A    between atoms: C8_14  and  N4_15 
REMARK       I    between atoms: N4_15  and  C10_17 
REMARK    7  A    between atoms: C10_17  and  C11_19 
ROOT
HETATM    1  C1  UNL     1     -14.353 -21.077   5.576  1.00  0.00     0.012 C 
HETATM    2  C2  UNL     1     -14.968 -21.825   6.295  1.00  0.00    -0.116 C 
HETATM    3  C3  UNL     1     -15.731 -22.754   7.169  1.00  0.00     0.112 C 
ENDROOT
BRANCH   3   4
HETATM    4  C4  UNL     1     -14.950 -24.070   7.134  1.00  0.00     0.133 C 
BRANCH   4   5
HETATM    5  N1  UNL     1     -14.689 -24.527   5.859  1.00  0.00    -0.374 N 
HETATM    6  C5  UNL     1     -13.754 -24.754   5.075  1.00  0.00     0.137 A 
HETATM    7  N2  UNL     1     -14.033 -25.242   3.813  1.00  0.00    -0.176 N 
HETATM    8  C13 UNL     1     -12.423 -24.565   5.344  1.00  0.00     0.089 A 
HETATM    9  C6  UNL     1     -13.070 -25.510   2.918  1.00  0.00     0.680 A 
ATOM     10  H2  UNL     1     -15.005 -25.404   3.552  1.00  0.00     0.186 HD
HETATM   11  N5  UNL     1     -11.775 -25.307   3.228  1.00  0.00    -0.184 N 
HETATM   12  C12 UNL     1     -11.401 -24.835   4.428  1.00  0.00     0.117 A 
ATOM     13  H5  UNL     1     -11.059 -25.517   2.532  1.00  0.00     0.185 HD
HETATM   14 BR2  UNL     1      -9.558 -24.554   4.848  1.00  0.00    -0.029 Br
HETATM   15 BR3  UNL     1     -11.830 -23.898   7.030  1.00  0.00    -0.044 Br
ATOM     16  H1  UNL     1     -15.571 -24.757   5.401  1.00  0.00     0.161 HD
BRANCH   9  17
HETATM   17  N3  UNL     1     -13.411 -25.961   1.765  1.00  0.00    -0.224 N 
ATOM     18  H3  UNL     1     -14.118 -26.695   1.745  1.00  0.00     0.177 HD
BRANCH  17  19
HETATM   19  C7  UNL     1     -12.887 -25.525   0.509  1.00  0.00     0.158 C 
BRANCH  19  20
HETATM   20  C8  UNL     1     -12.188 -26.662  -0.206  1.00  0.00     0.145 C 
BRANCH  20  21
HETATM   21  N4  UNL     1     -10.785 -26.609   0.083  1.00  0.00    -0.354 N 
HETATM   22  C9  UNL     1      -9.954 -25.804  -0.790  1.00  0.00     0.152 C 
HETATM   23  C10 UNL     1     -10.164 -27.286   1.154  1.00  0.00     0.229 C 
HETATM   24  O1  UNL     1     -10.829 -28.013   1.963  1.00  0.00    -0.273 OA
BRANCH  23  25
HETATM   25  C11 UNL     1      -8.715 -27.189   1.395  1.00  0.00     0.188 C 
HETATM   26 BR1  UNL     1      -8.220 -27.867   3.135  1.00  0.00    -0.087 Br
ENDBRANCH  23  25
ENDBRANCH  20  21
ENDBRANCH  19  20
ENDBRANCH  17  19
ENDBRANCH   9  17
ENDBRANCH   4   5
ENDBRANCH   3   4
TORSDOF 7
ENDMDL
MODEL 3
REMARK VINA RESULT: -6.931560190      3.543      7.809
REMARK  7 active torsions:
REMARK  status: ('A' for Active; 'I' for Inactive)
REMARK    1  A    between atoms: C3_3  and  C4_4 
REMARK    2  A    between atoms: C4_4  and  N1_5 
REMARK    3  A    between atoms: C6_10  and  N3_11 
REMARK    4  A    between atoms: N3_11  and  C7_13 
REMARK    5  A    between atoms: C7_13  and  C8_14 
REMARK    6  A    between atoms: C8_14  and  N4_15 
REMARK       I    between atoms: N4_15  and  C10_17 
REMARK    7  A    between atoms: C10_17  and  C11_19 
ROOT
HETATM    1  C1  UNL     1     -14.450 -26.115  -2.476  1.00  0.00     0.012 C 
HETATM    2  C2  UNL     1     -14.238 -25.927  -1.303  1.00  0.00    -0.116 C 
HETATM    3  C3  UNL     1     -13.970 -25.711   0.143  1.00  0.00     0.112 C 
ENDROOT
BRANCH   3   4
HETATM    4  C4  UNL     1     -12.464 -25.453   0.239  1.00  0.00     0.133 C 
BRANCH   4   5
HETATM    5  N1  UNL     1     -12.043 -25.091   1.501  1.00  0.00    -0.374 N 
HETATM    6  C5  UNL     1     -11.224 -25.394   2.384  1.00  0.00     0.137 A 
HETATM    7  N2  UNL     1     -11.197 -24.670   3.559  1.00  0.00    -0.176 N 
HETATM    8  C13 UNL     1     -10.310 -26.413   2.307  1.00  0.00     0.089 A 
HETATM    9  C6  UNL     1     -10.337 -24.945   4.551  1.00  0.00     0.680 A 
ATOM     10  H2  UNL     1     -11.853 -23.898   3.677  1.00  0.00     0.186 HD
HETATM   11  N5  UNL     1      -9.456 -25.957   4.431  1.00  0.00    -0.184 N 
HETATM   12  C12 UNL     1      -9.404 -26.721   3.327  1.00  0.00     0.117 A 
ATOM     13  H5  UNL     1      -8.812 -26.149   5.198  1.00  0.00     0.185 HD
HETATM   14 BR2  UNL     1      -8.147 -28.152   3.176  1.00  0.00    -0.029 Br
HETATM   15 BR3  UNL     1     -10.187 -27.531   0.766  1.00  0.00    -0.044 Br
ATOM     16  H1  UNL     1     -12.597 -24.296   1.821  1.00  0.00     0.161 HD
BRANCH   9  17
HETATM   17  N3  UNL     1     -10.374 -24.225   5.614  1.00  0.00    -0.224 N 
ATOM     18  H3  UNL     1     -10.215 -24.700   6.502  1.00  0.00     0.177 HD
BRANCH  17  19
HETATM   19  C7  UNL     1     -10.618 -22.818   5.663  1.00  0.00     0.158 C 
BRANCH  19  20
HETATM   20  C8  UNL     1     -11.444 -22.456   6.879  1.00  0.00     0.145 C 
BRANCH  20  21
HETATM   21  N4  UNL     1     -12.831 -22.684   6.591  1.00  0.00    -0.354 N 
HETATM   22  C9  UNL     1     -13.577 -21.594   5.994  1.00  0.00     0.152 C 
HETATM   23  C10 UNL     1     -13.511 -23.893   6.851  1.00  0.00     0.229 C 
HETATM   24  O1  UNL     1     -12.923 -24.894   7.375  1.00  0.00    -0.273 OA
BRANCH  23  25
HETATM   25  C11 UNL     1     -14.938 -24.061   6.532  1.00  0.00     0.188 C 
HETATM   26 BR1  UNL     1     -16.080 -23.526   7.996  1.00  0.00    -0.087 Br
ENDBRANCH  23  25
ENDBRANCH  20  21
ENDBRANCH  19  20
ENDBRANCH  17  19
ENDBRANCH   9  17
ENDBRANCH   4   5
ENDBRANCH   3   4
TORSDOF 7
ENDMDL
MODEL 4
REMARK VINA RESULT: -6.925520370      5.064      6.614
REMARK  7 active torsions:
REMARK  status: ('A' for Active; 'I' for Inactive)
REMARK    1  A    between atoms: C3_3  and  C4_4 
REMARK    2  A    between atoms: C4_4  and  N1_5 
REMARK    3  A    between atoms: C6_10  and  N3_11 
REMARK    4  A    between atoms: N3_11  and  C7_13 
REMARK    5  A    between atoms: C7_13  and  C8_14 
REMARK    6  A    between atoms: C8_14  and  N4_15 
REMARK       I    between atoms: N4_15  and  C10_17 
REMARK    7  A    between atoms: C10_17  and  C11_19 
ROOT
HETATM    1  C1  UNL     1     -14.342 -21.018   5.584  1.00  0.00     0.012 C 
HETATM    2  C2  UNL     1     -14.935 -21.803   6.282  1.00  0.00    -0.116 C 
HETATM    3  C3  UNL     1     -15.670 -22.778   7.130  1.00  0.00     0.112 C 
ENDROOT
BRANCH   3   4
HETATM    4  C4  UNL     1     -14.840 -24.062   7.079  1.00  0.00     0.133 C 
BRANCH   4   5
HETATM    5  N1  UNL     1     -14.644 -24.545   5.802  1.00  0.00    -0.374 N 
HETATM    6  C5  UNL     1     -13.750 -24.806   4.981  1.00  0.00     0.137 A 
HETATM    7  N2  UNL     1     -14.095 -25.309   3.742  1.00  0.00    -0.176 N 
HETATM    8  C13 UNL     1     -12.405 -24.638   5.187  1.00  0.00     0.089 A 
HETATM    9  C6  UNL     1     -13.178 -25.612   2.810  1.00  0.00     0.680 A 
ATOM     10  H2  UNL     1     -15.080 -25.457   3.527  1.00  0.00     0.186 HD
HETATM   11  N5  UNL     1     -11.867 -25.430   3.058  1.00  0.00    -0.184 N 
HETATM   12  C12 UNL     1     -11.430 -24.945   4.232  1.00  0.00     0.117 A 
ATOM     13  H5  UNL     1     -11.187 -25.667   2.335  1.00  0.00     0.185 HD
HETATM   14 BR2  UNL     1      -9.565 -24.695   4.564  1.00  0.00    -0.029 Br
HETATM   15 BR3  UNL     1     -11.724 -23.955   6.832  1.00  0.00    -0.044 Br
ATOM     16  H1  UNL     1     -15.550 -24.766   5.387  1.00  0.00     0.161 HD
BRANCH   9  17
HETATM   17  N3  UNL     1     -13.578 -26.076   1.682  1.00  0.00    -0.224 N 
ATOM     18  H3  UNL     1     -14.304 -26.792   1.706  1.00  0.00     0.177 HD
BRANCH  17  19
HETATM   19  C7  UNL     1     -13.098 -25.678   0.396  1.00  0.00     0.158 C 
BRANCH  19  20
HETATM   20  C8  UNL     1     -14.222 -25.668  -0.619  1.00  0.00     0.145 C 
BRANCH  20  21
HETATM   21  N4  UNL     1     -13.718 -26.116  -1.884  1.00  0.00    -0.354 N 
HETATM   22  C9  UNL     1     -12.281 -26.241  -2.025  1.00  0.00     0.152 C 
HETATM   23  C10 UNL     1     -14.527 -26.440  -2.995  1.00  0.00     0.229 C 
HETATM   24  O1  UNL     1     -15.797 -26.354  -2.947  1.00  0.00    -0.273 OA
BRANCH  23  25
HETATM   25  C11 UNL     1     -13.945 -26.895  -4.268  1.00  0.00     0.188 C 
HETATM   26 BR1  UNL     1     -15.173 -26.687  -5.745  1.00  0.00    -0.087 Br
ENDBRANCH  23  25
ENDBRANCH  20  21
ENDBRANCH  19  20
ENDBRANCH  17  19
ENDBRANCH   9  17
ENDBRANCH   4   5
ENDBRANCH   3   4
TORSDOF 7
ENDMDL
MODEL 5
REMARK VINA RESULT: -6.921382583      2.781      4.415
REMARK  7 active torsions:
REMARK  status: ('A' for Active; 'I' for Inactive)
REMARK    1  A    between atoms: C3_3  and  C4_4 
REMARK    2  A    between atoms: C4_4  and  N1_5 
REMARK    3  A    between atoms: C6_10  and  N3_11 
REMARK    4  A    between atoms: N3_11  and  C7_13 
REMARK    5  A    between atoms: C7_13  and  C8_14 
REMARK    6  A    between atoms: C8_14  and  N4_15 
REMARK       I    between atoms: N4_15  and  C10_17 
REMARK    7  A    between atoms: C10_17  and  C11_19 
ROOT
HETATM    1  C1  UNL     1     -12.585 -26.316   0.087  1.00  0.00     0.012 C 
HETATM    2  C2  UNL     1     -13.546 -25.862   0.659  1.00  0.00    -0.116 C 
HETATM    3  C3  UNL     1     -14.734 -25.318   1.368  1.00  0.00     0.112 C 
ENDROOT
BRANCH   3   4
HETATM    4  C4  UNL     1     -14.359 -25.335   2.851  1.00  0.00     0.133 C 
BRANCH   4   5
HETATM    5  N1  UNL     1     -13.009 -25.506   3.080  1.00  0.00    -0.374 N 
HETATM    6  C5  UNL     1     -12.077 -25.093   3.789  1.00  0.00     0.137 A 
HETATM    7  N2  UNL     1     -10.813 -25.623   3.620  1.00  0.00    -0.176 N 
HETATM    8  C13 UNL     1     -12.179 -24.129   4.758  1.00  0.00     0.089 A 
HETATM    9  C6  UNL     1      -9.763 -25.222   4.353  1.00  0.00     0.680 A 
ATOM     10  H2  UNL     1     -10.672 -26.345   2.914  1.00  0.00     0.186 HD
HETATM   11  N5  UNL     1      -9.912 -24.270   5.295  1.00  0.00    -0.184 N 
HETATM   12  C12 UNL     1     -11.101 -23.693   5.534  1.00  0.00     0.117 A 
ATOM     13  H5  UNL     1      -9.100 -23.979   5.840  1.00  0.00     0.185 HD
HETATM   14 BR2  UNL     1     -11.291 -22.344   6.874  1.00  0.00    -0.029 Br
HETATM   15 BR3  UNL     1     -13.840 -23.273   5.145  1.00  0.00    -0.044 Br
ATOM     16  H1  UNL     1     -12.653 -26.223   2.447  1.00  0.00     0.161 HD
BRANCH   9  17
HETATM   17  N3  UNL     1      -8.619 -25.763   4.136  1.00  0.00    -0.224 N 
ATOM     18  H3  UNL     1      -7.913 -25.662   4.865  1.00  0.00     0.177 HD
BRANCH  17  19
HETATM   19  C7  UNL     1      -8.248 -26.493   2.965  1.00  0.00     0.158 C 
BRANCH  19  20
HETATM   20  C8  UNL     1      -8.053 -27.960   3.285  1.00  0.00     0.145 C 
BRANCH  20  21
HETATM   21  N4  UNL     1      -8.336 -28.740   2.116  1.00  0.00    -0.354 N 
HETATM   22  C9  UNL     1      -7.220 -29.399   1.467  1.00  0.00     0.152 C 
HETATM   23  C10 UNL     1      -9.623 -28.906   1.559  1.00  0.00     0.229 C 
HETATM   24  O1  UNL     1     -10.651 -28.357   2.074  1.00  0.00    -0.273 OA
BRANCH  23  25
HETATM   25  C11 UNL     1      -9.844 -29.721   0.354  1.00  0.00     0.188 C 
HETATM   26 BR1  UNL     1      -9.865 -28.651  -1.255  1.00  0.00    -0.087 Br
ENDBRANCH  23  25
ENDBRANCH  20  21
ENDBRANCH  19  20
ENDBRANCH  17  19
ENDBRANCH   9  17
ENDBRANCH   4   5
ENDBRANCH   3   4
TORSDOF 7
ENDMDL
