MODEL 1
REMARK VINA RESULT: -6.185505667      0.000      0.000
REMARK  8 active torsions:
REMARK  status: ('A' for Active; 'I' for Inactive)
REMARK    1  A    between atoms: C1_2  and  C2_3 
REMARK       I    between atoms: C1_2  and  N1_9 
REMARK    2  A    between atoms: C2_3  and  C3_4 
REMARK    3  A    between atoms: C2_3  and  C4_6 
REMARK    4  A    between atoms: N1_9  and  C5_11 
REMARK    5  A    between atoms: C5_11  and  C6_12 
REMARK    6  A    between atoms: C6_12  and  N2_13 
REMARK    7  A    between atoms: C10_17  and  O2_18 
REMARK    8  A    between atoms: C11_20  and  O3_21 
ROOT
HETATM    1  C5  UNL     1     -13.377 -24.242   3.856  1.00  0.00     0.168 C 
ENDROOT
BRANCH   1   2
HETATM    2  N1  UNL     1     -12.678 -24.930   2.802  1.00  0.00    -0.282 N 
HETATM    3  C1  UNL     1     -11.272 -25.051   2.778  1.00  0.00     0.236 C 
HETATM    4  O1  UNL     1     -10.532 -24.533   3.677  1.00  0.00    -0.272 OA
HETATM    5 BR3  UNL     1     -13.697 -25.691   1.412  1.00  0.00     0.052 Br
BRANCH   3   6
HETATM    6  C2  UNL     1     -10.563 -25.799   1.691  1.00  0.00     0.113 C 
BRANCH   6   7
HETATM    7  C3  UNL     1      -9.698 -24.852   0.897  1.00  0.00     0.102 C 
HETATM    8  S1  UNL     1     -10.615 -24.226  -0.513  1.00  0.00    -0.097 SA
ENDBRANCH   6   7
BRANCH   6   9
HETATM    9  C4  UNL     1      -9.713 -26.894   2.311  1.00  0.00     0.143 C 
HETATM   10 BR1  UNL     1      -7.825 -26.430   2.125  1.00  0.00    -0.078 Br
HETATM   11 BR2  UNL     1     -10.009 -28.638   1.588  1.00  0.00    -0.078 Br
ENDBRANCH   6   9
ENDBRANCH   3   6
ENDBRANCH   1   2
BRANCH   1  12
HETATM   12  C6  UNL     1     -13.373 -24.973   5.161  1.00  0.00     0.262 C 
BRANCH  12  13
HETATM   13  N2  UNL     1     -13.224 -24.016   6.228  1.00  0.00    -0.029 N 
HETATM   14  C7  UNL     1     -14.356 -23.329   6.769  1.00  0.00     0.274 A 
HETATM   15  C8  UNL     1     -13.295 -22.613   5.965  1.00  0.00     0.222 A 
HETATM   16  C9  UNL     1     -12.195 -21.933   6.729  1.00  0.00     0.071 C 
HETATM   17  C10 UNL     1     -11.900 -22.914   7.847  1.00  0.00     0.176 C 
HETATM   18  C11 UNL     1     -12.147 -24.237   7.175  1.00  0.00     0.353 C 
BRANCH  17  19
HETATM   19  O2  UNL     1     -10.566 -22.815   8.269  1.00  0.00    -0.391 OA
ATOM     20  H2  UNL     1     -10.311 -23.574   8.779  1.00  0.00     0.210 HD
ENDBRANCH  17  19
BRANCH  18  21
HETATM   21  O3  UNL     1     -10.971 -24.588   6.496  1.00  0.00    -0.367 OA
ATOM     22  H3  UNL     1     -10.512 -25.272   6.969  1.00  0.00     0.212 HD
ENDBRANCH  18  21
ENDBRANCH  12  13
ENDBRANCH   1  12
TORSDOF 8
ENDMDL
MODEL 2
REMARK VINA RESULT: -6.084576642      2.157      2.609
REMARK  8 active torsions:
REMARK  status: ('A' for Active; 'I' for Inactive)
REMARK    1  A    between atoms: C1_2  and  C2_3 
REMARK       I    between atoms: C1_2  and  N1_9 
REMARK    2  A    between atoms: C2_3  and  C3_4 
REMARK    3  A    between atoms: C2_3  and  C4_6 
REMARK    4  A    between atoms: N1_9  and  C5_11 
REMARK    5  A    between atoms: C5_11  and  C6_12 
REMARK    6  A    between atoms: C6_12  and  N2_13 
REMARK    7  A    between atoms: C10_17  and  O2_18 
REMARK    8  A    between atoms: C11_20  and  O3_21 
ROOT
HETATM    1  C5  UNL     1     -11.218 -24.391   4.618  1.00  0.00     0.168 C 
ENDROOT
BRANCH   1   2
HETATM    2  N1  UNL     1     -10.846 -25.187   3.477  1.00  0.00    -0.282 N 
HETATM    3  C1  UNL     1      -9.552 -25.729   3.321  1.00  0.00     0.236 C 
HETATM    4  O1  UNL     1      -8.624 -25.523   4.170  1.00  0.00    -0.272 OA
HETATM    5 BR3  UNL     1     -12.150 -25.506   2.154  1.00  0.00     0.052 Br
BRANCH   3   6
HETATM    6  C2  UNL     1      -9.192 -26.583   2.144  1.00  0.00     0.113 C 
BRANCH   6   7
HETATM    7  C3  UNL     1      -7.981 -26.011   1.448  1.00  0.00     0.102 C 
HETATM    8  S1  UNL     1      -8.398 -25.576  -0.242  1.00  0.00    -0.097 SA
ENDBRANCH   6   7
BRANCH   6   9
HETATM    9  C4  UNL     1      -8.907 -27.996   2.621  1.00  0.00     0.143 C 
HETATM   10 BR1  UNL     1      -6.989 -28.343   2.504  1.00  0.00    -0.078 Br
HETATM   11 BR2  UNL     1      -9.854 -29.361   1.677  1.00  0.00    -0.078 Br
ENDBRANCH   6   9
ENDBRANCH   3   6
ENDBRANCH   1   2
BRANCH   1  12
HETATM   12  C6  UNL     1     -12.407 -24.917   5.359  1.00  0.00     0.262 C 
BRANCH  12  13
HETATM   13  N2  UNL     1     -13.058 -23.820   6.028  1.00  0.00    -0.029 N 
HETATM   14  C7  UNL     1     -12.574 -23.324   7.280  1.00  0.00     0.274 A 
HETATM   15  C8  UNL     1     -13.893 -24.052   7.165  1.00  0.00     0.222 A 
HETATM   16  C9  UNL     1     -15.131 -23.214   7.020  1.00  0.00     0.071 C 
HETATM   17  C10 UNL     1     -14.685 -22.106   6.086  1.00  0.00     0.176 C 
HETATM   18  C11 UNL     1     -13.706 -22.823   5.198  1.00  0.00     0.353 C 
BRANCH  17  19
HETATM   19  O2  UNL     1     -15.762 -21.610   5.337  1.00  0.00    -0.391 OA
ATOM     20  H2  UNL     1     -16.294 -21.016   5.853  1.00  0.00     0.210 HD
ENDBRANCH  17  19
BRANCH  18  21
HETATM   21  O3  UNL     1     -14.443 -23.445   4.179  1.00  0.00    -0.367 OA
ATOM     22  H3  UNL     1     -15.373 -23.388   4.366  1.00  0.00     0.212 HD
ENDBRANCH  18  21
ENDBRANCH  12  13
ENDBRANCH   1  12
TORSDOF 8
ENDMDL
MODEL 3
REMARK VINA RESULT: -6.019088428      2.504      3.009
REMARK  8 active torsions:
REMARK  status: ('A' for Active; 'I' for Inactive)
REMARK    1  A    between atoms: C1_2  and  C2_3 
REMARK       I    between atoms: C1_2  and  N1_9 
REMARK    2  A    between atoms: C2_3  and  C3_4 
REMARK    3  A    between atoms: C2_3  and  C4_6 
REMARK    4  A    between atoms: N1_9  and  C5_11 
REMARK    5  A    between atoms: C5_11  and  C6_12 
REMARK    6  A    between atoms: C6_12  and  N2_13 
REMARK    7  A    between atoms: C10_17  and  O2_18 
REMARK    8  A    between atoms: C11_20  and  O3_21 
ROOT
HETATM    1  C5  UNL     1     -10.878 -24.484   4.744  1.00  0.00     0.168 C 
ENDROOT
BRANCH   1   2
HETATM    2  N1  UNL     1     -10.479 -24.981   3.453  1.00  0.00    -0.282 N 
HETATM    3  C1  UNL     1      -9.609 -26.082   3.301  1.00  0.00     0.236 C 
HETATM    4  O1  UNL     1      -9.100 -26.687   4.300  1.00  0.00    -0.272 OA
HETATM    5 BR3  UNL     1     -11.156 -24.116   1.922  1.00  0.00     0.052 Br
BRANCH   3   6
HETATM    6  C2  UNL     1      -9.231 -26.607   1.950  1.00  0.00     0.113 C 
BRANCH   6   7
HETATM    7  C3  UNL     1      -7.866 -27.246   2.012  1.00  0.00     0.102 C 
HETATM    8  S1  UNL     1      -6.601 -26.014   1.690  1.00  0.00    -0.097 SA
ENDBRANCH   6   7
BRANCH   6   9
HETATM    9  C4  UNL     1     -10.267 -27.623   1.501  1.00  0.00     0.143 C 
HETATM   10 BR1  UNL     1      -9.588 -29.425   1.822  1.00  0.00    -0.078 Br
HETATM   11 BR2  UNL     1     -10.798 -27.464  -0.328  1.00  0.00    -0.078 Br
ENDBRANCH   6   9
ENDBRANCH   3   6
ENDBRANCH   1   2
BRANCH   1  12
HETATM   12  C6  UNL     1     -12.236 -24.939   5.173  1.00  0.00     0.262 C 
BRANCH  12  13
HETATM   13  N2  UNL     1     -12.881 -23.867   5.888  1.00  0.00    -0.029 N 
HETATM   14  C7  UNL     1     -12.332 -23.355   7.107  1.00  0.00     0.274 A 
HETATM   15  C8  UNL     1     -13.629 -24.129   7.078  1.00  0.00     0.222 A 
HETATM   16  C9  UNL     1     -14.903 -23.336   7.019  1.00  0.00     0.071 C 
HETATM   17  C10 UNL     1     -14.560 -22.212   6.061  1.00  0.00     0.176 C 
HETATM   18  C11 UNL     1     -13.617 -22.892   5.107  1.00  0.00     0.353 C 
BRANCH  17  19
HETATM   19  O2  UNL     1     -15.702 -21.755   5.386  1.00  0.00    -0.391 OA
ATOM     20  H2  UNL     1     -15.924 -20.870   5.650  1.00  0.00     0.210 HD
ENDBRANCH  17  19
BRANCH  18  21
HETATM   21  O3  UNL     1     -14.398 -23.540   4.137  1.00  0.00    -0.367 OA
ATOM     22  H3  UNL     1     -14.842 -22.900   3.594  1.00  0.00     0.212 HD
ENDBRANCH  18  21
ENDBRANCH  12  13
ENDBRANCH   1  12
TORSDOF 8
ENDMDL
MODEL 4
REMARK VINA RESULT: -5.980000114      2.008      2.391
REMARK  8 active torsions:
REMARK  status: ('A' for Active; 'I' for Inactive)
REMARK    1  A    between atoms: C1_2  and  C2_3 
REMARK       I    between atoms: C1_2  and  N1_9 
REMARK    2  A    between atoms: C2_3  and  C3_4 
REMARK    3  A    between atoms: C2_3  and  C4_6 
REMARK    4  A    between atoms: N1_9  and  C5_11 
REMARK    5  A    between atoms: C5_11  and  C6_12 
REMARK    6  A    between atoms: C6_12  and  N2_13 
REMARK    7  A    between atoms: C10_17  and  O2_18 
REMARK    8  A    between atoms: C11_20  and  O3_21 
ROOT
HETATM    1  C5  UNL     1     -11.784 -25.483   2.680  1.00  0.00     0.168 C 
ENDROOT
BRANCH   1   2
HETATM    2  N1  UNL     1     -10.576 -25.916   2.026  1.00  0.00    -0.282 N 
HETATM    3  C1  UNL     1      -9.471 -26.430   2.737  1.00  0.00     0.236 C 
HETATM    4  O1  UNL     1      -9.464 -26.518   4.008  1.00  0.00    -0.272 OA
HETATM    5 BR3  UNL     1     -10.489 -25.782   0.148  1.00  0.00     0.052 Br
BRANCH   3   6
HETATM    6  C2  UNL     1      -8.236 -26.907   2.036  1.00  0.00     0.113 C 
BRANCH   6   7
HETATM    7  C3  UNL     1      -7.096 -25.954   2.301  1.00  0.00     0.102 C 
HETATM    8  S1  UNL     1      -6.623 -25.130   0.779  1.00  0.00    -0.097 SA
ENDBRANCH   6   7
BRANCH   6   9
HETATM    9  C4  UNL     1      -7.885 -28.298   2.534  1.00  0.00     0.143 C 
HETATM   10 BR1  UNL     1      -6.162 -28.836   1.787  1.00  0.00    -0.078 Br
HETATM   11 BR2  UNL     1      -9.190 -29.638   2.140  1.00  0.00    -0.078 Br
ENDBRANCH   6   9
ENDBRANCH   3   6
ENDBRANCH   1   2
BRANCH   1  12
HETATM   12  C6  UNL     1     -11.629 -24.212   3.453  1.00  0.00     0.262 C 
BRANCH  12  13
HETATM   13  N2  UNL     1     -12.423 -24.298   4.652  1.00  0.00    -0.029 N 
HETATM   14  C7  UNL     1     -13.843 -24.468   4.588  1.00  0.00     0.274 A 
HETATM   15  C8  UNL     1     -13.213 -23.188   5.085  1.00  0.00     0.222 A 
HETATM   16  C9  UNL     1     -13.040 -23.037   6.570  1.00  0.00     0.071 C 
HETATM   17  C10 UNL     1     -12.610 -24.424   7.004  1.00  0.00     0.176 C 
HETATM   18  C11 UNL     1     -11.802 -24.885   5.823  1.00  0.00     0.353 C 
BRANCH  17  19
HETATM   19  O2  UNL     1     -11.813 -24.369   8.158  1.00  0.00    -0.391 OA
ATOM     20  H2  UNL     1     -11.669 -25.237   8.516  1.00  0.00     0.210 HD
ENDBRANCH  17  19
BRANCH  18  21
HETATM   21  O3  UNL     1     -10.502 -24.383   5.984  1.00  0.00    -0.367 OA
ATOM     22  H3  UNL     1     -10.024 -24.443   5.165  1.00  0.00     0.212 HD
ENDBRANCH  18  21
ENDBRANCH  12  13
ENDBRANCH   1  12
TORSDOF 8
ENDMDL
MODEL 5
REMARK VINA RESULT: -5.954689244      2.321      3.446
REMARK  8 active torsions:
REMARK  status: ('A' for Active; 'I' for Inactive)
REMARK    1  A    between atoms: C1_2  and  C2_3 
REMARK       I    between atoms: C1_2  and  N1_9 
REMARK    2  A    between atoms: C2_3  and  C3_4 
REMARK    3  A    between atoms: C2_3  and  C4_6 
REMARK    4  A    between atoms: N1_9  and  C5_11 
REMARK    5  A    between atoms: C5_11  and  C6_12 
REMARK    6  A    between atoms: C6_12  and  N2_13 
REMARK    7  A    between atoms: C10_17  and  O2_18 
REMARK    8  A    between atoms: C11_20  and  O3_21 
ROOT
HETATM    1  C5  UNL     1     -10.609 -24.977   5.198  1.00  0.00     0.168 C 
ENDROOT
BRANCH   1   2
HETATM    2  N1  UNL     1     -10.310 -25.310   3.830  1.00  0.00    -0.282 N 
HETATM    3  C1  UNL     1     -11.288 -25.289   2.813  1.00  0.00     0.236 C 
HETATM    4  O1  UNL     1     -12.506 -24.999   3.050  1.00  0.00    -0.272 OA
HETATM    5 BR3  UNL     1      -8.538 -25.789   3.402  1.00  0.00     0.052 Br
BRANCH   3   6
HETATM    6  C2  UNL     1     -10.951 -25.606   1.388  1.00  0.00     0.113 C 
BRANCH   6   7
HETATM    7  C3  UNL     1     -11.180 -27.074   1.122  1.00  0.00     0.102 C 
HETATM    8  S1  UNL     1      -9.790 -27.752   0.212  1.00  0.00    -0.097 SA
ENDBRANCH   6   7
BRANCH   6   9
HETATM    9  C4  UNL     1     -11.818 -24.763   0.470  1.00  0.00     0.143 C 
HETATM   10 BR1  UNL     1     -13.249 -25.870  -0.264  1.00  0.00    -0.078 Br
HETATM   11 BR2  UNL     1     -10.876 -23.917  -0.961  1.00  0.00    -0.078 Br
ENDBRANCH   6   9
ENDBRANCH   3   6
ENDBRANCH   1   2
BRANCH   1  12
HETATM   12  C6  UNL     1     -10.987 -23.544   5.402  1.00  0.00     0.262 C 
BRANCH  12  13
HETATM   13  N2  UNL     1     -12.074 -23.481   6.347  1.00  0.00    -0.029 N 
HETATM   14  C7  UNL     1     -11.854 -23.702   7.743  1.00  0.00     0.274 A 
HETATM   15  C8  UNL     1     -12.635 -24.676   6.893  1.00  0.00     0.222 A 
HETATM   16  C9  UNL     1     -14.131 -24.539   6.889  1.00  0.00     0.071 C 
HETATM   17  C10 UNL     1     -14.335 -23.037   6.870  1.00  0.00     0.176 C 
HETATM   18  C11 UNL     1     -13.165 -22.574   6.048  1.00  0.00     0.353 C 
BRANCH  17  19
HETATM   19  O2  UNL     1     -15.545 -22.698   6.245  1.00  0.00    -0.391 OA
ATOM     20  H2  UNL     1     -15.620 -21.758   6.131  1.00  0.00     0.210 HD
ENDBRANCH  17  19
BRANCH  18  21
HETATM   21  O3  UNL     1     -13.531 -22.686   4.698  1.00  0.00    -0.367 OA
ATOM     22  H3  UNL     1     -14.476 -22.749   4.619  1.00  0.00     0.212 HD
ENDBRANCH  18  21
ENDBRANCH  12  13
ENDBRANCH   1  12
TORSDOF 8
ENDMDL
