MODEL 1
REMARK VINA RESULT: -6.437331837      0.000      0.000
REMARK  6 active torsions:
REMARK  status: ('A' for Active; 'I' for Inactive)
REMARK    1  A    between atoms: C2_2  and  C3_3 
REMARK    2  A    between atoms: C3_3  and  N1_4 
REMARK       I    between atoms: N1_4  and  C4_6 
REMARK    3  A    between atoms: C4_6  and  C5_8 
REMARK    4  A    between atoms: C6_11  and  N3_12 
REMARK    5  A    between atoms: C6_11  and  C10_19 
REMARK       I    between atoms: N3_12  and  C7_14 
REMARK    6  A    between atoms: C7_14  and  C8_16 
REMARK       I    between atoms: C10_19  and  N4_21 
ROOT
HETATM    1  C5  UNL     1     -11.257 -26.016   1.967  1.00  0.00     0.106 C 
HETATM    2  N2  UNL     1     -10.471 -27.018   2.154  1.00  0.00    -0.353 N 
ATOM      3  H2  UNL     1     -10.404 -27.498   3.051  1.00  0.00     0.162 HD
HETATM    4  C6  UNL     1      -9.710 -27.404   1.030  1.00  0.00     0.192 C 
HETATM    5  C12 UNL     1     -10.244 -26.573  -0.101  1.00  0.00     0.104 C 
HETATM    6  C13 UNL     1     -11.130 -25.585   0.573  1.00  0.00     0.127 C 
HETATM    7 BR2  UNL     1     -10.458 -23.778   0.453  1.00  0.00    -0.066 Br
HETATM    8 BR3  UNL     1     -12.902 -25.683  -0.239  1.00  0.00    -0.066 Br
ENDROOT
BRANCH   4   9
HETATM    9  N3  UNL     1      -8.280 -27.169   1.211  1.00  0.00    -0.322 N 
HETATM   10  C7  UNL     1      -7.574 -27.388   2.412  1.00  0.00     0.260 C 
HETATM   11  O2  UNL     1      -8.157 -27.826   3.442  1.00  0.00    -0.267 OA
ATOM     12  H3  UNL     1      -7.753 -26.820   0.410  1.00  0.00     0.165 HD
BRANCH  10  13
HETATM   13  C8  UNL     1      -6.157 -27.112   2.475  1.00  0.00     0.069 C 
HETATM   14  C9  UNL     1      -5.370 -27.454   3.471  1.00  0.00     0.037 C 
HETATM   15 BR1  UNL     1      -5.355 -26.175   0.995  1.00  0.00    -0.046 Br
ENDBRANCH  10  13
ENDBRANCH   4   9
BRANCH   4  16
HETATM   16  C10 UNL     1      -9.881 -28.860   0.744  1.00  0.00     0.266 C 
HETATM   17  O3  UNL     1     -10.191 -29.623   1.681  1.00  0.00    -0.269 OA
HETATM   18  N4  UNL     1      -9.688 -29.344  -0.589  1.00  0.00    -0.362 N 
HETATM   19  C11 UNL     1      -9.858 -30.755  -0.845  1.00  0.00     0.149 C 
ATOM     20  H4  UNL     1      -9.436 -28.705  -1.343  1.00  0.00     0.162 HD
ENDBRANCH   4  16
BRANCH   1  21
HETATM   21  C4  UNL     1     -12.140 -25.444   3.007  1.00  0.00     0.266 C 
HETATM   22  N1  UNL     1     -11.774 -24.289   3.692  1.00  0.00    -0.352 N 
ATOM     23  H1  UNL     1     -10.882 -23.848   3.468  1.00  0.00     0.163 HD
HETATM   24  O1  UNL     1     -13.214 -26.022   3.248  1.00  0.00    -0.266 OA
BRANCH  22  25
HETATM   25  C3  UNL     1     -12.617 -23.685   4.718  1.00  0.00     0.149 C 
BRANCH  25  26
HETATM   26  C2  UNL     1     -12.162 -24.124   6.064  1.00  0.00    -0.018 C 
HETATM   27  C1  UNL     1     -13.002 -24.513   7.000  1.00  0.00     0.008 C 
ENDBRANCH  25  26
ENDBRANCH  22  25
ENDBRANCH   1  21
TORSDOF 6
ENDMDL
MODEL 2
REMARK VINA RESULT: -6.334736104      2.534      6.505
REMARK  6 active torsions:
REMARK  status: ('A' for Active; 'I' for Inactive)
REMARK    1  A    between atoms: C2_2  and  C3_3 
REMARK    2  A    between atoms: C3_3  and  N1_4 
REMARK       I    between atoms: N1_4  and  C4_6 
REMARK    3  A    between atoms: C4_6  and  C5_8 
REMARK    4  A    between atoms: C6_11  and  N3_12 
REMARK    5  A    between atoms: C6_11  and  C10_19 
REMARK       I    between atoms: N3_12  and  C7_14 
REMARK    6  A    between atoms: C7_14  and  C8_16 
REMARK       I    between atoms: C10_19  and  N4_21 
ROOT
HETATM    1  C5  UNL     1     -10.249 -27.619   1.468  1.00  0.00     0.106 C 
HETATM    2  N2  UNL     1     -11.352 -27.275   2.032  1.00  0.00    -0.353 N 
ATOM      3  H2  UNL     1     -11.816 -27.862   2.725  1.00  0.00     0.162 HD
HETATM    4  C6  UNL     1     -11.875 -26.029   1.625  1.00  0.00     0.192 C 
HETATM    5  C12 UNL     1     -10.807 -25.430   0.755  1.00  0.00     0.104 C 
HETATM    6  C13 UNL     1      -9.845 -26.547   0.554  1.00  0.00     0.127 C 
HETATM    7 BR2  UNL     1      -9.791 -27.165  -1.276  1.00  0.00    -0.066 Br
HETATM    8 BR3  UNL     1      -8.069 -25.945   1.098  1.00  0.00    -0.066 Br
ENDROOT
BRANCH   4   9
HETATM    9  N3  UNL     1     -13.128 -26.158   0.886  1.00  0.00    -0.322 N 
HETATM   10  C7  UNL     1     -13.401 -25.538  -0.350  1.00  0.00     0.260 C 
HETATM   11  O2  UNL     1     -12.541 -24.811  -0.920  1.00  0.00    -0.267 OA
ATOM     12  H3  UNL     1     -13.859 -26.740   1.295  1.00  0.00     0.165 HD
BRANCH  10  13
HETATM   13  C8  UNL     1     -14.684 -25.733  -0.986  1.00  0.00     0.069 C 
HETATM   14  C9  UNL     1     -15.846 -25.495  -0.419  1.00  0.00     0.037 C 
HETATM   15 BR1  UNL     1     -14.700 -26.387  -2.798  1.00  0.00    -0.046 Br
ENDBRANCH  10  13
ENDBRANCH   4   9
BRANCH   4  16
HETATM   16  C10 UNL     1     -12.150 -25.154   2.803  1.00  0.00     0.266 C 
HETATM   17  O3  UNL     1     -11.398 -24.181   3.018  1.00  0.00    -0.269 OA
HETATM   18  N4  UNL     1     -13.263 -25.447   3.654  1.00  0.00    -0.362 N 
HETATM   19  C11 UNL     1     -13.513 -24.589   4.788  1.00  0.00     0.149 C 
ATOM     20  H4  UNL     1     -13.868 -26.246   3.463  1.00  0.00     0.162 HD
ENDBRANCH   4  16
BRANCH   1  21
HETATM   21  C4  UNL     1      -9.529 -28.882   1.743  1.00  0.00     0.266 C 
HETATM   22  N1  UNL     1      -8.841 -29.061   2.940  1.00  0.00    -0.352 N 
ATOM     23  H1  UNL     1      -8.837 -28.302   3.621  1.00  0.00     0.163 HD
HETATM   24  O1  UNL     1      -9.559 -29.775   0.879  1.00  0.00    -0.266 OA
BRANCH  22  25
HETATM   25  C3  UNL     1      -8.125 -30.291   3.257  1.00  0.00     0.149 C 
BRANCH  25  26
HETATM   26  C2  UNL     1      -6.682 -29.997   3.454  1.00  0.00    -0.018 C 
HETATM   27  C1  UNL     1      -6.236 -28.782   3.699  1.00  0.00     0.008 C 
ENDBRANCH  25  26
ENDBRANCH  22  25
ENDBRANCH   1  21
TORSDOF 6
ENDMDL
MODEL 3
REMARK VINA RESULT: -6.248308324      1.762      2.043
REMARK  6 active torsions:
REMARK  status: ('A' for Active; 'I' for Inactive)
REMARK    1  A    between atoms: C2_2  and  C3_3 
REMARK    2  A    between atoms: C3_3  and  N1_4 
REMARK       I    between atoms: N1_4  and  C4_6 
REMARK    3  A    between atoms: C4_6  and  C5_8 
REMARK    4  A    between atoms: C6_11  and  N3_12 
REMARK    5  A    between atoms: C6_11  and  C10_19 
REMARK       I    between atoms: N3_12  and  C7_14 
REMARK    6  A    between atoms: C7_14  and  C8_16 
REMARK       I    between atoms: C10_19  and  N4_21 
ROOT
HETATM    1  C5  UNL     1     -10.475 -25.662   2.703  1.00  0.00     0.106 C 
HETATM    2  N2  UNL     1      -9.516 -26.510   2.835  1.00  0.00    -0.353 N 
ATOM      3  H2  UNL     1      -8.963 -26.579   3.688  1.00  0.00     0.162 HD
HETATM    4  C6  UNL     1      -9.285 -27.336   1.714  1.00  0.00     0.192 C 
HETATM    5  C12 UNL     1     -10.418 -27.037   0.775  1.00  0.00     0.104 C 
HETATM    6  C13 UNL     1     -11.074 -25.845   1.379  1.00  0.00     0.127 C 
HETATM    7 BR2  UNL     1     -10.883 -24.258   0.294  1.00  0.00    -0.066 Br
HETATM    8 BR3  UNL     1     -12.968 -26.242   1.638  1.00  0.00    -0.066 Br
ENDROOT
BRANCH   4   9
HETATM    9  N3  UNL     1      -8.001 -27.069   1.073  1.00  0.00    -0.322 N 
HETATM   10  C7  UNL     1      -6.824 -26.697   1.754  1.00  0.00     0.260 C 
HETATM   11  O2  UNL     1      -6.806 -26.575   3.010  1.00  0.00    -0.267 OA
ATOM     12  H3  UNL     1      -7.951 -27.159   0.058  1.00  0.00     0.165 HD
BRANCH  10  13
HETATM   13  C8  UNL     1      -5.609 -26.450   1.012  1.00  0.00     0.069 C 
HETATM   14  C9  UNL     1      -5.339 -25.339   0.363  1.00  0.00     0.037 C 
HETATM   15 BR1  UNL     1      -4.282 -27.847   0.966  1.00  0.00    -0.046 Br
ENDBRANCH  10  13
ENDBRANCH   4   9
BRANCH   4  16
HETATM   16  C10 UNL     1      -9.288 -28.777   2.104  1.00  0.00     0.266 C 
HETATM   17  O3  UNL     1     -10.125 -29.540   1.579  1.00  0.00    -0.269 OA
HETATM   18  N4  UNL     1      -8.338 -29.250   3.065  1.00  0.00    -0.362 N 
HETATM   19  C11 UNL     1      -8.357 -30.647   3.429  1.00  0.00     0.149 C 
ATOM     20  H4  UNL     1      -7.661 -28.612   3.483  1.00  0.00     0.162 HD
ENDBRANCH   4  16
BRANCH   1  21
HETATM   21  C4  UNL     1     -10.886 -24.699   3.749  1.00  0.00     0.266 C 
HETATM   22  N1  UNL     1     -11.156 -25.131   5.045  1.00  0.00    -0.352 N 
ATOM     23  H1  UNL     1     -11.072 -26.124   5.258  1.00  0.00     0.163 HD
HETATM   24  O1  UNL     1     -10.980 -23.499   3.438  1.00  0.00    -0.266 OA
BRANCH  22  25
HETATM   25  C3  UNL     1     -11.555 -24.217   6.109  1.00  0.00     0.149 C 
BRANCH  25  26
HETATM   26  C2  UNL     1     -12.879 -24.623   6.650  1.00  0.00    -0.018 C 
HETATM   27  C1  UNL     1     -13.566 -23.864   7.478  1.00  0.00     0.008 C 
ENDBRANCH  25  26
ENDBRANCH  22  25
ENDBRANCH   1  21
TORSDOF 6
ENDMDL
MODEL 4
REMARK VINA RESULT: -6.225097889      2.202      2.491
REMARK  6 active torsions:
REMARK  status: ('A' for Active; 'I' for Inactive)
REMARK    1  A    between atoms: C2_2  and  C3_3 
REMARK    2  A    between atoms: C3_3  and  N1_4 
REMARK       I    between atoms: N1_4  and  C4_6 
REMARK    3  A    between atoms: C4_6  and  C5_8 
REMARK    4  A    between atoms: C6_11  and  N3_12 
REMARK    5  A    between atoms: C6_11  and  C10_19 
REMARK       I    between atoms: N3_12  and  C7_14 
REMARK    6  A    between atoms: C7_14  and  C8_16 
REMARK       I    between atoms: C10_19  and  N4_21 
ROOT
HETATM    1  C5  UNL     1     -10.370 -25.531   3.538  1.00  0.00     0.106 C 
HETATM    2  N2  UNL     1      -9.406 -26.372   3.681  1.00  0.00    -0.353 N 
ATOM      3  H2  UNL     1      -8.969 -26.552   4.584  1.00  0.00     0.162 HD
HETATM    4  C6  UNL     1      -8.998 -27.026   2.499  1.00  0.00     0.192 C 
HETATM    5  C12 UNL     1     -10.006 -26.617   1.464  1.00  0.00     0.104 C 
HETATM    6  C13 UNL     1     -10.780 -25.535   2.132  1.00  0.00     0.127 C 
HETATM    7 BR2  UNL     1     -10.506 -23.807   1.313  1.00  0.00    -0.066 Br
HETATM    8 BR3  UNL     1     -12.676 -25.998   2.072  1.00  0.00    -0.066 Br
ENDROOT
BRANCH   4   9
HETATM    9  N3  UNL     1      -7.651 -26.649   2.083  1.00  0.00    -0.322 N 
HETATM   10  C7  UNL     1      -6.981 -27.168   0.956  1.00  0.00     0.260 C 
HETATM   11  O2  UNL     1      -7.531 -28.019   0.204  1.00  0.00    -0.267 OA
ATOM     12  H3  UNL     1      -7.157 -25.958   2.649  1.00  0.00     0.165 HD
BRANCH  10  13
HETATM   13  C8  UNL     1      -5.641 -26.724   0.646  1.00  0.00     0.069 C 
HETATM   14  C9  UNL     1      -5.318 -25.496   0.306  1.00  0.00     0.037 C 
HETATM   15 BR1  UNL     1      -4.219 -28.021   0.737  1.00  0.00    -0.046 Br
ENDBRANCH  10  13
ENDBRANCH   4   9
BRANCH   4  16
HETATM   16  C10 UNL     1      -9.000 -28.508   2.682  1.00  0.00     0.266 C 
HETATM   17  O3  UNL     1      -9.979 -29.163   2.271  1.00  0.00    -0.269 OA
HETATM   18  N4  UNL     1      -7.886 -29.141   3.319  1.00  0.00    -0.362 N 
HETATM   19  C11 UNL     1      -7.906 -30.575   3.487  1.00  0.00     0.149 C 
ATOM     20  H4  UNL     1      -7.093 -28.590   3.648  1.00  0.00     0.162 HD
ENDBRANCH   4  16
BRANCH   1  21
HETATM   21  C4  UNL     1     -10.951 -24.734   4.641  1.00  0.00     0.266 C 
HETATM   22  N1  UNL     1     -12.025 -25.222   5.381  1.00  0.00    -0.352 N 
ATOM     23  H1  UNL     1     -12.406 -26.138   5.144  1.00  0.00     0.163 HD
HETATM   24  O1  UNL     1     -10.454 -23.621   4.886  1.00  0.00    -0.266 OA
BRANCH  22  25
HETATM   25  C3  UNL     1     -12.624 -24.476   6.481  1.00  0.00     0.149 C 
BRANCH  25  26
HETATM   26  C2  UNL     1     -13.812 -23.729   5.992  1.00  0.00    -0.018 C 
HETATM   27  C1  UNL     1     -13.788 -22.431   5.770  1.00  0.00     0.008 C 
ENDBRANCH  25  26
ENDBRANCH  22  25
ENDBRANCH   1  21
TORSDOF 6
ENDMDL
MODEL 5
REMARK VINA RESULT: -6.193880123      2.303      6.389
REMARK  6 active torsions:
REMARK  status: ('A' for Active; 'I' for Inactive)
REMARK    1  A    between atoms: C2_2  and  C3_3 
REMARK    2  A    between atoms: C3_3  and  N1_4 
REMARK       I    between atoms: N1_4  and  C4_6 
REMARK    3  A    between atoms: C4_6  and  C5_8 
REMARK    4  A    between atoms: C6_11  and  N3_12 
REMARK    5  A    between atoms: C6_11  and  C10_19 
REMARK       I    between atoms: N3_12  and  C7_14 
REMARK    6  A    between atoms: C7_14  and  C8_16 
REMARK       I    between atoms: C10_19  and  N4_21 
ROOT
HETATM    1  C5  UNL     1     -10.210 -27.083   1.735  1.00  0.00     0.106 C 
HETATM    2  N2  UNL     1     -11.334 -26.753   2.268  1.00  0.00    -0.353 N 
ATOM      3  H2  UNL     1     -11.908 -27.417   2.786  1.00  0.00     0.162 HD
HETATM    4  C6  UNL     1     -11.715 -25.406   2.084  1.00  0.00     0.192 C 
HETATM    5  C12 UNL     1     -10.524 -24.753   1.444  1.00  0.00     0.104 C 
HETATM    6  C13 UNL     1      -9.637 -25.896   1.096  1.00  0.00     0.127 C 
HETATM    7 BR2  UNL     1      -9.453 -26.143  -0.812  1.00  0.00    -0.066 Br
HETATM    8 BR3  UNL     1      -7.881 -25.588   1.892  1.00  0.00    -0.066 Br
ENDROOT
BRANCH   4   9
HETATM    9  N3  UNL     1     -12.896 -25.266   1.237  1.00  0.00    -0.322 N 
HETATM   10  C7  UNL     1     -13.164 -26.047   0.095  1.00  0.00     0.260 C 
HETATM   11  O2  UNL     1     -12.371 -26.957  -0.276  1.00  0.00    -0.267 OA
ATOM     12  H3  UNL     1     -13.577 -24.550   1.490  1.00  0.00     0.165 HD
BRANCH  10  13
HETATM   13  C8  UNL     1     -14.365 -25.812  -0.674  1.00  0.00     0.069 C 
HETATM   14  C9  UNL     1     -15.502 -25.380  -0.174  1.00  0.00     0.037 C 
HETATM   15 BR1  UNL     1     -14.303 -26.152  -2.569  1.00  0.00    -0.046 Br
ENDBRANCH  10  13
ENDBRANCH   4   9
BRANCH   4  16
HETATM   16  C10 UNL     1     -12.035 -24.759   3.391  1.00  0.00     0.266 C 
HETATM   17  O3  UNL     1     -13.226 -24.712   3.762  1.00  0.00    -0.269 OA
HETATM   18  N4  UNL     1     -10.977 -24.212   4.185  1.00  0.00    -0.362 N 
HETATM   19  C11 UNL     1     -11.308 -23.590   5.446  1.00  0.00     0.149 C 
ATOM     20  H4  UNL     1     -10.010 -24.260   3.866  1.00  0.00     0.162 HD
ENDBRANCH   4  16
BRANCH   1  21
HETATM   21  C4  UNL     1      -9.623 -28.439   1.801  1.00  0.00     0.266 C 
HETATM   22  N1  UNL     1      -8.892 -28.842   2.916  1.00  0.00    -0.352 N 
ATOM     23  H1  UNL     1      -8.765 -28.183   3.683  1.00  0.00     0.163 HD
HETATM   24  O1  UNL     1      -9.801 -29.204   0.837  1.00  0.00    -0.266 OA
BRANCH  22  25
HETATM   25  C3  UNL     1      -8.303 -30.172   3.029  1.00  0.00     0.149 C 
BRANCH  25  26
HETATM   26  C2  UNL     1      -6.863 -30.054   3.380  1.00  0.00    -0.018 C 
HETATM   27  C1  UNL     1      -6.312 -28.909   3.725  1.00  0.00     0.008 C 
ENDBRANCH  25  26
ENDBRANCH  22  25
ENDBRANCH   1  21
TORSDOF 6
ENDMDL
