MODEL 1
REMARK VINA RESULT: -9.458340507      0.000      0.000
REMARK  11 active torsions:
REMARK  status: ('A' for Active; 'I' for Inactive)
REMARK    1  A    between atoms: C2_2  and  N1_3 
REMARK    2  A    between atoms: C2_2  and  O3_20 
REMARK    3  A    between atoms: C2_2  and  C14_24 
REMARK    4  A    between atoms: C3_5  and  O1_6 
REMARK    5  A    between atoms: C3_5  and  C4_8 
REMARK    6  A    between atoms: C6_13  and  C7_14 
REMARK    7  A    between atoms: O3_20  and  C13_21 
REMARK    8  A    between atoms: C15_29  and  C16_30 
REMARK    9  A    between atoms: C16_30  and  O4_31 
REMARK   10  A    between atoms: O4_31  and  C17_32 
REMARK   11  A    between atoms: C20_35  and  C21_36 
ROOT
HETATM    1  C1  UNL     1       0.490   3.898  20.651  1.00  0.00     0.081 C 
HETATM    2  C2  UNL     1       1.650   3.289  19.970  1.00  0.00     0.205 C 
ENDROOT
BRANCH   2   3
HETATM    3  N1  UNL     1       1.650   1.853  20.043  1.00  0.00    -0.331 N 
HETATM    4  C3  UNL     1       2.578   0.918  20.010  1.00  0.00     0.168 C 
ATOM      5  H1  UNL     1       0.711   1.468  20.144  1.00  0.00     0.165 HD
BRANCH   4   6
HETATM    6  O1  UNL     1       3.861   1.589  19.817  1.00  0.00    -0.344 OA
ATOM      7  H1  UNL     1       3.997   1.670  18.881  1.00  0.00     0.219 HD
ENDBRANCH   4   6
BRANCH   4   8
HETATM    8  C4  UNL     1       2.903  -0.457  20.075  1.00  0.00     0.118 A 
HETATM    9  N2  UNL     1       3.766  -1.073  20.973  1.00  0.00    -0.257 N 
HETATM   10  O2  UNL     1       3.790  -2.320  20.710  1.00  0.00    -0.249 OA
ATOM     11  H2  UNL     1       4.289  -0.608  21.715  1.00  0.00     0.195 HD
HETATM   12  C5  UNL     1       3.045  -2.656  19.731  1.00  0.00     0.182 A 
HETATM   13  C6  UNL     1       2.449  -1.491  19.281  1.00  0.00     0.031 A 
BRANCH  13  14
HETATM   14  C7  UNL     1       1.525  -1.424  18.139  1.00  0.00    -0.022 A 
HETATM   15  C8  UNL     1       2.070  -1.168  16.882  1.00  0.00     0.012 A 
HETATM   16  C9  UNL     1       1.175  -1.076  15.854  1.00  0.00     0.001 A 
HETATM   17  C10 UNL     1      -0.193  -1.223  16.014  1.00  0.00     0.000 A 
HETATM   18  C11 UNL     1      -0.669  -1.472  17.286  1.00  0.00     0.001 A 
HETATM   19  C12 UNL     1       0.214  -1.568  18.347  1.00  0.00     0.012 A 
ENDBRANCH  13  14
ENDBRANCH   4   8
ENDBRANCH   2   3
BRANCH   2  20
HETATM   20  O3  UNL     1       2.803   3.779  20.628  1.00  0.00    -0.293 OA
BRANCH  20  21
HETATM   21  C13 UNL     1       2.761   5.021  21.112  1.00  0.00     0.502 C 
HETATM   22  F1  UNL     1       3.576   5.143  22.229  1.00  0.00    -0.184 F 
HETATM   23  F2  UNL     1       3.244   5.972  20.185  1.00  0.00    -0.184 F 
ENDBRANCH  20  21
ENDBRANCH   2  20
BRANCH   2  24
HETATM   24  C14 UNL     1       1.761   3.674  18.509  1.00  0.00     0.196 A 
HETATM   25  N3  UNL     1       2.843   3.848  17.761  1.00  0.00    -0.277 N 
HETATM   26  N4  UNL     1       2.450   4.199  16.518  1.00  0.00    -0.280 N 
ATOM     27  H3  UNL     1       3.808   3.736  18.072  1.00  0.00     0.189 HD
HETATM   28  C15 UNL     1       1.147   4.229  16.531  1.00  0.00     0.164 A 
ATOM     29  H4  UNL     1       3.055   4.402  15.723  1.00  0.00     0.189 HD
HETATM   30  O5  UNL     1       0.719   3.904  17.765  1.00  0.00    -0.275 OA
BRANCH  28  31
HETATM   31  C16 UNL     1       0.102   4.546  15.481  1.00  0.00     0.261 C 
BRANCH  31  32
HETATM   32  O4  UNL     1      -1.169   4.515  16.150  1.00  0.00    -0.343 OA
BRANCH  32  33
HETATM   33  C17 UNL     1      -2.047   3.446  15.903  1.00  0.00     0.069 A 
HETATM   34  C18 UNL     1      -2.843   3.365  14.807  1.00  0.00     0.037 A 
HETATM   35  C19 UNL     1      -3.693   2.266  14.628  1.00  0.00     0.015 A 
HETATM   36  C20 UNL     1      -3.750   1.248  15.526  1.00  0.00    -0.026 A 
HETATM   37  C27 UNL     1      -2.940   1.322  16.643  1.00  0.00     0.015 A 
HETATM   38  C28 UNL     1      -2.096   2.403  16.844  1.00  0.00     0.037 A 
BRANCH  36  39
HETATM   39  C21 UNL     1      -4.665   0.104  15.347  1.00  0.00    -0.026 A 
HETATM   40  C22 UNL     1      -4.486  -1.081  16.000  1.00  0.00     0.012 A 
HETATM   41  C23 UNL     1      -5.368  -2.113  15.885  1.00  0.00     0.001 A 
HETATM   42  C24 UNL     1      -6.462  -1.922  15.073  1.00  0.00     0.000 A 
HETATM   43  C25 UNL     1      -6.648  -0.743  14.412  1.00  0.00     0.001 A 
HETATM   44  C26 UNL     1      -5.762   0.270  14.543  1.00  0.00     0.012 A 
ENDBRANCH  36  39
ENDBRANCH  32  33
ENDBRANCH  31  32
ENDBRANCH  28  31
ENDBRANCH   2  24
TORSDOF 11
ENDMDL
MODEL 2
REMARK VINA RESULT: -9.426302714      0.129      1.082
REMARK  11 active torsions:
REMARK  status: ('A' for Active; 'I' for Inactive)
REMARK    1  A    between atoms: C2_2  and  N1_3 
REMARK    2  A    between atoms: C2_2  and  O3_20 
REMARK    3  A    between atoms: C2_2  and  C14_24 
REMARK    4  A    between atoms: C3_5  and  O1_6 
REMARK    5  A    between atoms: C3_5  and  C4_8 
REMARK    6  A    between atoms: C6_13  and  C7_14 
REMARK    7  A    between atoms: O3_20  and  C13_21 
REMARK    8  A    between atoms: C15_29  and  C16_30 
REMARK    9  A    between atoms: C16_30  and  O4_31 
REMARK   10  A    between atoms: O4_31  and  C17_32 
REMARK   11  A    between atoms: C20_35  and  C21_36 
ROOT
HETATM    1  C1  UNL     1       0.534   4.046  20.689  1.00  0.00     0.081 C 
HETATM    2  C2  UNL     1       1.680   3.413  20.006  1.00  0.00     0.205 C 
ENDROOT
BRANCH   2   3
HETATM    3  N1  UNL     1       1.658   1.979  20.089  1.00  0.00    -0.331 N 
HETATM    4  C3  UNL     1       2.567   1.026  20.028  1.00  0.00     0.168 C 
ATOM      5  H1  UNL     1       0.717   1.610  20.229  1.00  0.00     0.165 HD
BRANCH   4   6
HETATM    6  O1  UNL     1       3.853   1.673  19.781  1.00  0.00    -0.344 OA
ATOM      7  H1  UNL     1       4.395   1.520  20.546  1.00  0.00     0.219 HD
ENDBRANCH   4   6
BRANCH   4   8
HETATM    8  C4  UNL     1       2.871  -0.354  20.091  1.00  0.00     0.118 A 
HETATM    9  N2  UNL     1       3.732  -0.983  20.981  1.00  0.00    -0.257 N 
HETATM   10  O2  UNL     1       3.734  -2.230  20.719  1.00  0.00    -0.249 OA
ATOM     11  H2  UNL     1       4.270  -0.526  21.717  1.00  0.00     0.195 HD
HETATM   12  C5  UNL     1       2.973  -2.555  19.747  1.00  0.00     0.182 A 
HETATM   13  C6  UNL     1       2.392  -1.380  19.302  1.00  0.00     0.031 A 
BRANCH  13  14
HETATM   14  C7  UNL     1       1.458  -1.299  18.170  1.00  0.00    -0.022 A 
HETATM   15  C8  UNL     1       0.112  -1.556  18.423  1.00  0.00     0.012 A 
HETATM   16  C9  UNL     1      -0.717  -1.508  17.338  1.00  0.00     0.001 A 
HETATM   17  C10 UNL     1      -0.281  -1.226  16.054  1.00  0.00     0.000 A 
HETATM   18  C11 UNL     1       1.066  -0.985  15.869  1.00  0.00     0.001 A 
HETATM   19  C12 UNL     1       1.929  -1.029  16.949  1.00  0.00     0.012 A 
ENDBRANCH  13  14
ENDBRANCH   4   8
ENDBRANCH   2   3
BRANCH   2  20
HETATM   20  O3  UNL     1       2.844   3.890  20.652  1.00  0.00    -0.293 OA
BRANCH  20  21
HETATM   21  C13 UNL     1       2.787   5.091  21.230  1.00  0.00     0.502 C 
HETATM   22  F1  UNL     1       3.665   5.165  22.303  1.00  0.00    -0.184 F 
HETATM   23  F2  UNL     1       3.176   6.126  20.350  1.00  0.00    -0.184 F 
ENDBRANCH  20  21
ENDBRANCH   2  20
BRANCH   2  24
HETATM   24  C14 UNL     1       1.787   3.786  18.541  1.00  0.00     0.196 A 
HETATM   25  N3  UNL     1       2.865   4.062  17.816  1.00  0.00    -0.277 N 
HETATM   26  N4  UNL     1       2.469   4.350  16.558  1.00  0.00    -0.280 N 
ATOM     27  H3  UNL     1       3.828   4.056  18.153  1.00  0.00     0.189 HD
HETATM   28  C15 UNL     1       1.170   4.242  16.539  1.00  0.00     0.164 A 
ATOM     29  H4  UNL     1       3.070   4.603  15.774  1.00  0.00     0.189 HD
HETATM   30  O5  UNL     1       0.747   3.893  17.768  1.00  0.00    -0.275 OA
BRANCH  28  31
HETATM   31  C16 UNL     1       0.125   4.433  15.459  1.00  0.00     0.261 C 
BRANCH  31  32
HETATM   32  O4  UNL     1      -1.148   4.454  16.124  1.00  0.00    -0.343 OA
BRANCH  32  33
HETATM   33  C17 UNL     1      -2.021   3.365  15.968  1.00  0.00     0.069 A 
HETATM   34  C18 UNL     1      -2.127   2.352  16.866  1.00  0.00     0.037 A 
HETATM   35  C19 UNL     1      -3.022   1.298  16.644  1.00  0.00     0.015 A 
HETATM   36  C20 UNL     1      -3.815   1.250  15.541  1.00  0.00    -0.026 A 
HETATM   37  C27 UNL     1      -3.716   2.278  14.624  1.00  0.00     0.015 A 
HETATM   38  C28 UNL     1      -2.832   3.328  14.820  1.00  0.00     0.037 A 
BRANCH  36  39
HETATM   39  C21 UNL     1      -4.740   0.125  15.298  1.00  0.00    -0.026 A 
HETATM   40  C22 UNL     1      -4.597  -1.082  15.918  1.00  0.00     0.012 A 
HETATM   41  C23 UNL     1      -5.490  -2.097  15.743  1.00  0.00     0.001 A 
HETATM   42  C24 UNL     1      -6.555  -1.864  14.905  1.00  0.00     0.000 A 
HETATM   43  C25 UNL     1      -6.705  -0.662  14.276  1.00  0.00     0.001 A 
HETATM   44  C26 UNL     1      -5.810   0.333  14.467  1.00  0.00     0.012 A 
ENDBRANCH  36  39
ENDBRANCH  32  33
ENDBRANCH  31  32
ENDBRANCH  28  31
ENDBRANCH   2  24
TORSDOF 11
ENDMDL
MODEL 3
REMARK VINA RESULT: -9.209888434      2.283      5.391
REMARK  11 active torsions:
REMARK  status: ('A' for Active; 'I' for Inactive)
REMARK    1  A    between atoms: C2_2  and  N1_3 
REMARK    2  A    between atoms: C2_2  and  O3_20 
REMARK    3  A    between atoms: C2_2  and  C14_24 
REMARK    4  A    between atoms: C3_5  and  O1_6 
REMARK    5  A    between atoms: C3_5  and  C4_8 
REMARK    6  A    between atoms: C6_13  and  C7_14 
REMARK    7  A    between atoms: O3_20  and  C13_21 
REMARK    8  A    between atoms: C15_29  and  C16_30 
REMARK    9  A    between atoms: C16_30  and  O4_31 
REMARK   10  A    between atoms: O4_31  and  C17_32 
REMARK   11  A    between atoms: C20_35  and  C21_36 
ROOT
HETATM    1  C1  UNL     1       2.299   4.189  17.224  1.00  0.00     0.081 C 
HETATM    2  C2  UNL     1       1.425   3.283  17.995  1.00  0.00     0.205 C 
ENDROOT
BRANCH   2   3
HETATM    3  N1  UNL     1       0.356   2.733  17.207  1.00  0.00    -0.331 N 
HETATM    4  C3  UNL     1      -0.781   3.194  16.726  1.00  0.00     0.168 C 
ATOM      5  H1  UNL     1       0.515   1.755  16.964  1.00  0.00     0.165 HD
BRANCH   4   6
HETATM    6  O1  UNL     1      -0.912   4.577  17.178  1.00  0.00    -0.344 OA
ATOM      7  H1  UNL     1      -1.837   4.793  17.155  1.00  0.00     0.219 HD
ENDBRANCH   4   6
BRANCH   4   8
HETATM    8  C4  UNL     1      -1.948   2.959  15.962  1.00  0.00     0.118 A 
HETATM    9  N2  UNL     1      -2.485   3.779  14.978  1.00  0.00    -0.257 N 
HETATM   10  O2  UNL     1      -3.535   3.219  14.522  1.00  0.00    -0.249 OA
ATOM     11  H2  UNL     1      -2.105   4.675  14.673  1.00  0.00     0.195 HD
HETATM   12  C5  UNL     1      -3.802   2.098  15.070  1.00  0.00     0.182 A 
HETATM   13  C6  UNL     1      -2.809   1.882  16.010  1.00  0.00     0.031 A 
BRANCH  13  14
HETATM   14  C7  UNL     1      -2.749   0.706  16.891  1.00  0.00    -0.022 A 
HETATM   15  C8  UNL     1      -3.816  -0.189  16.846  1.00  0.00     0.012 A 
HETATM   16  C9  UNL     1      -3.741  -1.248  17.707  1.00  0.00     0.001 A 
HETATM   17  C10 UNL     1      -2.686  -1.449  18.582  1.00  0.00     0.000 A 
HETATM   18  C11 UNL     1      -1.662  -0.523  18.580  1.00  0.00     0.001 A 
HETATM   19  C12 UNL     1      -1.713   0.561  17.721  1.00  0.00     0.012 A 
ENDBRANCH  13  14
ENDBRANCH   4   8
ENDBRANCH   2   3
BRANCH   2  20
HETATM   20  O3  UNL     1       0.869   4.057  19.041  1.00  0.00    -0.293 OA
BRANCH  20  21
HETATM   21  C13 UNL     1       0.504   3.423  20.157  1.00  0.00     0.502 C 
HETATM   22  F1  UNL     1       0.629   4.255  21.260  1.00  0.00    -0.184 F 
HETATM   23  F2  UNL     1      -0.853   3.032  20.128  1.00  0.00    -0.184 F 
ENDBRANCH  20  21
ENDBRANCH   2  20
BRANCH   2  24
HETATM   24  C14 UNL     1       2.169   2.126  18.630  1.00  0.00     0.196 A 
HETATM   25  N3  UNL     1       3.253   2.138  19.396  1.00  0.00    -0.277 N 
HETATM   26  N4  UNL     1       3.559   0.863  19.720  1.00  0.00    -0.280 N 
ATOM     27  H3  UNL     1       3.767   2.968  19.691  1.00  0.00     0.189 HD
HETATM   28  C15 UNL     1       2.663   0.106  19.153  1.00  0.00     0.164 A 
ATOM     29  H4  UNL     1       4.341   0.552  20.296  1.00  0.00     0.189 HD
HETATM   30  O5  UNL     1       1.801   0.888  18.477  1.00  0.00    -0.275 OA
BRANCH  28  31
HETATM   31  C16 UNL     1       2.436  -1.392  19.116  1.00  0.00     0.261 C 
BRANCH  31  32
HETATM   32  O4  UNL     1       2.534  -1.784  17.738  1.00  0.00    -0.343 OA
BRANCH  32  33
HETATM   33  C17 UNL     1       1.361  -2.080  17.025  1.00  0.00     0.069 A 
HETATM   34  C18 UNL     1       0.587  -3.168  17.269  1.00  0.00     0.037 A 
HETATM   35  C19 UNL     1      -0.572  -3.398  16.517  1.00  0.00     0.015 A 
HETATM   36  C20 UNL     1      -0.968  -2.551  15.531  1.00  0.00    -0.026 A 
HETATM   37  C27 UNL     1      -0.188  -1.439  15.278  1.00  0.00     0.015 A 
HETATM   38  C28 UNL     1       0.967  -1.195  16.005  1.00  0.00     0.037 A 
BRANCH  36  39
HETATM   39  C21 UNL     1      -2.176  -2.809  14.724  1.00  0.00    -0.026 A 
HETATM   40  C22 UNL     1      -2.904  -3.957  14.847  1.00  0.00     0.012 A 
HETATM   41  C23 UNL     1      -4.055  -4.164  14.150  1.00  0.00     0.001 A 
HETATM   42  C24 UNL     1      -4.468  -3.166  13.299  1.00  0.00     0.000 A 
HETATM   43  C25 UNL     1      -3.745  -2.015  13.164  1.00  0.00     0.001 A 
HETATM   44  C26 UNL     1      -2.608  -1.828  13.869  1.00  0.00     0.012 A 
ENDBRANCH  36  39
ENDBRANCH  32  33
ENDBRANCH  31  32
ENDBRANCH  28  31
ENDBRANCH   2  24
TORSDOF 11
ENDMDL
MODEL 4
REMARK VINA RESULT: -9.099461549      2.272      5.352
REMARK  11 active torsions:
REMARK  status: ('A' for Active; 'I' for Inactive)
REMARK    1  A    between atoms: C2_2  and  N1_3 
REMARK    2  A    between atoms: C2_2  and  O3_20 
REMARK    3  A    between atoms: C2_2  and  C14_24 
REMARK    4  A    between atoms: C3_5  and  O1_6 
REMARK    5  A    between atoms: C3_5  and  C4_8 
REMARK    6  A    between atoms: C6_13  and  C7_14 
REMARK    7  A    between atoms: O3_20  and  C13_21 
REMARK    8  A    between atoms: C15_29  and  C16_30 
REMARK    9  A    between atoms: C16_30  and  O4_31 
REMARK   10  A    between atoms: O4_31  and  C17_32 
REMARK   11  A    between atoms: C20_35  and  C21_36 
ROOT
HETATM    1  C1  UNL     1       2.360   4.211  17.245  1.00  0.00     0.081 C 
HETATM    2  C2  UNL     1       1.471   3.301  17.993  1.00  0.00     0.205 C 
ENDROOT
BRANCH   2   3
HETATM    3  N1  UNL     1       0.419   2.754  17.181  1.00  0.00    -0.331 N 
HETATM    4  C3  UNL     1      -0.729   3.202  16.715  1.00  0.00     0.168 C 
ATOM      5  H1  UNL     1       0.605   1.791  16.899  1.00  0.00     0.165 HD
BRANCH   4   6
HETATM    6  O1  UNL     1      -0.899   4.561  17.222  1.00  0.00    -0.344 OA
ATOM      7  H1  UNL     1      -1.615   4.954  16.737  1.00  0.00     0.219 HD
ENDBRANCH   4   6
BRANCH   4   8
HETATM    8  C4  UNL     1      -1.888   2.966  15.939  1.00  0.00     0.118 A 
HETATM    9  N2  UNL     1      -2.392   3.765  14.920  1.00  0.00    -0.257 N 
HETATM   10  O2  UNL     1      -3.446   3.211  14.465  1.00  0.00    -0.249 OA
ATOM     11  H2  UNL     1      -1.989   4.642  14.593  1.00  0.00     0.195 HD
HETATM   12  C5  UNL     1      -3.744   2.114  15.044  1.00  0.00     0.182 A 
HETATM   13  C6  UNL     1      -2.772   1.908  16.007  1.00  0.00     0.031 A 
BRANCH  13  14
HETATM   14  C7  UNL     1      -2.751   0.761  16.926  1.00  0.00    -0.022 A 
HETATM   15  C8  UNL     1      -1.646   0.625  17.764  1.00  0.00     0.012 A 
HETATM   16  C9  UNL     1      -1.647  -0.474  18.576  1.00  0.00     0.001 A 
HETATM   17  C10 UNL     1      -2.665  -1.413  18.591  1.00  0.00     0.000 A 
HETATM   18  C11 UNL     1      -3.730  -1.223  17.733  1.00  0.00     0.001 A 
HETATM   19  C12 UNL     1      -3.754  -0.120  16.898  1.00  0.00     0.012 A 
ENDBRANCH  13  14
ENDBRANCH   4   8
ENDBRANCH   2   3
BRANCH   2  20
HETATM   20  O3  UNL     1       0.893   4.070  19.031  1.00  0.00    -0.293 OA
BRANCH  20  21
HETATM   21  C13 UNL     1       0.552   3.439  20.156  1.00  0.00     0.502 C 
HETATM   22  F1  UNL     1       0.668   4.284  21.251  1.00  0.00    -0.184 F 
HETATM   23  F2  UNL     1      -0.797   3.018  20.143  1.00  0.00    -0.184 F 
ENDBRANCH  20  21
ENDBRANCH   2  20
BRANCH   2  24
HETATM   24  C14 UNL     1       2.202   2.141  18.639  1.00  0.00     0.196 A 
HETATM   25  N3  UNL     1       3.272   2.150  19.425  1.00  0.00    -0.277 N 
HETATM   26  N4  UNL     1       3.572   0.874  19.750  1.00  0.00    -0.280 N 
ATOM     27  H3  UNL     1       3.782   2.979  19.731  1.00  0.00     0.189 HD
HETATM   28  C15 UNL     1       2.685   0.119  19.164  1.00  0.00     0.164 A 
ATOM     29  H4  UNL     1       4.343   0.561  20.339  1.00  0.00     0.189 HD
HETATM   30  O5  UNL     1       1.836   0.904  18.475  1.00  0.00    -0.275 OA
BRANCH  28  31
HETATM   31  C16 UNL     1       2.458  -1.378  19.119  1.00  0.00     0.261 C 
BRANCH  31  32
HETATM   32  O4  UNL     1       2.572  -1.765  17.741  1.00  0.00    -0.343 OA
BRANCH  32  33
HETATM   33  C17 UNL     1       1.403  -1.977  16.990  1.00  0.00     0.069 A 
HETATM   34  C18 UNL     1       0.986  -1.150  15.998  1.00  0.00     0.037 A 
HETATM   35  C19 UNL     1      -0.190  -1.427  15.290  1.00  0.00     0.015 A 
HETATM   36  C20 UNL     1      -0.948  -2.523  15.558  1.00  0.00    -0.026 A 
HETATM   37  C27 UNL     1      -0.529  -3.371  16.565  1.00  0.00     0.015 A 
HETATM   38  C28 UNL     1       0.628  -3.113  17.282  1.00  0.00     0.037 A 
BRANCH  36  39
HETATM   39  C21 UNL     1      -2.200  -2.799  14.828  1.00  0.00    -0.026 A 
HETATM   40  C22 UNL     1      -2.695  -1.948  13.882  1.00  0.00     0.012 A 
HETATM   41  C23 UNL     1      -3.814  -2.236  13.162  1.00  0.00     0.001 A 
HETATM   42  C24 UNL     1      -4.445  -3.430  13.424  1.00  0.00     0.000 A 
HETATM   43  C25 UNL     1      -3.961  -4.287  14.370  1.00  0.00     0.001 A 
HETATM   44  C26 UNL     1      -2.846  -3.983  15.071  1.00  0.00     0.012 A 
ENDBRANCH  36  39
ENDBRANCH  32  33
ENDBRANCH  31  32
ENDBRANCH  28  31
ENDBRANCH   2  24
TORSDOF 11
ENDMDL
MODEL 5
REMARK VINA RESULT: -9.082096512      4.528      8.560
REMARK  11 active torsions:
REMARK  status: ('A' for Active; 'I' for Inactive)
REMARK    1  A    between atoms: C2_2  and  N1_3 
REMARK    2  A    between atoms: C2_2  and  O3_20 
REMARK    3  A    between atoms: C2_2  and  C14_24 
REMARK    4  A    between atoms: C3_5  and  O1_6 
REMARK    5  A    between atoms: C3_5  and  C4_8 
REMARK    6  A    between atoms: C6_13  and  C7_14 
REMARK    7  A    between atoms: O3_20  and  C13_21 
REMARK    8  A    between atoms: C15_29  and  C16_30 
REMARK    9  A    between atoms: C16_30  and  O4_31 
REMARK   10  A    between atoms: O4_31  and  C17_32 
REMARK   11  A    between atoms: C20_35  and  C21_36 
ROOT
HETATM    1  C1  UNL     1      -3.978  -2.330  17.796  1.00  0.00     0.081 C 
HETATM    2  C2  UNL     1      -3.480  -1.851  16.491  1.00  0.00     0.205 C 
ENDROOT
BRANCH   2   3
HETATM    3  N1  UNL     1      -3.212  -0.439  16.479  1.00  0.00    -0.331 N 
HETATM    4  C3  UNL     1      -3.027   0.468  15.540  1.00  0.00     0.168 C 
ATOM      5  H1  UNL     1      -3.153  -0.045  17.418  1.00  0.00     0.165 HD
BRANCH   4   6
HETATM    6  O1  UNL     1      -3.090  -0.223  14.255  1.00  0.00    -0.344 OA
ATOM      7  H1  UNL     1      -2.740   0.370  13.600  1.00  0.00     0.219 HD
ENDBRANCH   4   6
BRANCH   4   8
HETATM    8  C4  UNL     1      -2.790   1.821  15.204  1.00  0.00     0.118 A 
HETATM    9  N2  UNL     1      -3.155   2.470  14.031  1.00  0.00    -0.257 N 
HETATM   10  O2  UNL     1      -2.768   3.681  14.110  1.00  0.00    -0.249 OA
ATOM     11  H2  UNL     1      -3.648   2.049  13.243  1.00  0.00     0.195 HD
HETATM   12  C5  UNL     1      -2.172   3.964  15.202  1.00  0.00     0.182 A 
HETATM   13  C6  UNL     1      -2.156   2.797  15.946  1.00  0.00     0.031 A 
BRANCH  13  14
HETATM   14  C7  UNL     1      -1.537   2.674  17.274  1.00  0.00    -0.022 A 
HETATM   15  C8  UNL     1      -1.216   1.394  17.720  1.00  0.00     0.012 A 
HETATM   16  C9  UNL     1      -0.678   1.318  18.974  1.00  0.00     0.001 A 
HETATM   17  C10 UNL     1      -0.451   2.424  19.777  1.00  0.00     0.000 A 
HETATM   18  C11 UNL     1      -0.795   3.664  19.277  1.00  0.00     0.001 A 
HETATM   19  C12 UNL     1      -1.345   3.770  18.012  1.00  0.00     0.012 A 
ENDBRANCH  13  14
ENDBRANCH   4   8
ENDBRANCH   2   3
BRANCH   2  20
HETATM   20  O3  UNL     1      -4.496  -2.131  15.548  1.00  0.00    -0.293 OA
BRANCH  20  21
HETATM   21  C13 UNL     1      -5.759  -1.891  15.905  1.00  0.00     0.502 C 
HETATM   22  F1  UNL     1      -6.270  -0.803  15.211  1.00  0.00    -0.184 F 
HETATM   23  F2  UNL     1      -6.615  -2.972  15.598  1.00  0.00    -0.184 F 
ENDBRANCH  20  21
ENDBRANCH   2  20
BRANCH   2  24
HETATM   24  C14 UNL     1      -2.222  -2.560  16.030  1.00  0.00     0.196 A 
HETATM   25  N3  UNL     1      -1.846  -2.901  14.804  1.00  0.00    -0.277 N 
HETATM   26  N4  UNL     1      -0.652  -3.526  14.883  1.00  0.00    -0.280 N 
ATOM     27  H3  UNL     1      -2.371  -2.722  13.947  1.00  0.00     0.189 HD
HETATM   28  C15 UNL     1      -0.324  -3.550  16.144  1.00  0.00     0.164 A 
ATOM     29  H4  UNL     1      -0.111  -3.905  14.107  1.00  0.00     0.189 HD
HETATM   30  O5  UNL     1      -1.297  -2.952  16.856  1.00  0.00    -0.275 OA
BRANCH  28  31
HETATM   31  C16 UNL     1       0.869  -4.098  16.900  1.00  0.00     0.261 C 
BRANCH  31  32
HETATM   32  O4  UNL     1       2.018  -3.382  16.421  1.00  0.00    -0.343 OA
BRANCH  32  33
HETATM   33  C17 UNL     1       2.125  -2.006  16.683  1.00  0.00     0.069 A 
HETATM   34  C18 UNL     1       2.007  -1.047  15.729  1.00  0.00     0.037 A 
HETATM   35  C19 UNL     1       2.125   0.307  16.066  1.00  0.00     0.015 A 
HETATM   36  C20 UNL     1       2.352   0.712  17.344  1.00  0.00    -0.026 A 
HETATM   37  C27 UNL     1       2.471  -0.257  18.321  1.00  0.00     0.015 A 
HETATM   38  C28 UNL     1       2.364  -1.603  18.009  1.00  0.00     0.037 A 
BRANCH  36  39
HETATM   39  C21 UNL     1       2.500   2.139  17.692  1.00  0.00    -0.026 A 
HETATM   40  C22 UNL     1       2.118   3.139  16.845  1.00  0.00     0.012 A 
HETATM   41  C23 UNL     1       2.193   4.453  17.195  1.00  0.00     0.001 A 
HETATM   42  C24 UNL     1       2.680   4.748  18.447  1.00  0.00     0.000 A 
HETATM   43  C25 UNL     1       3.070   3.756  19.300  1.00  0.00     0.001 A 
HETATM   44  C26 UNL     1       2.982   2.457  18.935  1.00  0.00     0.012 A 
ENDBRANCH  36  39
ENDBRANCH  32  33
ENDBRANCH  31  32
ENDBRANCH  28  31
ENDBRANCH   2  24
TORSDOF 11
ENDMDL
