MODEL 1
REMARK VINA RESULT: -7.063797189      0.000      0.000
REMARK  11 active torsions:
REMARK  status: ('A' for Active; 'I' for Inactive)
REMARK    1  A    between atoms: C2_2  and  C20_35 
REMARK    2  A    between atoms: N1_3  and  O1_5 
REMARK    3  A    between atoms: O1_5  and  C3_6 
REMARK    4  A    between atoms: N2_7  and  O2_9 
REMARK    5  A    between atoms: O2_9  and  C4_10 
REMARK    6  A    between atoms: C4_10  and  C5_11 
REMARK    7  A    between atoms: C4_10  and  C12_20 
REMARK    8  A    between atoms: C4_10  and  C17_28 
REMARK    9  A    between atoms: C5_11  and  C6_12 
REMARK   10  A    between atoms: C7_14  and  C8_15 
REMARK   11  A    between atoms: N4_32  and  O3_33 
ROOT
HETATM    1  C4  UNL     1       0.509  -1.977  17.882  1.00  0.00     0.173 C 
ENDROOT
BRANCH   1   2
HETATM    2  O2  UNL     1       1.345  -1.113  17.071  1.00  0.00    -0.255 OA
BRANCH   2   3
HETATM    3  N2  UNL     1       2.077  -0.105  17.643  1.00  0.00    -0.252 N 
HETATM    4  C3  UNL     1       2.151   1.029  17.021  1.00  0.00     0.281 C 
ATOM      5  H2  UNL     1       2.551  -0.245  18.536  1.00  0.00     0.195 HD
BRANCH   4   6
HETATM    6  O1  UNL     1       2.892   2.082  17.579  1.00  0.00    -0.231 OA
BRANCH   6   7
HETATM    7  N1  UNL     1       2.474   2.661  18.744  1.00  0.00    -0.258 N 
HETATM    8  C2  UNL     1       2.874   3.843  19.037  1.00  0.00     0.105 C 
HETATM    9  C1  UNL     1       2.449   4.525  20.296  1.00  0.00     0.078 C 
ATOM     10  H1  UNL     1       1.850   2.158  19.374  1.00  0.00     0.194 HD
BRANCH   8  11
HETATM   11  C20 UNL     1       3.760   4.531  18.123  1.00  0.00     0.224 C 
HETATM   12  O4  UNL     1       3.349   5.176  17.128  1.00  0.00    -0.643 OA
HETATM   13  O5  UNL     1       5.124   4.483  18.346  1.00  0.00    -0.643 OA
ENDBRANCH   8  11
ENDBRANCH   6   7
ENDBRANCH   4   6
ENDBRANCH   2   3
ENDBRANCH   1   2
BRANCH   1  14
HETATM   14  C5  UNL     1      -0.410  -1.029  18.565  1.00  0.00     0.104 C 
BRANCH  14  15
HETATM   15  C6  UNL     1      -1.621  -0.594  17.886  1.00  0.00     0.017 C 
HETATM   16 CL1  UNL     1      -3.204  -1.268  18.138  1.00  0.00    -0.089 Cl
HETATM   17  C7  UNL     1      -1.508   0.367  16.997  1.00  0.00     0.038 C 
BRANCH  17  18
HETATM   18  C8  UNL     1      -2.682   0.858  16.276  1.00  0.00     0.006 A 
HETATM   19  C9  UNL     1      -3.515   1.919  16.516  1.00  0.00     0.019 A 
HETATM   20  C10 UNL     1      -4.536   2.119  15.675  1.00  0.00     0.008 A 
HETATM   21  C11 UNL     1      -4.679   1.246  14.630  1.00  0.00     0.050 A 
HETATM   22  S1  UNL     1      -3.380   0.168  14.849  1.00  0.00    -0.102 SA
ENDBRANCH  17  18
ENDBRANCH  14  15
ENDBRANCH   1  14
BRANCH   1  23
HETATM   23  C12 UNL     1      -0.120  -2.900  16.950  1.00  0.00     0.001 A 
HETATM   24  C13 UNL     1      -0.914  -3.974  17.334  1.00  0.00     0.015 A 
HETATM   25  C14 UNL     1      -1.477  -4.838  16.436  1.00  0.00     0.043 A 
HETATM   26  C15 UNL     1      -1.269  -4.666  15.107  1.00  0.00     0.103 A 
HETATM   27 CL2  UNL     1      -1.991  -5.775  13.950  1.00  0.00    -0.065 Cl
HETATM   28  N3  UNL     1      -0.504  -3.634  14.707  1.00  0.00    -0.356 N 
HETATM   29  C16 UNL     1       0.063  -2.764  15.596  1.00  0.00     0.099 A 
ATOM     30  H3  UNL     1      -0.342  -3.497  13.709  1.00  0.00     0.166 HD
ENDBRANCH   1  23
BRANCH   1  31
HETATM   31  C17 UNL     1       1.410  -2.656  18.854  1.00  0.00     0.122 A 
HETATM   32  S2  UNL     1       1.130  -3.029  20.490  1.00  0.00    -0.081 SA
HETATM   33  C18 UNL     1       2.607  -3.791  20.856  1.00  0.00     0.071 A 
HETATM   34  C19 UNL     1       3.257  -3.714  19.654  1.00  0.00     0.131 A 
HETATM   35  N4  UNL     1       2.643  -3.140  18.654  1.00  0.00    -0.229 N 
BRANCH  35  36
HETATM   36  O3  UNL     1       3.259  -3.041  17.375  1.00  0.00    -0.283 OA
ATOM     37  H3  UNL     1       4.023  -2.490  17.250  1.00  0.00     0.245 HD
ENDBRANCH  35  36
ENDBRANCH   1  31
TORSDOF 11
ENDMDL
MODEL 2
REMARK VINA RESULT: -6.957827462      1.062      1.110
REMARK  11 active torsions:
REMARK  status: ('A' for Active; 'I' for Inactive)
REMARK    1  A    between atoms: C2_2  and  C20_35 
REMARK    2  A    between atoms: N1_3  and  O1_5 
REMARK    3  A    between atoms: O1_5  and  C3_6 
REMARK    4  A    between atoms: N2_7  and  O2_9 
REMARK    5  A    between atoms: O2_9  and  C4_10 
REMARK    6  A    between atoms: C4_10  and  C5_11 
REMARK    7  A    between atoms: C4_10  and  C12_20 
REMARK    8  A    between atoms: C4_10  and  C17_28 
REMARK    9  A    between atoms: C5_11  and  C6_12 
REMARK   10  A    between atoms: C7_14  and  C8_15 
REMARK   11  A    between atoms: N4_32  and  O3_33 
ROOT
HETATM    1  C4  UNL     1       0.413  -2.062  17.511  1.00  0.00     0.173 C 
ENDROOT
BRANCH   1   2
HETATM    2  O2  UNL     1       1.151  -1.076  16.744  1.00  0.00    -0.255 OA
BRANCH   2   3
HETATM    3  N2  UNL     1       1.964  -0.166  17.369  1.00  0.00    -0.252 N 
HETATM    4  C3  UNL     1       1.956   1.058  16.943  1.00  0.00     0.281 C 
ATOM      5  H2  UNL     1       2.560  -0.446  18.148  1.00  0.00     0.195 HD
BRANCH   4   6
HETATM    6  O1  UNL     1       2.776   2.015  17.560  1.00  0.00    -0.231 OA
BRANCH   6   7
HETATM    7  N1  UNL     1       2.368   2.609  18.721  1.00  0.00    -0.258 N 
HETATM    8  C2  UNL     1       2.785   3.788  19.004  1.00  0.00     0.105 C 
HETATM    9  C1  UNL     1       2.372   4.485  20.258  1.00  0.00     0.078 C 
ATOM     10  H1  UNL     1       1.739   2.119  19.356  1.00  0.00     0.194 HD
BRANCH   8  11
HETATM   11  C20 UNL     1       3.679   4.456  18.084  1.00  0.00     0.224 C 
HETATM   12  O4  UNL     1       3.277   5.075  17.068  1.00  0.00    -0.643 OA
HETATM   13  O5  UNL     1       5.041   4.418  18.323  1.00  0.00    -0.643 OA
ENDBRANCH   8  11
ENDBRANCH   6   7
ENDBRANCH   4   6
ENDBRANCH   2   3
ENDBRANCH   1   2
BRANCH   1  14
HETATM   14  C5  UNL     1      -0.780  -1.311  17.983  1.00  0.00     0.104 C 
BRANCH  14  15
HETATM   15  C6  UNL     1      -1.498  -0.454  17.054  1.00  0.00     0.017 C 
HETATM   16 CL1  UNL     1      -1.950  -0.894  15.433  1.00  0.00    -0.089 Cl
HETATM   17  C7  UNL     1      -1.813   0.756  17.462  1.00  0.00     0.038 C 
BRANCH  17  18
HETATM   18  C8  UNL     1      -2.537   1.674  16.584  1.00  0.00     0.006 A 
HETATM   19  C9  UNL     1      -3.832   1.668  16.136  1.00  0.00     0.019 A 
HETATM   20  C10 UNL     1      -4.217   2.650  15.314  1.00  0.00     0.008 A 
HETATM   21  C11 UNL     1      -3.288   3.597  14.975  1.00  0.00     0.050 A 
HETATM   22  S1  UNL     1      -1.898   3.089  15.816  1.00  0.00    -0.102 SA
ENDBRANCH  17  18
ENDBRANCH  14  15
ENDBRANCH   1  14
BRANCH   1  23
HETATM   23  C12 UNL     1       0.143  -3.153  16.586  1.00  0.00     0.001 A 
HETATM   24  C13 UNL     1      -0.538  -4.314  16.932  1.00  0.00     0.015 A 
HETATM   25  C14 UNL     1      -0.760  -5.333  16.047  1.00  0.00     0.043 A 
HETATM   26  C15 UNL     1      -0.308  -5.235  14.772  1.00  0.00     0.103 A 
HETATM   27 CL2  UNL     1      -0.593  -6.543  13.633  1.00  0.00    -0.065 Cl
HETATM   28  N3  UNL     1       0.354  -4.122  14.411  1.00  0.00    -0.356 N 
HETATM   29  C16 UNL     1       0.582  -3.097  15.287  1.00  0.00     0.099 A 
ATOM     30  H3  UNL     1       0.698  -4.039  13.454  1.00  0.00     0.166 HD
ENDBRANCH   1  23
BRANCH   1  31
HETATM   31  C17 UNL     1       1.288  -2.464  18.646  1.00  0.00     0.122 A 
HETATM   32  S2  UNL     1       0.908  -2.575  20.300  1.00  0.00    -0.081 SA
HETATM   33  C18 UNL     1       2.412  -3.104  20.895  1.00  0.00     0.071 A 
HETATM   34  C19 UNL     1       3.151  -3.168  19.744  1.00  0.00     0.131 A 
HETATM   35  N4  UNL     1       2.573  -2.844  18.619  1.00  0.00    -0.229 N 
BRANCH  35  36
HETATM   36  O3  UNL     1       3.282  -2.904  17.386  1.00  0.00    -0.283 OA
ATOM     37  H3  UNL     1       3.928  -3.584  17.234  1.00  0.00     0.245 HD
ENDBRANCH  35  36
ENDBRANCH   1  31
TORSDOF 11
ENDMDL
MODEL 3
REMARK VINA RESULT: -6.797253253      1.429      1.850
REMARK  11 active torsions:
REMARK  status: ('A' for Active; 'I' for Inactive)
REMARK    1  A    between atoms: C2_2  and  C20_35 
REMARK    2  A    between atoms: N1_3  and  O1_5 
REMARK    3  A    between atoms: O1_5  and  C3_6 
REMARK    4  A    between atoms: N2_7  and  O2_9 
REMARK    5  A    between atoms: O2_9  and  C4_10 
REMARK    6  A    between atoms: C4_10  and  C5_11 
REMARK    7  A    between atoms: C4_10  and  C12_20 
REMARK    8  A    between atoms: C4_10  and  C17_28 
REMARK    9  A    between atoms: C5_11  and  C6_12 
REMARK   10  A    between atoms: C7_14  and  C8_15 
REMARK   11  A    between atoms: N4_32  and  O3_33 
ROOT
HETATM    1  C4  UNL     1       0.577  -1.997  18.287  1.00  0.00     0.173 C 
ENDROOT
BRANCH   1   2
HETATM    2  O2  UNL     1       1.714  -1.254  17.778  1.00  0.00    -0.255 OA
BRANCH   2   3
HETATM    3  N2  UNL     1       1.776   0.110  17.905  1.00  0.00    -0.252 N 
HETATM    4  C3  UNL     1       2.266   0.796  16.921  1.00  0.00     0.281 C 
ATOM      5  H2  UNL     1       1.444   0.572  18.752  1.00  0.00     0.195 HD
BRANCH   4   6
HETATM    6  O1  UNL     1       2.342   2.194  17.018  1.00  0.00    -0.231 OA
BRANCH   6   7
HETATM    7  N1  UNL     1       1.304   2.962  16.573  1.00  0.00    -0.258 N 
HETATM    8  C2  UNL     1       0.542   3.544  17.423  1.00  0.00     0.105 C 
HETATM    9  C1  UNL     1      -0.607   4.395  16.993  1.00  0.00     0.078 C 
ATOM     10  H1  UNL     1       1.137   3.071  15.573  1.00  0.00     0.194 HD
BRANCH   8  11
HETATM   11  C20 UNL     1       0.804   3.369  18.836  1.00  0.00     0.224 C 
HETATM   12  O4  UNL     1       0.253   2.477  19.527  1.00  0.00    -0.643 OA
HETATM   13  O5  UNL     1       1.699   4.215  19.463  1.00  0.00    -0.643 OA
ENDBRANCH   8  11
ENDBRANCH   6   7
ENDBRANCH   4   6
ENDBRANCH   2   3
ENDBRANCH   1   2
BRANCH   1  14
HETATM   14  C5  UNL     1      -0.322  -0.937  18.813  1.00  0.00     0.104 C 
BRANCH  14  15
HETATM   15  C6  UNL     1      -1.523  -0.586  18.072  1.00  0.00     0.017 C 
HETATM   16 CL1  UNL     1      -3.068  -1.366  18.244  1.00  0.00    -0.089 Cl
HETATM   17  C7  UNL     1      -1.430   0.381  17.186  1.00  0.00     0.038 C 
BRANCH  17  18
HETATM   18  C8  UNL     1      -2.596   0.791  16.404  1.00  0.00     0.006 A 
HETATM   19  C9  UNL     1      -3.492   1.812  16.581  1.00  0.00     0.019 A 
HETATM   20  C10 UNL     1      -4.485   1.936  15.694  1.00  0.00     0.008 A 
HETATM   21  C11 UNL     1      -4.539   1.032  14.668  1.00  0.00     0.050 A 
HETATM   22  S1  UNL     1      -3.197   0.030  14.970  1.00  0.00    -0.102 SA
ENDBRANCH  17  18
ENDBRANCH  14  15
ENDBRANCH   1  14
BRANCH   1  23
HETATM   23  C12 UNL     1       0.064  -2.750  17.152  1.00  0.00     0.001 A 
HETATM   24  C13 UNL     1       0.288  -2.406  15.824  1.00  0.00     0.015 A 
HETATM   25  C14 UNL     1      -0.224  -3.120  14.777  1.00  0.00     0.043 A 
HETATM   26  C15 UNL     1      -0.988  -4.216  15.013  1.00  0.00     0.103 A 
HETATM   27 CL2  UNL     1      -1.648  -5.137  13.669  1.00  0.00    -0.065 Cl
HETATM   28  N3  UNL     1      -1.221  -4.572  16.289  1.00  0.00    -0.356 N 
HETATM   29  C16 UNL     1      -0.714  -3.865  17.344  1.00  0.00     0.099 A 
ATOM     30  H3  UNL     1      -1.795  -5.394  16.476  1.00  0.00     0.166 HD
ENDBRANCH   1  23
BRANCH   1  31
HETATM   31  C17 UNL     1       1.089  -2.869  19.380  1.00  0.00     0.122 A 
HETATM   32  S2  UNL     1       0.333  -3.309  20.838  1.00  0.00    -0.081 SA
HETATM   33  C18 UNL     1       1.548  -4.306  21.489  1.00  0.00     0.071 A 
HETATM   34  C19 UNL     1       2.503  -4.244  20.511  1.00  0.00     0.131 A 
HETATM   35  N4  UNL     1       2.260  -3.517  19.455  1.00  0.00    -0.229 N 
BRANCH  35  36
HETATM   36  O3  UNL     1       3.206  -3.422  18.396  1.00  0.00    -0.283 OA
ATOM     37  H3  UNL     1       3.601  -4.205  18.030  1.00  0.00     0.245 HD
ENDBRANCH  35  36
ENDBRANCH   1  31
TORSDOF 11
ENDMDL
MODEL 4
REMARK VINA RESULT: -6.786652405      2.603      5.148
REMARK  11 active torsions:
REMARK  status: ('A' for Active; 'I' for Inactive)
REMARK    1  A    between atoms: C2_2  and  C20_35 
REMARK    2  A    between atoms: N1_3  and  O1_5 
REMARK    3  A    between atoms: O1_5  and  C3_6 
REMARK    4  A    between atoms: N2_7  and  O2_9 
REMARK    5  A    between atoms: O2_9  and  C4_10 
REMARK    6  A    between atoms: C4_10  and  C5_11 
REMARK    7  A    between atoms: C4_10  and  C12_20 
REMARK    8  A    between atoms: C4_10  and  C17_28 
REMARK    9  A    between atoms: C5_11  and  C6_12 
REMARK   10  A    between atoms: C7_14  and  C8_15 
REMARK   11  A    between atoms: N4_32  and  O3_33 
ROOT
HETATM    1  C4  UNL     1      -2.059  -0.174  16.330  1.00  0.00     0.173 C 
ENDROOT
BRANCH   1   2
HETATM    2  O2  UNL     1      -1.553   1.126  15.932  1.00  0.00    -0.255 OA
BRANCH   2   3
HETATM    3  N2  UNL     1      -1.003   1.978  16.856  1.00  0.00    -0.252 N 
HETATM    4  C3  UNL     1      -0.755   3.197  16.494  1.00  0.00     0.281 C 
ATOM      5  H2  UNL     1      -0.794   1.659  17.802  1.00  0.00     0.195 HD
BRANCH   4   6
HETATM    6  O1  UNL     1      -0.193   4.095  17.415  1.00  0.00    -0.231 OA
BRANCH   6   7
HETATM    7  N1  UNL     1       1.055   4.603  17.190  1.00  0.00    -0.258 N 
HETATM    8  C2  UNL     1       2.046   4.166  17.876  1.00  0.00     0.105 C 
HETATM    9  C1  UNL     1       3.431   4.685  17.672  1.00  0.00     0.078 C 
ATOM     10  H1  UNL     1       1.197   5.324  16.482  1.00  0.00     0.194 HD
BRANCH   8  11
HETATM   11  C20 UNL     1       1.812   3.145  18.873  1.00  0.00     0.224 C 
HETATM   12  O4  UNL     1       1.626   3.405  20.088  1.00  0.00    -0.643 OA
HETATM   13  O5  UNL     1       1.790   1.818  18.484  1.00  0.00    -0.643 OA
ENDBRANCH   8  11
ENDBRANCH   6   7
ENDBRANCH   4   6
ENDBRANCH   2   3
ENDBRANCH   1   2
BRANCH   1  14
HETATM   14  C5  UNL     1      -2.035  -0.116  17.815  1.00  0.00     0.104 C 
BRANCH  14  15
HETATM   15  C6  UNL     1      -1.546  -1.261  18.566  1.00  0.00     0.017 C 
HETATM   16 CL1  UNL     1      -2.446  -2.720  18.863  1.00  0.00    -0.089 Cl
HETATM   17  C7  UNL     1      -0.339  -1.181  19.080  1.00  0.00     0.038 C 
BRANCH  17  18
HETATM   18  C8  UNL     1       0.221  -2.295  19.845  1.00  0.00     0.006 A 
HETATM   19  C9  UNL     1       0.206  -2.571  21.187  1.00  0.00     0.019 A 
HETATM   20  C10 UNL     1       0.826  -3.679  21.607  1.00  0.00     0.008 A 
HETATM   21  C11 UNL     1       1.435  -4.463  20.665  1.00  0.00     0.050 A 
HETATM   22  S1  UNL     1       1.125  -3.630  19.214  1.00  0.00    -0.102 SA
ENDBRANCH  17  18
ENDBRANCH  14  15
ENDBRANCH   1  14
BRANCH   1  23
HETATM   23  C12 UNL     1      -3.379  -0.280  15.727  1.00  0.00     0.001 A 
HETATM   24  C13 UNL     1      -4.393  -1.097  16.213  1.00  0.00     0.015 A 
HETATM   25  C14 UNL     1      -5.618  -1.192  15.614  1.00  0.00     0.043 A 
HETATM   26  C15 UNL     1      -5.885  -0.471  14.497  1.00  0.00     0.103 A 
HETATM   27 CL2  UNL     1      -7.460  -0.591  13.725  1.00  0.00    -0.065 Cl
HETATM   28  N3  UNL     1      -4.922   0.328  14.005  1.00  0.00    -0.356 N 
HETATM   29  C16 UNL     1      -3.693   0.432  14.595  1.00  0.00     0.099 A 
ATOM     30  H3  UNL     1      -5.114   0.875  13.165  1.00  0.00     0.166 HD
ENDBRANCH   1  23
BRANCH   1  31
HETATM   31  C17 UNL     1      -1.098  -1.185  15.809  1.00  0.00     0.122 A 
HETATM   32  S2  UNL     1      -1.417  -2.721  15.151  1.00  0.00    -0.081 SA
HETATM   33  C18 UNL     1       0.175  -3.206  14.799  1.00  0.00     0.071 A 
HETATM   34  C19 UNL     1       0.890  -2.118  15.222  1.00  0.00     0.131 A 
HETATM   35  N4  UNL     1       0.237  -1.108  15.728  1.00  0.00    -0.229 N 
BRANCH  35  36
HETATM   36  O3  UNL     1       0.920   0.059  16.173  1.00  0.00    -0.283 OA
ATOM     37  H3  UNL     1       1.870   0.077  16.208  1.00  0.00     0.245 HD
ENDBRANCH  35  36
ENDBRANCH   1  31
TORSDOF 11
ENDMDL
MODEL 5
REMARK VINA RESULT: -6.776027319      1.257      1.427
REMARK  11 active torsions:
REMARK  status: ('A' for Active; 'I' for Inactive)
REMARK    1  A    between atoms: C2_2  and  C20_35 
REMARK    2  A    between atoms: N1_3  and  O1_5 
REMARK    3  A    between atoms: O1_5  and  C3_6 
REMARK    4  A    between atoms: N2_7  and  O2_9 
REMARK    5  A    between atoms: O2_9  and  C4_10 
REMARK    6  A    between atoms: C4_10  and  C5_11 
REMARK    7  A    between atoms: C4_10  and  C12_20 
REMARK    8  A    between atoms: C4_10  and  C17_28 
REMARK    9  A    between atoms: C5_11  and  C6_12 
REMARK   10  A    between atoms: C7_14  and  C8_15 
REMARK   11  A    between atoms: N4_32  and  O3_33 
ROOT
HETATM    1  C4  UNL     1       0.294  -2.037  17.075  1.00  0.00     0.173 C 
ENDROOT
BRANCH   1   2
HETATM    2  O2  UNL     1       1.155  -1.209  16.252  1.00  0.00    -0.255 OA
BRANCH   2   3
HETATM    3  N2  UNL     1       1.219   0.147  16.447  1.00  0.00    -0.252 N 
HETATM    4  C3  UNL     1       2.330   0.652  16.882  1.00  0.00     0.281 C 
ATOM      5  H2  UNL     1       0.413   0.742  16.254  1.00  0.00     0.195 HD
BRANCH   4   6
HETATM    6  O1  UNL     1       2.430   2.036  17.092  1.00  0.00    -0.231 OA
BRANCH   6   7
HETATM    7  N1  UNL     1       2.502   2.525  18.366  1.00  0.00    -0.258 N 
HETATM    8  C2  UNL     1       2.759   3.768  18.549  1.00  0.00     0.105 C 
HETATM    9  C1  UNL     1       2.848   4.356  19.919  1.00  0.00     0.078 C 
ATOM     10  H1  UNL     1       2.352   1.907  19.163  1.00  0.00     0.194 HD
BRANCH   8  11
HETATM   11  C20 UNL     1       2.968   4.618  17.397  1.00  0.00     0.224 C 
HETATM   12  O4  UNL     1       2.026   5.153  16.763  1.00  0.00    -0.643 OA
HETATM   13  O5  UNL     1       4.260   4.860  16.967  1.00  0.00    -0.643 OA
ENDBRANCH   8  11
ENDBRANCH   6   7
ENDBRANCH   4   6
ENDBRANCH   2   3
ENDBRANCH   1   2
BRANCH   1  14
HETATM   14  C5  UNL     1      -0.853  -1.144  17.385  1.00  0.00     0.104 C 
BRANCH  14  15
HETATM   15  C6  UNL     1      -2.084  -1.270  16.620  1.00  0.00     0.017 C 
HETATM   16 CL1  UNL     1      -3.350  -2.417  16.947  1.00  0.00    -0.089 Cl
HETATM   17  C7  UNL     1      -2.243  -0.472  15.588  1.00  0.00     0.038 C 
BRANCH  17  18
HETATM   18  C8  UNL     1      -3.456  -0.540  14.773  1.00  0.00     0.006 A 
HETATM   19  C9  UNL     1      -4.666   0.091  14.895  1.00  0.00     0.019 A 
HETATM   20  C10 UNL     1      -5.611  -0.183  13.990  1.00  0.00     0.008 A 
HETATM   21  C11 UNL     1      -5.304  -1.078  13.000  1.00  0.00     0.050 A 
HETATM   22  S1  UNL     1      -3.699  -1.513  13.362  1.00  0.00    -0.102 SA
ENDBRANCH  17  18
ENDBRANCH  14  15
ENDBRANCH   1  14
BRANCH   1  23
HETATM   23  C12 UNL     1      -0.019  -3.203  16.261  1.00  0.00     0.001 A 
HETATM   24  C13 UNL     1      -0.498  -4.403  16.774  1.00  0.00     0.015 A 
HETATM   25  C14 UNL     1      -0.765  -5.489  15.988  1.00  0.00     0.043 A 
HETATM   26  C15 UNL     1      -0.564  -5.423  14.648  1.00  0.00     0.103 A 
HETATM   27 CL2  UNL     1      -0.907  -6.819  13.636  1.00  0.00    -0.065 Cl
HETATM   28  N3  UNL     1      -0.102  -4.273  14.126  1.00  0.00    -0.356 N 
HETATM   29  C16 UNL     1       0.169  -3.181  14.902  1.00  0.00     0.099 A 
ATOM     30  H3  UNL     1       0.053  -4.215  13.119  1.00  0.00     0.166 HD
ENDBRANCH   1  23
BRANCH   1  31
HETATM   31  C17 UNL     1       1.069  -2.374  18.301  1.00  0.00     0.122 A 
HETATM   32  S2  UNL     1       0.539  -2.434  19.916  1.00  0.00    -0.081 SA
HETATM   33  C18 UNL     1       1.993  -2.900  20.666  1.00  0.00     0.071 A 
HETATM   34  C19 UNL     1       2.836  -2.988  19.592  1.00  0.00     0.131 A 
HETATM   35  N4  UNL     1       2.359  -2.721  18.407  1.00  0.00    -0.229 N 
BRANCH  35  36
HETATM   36  O3  UNL     1       3.180  -2.808  17.248  1.00  0.00    -0.283 OA
ATOM     37  H3  UNL     1       4.101  -3.029  17.326  1.00  0.00     0.245 HD
ENDBRANCH  35  36
ENDBRANCH   1  31
TORSDOF 11
ENDMDL
