MODEL 1
REMARK VINA RESULT: -6.226284300      0.000      0.000
REMARK  8 active torsions:
REMARK  status: ('A' for Active; 'I' for Inactive)
REMARK    1  A    between atoms: N1_1  and  C1_4 
REMARK    2  A    between atoms: C1_4  and  C2_5 
REMARK    3  A    between atoms: C2_5  and  C3_6 
REMARK    4  A    between atoms: C3_6  and  N2_7 
REMARK    5  A    between atoms: N2_7  and  S1_9 
REMARK    6  A    between atoms: S1_9  and  C4_12 
REMARK    7  A    between atoms: C7_15  and  N3_16 
REMARK    8  A    between atoms: N3_16  and  C8_18 
ROOT
HETATM    1  C4  UNL     1       0.098  89.154 130.860  1.00  0.00     0.079 A 
HETATM    2  C5  UNL     1       0.050  90.438 131.349  1.00  0.00     0.027 A 
HETATM    3  C6  UNL     1      -0.840  90.821 132.367  1.00  0.00     0.031 A 
HETATM    4  C7  UNL     1      -1.713  89.922 132.925  1.00  0.00     0.033 A 
HETATM    5  C11 UNL     1      -1.651  88.614 132.414  1.00  0.00     0.031 A 
HETATM    6  C12 UNL     1      -0.777  88.250 131.419  1.00  0.00     0.027 A 
ENDROOT
BRANCH   1   7
HETATM    7  S1  UNL     1       1.208  88.680 129.591  1.00  0.00     0.258 S 
HETATM    8  O1  UNL     1       1.940  89.871 129.036  1.00  0.00    -0.201 OA
HETATM    9  O2  UNL     1       2.241  87.765 130.178  1.00  0.00    -0.201 OA
BRANCH   7  10
HETATM   10  N2  UNL     1       0.390  87.863 128.312  1.00  0.00    -0.315 N 
ATOM     11  H2  UNL     1      -0.555  87.487 128.381  1.00  0.00     0.172 HD
BRANCH  10  12
HETATM   12  C3  UNL     1       1.210  87.781 127.138  1.00  0.00     0.145 C 
BRANCH  12  13
HETATM   13  C2  UNL     1       0.676  86.693 126.284  1.00  0.00     0.124 C 
BRANCH  13  14
HETATM   14  C1  UNL     1      -0.174  85.815 126.736  1.00  0.00    -0.076 C 
BRANCH  14  15
HETATM   15  N1  UNL     1      -0.663  84.760 127.244  1.00  0.00    -0.370 N 
ATOM     16  H12 UNL     1      -0.581  84.197 126.397  1.00  0.00     0.165 HD
ATOM     17  H11 UNL     1      -1.074  84.103 127.908  1.00  0.00     0.165 HD
ENDBRANCH  14  15
ENDBRANCH  13  14
ENDBRANCH  12  13
ENDBRANCH  10  12
ENDBRANCH   7  10
ENDBRANCH   1   7
BRANCH   4  18
HETATM   18  N3  UNL     1      -2.646  90.243 133.941  1.00  0.00    -0.341 N 
ATOM     19  H3  UNL     1      -3.535  90.629 133.621  1.00  0.00     0.167 HD
BRANCH  18  20
HETATM   20  C8  UNL     1      -2.509  90.101 135.321  1.00  0.00     0.122 A 
HETATM   21  C9  UNL     1      -2.903  88.980 136.041  1.00  0.00     0.137 A 
HETATM   22  N4  UNL     1      -2.636  89.189 137.328  1.00  0.00    -0.358 N 
HETATM   23  C10 UNL     1      -2.094  90.395 137.414  1.00  0.00     0.182 A 
ATOM     24  H4  UNL     1      -2.815  88.545 138.099  1.00  0.00     0.166 HD
HETATM   25  N5  UNL     1      -2.011  90.959 136.198  1.00  0.00    -0.337 N 
ATOM     26  H5  UNL     1      -1.633  91.883 135.988  1.00  0.00     0.168 HD
ENDBRANCH  18  20
ENDBRANCH   4  18
TORSDOF 8
ENDMDL
MODEL 2
REMARK VINA RESULT: -6.219878600      1.559      1.928
REMARK  8 active torsions:
REMARK  status: ('A' for Active; 'I' for Inactive)
REMARK    1  A    between atoms: N1_1  and  C1_4 
REMARK    2  A    between atoms: C1_4  and  C2_5 
REMARK    3  A    between atoms: C2_5  and  C3_6 
REMARK    4  A    between atoms: C3_6  and  N2_7 
REMARK    5  A    between atoms: N2_7  and  S1_9 
REMARK    6  A    between atoms: S1_9  and  C4_12 
REMARK    7  A    between atoms: C7_15  and  N3_16 
REMARK    8  A    between atoms: N3_16  and  C8_18 
ROOT
HETATM    1  C4  UNL     1      -0.006  89.237 131.109  1.00  0.00     0.079 A 
HETATM    2  C5  UNL     1      -0.247  90.485 131.631  1.00  0.00     0.027 A 
HETATM    3  C6  UNL     1      -1.219  90.709 132.620  1.00  0.00     0.031 A 
HETATM    4  C7  UNL     1      -1.983  89.683 133.116  1.00  0.00     0.033 A 
HETATM    5  C11 UNL     1      -1.723  88.413 132.571  1.00  0.00     0.031 A 
HETATM    6  C12 UNL     1      -0.770  88.204 131.604  1.00  0.00     0.027 A 
ENDROOT
BRANCH   1   7
HETATM    7  S1  UNL     1       1.206  88.960 129.876  1.00  0.00     0.258 S 
HETATM    8  O1  UNL     1       1.982  90.216 129.583  1.00  0.00    -0.201 OA
HETATM    9  O2  UNL     1       2.188  87.949 130.389  1.00  0.00    -0.201 OA
BRANCH   7  10
HETATM   10  N2  UNL     1       0.499  88.372 128.418  1.00  0.00    -0.315 N 
ATOM     11  H2  UNL     1      -0.501  88.223 128.283  1.00  0.00     0.172 HD
BRANCH  10  12
HETATM   12  C3  UNL     1       1.497  88.120 127.419  1.00  0.00     0.145 C 
BRANCH  12  13
HETATM   13  C2  UNL     1       0.928  87.163 126.438  1.00  0.00     0.124 C 
BRANCH  13  14
HETATM   14  C1  UNL     1      -0.044  86.354 126.748  1.00  0.00    -0.076 C 
BRANCH  14  15
HETATM   15  N1  UNL     1      -0.687  85.312 127.082  1.00  0.00    -0.370 N 
ATOM     16  H12 UNL     1      -0.120  85.107 127.904  1.00  0.00     0.165 HD
ATOM     17  H11 UNL     1      -1.370  84.555 127.089  1.00  0.00     0.165 HD
ENDBRANCH  14  15
ENDBRANCH  13  14
ENDBRANCH  12  13
ENDBRANCH  10  12
ENDBRANCH   7  10
ENDBRANCH   1   7
BRANCH   4  18
HETATM   18  N3  UNL     1      -2.989  89.841 134.099  1.00  0.00    -0.341 N 
ATOM     19  H3  UNL     1      -2.971  90.720 134.615  1.00  0.00     0.167 HD
BRANCH  18  20
HETATM   20  C8  UNL     1      -4.003  88.950 134.453  1.00  0.00     0.122 A 
HETATM   21  C9  UNL     1      -5.170  88.755 133.726  1.00  0.00     0.137 A 
HETATM   22  N4  UNL     1      -5.914  87.848 134.355  1.00  0.00    -0.358 N 
HETATM   23  C10 UNL     1      -5.239  87.485 135.437  1.00  0.00     0.182 A 
ATOM     24  H4  UNL     1      -6.826  87.500 134.062  1.00  0.00     0.166 HD
HETATM   25  N5  UNL     1      -4.074  88.150 135.506  1.00  0.00    -0.337 N 
ATOM     26  H5  UNL     1      -3.370  88.055 136.238  1.00  0.00     0.168 HD
ENDBRANCH  18  20
ENDBRANCH   4  18
TORSDOF 8
ENDMDL
MODEL 3
REMARK VINA RESULT: -6.096411708      3.661      7.602
REMARK  8 active torsions:
REMARK  status: ('A' for Active; 'I' for Inactive)
REMARK    1  A    between atoms: N1_1  and  C1_4 
REMARK    2  A    between atoms: C1_4  and  C2_5 
REMARK    3  A    between atoms: C2_5  and  C3_6 
REMARK    4  A    between atoms: C3_6  and  N2_7 
REMARK    5  A    between atoms: N2_7  and  S1_9 
REMARK    6  A    between atoms: S1_9  and  C4_12 
REMARK    7  A    between atoms: C7_15  and  N3_16 
REMARK    8  A    between atoms: N3_16  and  C8_18 
ROOT
HETATM    1  C4  UNL     1      -2.920  87.576 132.563  1.00  0.00     0.079 A 
HETATM    2  C5  UNL     1      -2.742  88.656 131.731  1.00  0.00     0.027 A 
HETATM    3  C6  UNL     1      -1.516  88.923 131.100  1.00  0.00     0.031 A 
HETATM    4  C7  UNL     1      -0.426  88.112 131.287  1.00  0.00     0.033 A 
HETATM    5  C11 UNL     1      -0.625  87.012 132.140  1.00  0.00     0.031 A 
HETATM    6  C12 UNL     1      -1.828  86.759 132.752  1.00  0.00     0.027 A 
ENDROOT
BRANCH   1   7
HETATM    7  S1  UNL     1      -4.450  87.246 133.348  1.00  0.00     0.258 S 
HETATM    8  O1  UNL     1      -5.465  88.310 133.032  1.00  0.00    -0.201 OA
HETATM    9  O2  UNL     1      -4.991  85.953 132.815  1.00  0.00    -0.201 OA
BRANCH   7  10
HETATM   10  N2  UNL     1      -4.266  87.119 135.058  1.00  0.00    -0.315 N 
ATOM     11  H2  UNL     1      -4.162  86.239 135.561  1.00  0.00     0.172 HD
BRANCH  10  12
HETATM   12  C3  UNL     1      -4.277  88.411 135.680  1.00  0.00     0.145 C 
BRANCH  12  13
HETATM   13  C2  UNL     1      -2.871  88.858 135.828  1.00  0.00     0.124 C 
BRANCH  13  14
HETATM   14  C1  UNL     1      -2.511  90.090 135.604  1.00  0.00    -0.076 C 
BRANCH  14  15
HETATM   15  N1  UNL     1      -1.825  91.156 135.550  1.00  0.00    -0.370 N 
ATOM     16  H12 UNL     1      -1.080  90.823 136.163  1.00  0.00     0.165 HD
ATOM     17  H11 UNL     1      -1.515  92.100 135.316  1.00  0.00     0.165 HD
ENDBRANCH  14  15
ENDBRANCH  13  14
ENDBRANCH  12  13
ENDBRANCH  10  12
ENDBRANCH   7  10
ENDBRANCH   1   7
BRANCH   4  18
HETATM   18  N3  UNL     1       0.842  88.331 130.696  1.00  0.00    -0.341 N 
ATOM     19  H3  UNL     1       1.640  87.947 131.203  1.00  0.00     0.167 HD
BRANCH  18  20
HETATM   20  C8  UNL     1       1.143  89.004 129.512  1.00  0.00     0.122 A 
HETATM   21  C9  UNL     1       1.266  88.396 128.269  1.00  0.00     0.137 A 
HETATM   22  N4  UNL     1       1.568  89.330 127.370  1.00  0.00    -0.358 N 
HETATM   23  C10 UNL     1       1.631  90.482 128.023  1.00  0.00     0.182 A 
ATOM     24  H4  UNL     1       1.722  89.186 126.372  1.00  0.00     0.166 HD
HETATM   25  N5  UNL     1       1.373  90.295 129.327  1.00  0.00    -0.337 N 
ATOM     26  H5  UNL     1       1.358  91.018 130.047  1.00  0.00     0.168 HD
ENDBRANCH  18  20
ENDBRANCH   4  18
TORSDOF 8
ENDMDL
MODEL 4
REMARK VINA RESULT: -6.050405426      1.614      2.239
REMARK  8 active torsions:
REMARK  status: ('A' for Active; 'I' for Inactive)
REMARK    1  A    between atoms: N1_1  and  C1_4 
REMARK    2  A    between atoms: C1_4  and  C2_5 
REMARK    3  A    between atoms: C2_5  and  C3_6 
REMARK    4  A    between atoms: C3_6  and  N2_7 
REMARK    5  A    between atoms: N2_7  and  S1_9 
REMARK    6  A    between atoms: S1_9  and  C4_12 
REMARK    7  A    between atoms: C7_15  and  N3_16 
REMARK    8  A    between atoms: N3_16  and  C8_18 
ROOT
HETATM    1  C4  UNL     1      -0.007  89.395 130.913  1.00  0.00     0.079 A 
HETATM    2  C5  UNL     1      -0.716  88.302 131.350  1.00  0.00     0.027 A 
HETATM    3  C6  UNL     1      -1.662  88.386 132.385  1.00  0.00     0.031 A 
HETATM    4  C7  UNL     1      -1.925  89.576 133.015  1.00  0.00     0.033 A 
HETATM    5  C11 UNL     1      -1.191  90.684 132.556  1.00  0.00     0.031 A 
HETATM    6  C12 UNL     1      -0.268  90.591 131.543  1.00  0.00     0.027 A 
ENDROOT
BRANCH   1   7
HETATM    7  S1  UNL     1       1.173  89.286 129.622  1.00  0.00     0.258 S 
HETATM    8  O1  UNL     1       2.029  90.522 129.561  1.00  0.00    -0.201 OA
HETATM    9  O2  UNL     1       2.088  88.133 129.908  1.00  0.00    -0.201 OA
BRANCH   7  10
HETATM   10  N2  UNL     1       0.413  89.040 128.094  1.00  0.00    -0.315 N 
ATOM     11  H2  UNL     1      -0.593  89.094 127.937  1.00  0.00     0.172 HD
BRANCH  10  12
HETATM   12  C3  UNL     1       1.378  88.751 127.073  1.00  0.00     0.145 C 
BRANCH  12  13
HETATM   13  C2  UNL     1       1.101  87.388 126.557  1.00  0.00     0.124 C 
BRANCH  13  14
HETATM   14  C1  UNL     1       0.022  86.734 126.881  1.00  0.00    -0.076 C 
BRANCH  14  15
HETATM   15  N1  UNL     1      -0.929  85.894 126.870  1.00  0.00    -0.370 N 
ATOM     16  H12 UNL     1      -0.632  85.423 126.015  1.00  0.00     0.165 HD
ATOM     17  H11 UNL     1      -1.771  85.379 127.126  1.00  0.00     0.165 HD
ENDBRANCH  14  15
ENDBRANCH  13  14
ENDBRANCH  12  13
ENDBRANCH  10  12
ENDBRANCH   7  10
ENDBRANCH   1   7
BRANCH   4  18
HETATM   18  N3  UNL     1      -2.852  89.729 134.075  1.00  0.00    -0.341 N 
ATOM     19  H3  UNL     1      -2.728  90.558 134.656  1.00  0.00     0.167 HD
BRANCH  18  20
HETATM   20  C8  UNL     1      -3.913  88.895 134.426  1.00  0.00     0.122 A 
HETATM   21  C9  UNL     1      -5.094  88.775 133.704  1.00  0.00     0.137 A 
HETATM   22  N4  UNL     1      -5.885  87.906 134.328  1.00  0.00    -0.358 N 
HETATM   23  C10 UNL     1      -5.226  87.494 135.402  1.00  0.00     0.182 A 
ATOM     24  H4  UNL     1      -6.817  87.614 134.037  1.00  0.00     0.166 HD
HETATM   25  N5  UNL     1      -4.024  88.089 135.471  1.00  0.00    -0.337 N 
ATOM     26  H5  UNL     1      -3.322  87.947 136.198  1.00  0.00     0.168 HD
ENDBRANCH  18  20
ENDBRANCH   4  18
TORSDOF 8
ENDMDL
MODEL 5
REMARK VINA RESULT: -6.010458675      3.519      5.991
REMARK  8 active torsions:
REMARK  status: ('A' for Active; 'I' for Inactive)
REMARK    1  A    between atoms: N1_1  and  C1_4 
REMARK    2  A    between atoms: C1_4  and  C2_5 
REMARK    3  A    between atoms: C2_5  and  C3_6 
REMARK    4  A    between atoms: C3_6  and  N2_7 
REMARK    5  A    between atoms: N2_7  and  S1_9 
REMARK    6  A    between atoms: S1_9  and  C4_12 
REMARK    7  A    between atoms: C7_15  and  N3_16 
REMARK    8  A    between atoms: N3_16  and  C8_18 
ROOT
HETATM    1  C4  UNL     1      -1.379  91.201 131.129  1.00  0.00     0.079 A 
HETATM    2  C5  UNL     1      -0.165  90.564 131.235  1.00  0.00     0.027 A 
HETATM    3  C6  UNL     1      -0.061  89.179 131.448  1.00  0.00     0.031 A 
HETATM    4  C7  UNL     1      -1.177  88.390 131.563  1.00  0.00     0.033 A 
HETATM    5  C11 UNL     1      -2.410  89.057 131.452  1.00  0.00     0.031 A 
HETATM    6  C12 UNL     1      -2.501  90.411 131.243  1.00  0.00     0.027 A 
ENDROOT
BRANCH   1   7
HETATM    7  S1  UNL     1      -1.505  92.927 130.864  1.00  0.00     0.258 S 
HETATM    8  O1  UNL     1      -0.221  93.490 130.318  1.00  0.00    -0.201 OA
HETATM    9  O2  UNL     1      -2.565  93.176 129.833  1.00  0.00    -0.201 OA
BRANCH   7  10
HETATM   10  N2  UNL     1      -1.921  93.759 132.316  1.00  0.00    -0.315 N 
ATOM     11  H2  UNL     1      -2.586  94.531 132.366  1.00  0.00     0.172 HD
BRANCH  10  12
HETATM   12  C3  UNL     1      -1.214  93.225 133.444  1.00  0.00     0.145 C 
BRANCH  12  13
HETATM   13  C2  UNL     1      -2.194  92.518 134.304  1.00  0.00     0.124 C 
BRANCH  13  14
HETATM   14  C1  UNL     1      -1.977  91.314 134.751  1.00  0.00    -0.076 C 
BRANCH  14  15
HETATM   15  N1  UNL     1      -2.129  90.087 135.035  1.00  0.00    -0.370 N 
ATOM     16  H12 UNL     1      -2.354  89.794 134.084  1.00  0.00     0.165 HD
ATOM     17  H11 UNL     1      -2.179  89.210 135.555  1.00  0.00     0.165 HD
ENDBRANCH  14  15
ENDBRANCH  13  14
ENDBRANCH  12  13
ENDBRANCH  10  12
ENDBRANCH   7  10
ENDBRANCH   1   7
BRANCH   4  18
HETATM   18  N3  UNL     1      -1.146  86.993 131.794  1.00  0.00    -0.341 N 
ATOM     19  H3  UNL     1      -0.460  86.469 131.251  1.00  0.00     0.167 HD
BRANCH  18  20
HETATM   20  C8  UNL     1      -1.930  86.241 132.668  1.00  0.00     0.122 A 
HETATM   21  C9  UNL     1      -1.885  86.342 134.053  1.00  0.00     0.137 A 
HETATM   22  N4  UNL     1      -2.753  85.474 134.569  1.00  0.00    -0.358 N 
HETATM   23  C10 UNL     1      -3.322  84.851 133.547  1.00  0.00     0.182 A 
ATOM     24  H4  UNL     1      -2.942  85.319 135.559  1.00  0.00     0.166 HD
HETATM   25  N5  UNL     1      -2.829  85.310 132.385  1.00  0.00    -0.337 N 
ATOM     26  H5  UNL     1      -3.098  84.999 131.452  1.00  0.00     0.168 HD
ENDBRANCH  18  20
ENDBRANCH   4  18
TORSDOF 8
ENDMDL
