MODEL 1
REMARK VINA RESULT: -6.782029928      0.000      0.000
REMARK  6 active torsions:
REMARK  status: ('A' for Active; 'I' for Inactive)
REMARK    1  A    between atoms: N1_2  and  C2_5 
REMARK    2  A    between atoms: C2_5  and  C3_6 
REMARK    3  A    between atoms: C3_6  and  N2_7 
REMARK       I    between atoms: N2_7  and  C4_9 
REMARK       I    between atoms: C4_9  and  N5_14 
REMARK    4  A    between atoms: N5_14  and  C6_16 
REMARK    5  A    between atoms: C6_16  and  C7_17 
REMARK    6  A    between atoms: C7_17  and  N6_18 
ROOT
HETATM    1  N2  UNL     1      -0.747  88.048 132.143  1.00  0.00    -0.224 N 
ATOM      2  H2  UNL     1      -0.208  88.556 132.844  1.00  0.00     0.177 HD
HETATM    3  C4  UNL     1      -1.021  88.714 130.941  1.00  0.00     0.683 C 
HETATM    4  N3  UNL     1      -0.092  88.858 130.077  1.00  0.00    -0.126 N 
ATOM      5  H3  UNL     1      -0.305  89.344 129.205  1.00  0.00     0.197 HD
HETATM    6  C5  UNL     1       1.206  88.377 130.276  1.00  0.00     0.196 C 
HETATM    7  N4  UNL     1       2.302  87.987 130.431  1.00  0.00    -0.171 NA
HETATM    8  N5  UNL     1      -2.301  89.222 130.680  1.00  0.00    -0.224 N 
ATOM      9  H5  UNL     1      -3.072  88.600 130.437  1.00  0.00     0.177 HD
ENDROOT
BRANCH   1  10
HETATM   10  C3  UNL     1      -1.162  86.700 132.476  1.00  0.00     0.165 C 
BRANCH  10  11
HETATM   11  C2  UNL     1      -1.273  86.498 133.960  1.00  0.00     0.252 C 
BRANCH  11  12
HETATM   12  N1  UNL     1      -2.303  85.547 134.280  1.00  0.00    -0.077 N 
HETATM   13  C1  UNL     1      -3.210  85.309 133.200  1.00  0.00     0.267 C 
ATOM     14  H12 UNL     1      -2.806  85.828 135.121  1.00  0.00     0.276 HD
ATOM     15  H11 UNL     1      -1.896  84.672 134.610  1.00  0.00     0.276 HD
ENDBRANCH  11  12
ENDBRANCH  10  11
ENDBRANCH   1  10
BRANCH   8  16
HETATM   16  C6  UNL     1      -2.498  90.646 130.765  1.00  0.00     0.158 C 
BRANCH  16  17
HETATM   17  C7  UNL     1      -3.804  91.038 131.368  1.00  0.00     0.143 C 
BRANCH  17  18
HETATM   18  N6  UNL     1      -3.940  90.432 132.643  1.00  0.00    -0.379 N 
HETATM   19  C8  UNL     1      -2.828  90.788 133.554  1.00  0.00     0.202 C 
HETATM   20  C9  UNL     1      -2.959  89.939 134.666  1.00  0.00    -0.163 C 
HETATM   21  C10 UNL     1      -2.831  89.279 135.891  1.00  0.00     0.085 C 
HETATM   22  C11 UNL     1      -3.916  88.149 135.838  1.00  0.00     0.038 C 
HETATM   23  C12 UNL     1      -5.118  88.449 135.064  1.00  0.00    -0.024 C 
HETATM   24  C13 UNL     1      -5.289  88.490 133.631  1.00  0.00     0.013 C 
HETATM   25  C14 UNL     1      -4.411  89.118 132.648  1.00  0.00     0.086 C 
ENDBRANCH  17  18
ENDBRANCH  16  17
ENDBRANCH   8  16
TORSDOF 6
ENDMDL
MODEL 2
REMARK VINA RESULT: -6.761775616      2.095      3.932
REMARK  6 active torsions:
REMARK  status: ('A' for Active; 'I' for Inactive)
REMARK    1  A    between atoms: N1_2  and  C2_5 
REMARK    2  A    between atoms: C2_5  and  C3_6 
REMARK    3  A    between atoms: C3_6  and  N2_7 
REMARK       I    between atoms: N2_7  and  C4_9 
REMARK       I    between atoms: C4_9  and  N5_14 
REMARK    4  A    between atoms: N5_14  and  C6_16 
REMARK    5  A    between atoms: C6_16  and  C7_17 
REMARK    6  A    between atoms: C7_17  and  N6_18 
ROOT
HETATM    1  N2  UNL     1      -1.397  91.366 132.988  1.00  0.00    -0.224 N 
ATOM      2  H2  UNL     1      -2.411  91.359 132.875  1.00  0.00     0.177 HD
HETATM    3  C4  UNL     1      -0.633  90.837 131.940  1.00  0.00     0.683 C 
HETATM    4  N3  UNL     1      -0.486  91.512 130.866  1.00  0.00    -0.126 N 
ATOM      5  H3  UNL     1       0.074  91.116 130.111  1.00  0.00     0.197 HD
HETATM    6  C5  UNL     1      -1.062  92.773 130.683  1.00  0.00     0.196 C 
HETATM    7  N4  UNL     1      -1.544  93.829 130.510  1.00  0.00    -0.171 NA
HETATM    8  N5  UNL     1      -0.031  89.576 132.059  1.00  0.00    -0.224 N 
ATOM      9  H5  UNL     1       0.794  89.443 132.643  1.00  0.00     0.177 HD
ENDROOT
BRANCH   1  10
HETATM   10  C3  UNL     1      -0.873  91.923 134.219  1.00  0.00     0.165 C 
BRANCH  10  11
HETATM   11  C2  UNL     1      -1.710  91.546 135.407  1.00  0.00     0.252 C 
BRANCH  11  12
HETATM   12  N1  UNL     1      -2.076  90.156 135.365  1.00  0.00    -0.077 N 
HETATM   13  C1  UNL     1      -2.485  89.638 136.634  1.00  0.00     0.267 C 
ATOM     14  H12 UNL     1      -1.321  89.595 134.970  1.00  0.00     0.276 HD
ATOM     15  H11 UNL     1      -2.795  89.993 134.659  1.00  0.00     0.276 HD
ENDBRANCH  11  12
ENDBRANCH  10  11
ENDBRANCH   1  10
BRANCH   8  16
HETATM   16  C6  UNL     1      -0.610  88.475 131.333  1.00  0.00     0.158 C 
BRANCH  16  17
HETATM   17  C7  UNL     1      -1.047  87.345 132.203  1.00  0.00     0.143 C 
BRANCH  17  18
HETATM   18  N6  UNL     1      -2.226  87.711 132.902  1.00  0.00    -0.379 N 
HETATM   19  C8  UNL     1      -2.564  86.745 133.972  1.00  0.00     0.202 C 
HETATM   20  C9  UNL     1      -3.858  87.090 134.402  1.00  0.00    -0.163 C 
HETATM   21  C10 UNL     1      -5.087  87.189 135.058  1.00  0.00     0.085 C 
HETATM   22  C11 UNL     1      -5.860  88.299 134.267  1.00  0.00     0.038 C 
HETATM   23  C12 UNL     1      -5.041  89.346 133.664  1.00  0.00    -0.024 C 
HETATM   24  C13 UNL     1      -4.206  89.283 132.488  1.00  0.00     0.013 C 
HETATM   25  C14 UNL     1      -3.260  88.233 132.124  1.00  0.00     0.086 C 
ENDBRANCH  17  18
ENDBRANCH  16  17
ENDBRANCH   8  16
TORSDOF 6
ENDMDL
MODEL 3
REMARK VINA RESULT: -6.606849554      2.386      4.844
REMARK  6 active torsions:
REMARK  status: ('A' for Active; 'I' for Inactive)
REMARK    1  A    between atoms: N1_2  and  C2_5 
REMARK    2  A    between atoms: C2_5  and  C3_6 
REMARK    3  A    between atoms: C3_6  and  N2_7 
REMARK       I    between atoms: N2_7  and  C4_9 
REMARK       I    between atoms: C4_9  and  N5_14 
REMARK    4  A    between atoms: N5_14  and  C6_16 
REMARK    5  A    between atoms: C6_16  and  C7_17 
REMARK    6  A    between atoms: C7_17  and  N6_18 
ROOT
HETATM    1  N2  UNL     1      -2.704  88.556 133.080  1.00  0.00    -0.224 N 
ATOM      2  H2  UNL     1      -3.174  88.924 132.254  1.00  0.00     0.177 HD
HETATM    3  C4  UNL     1      -2.916  89.230 134.291  1.00  0.00     0.683 C 
HETATM    4  N3  UNL     1      -4.029  89.090 134.900  1.00  0.00    -0.126 N 
ATOM      5  H3  UNL     1      -4.170  89.585 135.781  1.00  0.00     0.197 HD
HETATM    6  C5  UNL     1      -5.062  88.285 134.410  1.00  0.00     0.196 C 
HETATM    7  N4  UNL     1      -5.943  87.621 134.008  1.00  0.00    -0.171 NA
HETATM    8  N5  UNL     1      -1.921  90.054 134.835  1.00  0.00    -0.224 N 
ATOM      9  H5  UNL     1      -1.093  89.654 135.276  1.00  0.00     0.177 HD
ENDROOT
BRANCH   1  10
HETATM   10  C3  UNL     1      -1.874  87.382 132.901  1.00  0.00     0.165 C 
BRANCH  10  11
HETATM   11  C2  UNL     1      -1.761  86.576 134.163  1.00  0.00     0.252 C 
BRANCH  11  12
HETATM   12  N1  UNL     1      -2.757  85.541 134.210  1.00  0.00    -0.077 N 
HETATM   13  C1  UNL     1      -3.285  85.202 132.924  1.00  0.00     0.267 C 
ATOM     14  H12 UNL     1      -3.507  85.790 134.855  1.00  0.00     0.276 HD
ATOM     15  H11 UNL     1      -2.396  84.712 134.682  1.00  0.00     0.276 HD
ENDBRANCH  11  12
ENDBRANCH  10  11
ENDBRANCH   1  10
BRANCH   8  16
HETATM   16  C6  UNL     1      -2.100  91.480 134.753  1.00  0.00     0.158 C 
BRANCH  16  17
HETATM   17  C7  UNL     1      -1.473  92.098 133.549  1.00  0.00     0.143 C 
BRANCH  17  18
HETATM   18  N6  UNL     1      -2.439  92.219 132.518  1.00  0.00    -0.379 N 
HETATM   19  C8  UNL     1      -1.866  92.789 131.278  1.00  0.00     0.202 C 
HETATM   20  C9  UNL     1      -2.963  93.077 130.448  1.00  0.00    -0.163 C 
HETATM   21  C10 UNL     1      -3.811  93.445 129.401  1.00  0.00     0.085 C 
HETATM   22  C11 UNL     1      -5.253  93.269 129.990  1.00  0.00     0.038 C 
HETATM   23  C12 UNL     1      -5.414  92.220 130.992  1.00  0.00    -0.024 C 
HETATM   24  C13 UNL     1      -4.997  92.212 132.374  1.00  0.00     0.013 C 
HETATM   25  C14 UNL     1      -3.710  92.634 132.918  1.00  0.00     0.086 C 
ENDBRANCH  17  18
ENDBRANCH  16  17
ENDBRANCH   8  16
TORSDOF 6
ENDMDL
MODEL 4
REMARK VINA RESULT: -6.595147170      2.295      3.568
REMARK  6 active torsions:
REMARK  status: ('A' for Active; 'I' for Inactive)
REMARK    1  A    between atoms: N1_2  and  C2_5 
REMARK    2  A    between atoms: C2_5  and  C3_6 
REMARK    3  A    between atoms: C3_6  and  N2_7 
REMARK       I    between atoms: N2_7  and  C4_9 
REMARK       I    between atoms: C4_9  and  N5_14 
REMARK    4  A    between atoms: N5_14  and  C6_16 
REMARK    5  A    between atoms: C6_16  and  C7_17 
REMARK    6  A    between atoms: C7_17  and  N6_18 
ROOT
HETATM    1  N2  UNL     1      -0.659  88.486 128.731  1.00  0.00    -0.224 N 
ATOM      2  H2  UNL     1      -0.970  87.631 129.192  1.00  0.00     0.177 HD
HETATM    3  C4  UNL     1      -0.505  89.625 129.532  1.00  0.00     0.683 C 
HETATM    4  N3  UNL     1       0.505  89.715 130.308  1.00  0.00    -0.126 N 
ATOM      5  H3  UNL     1       0.606  90.550 130.885  1.00  0.00     0.197 HD
HETATM    6  C5  UNL     1       1.478  88.714 130.400  1.00  0.00     0.196 C 
HETATM    7  N4  UNL     1       2.299  87.881 130.495  1.00  0.00    -0.171 NA
HETATM    8  N5  UNL     1      -1.446  90.663 129.489  1.00  0.00    -0.224 N 
ATOM      9  H5  UNL     1      -1.484  91.304 128.697  1.00  0.00     0.177 HD
ENDROOT
BRANCH   1  10
HETATM   10  C3  UNL     1      -0.416  88.416 127.304  1.00  0.00     0.165 C 
BRANCH  10  11
HETATM   11  C2  UNL     1      -0.263  87.000 126.829  1.00  0.00     0.252 C 
BRANCH  11  12
HETATM   12  N1  UNL     1      -1.406  86.581 126.065  1.00  0.00    -0.077 N 
HETATM   13  C1  UNL     1      -1.650  87.397 124.915  1.00  0.00     0.267 C 
ATOM     14  H12 UNL     1      -2.237  86.531 126.655  1.00  0.00     0.276 HD
ATOM     15  H11 UNL     1      -1.325  85.599 125.801  1.00  0.00     0.276 HD
ENDBRANCH  11  12
ENDBRANCH  10  11
ENDBRANCH   1  10
BRANCH   8  16
HETATM   16  C6  UNL     1      -2.358  90.799 130.595  1.00  0.00     0.158 C 
BRANCH  16  17
HETATM   17  C7  UNL     1      -3.331  89.675 130.715  1.00  0.00     0.143 C 
BRANCH  17  18
HETATM   18  N6  UNL     1      -3.625  89.443 132.083  1.00  0.00    -0.379 N 
HETATM   19  C8  UNL     1      -2.599  90.022 132.981  1.00  0.00     0.202 C 
HETATM   20  C9  UNL     1      -2.881  89.512 134.260  1.00  0.00    -0.163 C 
HETATM   21  C10 UNL     1      -2.910  89.211 135.624  1.00  0.00     0.085 C 
HETATM   22  C11 UNL     1      -4.030  88.124 135.759  1.00  0.00     0.038 C 
HETATM   23  C12 UNL     1      -5.131  88.215 134.804  1.00  0.00    -0.024 C 
HETATM   24  C13 UNL     1      -5.150  87.864 133.403  1.00  0.00     0.013 C 
HETATM   25  C14 UNL     1      -4.149  88.187 132.391  1.00  0.00     0.086 C 
ENDBRANCH  17  18
ENDBRANCH  16  17
ENDBRANCH   8  16
TORSDOF 6
ENDMDL
MODEL 5
REMARK VINA RESULT: -6.577357420      2.446      3.973
REMARK  6 active torsions:
REMARK  status: ('A' for Active; 'I' for Inactive)
REMARK    1  A    between atoms: N1_2  and  C2_5 
REMARK    2  A    between atoms: C2_5  and  C3_6 
REMARK    3  A    between atoms: C3_6  and  N2_7 
REMARK       I    between atoms: N2_7  and  C4_9 
REMARK       I    between atoms: C4_9  and  N5_14 
REMARK    4  A    between atoms: N5_14  and  C6_16 
REMARK    5  A    between atoms: C6_16  and  C7_17 
REMARK    6  A    between atoms: C7_17  and  N6_18 
ROOT
HETATM    1  N2  UNL     1      -0.547  88.031 128.388  1.00  0.00    -0.224 N 
ATOM      2  H2  UNL     1      -0.779  87.145 128.838  1.00  0.00     0.177 HD
HETATM    3  C4  UNL     1      -0.645  89.191 129.168  1.00  0.00     0.683 C 
HETATM    4  N3  UNL     1       0.252  89.436 130.042  1.00  0.00    -0.126 N 
ATOM      5  H3  UNL     1       0.170  90.284 130.603  1.00  0.00     0.197 HD
HETATM    6  C5  UNL     1       1.344  88.590 130.263  1.00  0.00     0.196 C 
HETATM    7  N4  UNL     1       2.261  87.887 130.466  1.00  0.00    -0.171 NA
HETATM    8  N5  UNL     1      -1.716  90.079 128.999  1.00  0.00    -0.224 N 
ATOM      9  H5  UNL     1      -1.761  90.697 128.189  1.00  0.00     0.177 HD
ENDROOT
BRANCH   1  10
HETATM   10  C3  UNL     1      -0.145  87.979 126.997  1.00  0.00     0.165 C 
BRANCH  10  11
HETATM   11  C2  UNL     1      -0.476  86.658 126.365  1.00  0.00     0.252 C 
BRANCH  11  12
HETATM   12  N1  UNL     1      -1.787  86.677 125.775  1.00  0.00    -0.077 N 
HETATM   13  C1  UNL     1      -1.952  87.702 124.791  1.00  0.00     0.267 C 
ATOM     14  H12 UNL     1      -2.506  86.748 126.495  1.00  0.00     0.276 HD
ATOM     15  H11 UNL     1      -2.023  85.763 125.389  1.00  0.00     0.276 HD
ENDBRANCH  11  12
ENDBRANCH  10  11
ENDBRANCH   1  10
BRANCH   8  16
HETATM   16  C6  UNL     1      -2.751  90.094 129.999  1.00  0.00     0.158 C 
BRANCH  16  17
HETATM   17  C7  UNL     1      -2.307  90.636 131.316  1.00  0.00     0.143 C 
BRANCH  17  18
HETATM   18  N6  UNL     1      -2.774  89.795 132.359  1.00  0.00    -0.379 N 
HETATM   19  C8  UNL     1      -3.718  88.766 131.867  1.00  0.00     0.202 C 
HETATM   20  C9  UNL     1      -4.278  88.182 133.017  1.00  0.00    -0.163 C 
HETATM   21  C10 UNL     1      -4.981  87.397 133.933  1.00  0.00     0.085 C 
HETATM   22  C11 UNL     1      -4.634  88.023 135.327  1.00  0.00     0.038 C 
HETATM   23  C12 UNL     1      -3.313  88.633 135.446  1.00  0.00    -0.024 C 
HETATM   24  C13 UNL     1      -2.841  89.890 134.918  1.00  0.00     0.013 C 
HETATM   25  C14 UNL     1      -3.046  90.424 133.575  1.00  0.00     0.086 C 
ENDBRANCH  17  18
ENDBRANCH  16  17
ENDBRANCH   8  16
TORSDOF 6
ENDMDL
