MODEL 1
REMARK VINA RESULT: -6.930923948      0.000      0.000
REMARK  7 active torsions:
REMARK  status: ('A' for Active; 'I' for Inactive)
REMARK    1  A    between atoms: C3_4  and  C4_5 
REMARK    2  A    between atoms: C5_6  and  C6_7 
REMARK    3  A    between atoms: C6_7  and  C7_8 
REMARK    4  A    between atoms: C7_8  and  C8_9 
REMARK    5  A    between atoms: C8_9  and  C9_10 
REMARK    6  A    between atoms: C9_10  and  N1_11 
REMARK    7  A    between atoms: N1_11  and  C10_13 
ROOT
HETATM    1  C6  UNL     1      -1.811  92.876 132.159  1.00  0.00     0.027 C 
ENDROOT
BRANCH   1   2
HETATM    2  C5  UNL     1      -1.188  92.699 130.863  1.00  0.00    -0.024 C 
HETATM    3  C4  UNL     1      -0.653  91.691 130.320  1.00  0.00     0.025 C 
BRANCH   3   4
HETATM    4  C3  UNL     1      -0.433  90.333 130.749  1.00  0.00     0.041 A 
HETATM    5  C2  UNL     1      -1.333  89.535 131.412  1.00  0.00     0.104 A 
HETATM    6  C1  UNL     1      -1.030  88.216 131.724  1.00  0.00     0.251 A 
HETATM    7  O1  UNL     1      -1.906  87.552 132.330  1.00  0.00    -0.268 OA
HETATM    8  N5  UNL     1       0.164  87.732 131.367  1.00  0.00    -0.275 N 
HETATM    9  C14 UNL     1       1.064  88.488 130.719  1.00  0.00     0.327 A 
ATOM     10  H5  UNL     1       0.396  86.765 131.591  1.00  0.00     0.173 HD
HETATM   11  N4  UNL     1       0.774  89.742 130.422  1.00  0.00    -0.308 N 
HETATM   12  O2  UNL     1       2.158  87.940 130.427  1.00  0.00    -0.247 OA
ATOM     13  H4  UNL     1       1.473  90.300 129.930  1.00  0.00     0.170 HD
ENDBRANCH   3   4
ENDBRANCH   1   2
BRANCH   1  14
HETATM   14  C7  UNL     1      -0.841  93.170 133.268  1.00  0.00     0.005 C 
BRANCH  14  15
HETATM   15  C8  UNL     1      -0.748  91.996 134.193  1.00  0.00     0.020 C 
BRANCH  15  16
HETATM   16  C9  UNL     1      -2.119  91.593 134.654  1.00  0.00     0.138 C 
BRANCH  16  17
HETATM   17  N1  UNL     1      -2.045  90.198 135.041  1.00  0.00    -0.226 N 
ATOM     18  H1  UNL     1      -1.242  89.823 135.545  1.00  0.00     0.177 HD
BRANCH  17  19
HETATM   19  C10 UNL     1      -3.063  89.444 134.709  1.00  0.00     0.677 A 
HETATM   20  N2  UNL     1      -3.947  89.841 133.788  1.00  0.00    -0.202 N 
HETATM   21  C11 UNL     1      -4.999  89.104 133.420  1.00  0.00     0.107 A 
ATOM     22  H2  UNL     1      -3.812  90.750 133.345  1.00  0.00     0.183 HD
HETATM   23  C12 UNL     1      -5.213  87.870 134.001  1.00  0.00     0.035 A 
HETATM   24  C13 UNL     1      -4.281  87.490 134.949  1.00  0.00     0.107 A 
HETATM   25  N3  UNL     1      -3.238  88.250 135.296  1.00  0.00    -0.202 N 
ATOM     26  H3  UNL     1      -2.579  87.924 136.003  1.00  0.00     0.183 HD
ENDBRANCH  17  19
ENDBRANCH  16  17
ENDBRANCH  15  16
ENDBRANCH  14  15
ENDBRANCH   1  14
TORSDOF 7
ENDMDL
MODEL 2
REMARK VINA RESULT: -6.818632930      0.605      1.731
REMARK  7 active torsions:
REMARK  status: ('A' for Active; 'I' for Inactive)
REMARK    1  A    between atoms: C3_4  and  C4_5 
REMARK    2  A    between atoms: C5_6  and  C6_7 
REMARK    3  A    between atoms: C6_7  and  C7_8 
REMARK    4  A    between atoms: C7_8  and  C8_9 
REMARK    5  A    between atoms: C8_9  and  C9_10 
REMARK    6  A    between atoms: C9_10  and  N1_11 
REMARK    7  A    between atoms: N1_11  and  C10_13 
ROOT
HETATM    1  C6  UNL     1      -1.706  92.810 132.391  1.00  0.00     0.027 C 
ENDROOT
BRANCH   1   2
HETATM    2  C5  UNL     1      -1.188  92.774 131.038  1.00  0.00    -0.024 C 
HETATM    3  C4  UNL     1      -0.665  91.841 130.365  1.00  0.00     0.025 C 
BRANCH   3   4
HETATM    4  C3  UNL     1      -0.361  90.462 130.650  1.00  0.00     0.041 A 
HETATM    5  C2  UNL     1       0.822  89.818 130.384  1.00  0.00     0.104 A 
HETATM    6  C1  UNL     1       1.022  88.496 130.760  1.00  0.00     0.251 A 
HETATM    7  O1  UNL     1       2.132  87.980 130.482  1.00  0.00    -0.268 OA
HETATM    8  N5  UNL     1       0.033  87.854 131.391  1.00  0.00    -0.275 N 
HETATM    9  C14 UNL     1      -1.134  88.456 131.664  1.00  0.00     0.327 A 
ATOM     10  H5  UNL     1       0.170  86.884 131.671  1.00  0.00     0.173 HD
HETATM   11  N4  UNL     1      -1.323  89.714 131.306  1.00  0.00    -0.308 N 
HETATM   12  O2  UNL     1      -2.001  87.766 132.260  1.00  0.00    -0.247 OA
ATOM     13  H4  UNL     1      -2.218  90.153 131.523  1.00  0.00     0.170 HD
ENDBRANCH   3   4
ENDBRANCH   1   2
BRANCH   1  14
HETATM   14  C7  UNL     1      -0.660  93.062 133.439  1.00  0.00     0.005 C 
BRANCH  14  15
HETATM   15  C8  UNL     1      -0.744  92.019 134.510  1.00  0.00     0.020 C 
BRANCH  15  16
HETATM   16  C9  UNL     1      -2.160  91.541 134.653  1.00  0.00     0.138 C 
BRANCH  16  17
HETATM   17  N1  UNL     1      -2.101  90.157 135.081  1.00  0.00    -0.226 N 
ATOM     18  H1  UNL     1      -1.313  89.795 135.619  1.00  0.00     0.177 HD
BRANCH  17  19
HETATM   19  C10 UNL     1      -3.112  89.396 134.742  1.00  0.00     0.677 A 
HETATM   20  N2  UNL     1      -4.000  89.794 133.827  1.00  0.00    -0.202 N 
HETATM   21  C11 UNL     1      -5.045  89.050 133.452  1.00  0.00     0.107 A 
ATOM     22  H2  UNL     1      -3.875  90.709 133.393  1.00  0.00     0.183 HD
HETATM   23  C12 UNL     1      -5.246  87.808 134.020  1.00  0.00     0.035 A 
HETATM   24  C13 UNL     1      -4.309  87.427 134.963  1.00  0.00     0.107 A 
HETATM   25  N3  UNL     1      -3.273  88.194 135.318  1.00  0.00    -0.202 N 
ATOM     26  H3  UNL     1      -2.610  87.868 136.020  1.00  0.00     0.183 HD
ENDBRANCH  17  19
ENDBRANCH  16  17
ENDBRANCH  15  16
ENDBRANCH  14  15
ENDBRANCH   1  14
TORSDOF 7
ENDMDL
MODEL 3
REMARK VINA RESULT: -6.741073762      1.450      4.385
REMARK  7 active torsions:
REMARK  status: ('A' for Active; 'I' for Inactive)
REMARK    1  A    between atoms: C3_4  and  C4_5 
REMARK    2  A    between atoms: C5_6  and  C6_7 
REMARK    3  A    between atoms: C6_7  and  C7_8 
REMARK    4  A    between atoms: C7_8  and  C8_9 
REMARK    5  A    between atoms: C8_9  and  C9_10 
REMARK    6  A    between atoms: C9_10  and  N1_11 
REMARK    7  A    between atoms: N1_11  and  C10_13 
ROOT
HETATM    1  C6  UNL     1      -4.175  87.078 132.983  1.00  0.00     0.027 C 
ENDROOT
BRANCH   1   2
HETATM    2  C5  UNL     1      -3.016  86.227 133.161  1.00  0.00    -0.024 C 
HETATM    3  C4  UNL     1      -1.808  86.373 132.820  1.00  0.00     0.025 C 
BRANCH   3   4
HETATM    4  C3  UNL     1      -1.094  87.412 132.121  1.00  0.00     0.041 A 
HETATM    5  C2  UNL     1      -1.487  88.721 131.990  1.00  0.00     0.104 A 
HETATM    6  C1  UNL     1      -0.684  89.651 131.341  1.00  0.00     0.251 A 
HETATM    7  O1  UNL     1      -1.114  90.828 131.264  1.00  0.00    -0.268 OA
HETATM    8  N5  UNL     1       0.488  89.246 130.842  1.00  0.00    -0.275 N 
HETATM    9  C14 UNL     1       0.898  87.974 130.954  1.00  0.00     0.327 A 
ATOM     10  H5  UNL     1       1.084  89.921 130.364  1.00  0.00     0.173 HD
HETATM   11  N4  UNL     1       0.134  87.090 131.571  1.00  0.00    -0.308 N 
HETATM   12  O2  UNL     1       2.017  87.694 130.450  1.00  0.00    -0.247 OA
ATOM     13  H4  UNL     1       0.465  86.128 131.645  1.00  0.00     0.170 HD
ENDBRANCH   3   4
ENDBRANCH   1   2
BRANCH   1  14
HETATM   14  C7  UNL     1      -4.916  87.375 134.256  1.00  0.00     0.005 C 
BRANCH  14  15
HETATM   15  C8  UNL     1      -4.061  88.203 135.166  1.00  0.00     0.020 C 
BRANCH  15  16
HETATM   16  C9  UNL     1      -3.842  89.563 134.570  1.00  0.00     0.138 C 
BRANCH  16  17
HETATM   17  N1  UNL     1      -2.548  90.026 135.029  1.00  0.00    -0.226 N 
ATOM     18  H1  UNL     1      -1.991  89.489 135.695  1.00  0.00     0.177 HD
BRANCH  17  19
HETATM   19  C10 UNL     1      -2.130  91.170 134.547  1.00  0.00     0.677 A 
HETATM   20  N2  UNL     1      -0.885  91.601 134.770  1.00  0.00    -0.202 N 
HETATM   21  C11 UNL     1      -0.418  92.761 134.298  1.00  0.00     0.107 A 
ATOM     22  H2  UNL     1      -0.261  91.017 135.328  1.00  0.00     0.183 HD
HETATM   23  C12 UNL     1      -1.236  93.576 133.542  1.00  0.00     0.035 A 
HETATM   24  C13 UNL     1      -2.517  93.101 133.330  1.00  0.00     0.107 A 
HETATM   25  N3  UNL     1      -2.956  91.936 133.816  1.00  0.00    -0.202 N 
ATOM     26  H3  UNL     1      -3.911  91.630 133.633  1.00  0.00     0.183 HD
ENDBRANCH  17  19
ENDBRANCH  16  17
ENDBRANCH  15  16
ENDBRANCH  14  15
ENDBRANCH   1  14
TORSDOF 7
ENDMDL
MODEL 4
REMARK VINA RESULT: -6.736308085      2.596      5.687
REMARK  7 active torsions:
REMARK  status: ('A' for Active; 'I' for Inactive)
REMARK    1  A    between atoms: C3_4  and  C4_5 
REMARK    2  A    between atoms: C5_6  and  C6_7 
REMARK    3  A    between atoms: C6_7  and  C7_8 
REMARK    4  A    between atoms: C7_8  and  C8_9 
REMARK    5  A    between atoms: C8_9  and  C9_10 
REMARK    6  A    between atoms: C9_10  and  N1_11 
REMARK    7  A    between atoms: N1_11  and  C10_13 
ROOT
HETATM    1  C6  UNL     1      -4.415  86.800 133.347  1.00  0.00     0.027 C 
ENDROOT
BRANCH   1   2
HETATM    2  C5  UNL     1      -4.431  88.004 132.540  1.00  0.00    -0.024 C 
HETATM    3  C4  UNL     1      -3.990  89.167 132.762  1.00  0.00     0.025 C 
BRANCH   3   4
HETATM    4  C3  UNL     1      -3.315  89.776 133.880  1.00  0.00     0.041 A 
HETATM    5  C2  UNL     1      -3.241  89.274 135.156  1.00  0.00     0.104 A 
HETATM    6  C1  UNL     1      -2.508  89.922 136.142  1.00  0.00     0.251 A 
HETATM    7  O1  UNL     1      -2.489  89.398 137.282  1.00  0.00    -0.268 OA
HETATM    8  N5  UNL     1      -1.871  91.053 135.825  1.00  0.00    -0.275 N 
HETATM    9  C14 UNL     1      -1.925  91.569 134.588  1.00  0.00     0.327 A 
ATOM     10  H5  UNL     1      -1.330  91.536 136.542  1.00  0.00     0.173 HD
HETATM   11  N4  UNL     1      -2.622  90.952 133.651  1.00  0.00    -0.308 N 
HETATM   12  O2  UNL     1      -1.291  92.638 134.392  1.00  0.00    -0.247 OA
ATOM     13  H4  UNL     1      -2.650  91.360 132.716  1.00  0.00     0.170 HD
ENDBRANCH   3   4
ENDBRANCH   1   2
BRANCH   1  14
HETATM   14  C7  UNL     1      -3.332  85.828 132.972  1.00  0.00     0.005 C 
BRANCH  14  15
HETATM   15  C8  UNL     1      -2.267  85.815 134.024  1.00  0.00     0.020 C 
BRANCH  15  16
HETATM   16  C9  UNL     1      -1.116  86.682 133.602  1.00  0.00     0.138 C 
BRANCH  16  17
HETATM   17  N1  UNL     1      -1.002  86.568 132.162  1.00  0.00    -0.226 N 
ATOM     18  H1  UNL     1      -1.237  85.705 131.671  1.00  0.00     0.177 HD
BRANCH  17  19
HETATM   19  C10 UNL     1      -0.582  87.631 131.522  1.00  0.00     0.677 A 
HETATM   20  N2  UNL     1      -0.334  87.595 130.209  1.00  0.00    -0.202 N 
HETATM   21  C11 UNL     1       0.096  88.654 129.518  1.00  0.00     0.107 A 
ATOM     22  H2  UNL     1      -0.479  86.716 129.711  1.00  0.00     0.183 HD
HETATM   23  C12 UNL     1       0.304  89.858 130.161  1.00  0.00     0.035 A 
HETATM   24  C13 UNL     1       0.038  89.861 131.517  1.00  0.00     0.107 A 
HETATM   25  N3  UNL     1      -0.391  88.784 132.182  1.00  0.00    -0.202 N 
ATOM     26  H3  UNL     1      -0.572  88.838 133.184  1.00  0.00     0.183 HD
ENDBRANCH  17  19
ENDBRANCH  16  17
ENDBRANCH  15  16
ENDBRANCH  14  15
ENDBRANCH   1  14
TORSDOF 7
ENDMDL
MODEL 5
REMARK VINA RESULT: -6.664583547      2.467      5.331
REMARK  7 active torsions:
REMARK  status: ('A' for Active; 'I' for Inactive)
REMARK    1  A    between atoms: C3_4  and  C4_5 
REMARK    2  A    between atoms: C5_6  and  C6_7 
REMARK    3  A    between atoms: C6_7  and  C7_8 
REMARK    4  A    between atoms: C7_8  and  C8_9 
REMARK    5  A    between atoms: C8_9  and  C9_10 
REMARK    6  A    between atoms: C9_10  and  N1_11 
REMARK    7  A    between atoms: N1_11  and  C10_13 
ROOT
HETATM    1  C6  UNL     1      -4.559  88.273 134.362  1.00  0.00     0.027 C 
ENDROOT
BRANCH   1   2
HETATM    2  C5  UNL     1      -3.571  88.644 135.355  1.00  0.00    -0.024 C 
HETATM    3  C4  UNL     1      -2.767  89.618 135.416  1.00  0.00     0.025 C 
BRANCH   3   4
HETATM    4  C3  UNL     1      -2.493  90.733 134.545  1.00  0.00     0.041 A 
HETATM    5  C2  UNL     1      -3.324  91.225 133.568  1.00  0.00     0.104 A 
HETATM    6  C1  UNL     1      -2.976  92.347 132.827  1.00  0.00     0.251 A 
HETATM    7  O1  UNL     1      -3.791  92.735 131.954  1.00  0.00    -0.268 OA
HETATM    8  N5  UNL     1      -1.809  92.945 133.082  1.00  0.00    -0.275 N 
HETATM    9  C14 UNL     1      -0.976  92.488 134.029  1.00  0.00     0.327 A 
ATOM     10  H5  UNL     1      -1.545  93.770 132.544  1.00  0.00     0.173 HD
HETATM   11  N4  UNL     1      -1.307  91.420 134.734  1.00  0.00    -0.308 N 
HETATM   12  O2  UNL     1       0.099  93.121 134.192  1.00  0.00    -0.247 OA
ATOM     13  H4  UNL     1      -0.660  91.088 135.449  1.00  0.00     0.170 HD
ENDBRANCH   3   4
ENDBRANCH   1   2
BRANCH   1  14
HETATM   14  C7  UNL     1      -4.278  86.964 133.681  1.00  0.00     0.005 C 
BRANCH  14  15
HETATM   15  C8  UNL     1      -2.918  86.468 134.063  1.00  0.00     0.020 C 
BRANCH  15  16
HETATM   16  C9  UNL     1      -2.010  86.482 132.867  1.00  0.00     0.138 C 
BRANCH  16  17
HETATM   17  N1  UNL     1      -1.056  87.553 133.070  1.00  0.00    -0.226 N 
ATOM     18  H1  UNL     1      -0.419  87.560 133.867  1.00  0.00     0.177 HD
BRANCH  17  19
HETATM   19  C10 UNL     1      -1.053  88.512 132.178  1.00  0.00     0.677 A 
HETATM   20  N2  UNL     1      -2.059  88.649 131.308  1.00  0.00    -0.202 N 
HETATM   21  C11 UNL     1      -2.096  89.611 130.382  1.00  0.00     0.107 A 
ATOM     22  H2  UNL     1      -2.834  87.987 131.353  1.00  0.00     0.183 HD
HETATM   23  C12 UNL     1      -1.063  90.522 130.292  1.00  0.00     0.035 A 
HETATM   24  C13 UNL     1      -0.040  90.352 131.206  1.00  0.00     0.107 A 
HETATM   25  N3  UNL     1      -0.030  89.379 132.121  1.00  0.00    -0.202 N 
ATOM     26  H3  UNL     1       0.750  89.294 132.773  1.00  0.00     0.183 HD
ENDBRANCH  17  19
ENDBRANCH  16  17
ENDBRANCH  15  16
ENDBRANCH  14  15
ENDBRANCH   1  14
TORSDOF 7
ENDMDL
