MODEL 1
REMARK VINA RESULT: -6.291156297      0.000      0.000
REMARK  8 active torsions:
REMARK  status: ('A' for Active; 'I' for Inactive)
REMARK    1  A    between atoms: C3_3  and  N1_4 
REMARK    2  A    between atoms: N1_4  and  C4_6 
REMARK    3  A    between atoms: N3_12  and  C8_13 
REMARK    4  A    between atoms: C8_13  and  C9_14 
REMARK    5  A    between atoms: C9_14  and  C10_15 
REMARK    6  A    between atoms: C10_15  and  C11_16 
REMARK    7  A    between atoms: C11_16  and  C12_17 
REMARK    8  A    between atoms: C15_24  and  N6_25 
ROOT
HETATM    1  C1  UNL     1      -0.070  88.134 127.818  1.00  0.00     0.014 C 
HETATM    2  C2  UNL     1       0.342  88.299 128.944  1.00  0.00    -0.098 C 
HETATM    3  C3  UNL     1       0.832  88.520 130.303  1.00  0.00     0.215 C 
ENDROOT
BRANCH   3   4
HETATM    4  N1  UNL     1      -0.200  88.355 131.275  1.00  0.00    -0.363 N 
ATOM      5  H1  UNL     1      -0.485  87.413 131.540  1.00  0.00     0.162 HD
BRANCH   4   6
HETATM    6  C4  UNL     1      -0.780  89.361 131.825  1.00  0.00     0.146 A 
HETATM    7  N2  UNL     1      -0.037  90.223 132.542  1.00  0.00    -0.348 N 
HETATM    8  C5  UNL     1      -0.680  91.262 133.101  1.00  0.00     0.114 A 
ATOM      9  H2  UNL     1       0.968  90.095 132.656  1.00  0.00     0.167 HD
HETATM   10  C6  UNL     1      -2.039  91.476 132.971  1.00  0.00     0.025 A 
HETATM   11  C7  UNL     1      -2.665  92.657 133.628  1.00  0.00     0.070 C 
HETATM   12  N3  UNL     1      -2.783  90.613 132.252  1.00  0.00    -0.333 N 
HETATM   13  C15 UNL     1      -2.158  89.556 131.679  1.00  0.00     0.146 A 
BRANCH  12  14
HETATM   14  C8  UNL     1      -4.196  90.773 132.074  1.00  0.00     0.131 C 
BRANCH  14  15
HETATM   15  C9  UNL     1      -4.994  90.459 133.315  1.00  0.00     0.021 C 
BRANCH  15  16
HETATM   16  C10 UNL     1      -5.071  89.013 133.611  1.00  0.00     0.008 C 
BRANCH  16  17
HETATM   17  C11 UNL     1      -4.326  88.500 134.782  1.00  0.00     0.058 C 
BRANCH  17  18
HETATM   18  C12 UNL     1      -3.214  87.584 134.447  1.00  0.00     0.025 A 
HETATM   19  C13 UNL     1      -3.387  86.449 133.645  1.00  0.00     0.113 A 
HETATM   20  N4  UNL     1      -2.200  85.830 133.531  1.00  0.00    -0.360 N 
HETATM   21  C14 UNL     1      -1.282  86.526 134.228  1.00  0.00     0.180 A 
ATOM     22  H4  UNL     1      -2.023  84.975 133.004  1.00  0.00     0.166 HD
HETATM   23  N5  UNL     1      -1.927  87.576 134.766  1.00  0.00    -0.355 N 
ATOM     24  H5  UNL     1      -1.479  88.283 135.349  1.00  0.00     0.166 HD
ENDBRANCH  17  18
ENDBRANCH  16  17
ENDBRANCH  15  16
ENDBRANCH  14  15
ENDBRANCH  12  14
BRANCH  13  25
HETATM   25  N6  UNL     1      -2.758  88.666 130.970  1.00  0.00    -0.382 N 
ATOM     26  H62 UNL     1      -2.760  88.659 129.949  1.00  0.00     0.157 HD
ATOM     27  H61 UNL     1      -3.243  87.947 131.506  1.00  0.00     0.157 HD
ENDBRANCH  13  25
ENDBRANCH   4   6
ENDBRANCH   3   4
TORSDOF 8
ENDMDL
MODEL 2
REMARK VINA RESULT: -6.288928729      1.652      4.337
REMARK  8 active torsions:
REMARK  status: ('A' for Active; 'I' for Inactive)
REMARK    1  A    between atoms: C3_3  and  N1_4 
REMARK    2  A    between atoms: N1_4  and  C4_6 
REMARK    3  A    between atoms: N3_12  and  C8_13 
REMARK    4  A    between atoms: C8_13  and  C9_14 
REMARK    5  A    between atoms: C9_14  and  C10_15 
REMARK    6  A    between atoms: C10_15  and  C11_16 
REMARK    7  A    between atoms: C11_16  and  C12_17 
REMARK    8  A    between atoms: C15_24  and  N6_25 
ROOT
HETATM    1  C1  UNL     1       1.264  89.350 130.109  1.00  0.00     0.014 C 
HETATM    2  C2  UNL     1       0.747  88.320 130.477  1.00  0.00    -0.098 C 
HETATM    3  C3  UNL     1       0.142  87.069 130.929  1.00  0.00     0.215 C 
ENDROOT
BRANCH   3   4
HETATM    4  N1  UNL     1      -0.255  87.133 132.298  1.00  0.00    -0.363 N 
ATOM      5  H1  UNL     1       0.462  87.190 133.020  1.00  0.00     0.162 HD
BRANCH   4   6
HETATM    6  C4  UNL     1      -1.492  87.121 132.646  1.00  0.00     0.146 A 
HETATM    7  N2  UNL     1      -2.170  85.961 132.580  1.00  0.00    -0.348 N 
HETATM    8  C5  UNL     1      -3.461  85.989 132.953  1.00  0.00     0.114 A 
ATOM      9  H2  UNL     1      -1.726  85.100 132.262  1.00  0.00     0.167 HD
HETATM   10  C6  UNL     1      -4.103  87.130 133.392  1.00  0.00     0.025 A 
HETATM   11  C7  UNL     1      -5.538  87.065 133.785  1.00  0.00     0.070 C 
HETATM   12  N3  UNL     1      -3.423  88.292 133.459  1.00  0.00    -0.333 N 
HETATM   13  C15 UNL     1      -2.120  88.290 133.087  1.00  0.00     0.146 A 
BRANCH  12  14
HETATM   14  C8  UNL     1      -4.023  89.514 133.906  1.00  0.00     0.131 C 
BRANCH  14  15
HETATM   15  C9  UNL     1      -4.605  90.339 132.784  1.00  0.00     0.021 C 
BRANCH  15  16
HETATM   16  C10 UNL     1      -5.102  91.659 133.224  1.00  0.00     0.008 C 
BRANCH  16  17
HETATM   17  C11 UNL     1      -4.365  92.864 132.785  1.00  0.00     0.058 C 
BRANCH  17  18
HETATM   18  C12 UNL     1      -2.927  92.864 133.133  1.00  0.00     0.025 A 
HETATM   19  C13 UNL     1      -1.921  93.077 132.182  1.00  0.00     0.113 A 
HETATM   20  N4  UNL     1      -0.733  93.013 132.807  1.00  0.00    -0.360 N 
HETATM   21  C14 UNL     1      -0.945  92.769 134.113  1.00  0.00     0.180 A 
ATOM     22  H4  UNL     1       0.179  93.131 132.365  1.00  0.00     0.166 HD
HETATM   23  N5  UNL     1      -2.277  92.685 134.275  1.00  0.00    -0.355 N 
ATOM     24  H5  UNL     1      -2.734  92.506 135.169  1.00  0.00     0.166 HD
ENDBRANCH  17  18
ENDBRANCH  16  17
ENDBRANCH  15  16
ENDBRANCH  14  15
ENDBRANCH  12  14
BRANCH  13  25
HETATM   25  N6  UNL     1      -1.367  89.333 133.108  1.00  0.00    -0.382 N 
ATOM     26  H62 UNL     1      -0.405  89.347 132.766  1.00  0.00     0.157 HD
ATOM     27  H61 UNL     1      -1.804  90.169 133.495  1.00  0.00     0.157 HD
ENDBRANCH  13  25
ENDBRANCH   4   6
ENDBRANCH   3   4
TORSDOF 8
ENDMDL
MODEL 3
REMARK VINA RESULT: -6.059918637      1.189      1.278
REMARK  8 active torsions:
REMARK  status: ('A' for Active; 'I' for Inactive)
REMARK    1  A    between atoms: C3_3  and  N1_4 
REMARK    2  A    between atoms: N1_4  and  C4_6 
REMARK    3  A    between atoms: N3_12  and  C8_13 
REMARK    4  A    between atoms: C8_13  and  C9_14 
REMARK    5  A    between atoms: C9_14  and  C10_15 
REMARK    6  A    between atoms: C10_15  and  C11_16 
REMARK    7  A    between atoms: C11_16  and  C12_17 
REMARK    8  A    between atoms: C15_24  and  N6_25 
ROOT
HETATM    1  C1  UNL     1      -1.548  90.994 127.627  1.00  0.00     0.014 C 
HETATM    2  C2  UNL     1      -0.993  90.120 128.253  1.00  0.00    -0.098 C 
HETATM    3  C3  UNL     1      -0.315  89.081 129.025  1.00  0.00     0.215 C 
ENDROOT
BRANCH   3   4
HETATM    4  N1  UNL     1      -1.117  88.613 130.108  1.00  0.00    -0.363 N 
ATOM      5  H1  UNL     1      -1.532  87.683 130.052  1.00  0.00     0.162 HD
BRANCH   4   6
HETATM    6  C4  UNL     1      -1.332  89.330 131.152  1.00  0.00     0.146 A 
HETATM    7  N2  UNL     1      -0.278  89.769 131.863  1.00  0.00    -0.348 N 
HETATM    8  C5  UNL     1      -0.543  90.516 132.947  1.00  0.00     0.114 A 
ATOM      9  H2  UNL     1       0.679  89.546 131.591  1.00  0.00     0.167 HD
HETATM   10  C6  UNL     1      -1.823  90.845 133.351  1.00  0.00     0.025 A 
HETATM   11  C7  UNL     1      -2.020  91.680 134.570  1.00  0.00     0.070 C 
HETATM   12  N3  UNL     1      -2.879  90.406 132.640  1.00  0.00    -0.333 N 
HETATM   13  C15 UNL     1      -2.637  89.650 131.542  1.00  0.00     0.146 A 
BRANCH  12  14
HETATM   14  C8  UNL     1      -4.233  90.710 132.998  1.00  0.00     0.131 C 
BRANCH  14  15
HETATM   15  C9  UNL     1      -5.032  89.494 133.395  1.00  0.00     0.021 C 
BRANCH  15  16
HETATM   16  C10 UNL     1      -4.681  88.973 134.733  1.00  0.00     0.008 C 
BRANCH  16  17
HETATM   17  C11 UNL     1      -4.408  87.525 134.869  1.00  0.00     0.058 C 
BRANCH  17  18
HETATM   18  C12 UNL     1      -3.173  87.069 134.195  1.00  0.00     0.025 A 
HETATM   19  C13 UNL     1      -3.192  86.281 133.038  1.00  0.00     0.113 A 
HETATM   20  N4  UNL     1      -1.922  86.032 132.677  1.00  0.00    -0.360 N 
HETATM   21  C14 UNL     1      -1.099  86.631 133.558  1.00  0.00     0.180 A 
ATOM     22  H4  UNL     1      -1.629  85.482 131.870  1.00  0.00     0.166 HD
HETATM   23  N5  UNL     1      -1.886  87.246 134.459  1.00  0.00    -0.355 N 
ATOM     24  H5  UNL     1      -1.534  87.785 135.250  1.00  0.00     0.166 HD
ENDBRANCH  17  18
ENDBRANCH  16  17
ENDBRANCH  15  16
ENDBRANCH  14  15
ENDBRANCH  12  14
BRANCH  13  25
HETATM   25  N6  UNL     1      -3.560  89.174 130.781  1.00  0.00    -0.382 N 
ATOM     26  H62 UNL     1      -3.712  89.472 129.817  1.00  0.00     0.157 HD
ATOM     27  H61 UNL     1      -4.144  88.459 131.213  1.00  0.00     0.157 HD
ENDBRANCH  13  25
ENDBRANCH   4   6
ENDBRANCH   3   4
TORSDOF 8
ENDMDL
MODEL 4
REMARK VINA RESULT: -6.007816545      1.888      3.612
REMARK  8 active torsions:
REMARK  status: ('A' for Active; 'I' for Inactive)
REMARK    1  A    between atoms: C3_3  and  N1_4 
REMARK    2  A    between atoms: N1_4  and  C4_6 
REMARK    3  A    between atoms: N3_12  and  C8_13 
REMARK    4  A    between atoms: C8_13  and  C9_14 
REMARK    5  A    between atoms: C9_14  and  C10_15 
REMARK    6  A    between atoms: C10_15  and  C11_16 
REMARK    7  A    between atoms: C11_16  and  C12_17 
REMARK    8  A    between atoms: C15_24  and  N6_25 
ROOT
HETATM    1  C1  UNL     1      -3.328  85.232 132.844  1.00  0.00     0.014 C 
HETATM    2  C2  UNL     1      -2.459  86.073 132.891  1.00  0.00    -0.098 C 
HETATM    3  C3  UNL     1      -1.395  87.074 132.940  1.00  0.00     0.215 C 
ENDROOT
BRANCH   3   4
HETATM    4  N1  UNL     1      -1.234  87.741 131.690  1.00  0.00    -0.363 N 
ATOM      5  H1  UNL     1      -0.662  87.307 130.966  1.00  0.00     0.162 HD
BRANCH   4   6
HETATM    6  C4  UNL     1      -1.791  88.874 131.449  1.00  0.00     0.146 A 
HETATM    7  N2  UNL     1      -3.029  88.888 130.925  1.00  0.00    -0.348 N 
HETATM    8  C5  UNL     1      -3.576  90.092 130.688  1.00  0.00     0.114 A 
ATOM      9  H2  UNL     1      -3.530  88.025 130.716  1.00  0.00     0.167 HD
HETATM   10  C6  UNL     1      -2.936  91.287 130.957  1.00  0.00     0.025 A 
HETATM   11  C7  UNL     1      -3.623  92.575 130.661  1.00  0.00     0.070 C 
HETATM   12  N3  UNL     1      -1.696  91.273 131.483  1.00  0.00    -0.333 N 
HETATM   13  C15 UNL     1      -1.122  90.071 131.729  1.00  0.00     0.146 A 
BRANCH  12  14
HETATM   14  C8  UNL     1      -0.972  92.472 131.788  1.00  0.00     0.131 C 
BRANCH  14  15
HETATM   15  C9  UNL     1      -0.884  92.755 133.267  1.00  0.00     0.021 C 
BRANCH  15  16
HETATM   16  C10 UNL     1      -2.066  92.293 134.024  1.00  0.00     0.008 C 
BRANCH  16  17
HETATM   17  C11 UNL     1      -1.857  91.320 135.118  1.00  0.00     0.058 C 
BRANCH  17  18
HETATM   18  C12 UNL     1      -2.780  90.164 135.094  1.00  0.00     0.025 A 
HETATM   19  C13 UNL     1      -2.755  89.158 136.068  1.00  0.00     0.113 A 
HETATM   20  N4  UNL     1      -3.704  88.256 135.766  1.00  0.00    -0.360 N 
HETATM   21  C14 UNL     1      -4.329  88.649 134.641  1.00  0.00     0.180 A 
ATOM     22  H4  UNL     1      -3.916  87.414 136.300  1.00  0.00     0.166 HD
HETATM   23  N5  UNL     1      -3.748  89.802 134.263  1.00  0.00    -0.355 N 
ATOM     24  H5  UNL     1      -4.019  90.334 133.436  1.00  0.00     0.166 HD
ENDBRANCH  17  18
ENDBRANCH  16  17
ENDBRANCH  15  16
ENDBRANCH  14  15
ENDBRANCH  12  14
BRANCH  13  25
HETATM   25  N6  UNL     1       0.055  89.927 132.231  1.00  0.00    -0.382 N 
ATOM     26  H62 UNL     1       0.912  89.921 131.677  1.00  0.00     0.157 HD
ATOM     27  H61 UNL     1       0.078  89.818 133.244  1.00  0.00     0.157 HD
ENDBRANCH  13  25
ENDBRANCH   4   6
ENDBRANCH   3   4
TORSDOF 8
ENDMDL
MODEL 5
REMARK VINA RESULT: -6.003604482      1.335      1.436
REMARK  8 active torsions:
REMARK  status: ('A' for Active; 'I' for Inactive)
REMARK    1  A    between atoms: C3_3  and  N1_4 
REMARK    2  A    between atoms: N1_4  and  C4_6 
REMARK    3  A    between atoms: N3_12  and  C8_13 
REMARK    4  A    between atoms: C8_13  and  C9_14 
REMARK    5  A    between atoms: C9_14  and  C10_15 
REMARK    6  A    between atoms: C10_15  and  C11_16 
REMARK    7  A    between atoms: C11_16  and  C12_17 
REMARK    8  A    between atoms: C15_24  and  N6_25 
ROOT
HETATM    1  C1  UNL     1       0.148  87.822 127.896  1.00  0.00     0.014 C 
HETATM    2  C2  UNL     1       0.640  88.543 128.733  1.00  0.00    -0.098 C 
HETATM    3  C3  UNL     1       1.219  89.428 129.742  1.00  0.00     0.215 C 
ENDROOT
BRANCH   3   4
HETATM    4  N1  UNL     1       0.607  89.253 131.019  1.00  0.00    -0.363 N 
ATOM      5  H1  UNL     1       0.864  88.446 131.585  1.00  0.00     0.162 HD
BRANCH   4   6
HETATM    6  C4  UNL     1      -0.261  90.084 131.474  1.00  0.00     0.146 A 
HETATM    7  N2  UNL     1      -0.282  91.334 130.977  1.00  0.00    -0.348 N 
HETATM    8  C5  UNL     1      -1.204  92.173 131.479  1.00  0.00     0.114 A 
ATOM      9  H2  UNL     1       0.370  91.631 130.252  1.00  0.00     0.167 HD
HETATM   10  C6  UNL     1      -2.109  91.813 132.459  1.00  0.00     0.025 A 
HETATM   11  C7  UNL     1      -3.095  92.813 132.955  1.00  0.00     0.070 C 
HETATM   12  N3  UNL     1      -2.088  90.562 132.957  1.00  0.00    -0.333 N 
HETATM   13  C15 UNL     1      -1.166  89.697 132.468  1.00  0.00     0.146 A 
BRANCH  12  14
HETATM   14  C8  UNL     1      -2.996  90.118 133.973  1.00  0.00     0.131 C 
BRANCH  14  15
HETATM   15  C9  UNL     1      -4.336  89.690 133.430  1.00  0.00     0.021 C 
BRANCH  15  16
HETATM   16  C10 UNL     1      -5.167  88.972 134.419  1.00  0.00     0.008 C 
BRANCH  16  17
HETATM   17  C11 UNL     1      -5.509  87.558 134.149  1.00  0.00     0.058 C 
BRANCH  17  18
HETATM   18  C12 UNL     1      -4.342  86.679 133.918  1.00  0.00     0.025 A 
HETATM   19  C13 UNL     1      -4.087  86.073 132.681  1.00  0.00     0.113 A 
HETATM   20  N4  UNL     1      -2.966  85.341 132.795  1.00  0.00    -0.360 N 
HETATM   21  C14 UNL     1      -2.500  85.458 134.052  1.00  0.00     0.180 A 
ATOM     22  H4  UNL     1      -2.538  84.788 132.052  1.00  0.00     0.166 HD
HETATM   23  N5  UNL     1      -3.352  86.271 134.701  1.00  0.00    -0.355 N 
ATOM     24  H5  UNL     1      -3.250  86.543 135.679  1.00  0.00     0.166 HD
ENDBRANCH  17  18
ENDBRANCH  16  17
ENDBRANCH  15  16
ENDBRANCH  14  15
ENDBRANCH  12  14
BRANCH  13  25
HETATM   25  N6  UNL     1      -1.048  88.477 132.861  1.00  0.00    -0.382 N 
ATOM     26  H62 UNL     1      -1.404  87.675 132.340  1.00  0.00     0.157 HD
ATOM     27  H61 UNL     1      -0.560  88.359 133.749  1.00  0.00     0.157 HD
ENDBRANCH  13  25
ENDBRANCH   4   6
ENDBRANCH   3   4
TORSDOF 8
ENDMDL
