MODEL 1
REMARK VINA RESULT: -6.827973558      0.000      0.000
REMARK  8 active torsions:
REMARK  status: ('A' for Active; 'I' for Inactive)
REMARK    1  A    between atoms: O1_3  and  C3_4 
REMARK    2  A    between atoms: C3_4  and  C4_5 
REMARK    3  A    between atoms: C4_5  and  N1_6 
REMARK    4  A    between atoms: N1_6  and  N2_8 
REMARK    5  A    between atoms: N2_8  and  C5_10 
REMARK    6  A    between atoms: C8_15  and  N4_16 
REMARK    7  A    between atoms: N4_16  and  C9_18 
REMARK    8  A    between atoms: C9_18  and  C10_19 
ROOT
HETATM    1  C1  UNL     1      -1.209  90.985 130.874  1.00  0.00     0.044 C 
HETATM    2  C2  UNL     1      -0.225  90.349 131.089  1.00  0.00     0.043 C 
HETATM    3  O1  UNL     1       0.897  89.625 131.356  1.00  0.00    -0.303 OA
ENDROOT
BRANCH   3   4
HETATM    4  C3  UNL     1       1.320  88.523 130.565  1.00  0.00     0.209 C 
BRANCH   4   5
HETATM    5  C4  UNL     1       0.110  87.642 130.337  1.00  0.00     0.167 C 
BRANCH   5   6
HETATM    6  N1  UNL     1       0.179  86.556 131.306  1.00  0.00    -0.320 N 
ATOM      7  H1  UNL     1       0.516  85.642 131.003  1.00  0.00     0.180 HD
BRANCH   6   8
HETATM    8  N2  UNL     1      -0.203  86.734 132.636  1.00  0.00    -0.136 N 
ATOM      9  H2  UNL     1       0.506  86.695 133.367  1.00  0.00     0.205 HD
BRANCH   8  10
HETATM   10  C5  UNL     1      -1.431  86.947 132.961  1.00  0.00     0.697 A 
HETATM   11  N3  UNL     1      -2.350  86.021 132.652  1.00  0.00    -0.200 N 
HETATM   12  C6  UNL     1      -3.649  86.189 132.968  1.00  0.00     0.110 A 
ATOM     13  H3  UNL     1      -2.060  85.170 132.169  1.00  0.00     0.183 HD
HETATM   14  C7  UNL     1      -4.019  87.364 133.632  1.00  0.00     0.066 A 
HETATM   15  C8  UNL     1      -3.067  88.309 133.945  1.00  0.00     0.118 A 
HETATM   16  N5  UNL     1      -1.786  88.075 133.598  1.00  0.00    -0.176 N 
ATOM     17  H5  UNL     1      -1.073  88.768 133.824  1.00  0.00     0.186 HD
BRANCH  15  18
HETATM   18  N4  UNL     1      -3.403  89.392 134.556  1.00  0.00    -0.372 N 
ATOM     19  H4  UNL     1      -4.373  89.709 134.540  1.00  0.00     0.161 HD
BRANCH  18  20
HETATM   20  C9  UNL     1      -2.404  90.158 135.265  1.00  0.00     0.159 C 
BRANCH  20  21
HETATM   21  C10 UNL     1      -2.091  91.422 134.582  1.00  0.00    -0.041 A 
HETATM   22  C11 UNL     1      -3.115  92.046 133.872  1.00  0.00     0.009 A 
HETATM   23  C12 UNL     1      -2.877  93.232 133.213  1.00  0.00     0.001 A 
HETATM   24  C13 UNL     1      -1.619  93.782 133.272  1.00  0.00     0.000 A 
HETATM   25  C14 UNL     1      -0.594  93.159 133.983  1.00  0.00     0.001 A 
HETATM   26  C15 UNL     1      -0.832  91.968 134.644  1.00  0.00     0.009 A 
ENDBRANCH  20  21
ENDBRANCH  18  20
ENDBRANCH  15  18
ENDBRANCH   8  10
ENDBRANCH   6   8
ENDBRANCH   5   6
ENDBRANCH   4   5
ENDBRANCH   3   4
TORSDOF 8
ENDMDL
MODEL 2
REMARK VINA RESULT: -6.619052772      2.101      5.124
REMARK  8 active torsions:
REMARK  status: ('A' for Active; 'I' for Inactive)
REMARK    1  A    between atoms: O1_3  and  C3_4 
REMARK    2  A    between atoms: C3_4  and  C4_5 
REMARK    3  A    between atoms: C4_5  and  N1_6 
REMARK    4  A    between atoms: N1_6  and  N2_8 
REMARK    5  A    between atoms: N2_8  and  C5_10 
REMARK    6  A    between atoms: C8_15  and  N4_16 
REMARK    7  A    between atoms: N4_16  and  C9_18 
REMARK    8  A    between atoms: C9_18  and  C10_19 
ROOT
HETATM    1  C1  UNL     1      -4.994  91.534 132.552  1.00  0.00     0.044 C 
HETATM    2  C2  UNL     1      -4.055  91.832 133.223  1.00  0.00     0.043 C 
HETATM    3  O1  UNL     1      -2.980  92.150 133.994  1.00  0.00    -0.303 OA
ENDROOT
BRANCH   3   4
HETATM    4  C3  UNL     1      -2.081  93.206 133.681  1.00  0.00     0.209 C 
BRANCH   4   5
HETATM    5  C4  UNL     1      -0.701  92.768 134.125  1.00  0.00     0.167 C 
BRANCH   5   6
HETATM    6  N1  UNL     1      -0.491  91.420 133.614  1.00  0.00    -0.320 N 
ATOM      7  H1  UNL     1      -0.316  90.662 134.273  1.00  0.00     0.180 HD
BRANCH   6   8
HETATM    8  N2  UNL     1      -0.524  91.141 132.248  1.00  0.00    -0.136 N 
ATOM      9  H2  UNL     1      -0.731  91.893 131.590  1.00  0.00     0.205 HD
BRANCH   8  10
HETATM   10  C5  UNL     1      -0.300  89.955 131.797  1.00  0.00     0.697 A 
HETATM   11  N3  UNL     1       0.550  89.804 130.771  1.00  0.00    -0.200 N 
HETATM   12  C6  UNL     1       0.822  88.588 130.259  1.00  0.00     0.110 A 
ATOM     13  H3  UNL     1       1.000  90.627 130.370  1.00  0.00     0.183 HD
HETATM   14  C7  UNL     1       0.192  87.476 130.829  1.00  0.00     0.066 A 
HETATM   15  C8  UNL     1      -0.680  87.642 131.883  1.00  0.00     0.118 A 
HETATM   16  N5  UNL     1      -0.906  88.887 132.345  1.00  0.00    -0.176 N 
ATOM     17  H5  UNL     1      -1.550  89.022 133.124  1.00  0.00     0.186 HD
BRANCH  15  18
HETATM   18  N4  UNL     1      -1.263  86.621 132.411  1.00  0.00    -0.372 N 
ATOM     19  H4  UNL     1      -1.443  85.789 131.849  1.00  0.00     0.161 HD
BRANCH  18  20
HETATM   20  C9  UNL     1      -1.659  86.658 133.799  1.00  0.00     0.159 C 
BRANCH  20  21
HETATM   21  C10 UNL     1      -3.042  87.129 133.966  1.00  0.00    -0.041 A 
HETATM   22  C11 UNL     1      -4.026  86.544 133.171  1.00  0.00     0.009 A 
HETATM   23  C12 UNL     1      -5.338  86.947 133.285  1.00  0.00     0.001 A 
HETATM   24  C13 UNL     1      -5.652  87.930 134.193  1.00  0.00     0.000 A 
HETATM   25  C14 UNL     1      -4.669  88.516 134.989  1.00  0.00     0.001 A 
HETATM   26  C15 UNL     1      -3.352  88.112 134.875  1.00  0.00     0.009 A 
ENDBRANCH  20  21
ENDBRANCH  18  20
ENDBRANCH  15  18
ENDBRANCH   8  10
ENDBRANCH   6   8
ENDBRANCH   5   6
ENDBRANCH   4   5
ENDBRANCH   3   4
TORSDOF 8
ENDMDL
MODEL 3
REMARK VINA RESULT: -6.554304178      2.026      4.033
REMARK  8 active torsions:
REMARK  status: ('A' for Active; 'I' for Inactive)
REMARK    1  A    between atoms: O1_3  and  C3_4 
REMARK    2  A    between atoms: C3_4  and  C4_5 
REMARK    3  A    between atoms: C4_5  and  N1_6 
REMARK    4  A    between atoms: N1_6  and  N2_8 
REMARK    5  A    between atoms: N2_8  and  C5_10 
REMARK    6  A    between atoms: C8_15  and  N4_16 
REMARK    7  A    between atoms: N4_16  and  C9_18 
REMARK    8  A    between atoms: C9_18  and  C10_19 
ROOT
HETATM    1  C1  UNL     1      -5.672  87.434 134.296  1.00  0.00     0.044 C 
HETATM    2  C2  UNL     1      -4.796  87.053 133.584  1.00  0.00     0.043 C 
HETATM    3  O1  UNL     1      -3.792  86.639 132.763  1.00  0.00    -0.303 OA
ENDROOT
BRANCH   3   4
HETATM    4  C3  UNL     1      -2.894  85.589 133.098  1.00  0.00     0.209 C 
BRANCH   4   5
HETATM    5  C4  UNL     1      -1.933  86.133 134.134  1.00  0.00     0.167 C 
BRANCH   5   6
HETATM    6  N1  UNL     1      -0.685  86.436 133.447  1.00  0.00    -0.320 N 
ATOM      7  H1  UNL     1       0.189  86.409 133.972  1.00  0.00     0.180 HD
BRANCH   6   8
HETATM    8  N2  UNL     1      -0.655  86.763 132.091  1.00  0.00    -0.136 N 
ATOM      9  H2  UNL     1      -0.661  86.014 131.399  1.00  0.00     0.205 HD
BRANCH   8  10
HETATM   10  C5  UNL     1      -0.620  87.987 131.694  1.00  0.00     0.697 A 
HETATM   11  N3  UNL     1      -0.598  88.239 130.377  1.00  0.00    -0.200 N 
HETATM   12  C6  UNL     1      -0.561  89.499 129.904  1.00  0.00     0.110 A 
ATOM     13  H3  UNL     1      -0.610  87.459 129.720  1.00  0.00     0.183 HD
HETATM   14  C7  UNL     1      -0.546  90.550 130.828  1.00  0.00     0.066 A 
HETATM   15  C8  UNL     1      -0.570  90.282 132.179  1.00  0.00     0.118 A 
HETATM   16  N5  UNL     1      -0.606  88.997 132.581  1.00  0.00    -0.176 N 
ATOM     17  H5  UNL     1      -0.622  88.786 133.579  1.00  0.00     0.186 HD
BRANCH  15  18
HETATM   18  N4  UNL     1      -0.556  91.246 133.033  1.00  0.00    -0.372 N 
ATOM     19  H4  UNL     1       0.134  91.992 132.951  1.00  0.00     0.161 HD
BRANCH  18  20
HETATM   20  C9  UNL     1      -1.521  91.268 134.108  1.00  0.00     0.159 C 
BRANCH  20  21
HETATM   21  C10 UNL     1      -2.869  91.613 133.631  1.00  0.00    -0.041 A 
HETATM   22  C11 UNL     1      -3.794  90.580 133.501  1.00  0.00     0.009 A 
HETATM   23  C12 UNL     1      -5.071  90.846 133.058  1.00  0.00     0.001 A 
HETATM   24  C13 UNL     1      -5.409  92.143 132.752  1.00  0.00     0.000 A 
HETATM   25  C14 UNL     1      -4.484  93.178 132.882  1.00  0.00     0.001 A 
HETATM   26  C15 UNL     1      -3.202  92.911 133.326  1.00  0.00     0.009 A 
ENDBRANCH  20  21
ENDBRANCH  18  20
ENDBRANCH  15  18
ENDBRANCH   8  10
ENDBRANCH   6   8
ENDBRANCH   5   6
ENDBRANCH   4   5
ENDBRANCH   3   4
TORSDOF 8
ENDMDL
MODEL 4
REMARK VINA RESULT: -6.472207719      2.030      4.053
REMARK  8 active torsions:
REMARK  status: ('A' for Active; 'I' for Inactive)
REMARK    1  A    between atoms: O1_3  and  C3_4 
REMARK    2  A    between atoms: C3_4  and  C4_5 
REMARK    3  A    between atoms: C4_5  and  N1_6 
REMARK    4  A    between atoms: N1_6  and  N2_8 
REMARK    5  A    between atoms: N2_8  and  C5_10 
REMARK    6  A    between atoms: C8_15  and  N4_16 
REMARK    7  A    between atoms: N4_16  and  C9_18 
REMARK    8  A    between atoms: C9_18  and  C10_19 
ROOT
HETATM    1  C1  UNL     1      -2.717  89.303 136.224  1.00  0.00     0.044 C 
HETATM    2  C2  UNL     1      -3.057  88.812 135.194  1.00  0.00     0.043 C 
HETATM    3  O1  UNL     1      -3.427  88.262 134.005  1.00  0.00    -0.303 OA
ENDROOT
BRANCH   3   4
HETATM    4  C3  UNL     1      -3.922  86.935 133.881  1.00  0.00     0.209 C 
BRANCH   4   5
HETATM    5  C4  UNL     1      -2.724  86.010 133.844  1.00  0.00     0.167 C 
BRANCH   5   6
HETATM    6  N1  UNL     1      -2.228  86.001 132.475  1.00  0.00    -0.320 N 
ATOM      7  H1  UNL     1      -2.842  85.678 131.727  1.00  0.00     0.180 HD
BRANCH   6   8
HETATM    8  N2  UNL     1      -0.936  86.422 132.160  1.00  0.00    -0.136 N 
ATOM      9  H2  UNL     1      -0.161  85.766 132.258  1.00  0.00     0.205 HD
BRANCH   8  10
HETATM   10  C5  UNL     1      -0.699  87.619 131.750  1.00  0.00     0.697 A 
HETATM   11  N3  UNL     1      -0.328  87.803 130.474  1.00  0.00    -0.200 N 
HETATM   12  C6  UNL     1      -0.068  89.033 129.989  1.00  0.00     0.110 A 
ATOM     13  H3  UNL     1      -0.242  86.995 129.857  1.00  0.00     0.183 HD
HETATM   14  C7  UNL     1      -0.195  90.124 130.857  1.00  0.00     0.066 A 
HETATM   15  C8  UNL     1      -0.577  89.925 132.165  1.00  0.00     0.118 A 
HETATM   16  N5  UNL     1      -0.821  88.667 132.582  1.00  0.00    -0.176 N 
ATOM     17  H5  UNL     1      -1.103  88.507 133.549  1.00  0.00     0.186 HD
BRANCH  15  18
HETATM   18  N4  UNL     1      -0.695  90.926 132.967  1.00  0.00    -0.372 N 
ATOM     19  H4  UNL     1      -0.513  90.806 133.964  1.00  0.00     0.161 HD
BRANCH  18  20
HETATM   20  C9  UNL     1      -1.085  92.217 132.452  1.00  0.00     0.159 C 
BRANCH  20  21
HETATM   21  C10 UNL     1      -2.536  92.305 132.227  1.00  0.00    -0.041 A 
HETATM   22  C11 UNL     1      -2.974  92.641 130.948  1.00  0.00     0.009 A 
HETATM   23  C12 UNL     1      -4.322  92.737 130.681  1.00  0.00     0.001 A 
HETATM   24  C13 UNL     1      -5.217  92.496 131.696  1.00  0.00     0.000 A 
HETATM   25  C14 UNL     1      -4.780  92.160 132.977  1.00  0.00     0.001 A 
HETATM   26  C15 UNL     1      -3.427  92.063 133.245  1.00  0.00     0.009 A 
ENDBRANCH  20  21
ENDBRANCH  18  20
ENDBRANCH  15  18
ENDBRANCH   8  10
ENDBRANCH   6   8
ENDBRANCH   5   6
ENDBRANCH   4   5
ENDBRANCH   3   4
TORSDOF 8
ENDMDL
MODEL 5
REMARK VINA RESULT: -6.442108889      1.758      2.245
REMARK  8 active torsions:
REMARK  status: ('A' for Active; 'I' for Inactive)
REMARK    1  A    between atoms: O1_3  and  C3_4 
REMARK    2  A    between atoms: C3_4  and  C4_5 
REMARK    3  A    between atoms: C4_5  and  N1_6 
REMARK    4  A    between atoms: N1_6  and  N2_8 
REMARK    5  A    between atoms: N2_8  and  C5_10 
REMARK    6  A    between atoms: C8_15  and  N4_16 
REMARK    7  A    between atoms: N4_16  and  C9_18 
REMARK    8  A    between atoms: C9_18  and  C10_19 
ROOT
HETATM    1  C1  UNL     1      -0.259  86.682 126.018  1.00  0.00     0.044 C 
HETATM    2  C2  UNL     1      -0.019  86.926 127.159  1.00  0.00     0.043 C 
HETATM    3  O1  UNL     1       0.264  87.184 128.466  1.00  0.00    -0.303 OA
ENDROOT
BRANCH   3   4
HETATM    4  C3  UNL     1       0.662  88.464 128.938  1.00  0.00     0.209 C 
BRANCH   4   5
HETATM    5  C4  UNL     1      -0.030  88.689 130.266  1.00  0.00     0.167 C 
BRANCH   5   6
HETATM    6  N1  UNL     1       0.559  87.762 131.222  1.00  0.00    -0.320 N 
ATOM      7  H1  UNL     1       1.488  87.956 131.593  1.00  0.00     0.180 HD
BRANCH   6   8
HETATM    8  N2  UNL     1      -0.116  86.615 131.643  1.00  0.00    -0.136 N 
ATOM      9  H2  UNL     1       0.188  85.704 131.299  1.00  0.00     0.205 HD
BRANCH   8  10
HETATM   10  C5  UNL     1      -1.114  86.680 132.455  1.00  0.00     0.697 A 
HETATM   11  N3  UNL     1      -2.130  85.820 132.299  1.00  0.00    -0.200 N 
HETATM   12  C6  UNL     1      -3.199  85.842 133.118  1.00  0.00     0.110 A 
ATOM     13  H3  UNL     1      -2.093  85.134 131.545  1.00  0.00     0.183 HD
HETATM   14  C7  UNL     1      -3.224  86.792 134.146  1.00  0.00     0.066 A 
HETATM   15  C8  UNL     1      -2.174  87.671 134.298  1.00  0.00     0.118 A 
HETATM   16  N5  UNL     1      -1.137  87.593 133.441  1.00  0.00    -0.176 N 
ATOM     17  H5  UNL     1      -0.355  88.239 133.543  1.00  0.00     0.186 HD
BRANCH  15  18
HETATM   18  N4  UNL     1      -2.192  88.548 135.241  1.00  0.00    -0.372 N 
ATOM     19  H4  UNL     1      -1.576  88.442 136.048  1.00  0.00     0.161 HD
BRANCH  18  20
HETATM   20  C9  UNL     1      -3.085  89.679 135.155  1.00  0.00     0.159 C 
BRANCH  20  21
HETATM   21  C10 UNL     1      -2.494  90.790 134.393  1.00  0.00    -0.041 A 
HETATM   22  C11 UNL     1      -3.013  91.056 133.127  1.00  0.00     0.009 A 
HETATM   23  C12 UNL     1      -2.497  92.084 132.370  1.00  0.00     0.001 A 
HETATM   24  C13 UNL     1      -1.469  92.837 132.887  1.00  0.00     0.000 A 
HETATM   25  C14 UNL     1      -0.950  92.572 134.153  1.00  0.00     0.001 A 
HETATM   26  C15 UNL     1      -1.467  91.540 134.914  1.00  0.00     0.009 A 
ENDBRANCH  20  21
ENDBRANCH  18  20
ENDBRANCH  15  18
ENDBRANCH   8  10
ENDBRANCH   6   8
ENDBRANCH   5   6
ENDBRANCH   4   5
ENDBRANCH   3   4
TORSDOF 8
ENDMDL
