MODEL 1
REMARK VINA RESULT: -9.536198330      0.000      0.000
REMARK  7 active torsions:
REMARK  status: ('A' for Active; 'I' for Inactive)
REMARK    1  A    between atoms: C3_3  and  C4_4 
REMARK    2  A    between atoms: C7_7  and  C8_8 
REMARK    3  A    between atoms: C8_8  and  C9_9 
REMARK    4  A    between atoms: C9_9  and  N1_10 
REMARK    5  A    between atoms: C12_13  and  C13_14 
REMARK    6  A    between atoms: C13_14  and  N2_15 
REMARK       I    between atoms: N2_15  and  C14_17 
REMARK       I    between atoms: C14_17  and  N3_19 
REMARK    7  A    between atoms: N3_19  and  C15_21 
ROOT
HETATM    1  C1  UNL     1      19.415  25.047  -2.796  1.00  0.00     0.012 C 
HETATM    2  C2  UNL     1      19.414  23.866  -2.521  1.00  0.00    -0.113 C 
HETATM    3  C3  UNL     1      19.385  22.432  -2.190  1.00  0.00     0.131 C 
ENDROOT
BRANCH   3   4
HETATM    4  C4  UNL     1      18.555  22.296  -0.952  1.00  0.00    -0.047 A 
HETATM    5  C5  UNL     1      17.190  22.480  -0.982  1.00  0.00     0.008 A 
HETATM    6  C6  UNL     1      16.406  22.355   0.154  1.00  0.00     0.007 A 
HETATM    7  C7  UNL     1      16.964  22.039   1.365  1.00  0.00    -0.057 A 
HETATM    8  C27 UNL     1      18.343  21.853   1.396  1.00  0.00     0.007 A 
HETATM    9  C28 UNL     1      19.128  21.976   0.267  1.00  0.00     0.008 A 
BRANCH   7  10
HETATM   10  C8  UNL     1      16.242  21.884   2.637  1.00  0.00     0.058 C 
BRANCH  10  11
HETATM   11  C9  UNL     1      15.281  23.012   2.921  1.00  0.00     0.126 C 
BRANCH  11  12
HETATM   12  N1  UNL     1      16.017  24.246   2.815  1.00  0.00    -0.393 N 
HETATM   13  C10 UNL     1      16.966  24.352   3.855  1.00  0.00     0.122 C 
HETATM   14  C11 UNL     1      17.174  25.756   4.391  1.00  0.00     0.026 C 
HETATM   15  C12 UNL     1      15.838  26.372   4.680  1.00  0.00     0.010 C 
HETATM   16  C25 UNL     1      14.951  26.382   3.476  1.00  0.00     0.050 C 
HETATM   17  C26 UNL     1      15.295  25.388   2.420  1.00  0.00     0.058 C 
BRANCH  15  18
HETATM   18  C13 UNL     1      16.030  27.747   5.265  1.00  0.00     0.129 C 
BRANCH  18  19
HETATM   19  N2  UNL     1      17.422  28.092   5.257  1.00  0.00    -0.343 N 
HETATM   20  C14 UNL     1      17.871  29.302   4.656  1.00  0.00     0.316 C 
HETATM   21  O1  UNL     1      17.023  30.045   4.129  1.00  0.00    -0.247 OA
HETATM   22  N3  UNL     1      19.245  29.622   4.676  1.00  0.00    -0.334 N 
ATOM     23  H3  UNL     1      19.878  28.962   5.127  1.00  0.00     0.165 HD
ATOM     24  H2  UNL     1      18.100  27.463   5.688  1.00  0.00     0.164 HD
BRANCH  22  25
HETATM   25  C15 UNL     1      19.820  30.822   4.101  1.00  0.00     0.035 C 
HETATM   26  C16 UNL     1      18.844  31.970   4.090  1.00  0.00     0.035 C 
HETATM   27  C17 UNL     1      19.515  33.169   3.426  1.00  0.00    -0.012 C 
HETATM   28  C18 UNL     1      20.696  33.560   4.255  1.00  0.00     0.009 C 
HETATM   29  C22 UNL     1      19.889  32.797   2.000  1.00  0.00     0.009 C 
HETATM   30  C19 UNL     1      21.688  32.419   4.297  1.00  0.00    -0.012 C 
HETATM   31  C20 UNL     1      22.137  32.145   2.883  1.00  0.00     0.009 C 
HETATM   32  C24 UNL     1      21.079  31.198   4.893  1.00  0.00     0.035 C 
HETATM   33  C21 UNL     1      20.945  31.735   2.072  1.00  0.00    -0.012 C 
HETATM   34  C23 UNL     1      20.302  30.502   2.712  1.00  0.00     0.035 C 
ENDBRANCH  22  25
ENDBRANCH  18  19
ENDBRANCH  15  18
ENDBRANCH  11  12
ENDBRANCH  10  11
ENDBRANCH   7  10
ENDBRANCH   3   4
TORSDOF 7
ENDMDL
MODEL 2
REMARK VINA RESULT: -8.982820597      4.023      8.209
REMARK  7 active torsions:
REMARK  status: ('A' for Active; 'I' for Inactive)
REMARK    1  A    between atoms: C3_3  and  C4_4 
REMARK    2  A    between atoms: C7_7  and  C8_8 
REMARK    3  A    between atoms: C8_8  and  C9_9 
REMARK    4  A    between atoms: C9_9  and  N1_10 
REMARK    5  A    between atoms: C12_13  and  C13_14 
REMARK    6  A    between atoms: C13_14  and  N2_15 
REMARK       I    between atoms: N2_15  and  C14_17 
REMARK       I    between atoms: C14_17  and  N3_19 
REMARK    7  A    between atoms: N3_19  and  C15_21 
ROOT
HETATM    1  C1  UNL     1      16.708  29.225   5.744  1.00  0.00     0.012 C 
HETATM    2  C2  UNL     1      15.872  29.021   4.889  1.00  0.00    -0.113 C 
HETATM    3  C3  UNL     1      14.846  28.755   3.868  1.00  0.00     0.131 C 
ENDROOT
BRANCH   3   4
HETATM    4  C4  UNL     1      15.001  27.321   3.470  1.00  0.00    -0.047 A 
HETATM    5  C5  UNL     1      14.509  26.853   2.270  1.00  0.00     0.008 A 
HETATM    6  C6  UNL     1      14.648  25.529   1.885  1.00  0.00     0.007 A 
HETATM    7  C7  UNL     1      15.286  24.624   2.690  1.00  0.00    -0.057 A 
HETATM    8  C27 UNL     1      15.783  25.095   3.901  1.00  0.00     0.007 A 
HETATM    9  C28 UNL     1      15.648  26.412   4.290  1.00  0.00     0.008 A 
BRANCH   7  10
HETATM   10  C8  UNL     1      15.491  23.197   2.396  1.00  0.00     0.058 C 
BRANCH  10  11
HETATM   11  C9  UNL     1      16.899  22.727   2.662  1.00  0.00     0.126 C 
BRANCH  11  12
HETATM   12  N1  UNL     1      17.301  21.907   1.548  1.00  0.00    -0.393 N 
HETATM   13  C10 UNL     1      18.703  21.938   1.385  1.00  0.00     0.122 C 
HETATM   14  C11 UNL     1      19.181  21.898  -0.055  1.00  0.00     0.026 C 
HETATM   15  C12 UNL     1      18.422  22.918  -0.850  1.00  0.00     0.010 C 
HETATM   16  C25 UNL     1      16.943  22.708  -0.769  1.00  0.00     0.050 C 
HETATM   17  C26 UNL     1      16.473  21.926   0.409  1.00  0.00     0.058 C 
BRANCH  15  18
HETATM   18  C13 UNL     1      18.925  22.928  -2.270  1.00  0.00     0.129 C 
BRANCH  18  19
HETATM   19  N2  UNL     1      17.899  23.408  -3.150  1.00  0.00    -0.343 N 
HETATM   20  C14 UNL     1      17.511  24.778  -3.142  1.00  0.00     0.316 C 
HETATM   21  O1  UNL     1      18.081  25.543  -2.344  1.00  0.00    -0.247 OA
HETATM   22  N3  UNL     1      16.508  25.223  -4.028  1.00  0.00    -0.334 N 
ATOM     23  H3  UNL     1      16.088  24.534  -4.653  1.00  0.00     0.165 HD
ATOM     24  H2  UNL     1      17.440  22.759  -3.790  1.00  0.00     0.164 HD
BRANCH  22  25
HETATM   25  C15 UNL     1      16.032  26.589  -4.115  1.00  0.00     0.035 C 
HETATM   26  C16 UNL     1      17.142  27.590  -3.920  1.00  0.00     0.035 C 
HETATM   27  C17 UNL     1      16.544  28.993  -3.977  1.00  0.00    -0.012 C 
HETATM   28  C18 UNL     1      15.958  29.194  -5.338  1.00  0.00     0.009 C 
HETATM   29  C22 UNL     1      15.519  29.137  -2.864  1.00  0.00     0.009 C 
HETATM   30  C19 UNL     1      14.849  28.192  -5.568  1.00  0.00    -0.012 C 
HETATM   31  C20 UNL     1      13.786  28.431  -4.524  1.00  0.00     0.009 C 
HETATM   32  C24 UNL     1      15.359  26.795  -5.478  1.00  0.00     0.035 C 
HETATM   33  C21 UNL     1      14.385  28.205  -3.169  1.00  0.00    -0.012 C 
HETATM   34  C23 UNL     1      14.940  26.780  -3.097  1.00  0.00     0.035 C 
ENDBRANCH  22  25
ENDBRANCH  18  19
ENDBRANCH  15  18
ENDBRANCH  11  12
ENDBRANCH  10  11
ENDBRANCH   7  10
ENDBRANCH   3   4
TORSDOF 7
ENDMDL
MODEL 3
REMARK VINA RESULT: -8.887177197      4.136      7.773
REMARK  7 active torsions:
REMARK  status: ('A' for Active; 'I' for Inactive)
REMARK    1  A    between atoms: C3_3  and  C4_4 
REMARK    2  A    between atoms: C7_7  and  C8_8 
REMARK    3  A    between atoms: C8_8  and  C9_9 
REMARK    4  A    between atoms: C9_9  and  N1_10 
REMARK    5  A    between atoms: C12_13  and  C13_14 
REMARK    6  A    between atoms: C13_14  and  N2_15 
REMARK       I    between atoms: N2_15  and  C14_17 
REMARK       I    between atoms: C14_17  and  N3_19 
REMARK    7  A    between atoms: N3_19  and  C15_21 
ROOT
HETATM    1  C1  UNL     1      16.623  29.131   5.877  1.00  0.00     0.012 C 
HETATM    2  C2  UNL     1      15.842  28.940   4.970  1.00  0.00    -0.113 C 
HETATM    3  C3  UNL     1      14.879  28.690   3.885  1.00  0.00     0.131 C 
ENDROOT
BRANCH   3   4
HETATM    4  C4  UNL     1      15.001  27.241   3.531  1.00  0.00    -0.047 A 
HETATM    5  C5  UNL     1      14.356  26.715   2.431  1.00  0.00     0.008 A 
HETATM    6  C6  UNL     1      14.462  25.377   2.088  1.00  0.00     0.007 A 
HETATM    7  C7  UNL     1      15.219  24.515   2.836  1.00  0.00    -0.057 A 
HETATM    8  C27 UNL     1      15.870  25.044   3.945  1.00  0.00     0.007 A 
HETATM    9  C28 UNL     1      15.769  26.377   4.292  1.00  0.00     0.008 A 
BRANCH   7  10
HETATM   10  C8  UNL     1      15.404  23.078   2.578  1.00  0.00     0.058 C 
BRANCH  10  11
HETATM   11  C9  UNL     1      16.824  22.611   2.781  1.00  0.00     0.126 C 
BRANCH  11  12
HETATM   12  N1  UNL     1      17.221  21.901   1.593  1.00  0.00    -0.393 N 
HETATM   13  C10 UNL     1      18.609  22.038   1.371  1.00  0.00     0.122 C 
HETATM   14  C11 UNL     1      19.018  22.131  -0.087  1.00  0.00     0.026 C 
HETATM   15  C12 UNL     1      18.158  23.151  -0.771  1.00  0.00     0.010 C 
HETATM   16  C25 UNL     1      16.701  22.837  -0.640  1.00  0.00     0.050 C 
HETATM   17  C26 UNL     1      16.339  21.945   0.497  1.00  0.00     0.058 C 
BRANCH  15  18
HETATM   18  C13 UNL     1      18.589  23.295  -2.207  1.00  0.00     0.129 C 
BRANCH  18  19
HETATM   19  N2  UNL     1      18.804  24.679  -2.518  1.00  0.00    -0.343 N 
HETATM   20  C14 UNL     1      17.725  25.513  -2.926  1.00  0.00     0.316 C 
HETATM   21  O1  UNL     1      16.594  25.004  -3.016  1.00  0.00    -0.247 OA
HETATM   22  N3  UNL     1      17.965  26.873  -3.212  1.00  0.00    -0.334 N 
ATOM     23  H3  UNL     1      18.921  27.216  -3.115  1.00  0.00     0.165 HD
ATOM     24  H2  UNL     1      19.744  25.071  -2.445  1.00  0.00     0.164 HD
BRANCH  22  25
HETATM   25  C15 UNL     1      16.951  27.819  -3.632  1.00  0.00     0.035 C 
HETATM   26  C16 UNL     1      16.119  27.288  -4.771  1.00  0.00     0.035 C 
HETATM   27  C17 UNL     1      15.116  28.363  -5.180  1.00  0.00    -0.012 C 
HETATM   28  C18 UNL     1      14.214  28.625  -4.016  1.00  0.00     0.009 C 
HETATM   29  C22 UNL     1      15.876  29.601  -5.630  1.00  0.00     0.009 C 
HETATM   30  C19 UNL     1      15.025  29.145  -2.851  1.00  0.00    -0.012 C 
HETATM   31  C20 UNL     1      15.676  30.437  -3.281  1.00  0.00     0.009 C 
HETATM   32  C24 UNL     1      16.059  28.159  -2.431  1.00  0.00     0.035 C 
HETATM   33  C21 UNL     1      16.591  30.152  -4.433  1.00  0.00    -0.012 C 
HETATM   34  C23 UNL     1      17.628  29.110  -4.006  1.00  0.00     0.035 C 
ENDBRANCH  22  25
ENDBRANCH  18  19
ENDBRANCH  15  18
ENDBRANCH  11  12
ENDBRANCH  10  11
ENDBRANCH   7  10
ENDBRANCH   3   4
TORSDOF 7
ENDMDL
MODEL 4
REMARK VINA RESULT: -8.884703142      3.842      8.258
REMARK  7 active torsions:
REMARK  status: ('A' for Active; 'I' for Inactive)
REMARK    1  A    between atoms: C3_3  and  C4_4 
REMARK    2  A    between atoms: C7_7  and  C8_8 
REMARK    3  A    between atoms: C8_8  and  C9_9 
REMARK    4  A    between atoms: C9_9  and  N1_10 
REMARK    5  A    between atoms: C12_13  and  C13_14 
REMARK    6  A    between atoms: C13_14  and  N2_15 
REMARK       I    between atoms: N2_15  and  C14_17 
REMARK       I    between atoms: C14_17  and  N3_19 
REMARK    7  A    between atoms: N3_19  and  C15_21 
ROOT
HETATM    1  C1  UNL     1      16.379  30.231   4.467  1.00  0.00     0.012 C 
HETATM    2  C2  UNL     1      16.527  29.335   5.270  1.00  0.00    -0.113 C 
HETATM    3  C3  UNL     1      16.733  28.243   6.237  1.00  0.00     0.131 C 
ENDROOT
BRANCH   3   4
HETATM    4  C4  UNL     1      17.000  27.008   5.435  1.00  0.00    -0.047 A 
HETATM    5  C5  UNL     1      16.024  26.444   4.642  1.00  0.00     0.008 A 
HETATM    6  C6  UNL     1      16.257  25.303   3.891  1.00  0.00     0.007 A 
HETATM    7  C7  UNL     1      17.478  24.684   3.907  1.00  0.00    -0.057 A 
HETATM    8  C27 UNL     1      18.464  25.253   4.708  1.00  0.00     0.007 A 
HETATM    9  C28 UNL     1      18.238  26.390   5.457  1.00  0.00     0.008 A 
BRANCH   7  10
HETATM   10  C8  UNL     1      17.844  23.470   3.161  1.00  0.00     0.058 C 
BRANCH  10  11
HETATM   11  C9  UNL     1      16.656  22.744   2.580  1.00  0.00     0.126 C 
BRANCH  11  12
HETATM   12  N1  UNL     1      17.137  21.921   1.500  1.00  0.00    -0.393 N 
HETATM   13  C10 UNL     1      18.544  21.998   1.402  1.00  0.00     0.122 C 
HETATM   14  C11 UNL     1      19.090  21.952  -0.013  1.00  0.00     0.026 C 
HETATM   15  C12 UNL     1      18.336  22.932  -0.860  1.00  0.00     0.010 C 
HETATM   16  C25 UNL     1      16.863  22.673  -0.844  1.00  0.00     0.050 C 
HETATM   17  C26 UNL     1      16.364  21.895   0.324  1.00  0.00     0.058 C 
BRANCH  15  18
HETATM   18  C13 UNL     1      18.905  22.938  -2.255  1.00  0.00     0.129 C 
BRANCH  18  19
HETATM   19  N2  UNL     1      17.931  23.445  -3.178  1.00  0.00    -0.343 N 
HETATM   20  C14 UNL     1      17.533  24.811  -3.144  1.00  0.00     0.316 C 
HETATM   21  O1  UNL     1      18.045  25.549  -2.284  1.00  0.00    -0.247 OA
HETATM   22  N3  UNL     1      16.583  25.283  -4.074  1.00  0.00    -0.334 N 
ATOM     23  H3  UNL     1      16.209  24.616  -4.749  1.00  0.00     0.165 HD
ATOM     24  H2  UNL     1      17.519  22.817  -3.869  1.00  0.00     0.164 HD
BRANCH  22  25
HETATM   25  C15 UNL     1      16.102  26.649  -4.140  1.00  0.00     0.035 C 
HETATM   26  C16 UNL     1      17.212  27.650  -3.954  1.00  0.00     0.035 C 
HETATM   27  C17 UNL     1      16.610  29.052  -3.987  1.00  0.00    -0.012 C 
HETATM   28  C18 UNL     1      16.000  29.265  -5.336  1.00  0.00     0.009 C 
HETATM   29  C22 UNL     1      15.603  29.183  -2.855  1.00  0.00     0.009 C 
HETATM   30  C19 UNL     1      14.891  28.262  -5.558  1.00  0.00    -0.012 C 
HETATM   31  C20 UNL     1      13.845  28.488  -4.494  1.00  0.00     0.009 C 
HETATM   32  C24 UNL     1      15.406  26.866  -5.489  1.00  0.00     0.035 C 
HETATM   33  C21 UNL     1      14.467  28.251  -3.151  1.00  0.00    -0.012 C 
HETATM   34  C23 UNL     1      15.027  26.826  -3.102  1.00  0.00     0.035 C 
ENDBRANCH  22  25
ENDBRANCH  18  19
ENDBRANCH  15  18
ENDBRANCH  11  12
ENDBRANCH  10  11
ENDBRANCH   7  10
ENDBRANCH   3   4
TORSDOF 7
ENDMDL
MODEL 5
REMARK VINA RESULT: -8.867462071      3.944      8.059
REMARK  7 active torsions:
REMARK  status: ('A' for Active; 'I' for Inactive)
REMARK    1  A    between atoms: C3_3  and  C4_4 
REMARK    2  A    between atoms: C7_7  and  C8_8 
REMARK    3  A    between atoms: C8_8  and  C9_9 
REMARK    4  A    between atoms: C9_9  and  N1_10 
REMARK    5  A    between atoms: C12_13  and  C13_14 
REMARK    6  A    between atoms: C13_14  and  N2_15 
REMARK       I    between atoms: N2_15  and  C14_17 
REMARK       I    between atoms: C14_17  and  N3_19 
REMARK    7  A    between atoms: N3_19  and  C15_21 
ROOT
HETATM    1  C1  UNL     1      16.778  29.356   5.639  1.00  0.00     0.012 C 
HETATM    2  C2  UNL     1      15.890  29.126   4.846  1.00  0.00    -0.113 C 
HETATM    3  C3  UNL     1      14.801  28.827   3.901  1.00  0.00     0.131 C 
ENDROOT
BRANCH   3   4
HETATM    4  C4  UNL     1      14.974  27.399   3.488  1.00  0.00    -0.047 A 
HETATM    5  C5  UNL     1      14.458  26.930   2.299  1.00  0.00     0.008 A 
HETATM    6  C6  UNL     1      14.612  25.612   1.900  1.00  0.00     0.007 A 
HETATM    7  C7  UNL     1      15.292  24.714   2.679  1.00  0.00    -0.057 A 
HETATM    8  C27 UNL     1      15.814  25.187   3.879  1.00  0.00     0.007 A 
HETATM    9  C28 UNL     1      15.663  26.499   4.281  1.00  0.00     0.008 A 
BRANCH   7  10
HETATM   10  C8  UNL     1      15.517  23.294   2.368  1.00  0.00     0.058 C 
BRANCH  10  11
HETATM   11  C9  UNL     1      16.913  22.824   2.693  1.00  0.00     0.126 C 
BRANCH  11  12
HETATM   12  N1  UNL     1      17.340  21.958   1.625  1.00  0.00    -0.393 N 
HETATM   13  C10 UNL     1      18.735  22.054   1.430  1.00  0.00     0.122 C 
HETATM   14  C11 UNL     1      19.189  21.948  -0.013  1.00  0.00     0.026 C 
HETATM   15  C12 UNL     1      18.362  22.873  -0.855  1.00  0.00     0.010 C 
HETATM   16  C25 UNL     1      16.898  22.589  -0.730  1.00  0.00     0.050 C 
HETATM   17  C26 UNL     1      16.492  21.860   0.505  1.00  0.00     0.058 C 
BRANCH  15  18
HETATM   18  C13 UNL     1      18.838  22.820  -2.283  1.00  0.00     0.129 C 
BRANCH  18  19
HETATM   19  N2  UNL     1      17.831  23.350  -3.155  1.00  0.00    -0.343 N 
HETATM   20  C14 UNL     1      17.453  24.721  -3.088  1.00  0.00     0.316 C 
HETATM   21  O1  UNL     1      18.014  25.442  -2.243  1.00  0.00    -0.247 OA
HETATM   22  N3  UNL     1      16.469  25.217  -3.968  1.00  0.00    -0.334 N 
ATOM     23  H3  UNL     1      16.055  24.562  -4.632  1.00  0.00     0.165 HD
ATOM     24  H2  UNL     1      17.379  22.736  -3.834  1.00  0.00     0.164 HD
BRANCH  22  25
HETATM   25  C15 UNL     1      16.004  26.589  -3.996  1.00  0.00     0.035 C 
HETATM   26  C16 UNL     1      14.992  26.867  -2.915  1.00  0.00     0.035 C 
HETATM   27  C17 UNL     1      14.523  28.313  -3.051  1.00  0.00    -0.012 C 
HETATM   28  C18 UNL     1      15.703  29.207  -2.838  1.00  0.00     0.009 C 
HETATM   29  C22 UNL     1      13.881  28.496  -4.417  1.00  0.00     0.009 C 
HETATM   30  C19 UNL     1      16.743  28.939  -3.901  1.00  0.00    -0.012 C 
HETATM   31  C20 UNL     1      16.121  29.242  -5.242  1.00  0.00     0.009 C 
HETATM   32  C24 UNL     1      17.210  27.526  -3.854  1.00  0.00     0.035 C 
HETATM   33  C21 UNL     1      14.955  28.323  -5.448  1.00  0.00    -0.012 C 
HETATM   34  C23 UNL     1      15.436  26.873  -5.361  1.00  0.00     0.035 C 
ENDBRANCH  22  25
ENDBRANCH  18  19
ENDBRANCH  15  18
ENDBRANCH  11  12
ENDBRANCH  10  11
ENDBRANCH   7  10
ENDBRANCH   3   4
TORSDOF 7
ENDMDL
