MODEL 1
REMARK VINA RESULT: -7.891328669      0.000      0.000
REMARK  7 active torsions:
REMARK  status: ('A' for Active; 'I' for Inactive)
REMARK    1  A    between atoms: C12_15  and  C13_16 
REMARK    2  A    between atoms: C13_16  and  C14_17 
REMARK       I    between atoms: C14_17  and  N2_19 
REMARK    3  A    between atoms: N2_19  and  C15_21 
REMARK    4  A    between atoms: C15_21  and  C16_22 
REMARK    5  A    between atoms: C16_22  and  C17_23 
REMARK    6  A    between atoms: C17_23  and  C18_24 
REMARK    7  A    between atoms: C18_24  and  N3_25 
ROOT
HETATM    1  C1  UNL     1      21.660  25.885  -5.068  1.00  0.00     0.040 C 
HETATM    2  C2  UNL     1      20.522  26.499  -4.333  1.00  0.00     0.189 C 
HETATM    3  N1  UNL     1      19.223  25.830  -4.518  1.00  0.00    -0.061 N 
ATOM      4  H11 UNL     1      19.163  24.870  -4.857  1.00  0.00     0.278 HD
ATOM      5  H12 UNL     1      18.586  26.104  -5.266  1.00  0.00     0.278 HD
HETATM    6  C3  UNL     1      18.949  26.157  -3.144  1.00  0.00     0.132 C 
HETATM    7  C4  UNL     1      18.375  27.542  -2.926  1.00  0.00     0.047 C 
HETATM    8  C5  UNL     1      20.407  26.091  -2.864  1.00  0.00     0.052 C 
HETATM    9  C6  UNL     1      20.943  24.761  -2.515  1.00  0.00     0.010 C 
HETATM   10  C7  UNL     1      20.089  23.597  -2.832  1.00  0.00     0.006 C 
HETATM   11  C8  UNL     1      18.648  23.731  -2.577  1.00  0.00    -0.003 C 
HETATM   12  C9  UNL     1      18.135  22.889  -1.447  1.00  0.00    -0.002 C 
HETATM   13  C10 UNL     1      18.861  23.118  -0.158  1.00  0.00     0.006 C 
HETATM   14  C11 UNL     1      18.593  21.871   0.696  1.00  0.00     0.005 C 
HETATM   15  C12 UNL     1      17.135  21.631   0.833  1.00  0.00    -0.005 C 
HETATM   16  C22 UNL     1      16.254  22.647   0.190  1.00  0.00     0.014 C 
HETATM   17  C23 UNL     1      16.674  23.037  -1.209  1.00  0.00    -0.040 C 
HETATM   18  C24 UNL     1      15.951  22.092  -2.170  1.00  0.00     0.015 C 
HETATM   19  C25 UNL     1      16.112  24.399  -1.441  1.00  0.00     0.010 C 
HETATM   20  C26 UNL     1      16.721  25.169  -2.549  1.00  0.00     0.008 C 
HETATM   21  C27 UNL     1      18.232  25.151  -2.330  1.00  0.00     0.026 C 
ENDROOT
BRANCH  15  22
HETATM   22  C13 UNL     1      16.806  21.587   2.312  1.00  0.00     0.107 C 
BRANCH  22  23
HETATM   23  C14 UNL     1      15.733  22.558   2.678  1.00  0.00     0.217 C 
HETATM   24  O1  UNL     1      14.575  22.155   2.966  1.00  0.00    -0.274 OA
HETATM   25  N2  UNL     1      16.045  23.918   2.693  1.00  0.00    -0.361 N 
ATOM     26  H2  UNL     1      16.997  24.198   2.458  1.00  0.00     0.162 HD
BRANCH  25  27
HETATM   27  C15 UNL     1      15.108  24.936   3.019  1.00  0.00     0.122 C 
BRANCH  27  28
HETATM   28  C16 UNL     1      15.626  25.847   4.092  1.00  0.00     0.021 C 
BRANCH  28  29
HETATM   29  C17 UNL     1      15.247  27.295   3.822  1.00  0.00     0.029 C 
BRANCH  29  30
HETATM   30  C18 UNL     1      16.132  28.181   4.695  1.00  0.00     0.236 C 
BRANCH  30  31
HETATM   31  N3  UNL     1      16.144  29.542   4.209  1.00  0.00    -0.079 N 
HETATM   32  C19 UNL     1      15.266  29.693   3.082  1.00  0.00     0.271 C 
HETATM   33  C20 UNL     1      17.474  29.950   3.816  1.00  0.00     0.271 C 
HETATM   34  C21 UNL     1      15.682  30.391   5.316  1.00  0.00     0.271 C 
ENDBRANCH  30  31
ENDBRANCH  29  30
ENDBRANCH  28  29
ENDBRANCH  27  28
ENDBRANCH  25  27
ENDBRANCH  22  23
ENDBRANCH  15  22
TORSDOF 7
ENDMDL
MODEL 2
REMARK VINA RESULT: -7.819091575      4.283      6.949
REMARK  7 active torsions:
REMARK  status: ('A' for Active; 'I' for Inactive)
REMARK    1  A    between atoms: C12_15  and  C13_16 
REMARK    2  A    between atoms: C13_16  and  C14_17 
REMARK       I    between atoms: C14_17  and  N2_19 
REMARK    3  A    between atoms: N2_19  and  C15_21 
REMARK    4  A    between atoms: C15_21  and  C16_22 
REMARK    5  A    between atoms: C16_22  and  C17_23 
REMARK    6  A    between atoms: C17_23  and  C18_24 
REMARK    7  A    between atoms: C18_24  and  N3_25 
ROOT
HETATM    1  C1  UNL     1       8.979  28.153  -3.633  1.00  0.00     0.040 C 
HETATM    2  C2  UNL     1      10.226  28.880  -3.988  1.00  0.00     0.189 C 
HETATM    3  N1  UNL     1      11.149  29.127  -2.866  1.00  0.00    -0.061 N 
ATOM      4  H11 UNL     1      11.091  28.587  -2.002  1.00  0.00     0.278 HD
ATOM      5  H12 UNL     1      11.087  29.977  -2.305  1.00  0.00     0.278 HD
HETATM    6  C3  UNL     1      12.219  28.925  -3.806  1.00  0.00     0.132 C 
HETATM    7  C4  UNL     1      12.610  30.159  -4.594  1.00  0.00     0.047 C 
HETATM    8  C5  UNL     1      11.338  28.009  -4.575  1.00  0.00     0.052 C 
HETATM    9  C6  UNL     1      11.344  26.595  -4.154  1.00  0.00     0.010 C 
HETATM   10  C7  UNL     1      11.914  26.300  -2.822  1.00  0.00     0.006 C 
HETATM   11  C8  UNL     1      13.128  27.030  -2.434  1.00  0.00    -0.003 C 
HETATM   12  C9  UNL     1      14.364  26.184  -2.353  1.00  0.00    -0.002 C 
HETATM   13  C10 UNL     1      14.653  25.432  -3.616  1.00  0.00     0.006 C 
HETATM   14  C11 UNL     1      15.577  24.276  -3.208  1.00  0.00     0.005 C 
HETATM   15  C12 UNL     1      16.774  24.787  -2.495  1.00  0.00    -0.005 C 
HETATM   16  C22 UNL     1      16.867  26.270  -2.377  1.00  0.00     0.014 C 
HETATM   17  C23 UNL     1      15.580  26.942  -1.955  1.00  0.00    -0.040 C 
HETATM   18  C24 UNL     1      15.598  27.018  -0.428  1.00  0.00     0.015 C 
HETATM   19  C25 UNL     1      15.666  28.344  -2.457  1.00  0.00     0.010 C 
HETATM   20  C26 UNL     1      14.384  29.078  -2.547  1.00  0.00     0.008 C 
HETATM   21  C27 UNL     1      13.417  28.196  -3.334  1.00  0.00     0.026 C 
ENDROOT
BRANCH  15  22
HETATM   22  C13 UNL     1      18.003  24.292  -3.232  1.00  0.00     0.107 C 
BRANCH  22  23
HETATM   23  C14 UNL     1      18.995  23.664  -2.312  1.00  0.00     0.217 C 
HETATM   24  O1  UNL     1      20.204  24.016  -2.335  1.00  0.00    -0.274 OA
HETATM   25  N2  UNL     1      18.550  22.680  -1.427  1.00  0.00    -0.361 N 
ATOM     26  H2  UNL     1      17.562  22.430  -1.440  1.00  0.00     0.162 HD
BRANCH  25  27
HETATM   27  C15 UNL     1      19.400  22.006  -0.509  1.00  0.00     0.122 C 
BRANCH  27  28
HETATM   28  C16 UNL     1      18.635  21.457   0.659  1.00  0.00     0.021 C 
BRANCH  28  29
HETATM   29  C17 UNL     1      18.204  22.564   1.610  1.00  0.00     0.029 C 
BRANCH  29  30
HETATM   30  C18 UNL     1      16.682  22.665   1.552  1.00  0.00     0.236 C 
BRANCH  30  31
HETATM   31  N3  UNL     1      16.166  23.387   2.691  1.00  0.00    -0.079 N 
HETATM   32  C19 UNL     1      15.317  24.468   2.273  1.00  0.00     0.271 C 
HETATM   33  C20 UNL     1      17.235  23.929   3.502  1.00  0.00     0.271 C 
HETATM   34  C21 UNL     1      15.391  22.426   3.488  1.00  0.00     0.271 C 
ENDBRANCH  30  31
ENDBRANCH  29  30
ENDBRANCH  28  29
ENDBRANCH  27  28
ENDBRANCH  25  27
ENDBRANCH  22  23
ENDBRANCH  15  22
TORSDOF 7
ENDMDL
MODEL 3
REMARK VINA RESULT: -7.687847009      3.697      6.301
REMARK  7 active torsions:
REMARK  status: ('A' for Active; 'I' for Inactive)
REMARK    1  A    between atoms: C12_15  and  C13_16 
REMARK    2  A    between atoms: C13_16  and  C14_17 
REMARK       I    between atoms: C14_17  and  N2_19 
REMARK    3  A    between atoms: N2_19  and  C15_21 
REMARK    4  A    between atoms: C15_21  and  C16_22 
REMARK    5  A    between atoms: C16_22  and  C17_23 
REMARK    6  A    between atoms: C17_23  and  C18_24 
REMARK    7  A    between atoms: C18_24  and  N3_25 
ROOT
HETATM    1  C1  UNL     1      16.579  31.375  -6.860  1.00  0.00     0.040 C 
HETATM    2  C2  UNL     1      15.185  30.950  -6.567  1.00  0.00     0.189 C 
HETATM    3  N1  UNL     1      14.952  29.496  -6.599  1.00  0.00    -0.061 N 
ATOM      4  H11 UNL     1      15.724  28.833  -6.519  1.00  0.00     0.278 HD
ATOM      5  H12 UNL     1      14.671  29.022  -7.457  1.00  0.00     0.278 HD
HETATM    6  C3  UNL     1      14.026  29.700  -5.517  1.00  0.00     0.132 C 
HETATM    7  C4  UNL     1      12.626  30.084  -5.949  1.00  0.00     0.047 C 
HETATM    8  C5  UNL     1      14.832  30.870  -5.081  1.00  0.00     0.052 C 
HETATM    9  C6  UNL     1      15.951  30.583  -4.163  1.00  0.00     0.010 C 
HETATM   10  C7  UNL     1      16.384  29.173  -4.064  1.00  0.00     0.006 C 
HETATM   11  C8  UNL     1      15.333  28.146  -4.042  1.00  0.00    -0.003 C 
HETATM   12  C9  UNL     1      15.181  27.440  -2.728  1.00  0.00    -0.002 C 
HETATM   13  C10 UNL     1      14.951  28.370  -1.576  1.00  0.00     0.006 C 
HETATM   14  C11 UNL     1      15.337  27.576  -0.320  1.00  0.00     0.005 C 
HETATM   15  C12 UNL     1      14.584  26.299  -0.253  1.00  0.00    -0.005 C 
HETATM   16  C22 UNL     1      13.595  26.079  -1.346  1.00  0.00     0.014 C 
HETATM   17  C23 UNL     1      14.114  26.403  -2.729  1.00  0.00    -0.040 C 
HETATM   18  C24 UNL     1      14.721  25.116  -3.289  1.00  0.00     0.015 C 
HETATM   19  C25 UNL     1      12.912  26.708  -3.557  1.00  0.00     0.010 C 
HETATM   20  C26 UNL     1      13.163  27.453  -4.811  1.00  0.00     0.008 C 
HETATM   21  C27 UNL     1      13.990  28.683  -4.444  1.00  0.00     0.026 C 
ENDROOT
BRANCH  15  22
HETATM   22  C13 UNL     1      13.845  26.262   1.070  1.00  0.00     0.107 C 
BRANCH  22  23
HETATM   23  C14 UNL     1      14.649  25.610   2.144  1.00  0.00     0.217 C 
HETATM   24  O1  UNL     1      15.356  26.300   2.924  1.00  0.00    -0.274 OA
HETATM   25  N2  UNL     1      14.597  24.220   2.262  1.00  0.00    -0.361 N 
ATOM     26  H2  UNL     1      14.006  23.702   1.611  1.00  0.00     0.162 HD
BRANCH  25  27
HETATM   27  C15 UNL     1      15.321  23.486   3.240  1.00  0.00     0.122 C 
BRANCH  27  28
HETATM   28  C16 UNL     1      15.967  22.265   2.655  1.00  0.00     0.021 C 
BRANCH  28  29
HETATM   29  C17 UNL     1      17.044  22.635   1.647  1.00  0.00     0.029 C 
BRANCH  29  30
HETATM   30  C18 UNL     1      16.860  21.748   0.418  1.00  0.00     0.236 C 
BRANCH  30  31
HETATM   31  N3  UNL     1      17.196  22.462  -0.792  1.00  0.00    -0.079 N 
HETATM   32  C19 UNL     1      18.575  22.262  -1.142  1.00  0.00     0.271 C 
HETATM   33  C20 UNL     1      16.957  23.882  -0.651  1.00  0.00     0.271 C 
HETATM   34  C21 UNL     1      16.332  21.927  -1.853  1.00  0.00     0.271 C 
ENDBRANCH  30  31
ENDBRANCH  29  30
ENDBRANCH  28  29
ENDBRANCH  27  28
ENDBRANCH  25  27
ENDBRANCH  22  23
ENDBRANCH  15  22
TORSDOF 7
ENDMDL
MODEL 4
REMARK VINA RESULT: -7.626765456      3.784      6.340
REMARK  7 active torsions:
REMARK  status: ('A' for Active; 'I' for Inactive)
REMARK    1  A    between atoms: C12_15  and  C13_16 
REMARK    2  A    between atoms: C13_16  and  C14_17 
REMARK       I    between atoms: C14_17  and  N2_19 
REMARK    3  A    between atoms: N2_19  and  C15_21 
REMARK    4  A    between atoms: C15_21  and  C16_22 
REMARK    5  A    between atoms: C16_22  and  C17_23 
REMARK    6  A    between atoms: C17_23  and  C18_24 
REMARK    7  A    between atoms: C18_24  and  N3_25 
ROOT
HETATM    1  C1  UNL     1      11.763  29.007  -7.214  1.00  0.00     0.040 C 
HETATM    2  C2  UNL     1      13.105  29.596  -6.962  1.00  0.00     0.189 C 
HETATM    3  N1  UNL     1      13.434  29.825  -5.545  1.00  0.00    -0.061 N 
ATOM      4  H11 UNL     1      12.930  29.346  -4.798  1.00  0.00     0.278 HD
ATOM      5  H12 UNL     1      13.215  30.710  -5.085  1.00  0.00     0.278 HD
HETATM    6  C3  UNL     1      14.787  29.472  -5.883  1.00  0.00     0.132 C 
HETATM    7  C4  UNL     1      15.624  30.615  -6.417  1.00  0.00     0.047 C 
HETATM    8  C5  UNL     1      14.261  28.595  -6.962  1.00  0.00     0.052 C 
HETATM    9  C6  UNL     1      13.922  27.213  -6.569  1.00  0.00     0.010 C 
HETATM   10  C7  UNL     1      13.785  26.948  -5.121  1.00  0.00     0.006 C 
HETATM   11  C8  UNL     1      14.758  27.588  -4.225  1.00  0.00    -0.003 C 
HETATM   12  C9  UNL     1      15.721  26.639  -3.575  1.00  0.00    -0.002 C 
HETATM   13  C10 UNL     1      16.473  25.791  -4.554  1.00  0.00     0.006 C 
HETATM   14  C11 UNL     1      16.977  24.582  -3.752  1.00  0.00     0.005 C 
HETATM   15  C12 UNL     1      17.764  25.025  -2.574  1.00  0.00    -0.005 C 
HETATM   16  C22 UNL     1      17.952  26.497  -2.444  1.00  0.00     0.014 C 
HETATM   17  C23 UNL     1      16.695  27.307  -2.670  1.00  0.00    -0.040 C 
HETATM   18  C24 UNL     1      16.021  27.473  -1.307  1.00  0.00     0.015 C 
HETATM   19  C25 UNL     1      17.152  28.663  -3.092  1.00  0.00     0.010 C 
HETATM   20  C26 UNL     1      16.140  29.503  -3.771  1.00  0.00     0.008 C 
HETATM   21  C27 UNL     1      15.550  28.667  -4.904  1.00  0.00     0.026 C 
ENDROOT
BRANCH  15  22
HETATM   22  C13 UNL     1      19.132  24.377  -2.657  1.00  0.00     0.107 C 
BRANCH  22  23
HETATM   23  C14 UNL     1      19.143  23.008  -2.064  1.00  0.00     0.217 C 
HETATM   24  O1  UNL     1      18.845  22.004  -2.762  1.00  0.00    -0.274 OA
HETATM   25  N2  UNL     1      19.489  22.871  -0.718  1.00  0.00    -0.361 N 
ATOM     26  H2  UNL     1      19.727  23.711  -0.192  1.00  0.00     0.162 HD
BRANCH  25  27
HETATM   27  C15 UNL     1      19.529  21.622  -0.041  1.00  0.00     0.122 C 
BRANCH  27  28
HETATM   28  C16 UNL     1      18.369  21.459   0.897  1.00  0.00     0.021 C 
BRANCH  28  29
HETATM   29  C17 UNL     1      18.043  22.764   1.608  1.00  0.00     0.029 C 
BRANCH  29  30
HETATM   30  C18 UNL     1      16.537  22.989   1.506  1.00  0.00     0.236 C 
BRANCH  30  31
HETATM   31  N3  UNL     1      15.995  23.453   2.762  1.00  0.00    -0.079 N 
HETATM   32  C19 UNL     1      15.418  22.367   3.506  1.00  0.00     0.271 C 
HETATM   33  C20 UNL     1      14.980  24.463   2.559  1.00  0.00     0.271 C 
HETATM   34  C21 UNL     1      17.114  24.033   3.518  1.00  0.00     0.271 C 
ENDBRANCH  30  31
ENDBRANCH  29  30
ENDBRANCH  28  29
ENDBRANCH  27  28
ENDBRANCH  25  27
ENDBRANCH  22  23
ENDBRANCH  15  22
TORSDOF 7
ENDMDL
MODEL 5
REMARK VINA RESULT: -7.569145109      4.889      8.577
REMARK  7 active torsions:
REMARK  status: ('A' for Active; 'I' for Inactive)
REMARK    1  A    between atoms: C12_15  and  C13_16 
REMARK    2  A    between atoms: C13_16  and  C14_17 
REMARK       I    between atoms: C14_17  and  N2_19 
REMARK    3  A    between atoms: N2_19  and  C15_21 
REMARK    4  A    between atoms: C15_21  and  C16_22 
REMARK    5  A    between atoms: C16_22  and  C17_23 
REMARK    6  A    between atoms: C17_23  and  C18_24 
REMARK    7  A    between atoms: C18_24  and  N3_25 
ROOT
HETATM    1  C1  UNL     1      24.511  32.592  -1.346  1.00  0.00     0.040 C 
HETATM    2  C2  UNL     1      24.870  31.958  -0.050  1.00  0.00     0.189 C 
HETATM    3  N1  UNL     1      24.526  32.741   1.149  1.00  0.00    -0.061 N 
ATOM      4  H11 UNL     1      23.835  33.492   1.113  1.00  0.00     0.278 HD
ATOM      5  H12 UNL     1      25.184  33.406   1.556  1.00  0.00     0.278 HD
HETATM    6  C3  UNL     1      24.235  31.486   1.789  1.00  0.00     0.132 C 
HETATM    7  C4  UNL     1      25.436  30.797   2.402  1.00  0.00     0.047 C 
HETATM    8  C5  UNL     1      23.867  30.924   0.464  1.00  0.00     0.052 C 
HETATM    9  C6  UNL     1      22.465  31.116   0.043  1.00  0.00     0.010 C 
HETATM   10  C7  UNL     1      21.684  32.134   0.777  1.00  0.00     0.006 C 
HETATM   11  C8  UNL     1      21.872  32.206   2.232  1.00  0.00    -0.003 C 
HETATM   12  C9  UNL     1      20.686  31.759   3.035  1.00  0.00    -0.002 C 
HETATM   13  C10 UNL     1      20.220  30.378   2.690  1.00  0.00     0.006 C 
HETATM   14  C11 UNL     1      18.768  30.297   3.181  1.00  0.00     0.005 C 
HETATM   15  C12 UNL     1      18.679  30.646   4.621  1.00  0.00    -0.005 C 
HETATM   16  C22 UNL     1      19.978  30.935   5.292  1.00  0.00     0.014 C 
HETATM   17  C23 UNL     1      20.896  31.843   4.505  1.00  0.00    -0.040 C 
HETATM   18  C24 UNL     1      20.581  33.276   4.936  1.00  0.00     0.015 C 
HETATM   19  C25 UNL     1      22.277  31.544   4.983  1.00  0.00     0.010 C 
HETATM   20  C26 UNL     1      23.377  31.981   4.094  1.00  0.00     0.008 C 
HETATM   21  C27 UNL     1      23.072  31.435   2.701  1.00  0.00     0.026 C 
ENDROOT
BRANCH  15  22
HETATM   22  C13 UNL     1      18.021  29.487   5.342  1.00  0.00     0.107 C 
BRANCH  22  23
HETATM   23  C14 UNL     1      16.561  29.396   5.044  1.00  0.00     0.217 C 
HETATM   24  O1  UNL     1      15.757  30.243   5.514  1.00  0.00    -0.274 OA
HETATM   25  N2  UNL     1      16.113  28.351   4.234  1.00  0.00    -0.361 N 
ATOM     26  H2  UNL     1      16.801  27.692   3.872  1.00  0.00     0.162 HD
BRANCH  25  27
HETATM   27  C15 UNL     1      14.749  28.157   3.886  1.00  0.00     0.122 C 
BRANCH  27  28
HETATM   28  C16 UNL     1      14.570  26.983   2.969  1.00  0.00     0.021 C 
BRANCH  28  29
HETATM   29  C17 UNL     1      15.223  25.731   3.537  1.00  0.00     0.029 C 
BRANCH  29  30
HETATM   30  C18 UNL     1      15.041  24.607   2.520  1.00  0.00     0.236 C 
BRANCH  30  31
HETATM   31  N3  UNL     1      15.994  23.545   2.746  1.00  0.00    -0.079 N 
HETATM   32  C19 UNL     1      16.539  23.070   1.504  1.00  0.00     0.271 C 
HETATM   33  C20 UNL     1      15.388  22.429   3.439  1.00  0.00     0.271 C 
HETATM   34  C21 UNL     1      17.068  24.108   3.576  1.00  0.00     0.271 C 
ENDBRANCH  30  31
ENDBRANCH  29  30
ENDBRANCH  28  29
ENDBRANCH  27  28
ENDBRANCH  25  27
ENDBRANCH  22  23
ENDBRANCH  15  22
TORSDOF 7
ENDMDL
