MODEL 1
REMARK VINA RESULT: -6.963846598      0.000      0.000
REMARK  7 active torsions:
REMARK  status: ('A' for Active; 'I' for Inactive)
REMARK    1  A    between atoms: C2_2  and  N1_3 
REMARK    2  A    between atoms: N1_3  and  C3_4 
REMARK    3  A    between atoms: N1_3  and  C5_6 
REMARK    4  A    between atoms: C5_6  and  C6_7 
REMARK    5  A    between atoms: C6_7  and  N2_8 
REMARK       I    between atoms: N2_8  and  C7_10 
REMARK    6  A    between atoms: C7_10  and  C8_12 
REMARK    7  A    between atoms: C17_21  and  C18_22 
ROOT
HETATM    1  C8  UNL     1      15.398  28.012  -5.099  1.00  0.00     0.086 C 
HETATM    2  C9  UNL     1      15.335  29.052  -3.995  1.00  0.00     0.015 C 
HETATM    3  C10 UNL     1      15.085  28.238  -2.707  1.00  0.00     0.007 C 
HETATM    4  C11 UNL     1      15.836  27.000  -3.074  1.00  0.00    -0.001 C 
HETATM    5  C12 UNL     1      15.978  25.932  -2.116  1.00  0.00    -0.001 C 
HETATM    6  C13 UNL     1      14.982  25.811  -0.993  1.00  0.00     0.033 C 
HETATM    7  C14 UNL     1      15.690  24.999   0.041  1.00  0.00    -0.023 C 
HETATM    8  C15 UNL     1      16.444  23.963  -0.381  1.00  0.00    -0.074 C 
HETATM    9  C16 UNL     1      17.167  23.134   0.627  1.00  0.00     0.044 C 
HETATM   10  C17 UNL     1      17.931  22.012   0.055  1.00  0.00     0.027 C 
HETATM   11  C19 UNL     1      18.666  22.376  -1.181  1.00  0.00     0.011 C 
HETATM   12  C20 UNL     1      18.094  23.454  -2.027  1.00  0.00     0.015 C 
HETATM   13  C21 UNL     1      16.594  23.594  -1.811  1.00  0.00    -0.017 C 
HETATM   14  C22 UNL     1      15.942  22.227  -2.070  1.00  0.00     0.020 C 
HETATM   15  C23 UNL     1      16.022  24.564  -2.773  1.00  0.00     0.003 C 
HETATM   16  C24 UNL     1      16.794  24.740  -4.055  1.00  0.00     0.007 C 
HETATM   17  C25 UNL     1      16.042  25.571  -5.039  1.00  0.00     0.011 C 
HETATM   18  C26 UNL     1      15.216  26.677  -4.420  1.00  0.00    -0.028 C 
HETATM   19  C27 UNL     1      13.780  26.267  -4.361  1.00  0.00     0.016 C 
ENDROOT
BRANCH   1  20
HETATM   20  C7  UNL     1      14.355  28.316  -6.109  1.00  0.00     0.222 C 
HETATM   21  N2  UNL     1      14.158  27.583  -7.299  1.00  0.00    -0.356 N 
ATOM     22  H2  UNL     1      14.770  26.792  -7.500  1.00  0.00     0.162 HD
HETATM   23  O1  UNL     1      13.617  29.289  -5.871  1.00  0.00    -0.273 OA
BRANCH  21  24
HETATM   24  C6  UNL     1      13.119  27.917  -8.240  1.00  0.00     0.167 C 
BRANCH  24  25
HETATM   25  C5  UNL     1      11.878  27.073  -8.114  1.00  0.00     0.087 C 
BRANCH  25  26
HETATM   26  N1  UNL     1      11.839  25.890  -8.820  1.00  0.00    -0.353 N 
BRANCH  26  27
HETATM   27  C2  UNL     1      11.604  24.730  -8.088  1.00  0.00     0.064 C 
HETATM   28  C1  UNL     1      12.761  24.213  -7.250  1.00  0.00     0.055 C 
ENDBRANCH  26  27
BRANCH  26  29
HETATM   29  C3  UNL     1      11.953  25.873 -10.192  1.00  0.00     0.064 C 
HETATM   30  C4  UNL     1      11.832  24.480 -10.813  1.00  0.00     0.055 C 
ENDBRANCH  26  29
ENDBRANCH  25  26
ENDBRANCH  24  25
ENDBRANCH  21  24
ENDBRANCH   1  20
BRANCH  10  31
HETATM   31  C18 UNL     1      18.973  21.614   1.087  1.00  0.00     0.057 C 
HETATM   32  N3  UNL     1      20.191  21.864   0.922  1.00  0.00    -0.411 N 
ATOM     33  H32 UNL     1      20.473  22.346   0.068  1.00  0.00     0.155 HD
ATOM     34  H31 UNL     1      20.890  21.597   1.615  1.00  0.00     0.155 HD
ENDBRANCH  10  31
TORSDOF 7
ENDMDL
MODEL 2
REMARK VINA RESULT: -6.893574256      0.147      1.134
REMARK  7 active torsions:
REMARK  status: ('A' for Active; 'I' for Inactive)
REMARK    1  A    between atoms: C2_2  and  N1_3 
REMARK    2  A    between atoms: N1_3  and  C3_4 
REMARK    3  A    between atoms: N1_3  and  C5_6 
REMARK    4  A    between atoms: C5_6  and  C6_7 
REMARK    5  A    between atoms: C6_7  and  N2_8 
REMARK       I    between atoms: N2_8  and  C7_10 
REMARK    6  A    between atoms: C7_10  and  C8_12 
REMARK    7  A    between atoms: C17_21  and  C18_22 
ROOT
HETATM    1  C8  UNL     1      15.452  28.018  -5.105  1.00  0.00     0.086 C 
HETATM    2  C9  UNL     1      15.403  29.058  -4.001  1.00  0.00     0.015 C 
HETATM    3  C10 UNL     1      15.145  28.247  -2.713  1.00  0.00     0.007 C 
HETATM    4  C11 UNL     1      15.883  27.000  -3.080  1.00  0.00    -0.001 C 
HETATM    5  C12 UNL     1      16.014  25.931  -2.123  1.00  0.00    -0.001 C 
HETATM    6  C13 UNL     1      15.018  25.821  -0.998  1.00  0.00     0.033 C 
HETATM    7  C14 UNL     1      15.719  25.001   0.034  1.00  0.00    -0.023 C 
HETATM    8  C15 UNL     1      16.461  23.956  -0.389  1.00  0.00    -0.074 C 
HETATM    9  C16 UNL     1      17.177  23.120   0.618  1.00  0.00     0.044 C 
HETATM   10  C17 UNL     1      17.928  21.990   0.044  1.00  0.00     0.027 C 
HETATM   11  C19 UNL     1      18.664  22.346  -1.193  1.00  0.00     0.011 C 
HETATM   12  C20 UNL     1      18.103  23.430  -2.037  1.00  0.00     0.015 C 
HETATM   13  C21 UNL     1      16.605  23.586  -1.820  1.00  0.00    -0.017 C 
HETATM   14  C22 UNL     1      15.938  22.227  -2.077  1.00  0.00     0.020 C 
HETATM   15  C23 UNL     1      16.042  24.563  -2.781  1.00  0.00     0.003 C 
HETATM   16  C24 UNL     1      16.815  24.730  -4.063  1.00  0.00     0.007 C 
HETATM   17  C25 UNL     1      16.070  25.570  -5.046  1.00  0.00     0.011 C 
HETATM   18  C26 UNL     1      15.257  26.685  -4.426  1.00  0.00    -0.028 C 
HETATM   19  C27 UNL     1      13.816  26.290  -4.365  1.00  0.00     0.016 C 
ENDROOT
BRANCH   1  20
HETATM   20  C7  UNL     1      14.411  28.333  -6.113  1.00  0.00     0.222 C 
HETATM   21  N2  UNL     1      14.180  27.580  -7.285  1.00  0.00    -0.356 N 
ATOM     22  H2  UNL     1      14.764  26.765  -7.472  1.00  0.00     0.162 HD
HETATM   23  O1  UNL     1      13.708  29.335  -5.892  1.00  0.00    -0.273 OA
BRANCH  21  24
HETATM   24  C6  UNL     1      13.145  27.927  -8.225  1.00  0.00     0.167 C 
BRANCH  24  25
HETATM   25  C5  UNL     1      11.847  27.193  -8.012  1.00  0.00     0.087 C 
BRANCH  25  26
HETATM   26  N1  UNL     1      11.722  25.943  -8.576  1.00  0.00    -0.353 N 
BRANCH  26  27
HETATM   27  C2  UNL     1      11.916  25.854  -9.951  1.00  0.00     0.064 C 
HETATM   28  C1  UNL     1      11.283  24.660 -10.647  1.00  0.00     0.055 C 
ENDBRANCH  26  27
BRANCH  26  29
HETATM   29  C3  UNL     1      11.493  24.829  -7.801  1.00  0.00     0.064 C 
HETATM   30  C4  UNL     1      12.758  24.205  -7.210  1.00  0.00     0.055 C 
ENDBRANCH  26  29
ENDBRANCH  25  26
ENDBRANCH  24  25
ENDBRANCH  21  24
ENDBRANCH   1  20
BRANCH  10  31
HETATM   31  C18 UNL     1      18.966  21.580   1.075  1.00  0.00     0.057 C 
HETATM   32  N3  UNL     1      20.177  21.879   0.943  1.00  0.00    -0.411 N 
ATOM     33  H32 UNL     1      20.455  22.410   0.117  1.00  0.00     0.155 HD
ATOM     34  H31 UNL     1      20.874  21.604   1.635  1.00  0.00     0.155 HD
ENDBRANCH  10  31
TORSDOF 7
ENDMDL
MODEL 3
REMARK VINA RESULT: -6.885512995      3.851      9.565
REMARK  7 active torsions:
REMARK  status: ('A' for Active; 'I' for Inactive)
REMARK    1  A    between atoms: C2_2  and  N1_3 
REMARK    2  A    between atoms: N1_3  and  C3_4 
REMARK    3  A    between atoms: N1_3  and  C5_6 
REMARK    4  A    between atoms: C5_6  and  C6_7 
REMARK    5  A    between atoms: C6_7  and  N2_8 
REMARK       I    between atoms: N2_8  and  C7_10 
REMARK    6  A    between atoms: C7_10  and  C8_12 
REMARK    7  A    between atoms: C17_21  and  C18_22 
ROOT
HETATM    1  C8  UNL     1      15.518  26.564  -1.167  1.00  0.00     0.086 C 
HETATM    2  C9  UNL     1      16.176  25.255  -1.565  1.00  0.00     0.015 C 
HETATM    3  C10 UNL     1      15.273  24.690  -2.683  1.00  0.00     0.007 C 
HETATM    4  C11 UNL     1      14.832  25.982  -3.290  1.00  0.00    -0.001 C 
HETATM    5  C12 UNL     1      14.013  25.978  -4.476  1.00  0.00    -0.001 C 
HETATM    6  C13 UNL     1      13.185  24.762  -4.798  1.00  0.00     0.033 C 
HETATM    7  C14 UNL     1      12.915  24.878  -6.262  1.00  0.00    -0.023 C 
HETATM    8  C15 UNL     1      12.634  26.103  -6.755  1.00  0.00    -0.074 C 
HETATM    9  C16 UNL     1      12.363  26.253  -8.214  1.00  0.00     0.044 C 
HETATM   10  C17 UNL     1      12.038  27.627  -8.632  1.00  0.00     0.027 C 
HETATM   11  C19 UNL     1      12.896  28.652  -7.991  1.00  0.00     0.011 C 
HETATM   12  C20 UNL     1      13.440  28.345  -6.644  1.00  0.00     0.015 C 
HETATM   13  C21 UNL     1      12.578  27.326  -5.914  1.00  0.00    -0.017 C 
HETATM   14  C22 UNL     1      11.139  27.860  -5.866  1.00  0.00     0.020 C 
HETATM   15  C23 UNL     1      13.050  27.152  -4.521  1.00  0.00     0.003 C 
HETATM   16  C24 UNL     1      13.793  28.325  -3.936  1.00  0.00     0.007 C 
HETATM   17  C25 UNL     1      14.045  28.142  -2.478  1.00  0.00     0.011 C 
HETATM   18  C26 UNL     1      14.315  26.712  -2.065  1.00  0.00    -0.028 C 
HETATM   19  C27 UNL     1      13.085  26.117  -1.459  1.00  0.00     0.016 C 
ENDROOT
BRANCH   1  20
HETATM   20  C7  UNL     1      15.185  26.517   0.277  1.00  0.00     0.222 C 
HETATM   21  N2  UNL     1      14.825  27.643   1.050  1.00  0.00    -0.356 N 
ATOM     22  H2  UNL     1      14.795  28.559   0.605  1.00  0.00     0.162 HD
HETATM   23  O1  UNL     1      15.234  25.401   0.824  1.00  0.00    -0.273 OA
BRANCH  21  24
HETATM   24  C6  UNL     1      14.499  27.536   2.450  1.00  0.00     0.167 C 
BRANCH  24  25
HETATM   25  C5  UNL     1      14.898  28.735   3.269  1.00  0.00     0.087 C 
BRANCH  25  26
HETATM   26  N1  UNL     1      15.671  28.512   4.388  1.00  0.00    -0.353 N 
BRANCH  26  27
HETATM   27  C2  UNL     1      16.071  29.634   5.107  1.00  0.00     0.064 C 
HETATM   28  C1  UNL     1      17.065  30.557   4.421  1.00  0.00     0.055 C 
ENDBRANCH  26  27
BRANCH  26  29
HETATM   29  C3  UNL     1      15.965  27.236   4.811  1.00  0.00     0.064 C 
HETATM   30  C4  UNL     1      17.023  27.169   5.914  1.00  0.00     0.055 C 
ENDBRANCH  26  29
ENDBRANCH  25  26
ENDBRANCH  24  25
ENDBRANCH  21  24
ENDBRANCH   1  20
BRANCH  10  31
HETATM   31  C18 UNL     1      12.296  27.708 -10.127  1.00  0.00     0.057 C 
HETATM   32  N3  UNL     1      13.451  27.586 -10.603  1.00  0.00    -0.411 N 
ATOM     33  H32 UNL     1      14.224  27.429  -9.956  1.00  0.00     0.155 HD
ATOM     34  H31 UNL     1      13.624  27.639 -11.606  1.00  0.00     0.155 HD
ENDBRANCH  10  31
TORSDOF 7
ENDMDL
MODEL 4
REMARK VINA RESULT: -6.728123232      2.599      8.937
REMARK  7 active torsions:
REMARK  status: ('A' for Active; 'I' for Inactive)
REMARK    1  A    between atoms: C2_2  and  N1_3 
REMARK    2  A    between atoms: N1_3  and  C3_4 
REMARK    3  A    between atoms: N1_3  and  C5_6 
REMARK    4  A    between atoms: C5_6  and  C6_7 
REMARK    5  A    between atoms: C6_7  and  N2_8 
REMARK       I    between atoms: N2_8  and  C7_10 
REMARK    6  A    between atoms: C7_10  and  C8_12 
REMARK    7  A    between atoms: C17_21  and  C18_22 
ROOT
HETATM    1  C8  UNL     1      15.522  26.558  -1.412  1.00  0.00     0.086 C 
HETATM    2  C9  UNL     1      16.117  25.208  -1.770  1.00  0.00     0.015 C 
HETATM    3  C10 UNL     1      15.181  24.648  -2.863  1.00  0.00     0.007 C 
HETATM    4  C11 UNL     1      14.794  25.938  -3.510  1.00  0.00    -0.001 C 
HETATM    5  C12 UNL     1      13.966  25.933  -4.690  1.00  0.00    -0.001 C 
HETATM    6  C13 UNL     1      13.081  24.746  -4.966  1.00  0.00     0.033 C 
HETATM    7  C14 UNL     1      12.805  24.826  -6.431  1.00  0.00    -0.023 C 
HETATM    8  C15 UNL     1      12.577  26.045  -6.963  1.00  0.00    -0.074 C 
HETATM    9  C16 UNL     1      12.302  26.160  -8.424  1.00  0.00     0.044 C 
HETATM   10  C17 UNL     1      12.036  27.533  -8.886  1.00  0.00     0.027 C 
HETATM   11  C19 UNL     1      12.945  28.538  -8.284  1.00  0.00     0.011 C 
HETATM   12  C20 UNL     1      13.486  28.251  -6.932  1.00  0.00     0.015 C 
HETATM   13  C21 UNL     1      12.583  27.297  -6.163  1.00  0.00    -0.017 C 
HETATM   14  C22 UNL     1      11.171  27.898  -6.123  1.00  0.00     0.020 C 
HETATM   15  C23 UNL     1      13.058  27.147  -4.768  1.00  0.00     0.003 C 
HETATM   16  C24 UNL     1      13.858  28.304  -4.227  1.00  0.00     0.007 C 
HETATM   17  C25 UNL     1      14.113  28.158  -2.765  1.00  0.00     0.011 C 
HETATM   18  C26 UNL     1      14.321  26.731  -2.306  1.00  0.00    -0.028 C 
HETATM   19  C27 UNL     1      13.069  26.214  -1.673  1.00  0.00     0.016 C 
ENDROOT
BRANCH   1  20
HETATM   20  C7  UNL     1      15.198  26.574   0.036  1.00  0.00     0.222 C 
HETATM   21  N2  UNL     1      14.878  25.429   0.796  1.00  0.00    -0.356 N 
ATOM     22  H2  UNL     1      14.855  24.520   0.334  1.00  0.00     0.162 HD
HETATM   23  O1  UNL     1      15.214  27.685   0.597  1.00  0.00    -0.273 OA
BRANCH  21  24
HETATM   24  C6  UNL     1      14.584  25.504   2.204  1.00  0.00     0.167 C 
BRANCH  24  25
HETATM   25  C5  UNL     1      15.612  24.843   3.085  1.00  0.00     0.087 C 
BRANCH  25  26
HETATM   26  N1  UNL     1      15.948  23.538   2.801  1.00  0.00    -0.353 N 
BRANCH  26  27
HETATM   27  C2  UNL     1      14.928  22.595   2.878  1.00  0.00     0.064 C 
HETATM   28  C1  UNL     1      15.209  21.361   3.718  1.00  0.00     0.055 C 
ENDBRANCH  26  27
BRANCH  26  29
HETATM   29  C3  UNL     1      17.218  23.201   2.388  1.00  0.00     0.064 C 
HETATM   30  C4  UNL     1      17.300  22.729   0.935  1.00  0.00     0.055 C 
ENDBRANCH  26  29
ENDBRANCH  25  26
ENDBRANCH  24  25
ENDBRANCH  21  24
ENDBRANCH   1  20
BRANCH  10  31
HETATM   31  C18 UNL     1      12.286  27.552 -10.384  1.00  0.00     0.057 C 
HETATM   32  N3  UNL     1      13.445  27.639 -10.857  1.00  0.00    -0.411 N 
ATOM     33  H32 UNL     1      14.228  27.698 -10.205  1.00  0.00     0.155 HD
ATOM     34  H31 UNL     1      13.613  27.651 -11.863  1.00  0.00     0.155 HD
ENDBRANCH  10  31
TORSDOF 7
ENDMDL
MODEL 5
REMARK VINA RESULT: -6.717676003      3.235      9.408
REMARK  7 active torsions:
REMARK  status: ('A' for Active; 'I' for Inactive)
REMARK    1  A    between atoms: C2_2  and  N1_3 
REMARK    2  A    between atoms: N1_3  and  C3_4 
REMARK    3  A    between atoms: N1_3  and  C5_6 
REMARK    4  A    between atoms: C5_6  and  C6_7 
REMARK    5  A    between atoms: C6_7  and  N2_8 
REMARK       I    between atoms: N2_8  and  C7_10 
REMARK    6  A    between atoms: C7_10  and  C8_12 
REMARK    7  A    between atoms: C17_21  and  C18_22 
ROOT
HETATM    1  C8  UNL     1      15.494  26.574  -1.117  1.00  0.00     0.086 C 
HETATM    2  C9  UNL     1      16.117  25.229  -1.443  1.00  0.00     0.015 C 
HETATM    3  C10 UNL     1      15.207  24.633  -2.539  1.00  0.00     0.007 C 
HETATM    4  C11 UNL     1      14.807  25.905  -3.214  1.00  0.00    -0.001 C 
HETATM    5  C12 UNL     1      13.998  25.865  -4.406  1.00  0.00    -0.001 C 
HETATM    6  C13 UNL     1      13.138  24.657  -4.674  1.00  0.00     0.033 C 
HETATM    7  C14 UNL     1      12.882  24.707  -6.144  1.00  0.00    -0.023 C 
HETATM    8  C15 UNL     1      12.641  25.912  -6.700  1.00  0.00    -0.074 C 
HETATM    9  C16 UNL     1      12.385  25.997  -8.167  1.00  0.00     0.044 C 
HETATM   10  C17 UNL     1      12.102  27.357  -8.657  1.00  0.00     0.027 C 
HETATM   11  C19 UNL     1      12.984  28.388  -8.060  1.00  0.00     0.011 C 
HETATM   12  C20 UNL     1      13.509  28.134  -6.695  1.00  0.00     0.015 C 
HETATM   13  C21 UNL     1      12.613  27.177  -5.922  1.00  0.00    -0.017 C 
HETATM   14  C22 UNL     1      11.189  27.754  -5.914  1.00  0.00     0.020 C 
HETATM   15  C23 UNL     1      13.069  27.061  -4.518  1.00  0.00     0.003 C 
HETATM   16  C24 UNL     1      13.840  28.241  -3.986  1.00  0.00     0.007 C 
HETATM   17  C25 UNL     1      14.077  28.125  -2.518  1.00  0.00     0.011 C 
HETATM   18  C26 UNL     1      14.303  26.710  -2.032  1.00  0.00    -0.028 C 
HETATM   19  C27 UNL     1      13.051  26.182  -1.408  1.00  0.00     0.016 C 
ENDROOT
BRANCH   1  20
HETATM   20  C7  UNL     1      15.148  26.610   0.325  1.00  0.00     0.222 C 
HETATM   21  N2  UNL     1      14.955  25.465   1.129  1.00  0.00    -0.356 N 
ATOM     22  H2  UNL     1      15.046  24.543   0.705  1.00  0.00     0.162 HD
HETATM   23  O1  UNL     1      15.024  27.736   0.839  1.00  0.00    -0.273 OA
BRANCH  21  24
HETATM   24  C6  UNL     1      14.632  25.561   2.530  1.00  0.00     0.167 C 
BRANCH  24  25
HETATM   25  C5  UNL     1      15.809  25.364   3.449  1.00  0.00     0.087 C 
BRANCH  25  26
HETATM   26  N1  UNL     1      16.131  26.398   4.301  1.00  0.00    -0.353 N 
BRANCH  26  27
HETATM   27  C2  UNL     1      17.225  26.203   5.138  1.00  0.00     0.064 C 
HETATM   28  C1  UNL     1      18.305  25.262   4.631  1.00  0.00     0.055 C 
ENDBRANCH  26  27
BRANCH  26  29
HETATM   29  C3  UNL     1      15.445  27.591   4.268  1.00  0.00     0.064 C 
HETATM   30  C4  UNL     1      16.126  28.727   5.034  1.00  0.00     0.055 C 
ENDBRANCH  26  29
ENDBRANCH  25  26
ENDBRANCH  24  25
ENDBRANCH  21  24
ENDBRANCH   1  20
BRANCH  10  31
HETATM   31  C18 UNL     1      12.374  27.354 -10.152  1.00  0.00     0.057 C 
HETATM   32  N3  UNL     1      13.505  27.636 -10.615  1.00  0.00    -0.411 N 
ATOM     33  H32 UNL     1      14.250  27.871  -9.958  1.00  0.00     0.155 HD
ATOM     34  H31 UNL     1      13.687  27.634 -11.618  1.00  0.00     0.155 HD
ENDBRANCH  10  31
TORSDOF 7
ENDMDL
