MODEL 1
REMARK VINA RESULT: -3.905724184      0.000      0.000
REMARK  0 active torsions:
REMARK  status: ('A' for Active; 'I' for Inactive)
ROOT
HETATM    1  N1  UNL     1     -15.172 -37.553 -30.021  1.00  0.00    -0.379 N 
ATOM      2  H11 UNL     1     -14.204 -37.872 -30.022  1.00  0.00     0.158 HD
ATOM      3  H12 UNL     1     -15.650 -37.293 -30.885  1.00  0.00     0.158 HD
HETATM    4  C1  UNL     1     -15.784 -37.485 -28.892  1.00  0.00     0.145 C 
HETATM    5  N2  UNL     1     -17.138 -37.037 -28.891  1.00  0.00    -0.352 N 
ATOM      6  H2  UNL     1     -17.616 -36.797 -29.759  1.00  0.00     0.163 HD
HETATM    7  C2  UNL     1     -17.809 -36.937 -27.610  1.00  0.00     0.191 C 
HETATM    8 CL1  UNL     1     -17.533 -38.498 -26.771  1.00  0.00    -0.102 Cl
HETATM    9  C3  UNL     1     -17.143 -35.801 -26.823  1.00  0.00     0.127 C 
HETATM   10  S1  UNL     1     -15.788 -36.621 -25.885  1.00  0.00    -0.086 SA
HETATM   11  S2  UNL     1     -14.941 -37.945 -27.365  1.00  0.00    -0.022 SA
ENDROOT
TORSDOF 0
ENDMDL
MODEL 2
REMARK VINA RESULT: -3.886760543      1.312      1.312
REMARK  0 active torsions:
REMARK  status: ('A' for Active; 'I' for Inactive)
ROOT
HETATM    1  N1  UNL     1     -15.212 -38.019 -29.931  1.00  0.00    -0.379 N 
ATOM      2  H11 UNL     1     -14.935 -38.994 -29.815  1.00  0.00     0.158 HD
ATOM      3  H12 UNL     1     -14.978 -37.494 -30.775  1.00  0.00     0.158 HD
HETATM    4  C1  UNL     1     -15.872 -37.461 -28.978  1.00  0.00     0.145 C 
HETATM    5  N2  UNL     1     -16.258 -36.099 -29.141  1.00  0.00    -0.352 N 
ATOM      6  H2  UNL     1     -16.038 -35.585 -29.994  1.00  0.00     0.163 HD
HETATM    7  C2  UNL     1     -16.976 -35.472 -28.049  1.00  0.00     0.191 C 
HETATM    8 CL1  UNL     1     -18.314 -36.585 -27.618  1.00  0.00    -0.102 Cl
HETATM    9  C3  UNL     1     -16.006 -35.344 -26.867  1.00  0.00     0.127 C 
HETATM   10  S1  UNL     1     -16.223 -36.906 -25.920  1.00  0.00    -0.086 SA
HETATM   11  S2  UNL     1     -16.286 -38.389 -27.488  1.00  0.00    -0.022 SA
ENDROOT
TORSDOF 0
ENDMDL
MODEL 3
REMARK VINA RESULT: -3.719764228      3.064      3.417
REMARK  0 active torsions:
REMARK  status: ('A' for Active; 'I' for Inactive)
ROOT
HETATM    1  N1  UNL     1     -17.350 -32.672 -28.235  1.00  0.00    -0.379 N 
ATOM      2  H11 UNL     1     -17.233 -32.545 -29.240  1.00  0.00     0.158 HD
ATOM      3  H12 UNL     1     -17.547 -31.884 -27.617  1.00  0.00     0.158 HD
HETATM    4  C1  UNL     1     -17.242 -33.863 -27.760  1.00  0.00     0.145 C 
HETATM    5  N2  UNL     1     -17.404 -34.039 -26.355  1.00  0.00    -0.352 N 
ATOM      6  H2  UNL     1     -17.620 -33.251 -25.744  1.00  0.00     0.163 HD
HETATM    7  C2  UNL     1     -17.252 -35.380 -25.827  1.00  0.00     0.191 C 
HETATM    8 CL1  UNL     1     -18.280 -36.443 -26.841  1.00  0.00    -0.102 Cl
HETATM    9  C3  UNL     1     -15.779 -35.779 -25.986  1.00  0.00     0.127 C 
HETATM   10  S1  UNL     1     -15.692 -36.577 -27.641  1.00  0.00    -0.086 SA
HETATM   11  S2  UNL     1     -16.894 -35.255 -28.853  1.00  0.00    -0.022 SA
ENDROOT
TORSDOF 0
ENDMDL
MODEL 4
REMARK VINA RESULT: -3.662691737      2.584      3.234
REMARK  0 active torsions:
REMARK  status: ('A' for Active; 'I' for Inactive)
ROOT
HETATM    1  N1  UNL     1     -16.254 -33.869 -25.763  1.00  0.00    -0.379 N 
ATOM      2  H11 UNL     1     -15.731 -34.108 -24.921  1.00  0.00     0.158 HD
ATOM      3  H12 UNL     1     -16.632 -32.932 -25.909  1.00  0.00     0.158 HD
HETATM    4  C1  UNL     1     -16.427 -34.787 -26.647  1.00  0.00     0.145 C 
HETATM    5  N2  UNL     1     -17.159 -34.452 -27.824  1.00  0.00    -0.352 N 
ATOM      6  H2  UNL     1     -17.518 -33.509 -27.973  1.00  0.00     0.163 HD
HETATM    7  C2  UNL     1     -17.372 -35.502 -28.800  1.00  0.00     0.191 C 
HETATM    8 CL1  UNL     1     -15.770 -36.248 -29.099  1.00  0.00    -0.102 Cl
HETATM    9  C3  UNL     1     -18.317 -36.536 -28.173  1.00  0.00     0.127 C 
HETATM   10  S1  UNL     1     -17.200 -37.737 -27.340  1.00  0.00    -0.086 SA
HETATM   11  S2  UNL     1     -15.759 -36.442 -26.389  1.00  0.00    -0.022 SA
ENDROOT
TORSDOF 0
ENDMDL
MODEL 5
REMARK VINA RESULT: -3.659389835      1.170      1.198
REMARK  0 active torsions:
REMARK  status: ('A' for Active; 'I' for Inactive)
ROOT
HETATM    1  N1  UNL     1     -14.135 -38.757 -29.295  1.00  0.00    -0.379 N 
ATOM      2  H11 UNL     1     -13.217 -38.799 -28.852  1.00  0.00     0.158 HD
ATOM      3  H12 UNL     1     -14.285 -39.096 -30.245  1.00  0.00     0.158 HD
HETATM    4  C1  UNL     1     -15.109 -38.259 -28.618  1.00  0.00     0.145 C 
HETATM    5  N2  UNL     1     -16.391 -38.199 -29.237  1.00  0.00    -0.352 N 
ATOM      6  H2  UNL     1     -16.540 -38.557 -30.181  1.00  0.00     0.163 HD
HETATM    7  C2  UNL     1     -17.475 -37.611 -28.476  1.00  0.00     0.191 C 
HETATM    8 CL1  UNL     1     -17.454 -38.405 -26.869  1.00  0.00    -0.102 Cl
HETATM    9  C3  UNL     1     -17.175 -36.114 -28.318  1.00  0.00     0.127 C 
HETATM   10  S1  UNL     1     -16.209 -35.998 -26.757  1.00  0.00    -0.086 SA
HETATM   11  S2  UNL     1     -14.843 -37.660 -26.937  1.00  0.00    -0.022 SA
ENDROOT
TORSDOF 0
ENDMDL
