MODEL 1
REMARK VINA RESULT: -4.699497186      0.000      0.000
REMARK  0 active torsions:
REMARK  status: ('A' for Active; 'I' for Inactive)
ROOT
HETATM    1  N1  UNL     1     -17.315 -32.966 -28.128  1.00  0.00    -0.393 N 
ATOM      2  H11 UNL     1     -17.106 -32.258 -27.425  1.00  0.00     0.156 HD
ATOM      3  H12 UNL     1     -17.512 -32.700 -29.092  1.00  0.00     0.156 HD
HETATM    4  C1  UNL     1     -17.335 -34.162 -27.843  1.00  0.00     0.072 C 
HETATM    5  C2  UNL     1     -17.647 -35.220 -28.893  1.00  0.00     0.087 C 
HETATM    6  C3  UNL     1     -17.403 -36.462 -28.259  1.00  0.00    -0.153 C 
HETATM    7  C4  UNL     1     -17.218 -37.726 -27.732  1.00  0.00     0.087 C 
HETATM    8  C5  UNL     1     -16.831 -37.522 -26.228  1.00  0.00     0.043 C 
HETATM    9  C6  UNL     1     -16.263 -36.206 -25.894  1.00  0.00     0.150 C 
HETATM   10 CL1  UNL     1     -15.917 -36.309 -24.116  1.00  0.00    -0.113 Cl
HETATM   11  S1  UNL     1     -16.984 -34.636 -26.130  1.00  0.00    -0.092 SA
ENDROOT
TORSDOF 0
ENDMDL
MODEL 2
REMARK VINA RESULT: -4.685293699      2.418      2.805
REMARK  0 active torsions:
REMARK  status: ('A' for Active; 'I' for Inactive)
ROOT
HETATM    1  N1  UNL     1     -15.382 -37.372 -29.878  1.00  0.00    -0.393 N 
ATOM      2  H11 UNL     1     -14.830 -38.229 -29.841  1.00  0.00     0.156 HD
ATOM      3  H12 UNL     1     -15.639 -36.957 -30.773  1.00  0.00     0.156 HD
HETATM    4  C1  UNL     1     -15.757 -36.812 -28.850  1.00  0.00     0.072 C 
HETATM    5  C2  UNL     1     -16.583 -35.533 -28.904  1.00  0.00     0.087 C 
HETATM    6  C3  UNL     1     -16.979 -35.286 -27.568  1.00  0.00    -0.153 C 
HETATM    7  C4  UNL     1     -17.402 -34.937 -26.299  1.00  0.00     0.087 C 
HETATM    8  C5  UNL     1     -16.775 -35.989 -25.323  1.00  0.00     0.043 C 
HETATM    9  C6  UNL     1     -16.400 -37.275 -25.935  1.00  0.00     0.150 C 
HETATM   10 CL1  UNL     1     -15.737 -38.248 -24.555  1.00  0.00    -0.113 Cl
HETATM   11  S1  UNL     1     -15.301 -37.551 -27.260  1.00  0.00    -0.092 SA
ENDROOT
TORSDOF 0
ENDMDL
MODEL 3
REMARK VINA RESULT: -4.640979234      2.204      2.759
REMARK  0 active torsions:
REMARK  status: ('A' for Active; 'I' for Inactive)
ROOT
HETATM    1  N1  UNL     1     -17.443 -33.211 -28.071  1.00  0.00    -0.393 N 
ATOM      2  H11 UNL     1     -17.737 -33.191 -29.048  1.00  0.00     0.156 HD
ATOM      3  H12 UNL     1     -17.393 -32.352 -27.524  1.00  0.00     0.156 HD
HETATM    4  C1  UNL     1     -17.141 -34.267 -27.520  1.00  0.00     0.072 C 
HETATM    5  C2  UNL     1     -16.703 -34.299 -26.061  1.00  0.00     0.087 C 
HETATM    6  C3  UNL     1     -16.616 -35.672 -25.725  1.00  0.00    -0.153 C 
HETATM    7  C4  UNL     1     -16.478 -36.979 -25.297  1.00  0.00     0.087 C 
HETATM    8  C5  UNL     1     -16.765 -37.882 -26.544  1.00  0.00     0.043 C 
HETATM    9  C6  UNL     1     -17.572 -37.256 -27.605  1.00  0.00     0.150 C 
HETATM   10 CL1  UNL     1     -17.731 -38.551 -28.866  1.00  0.00    -0.113 Cl
HETATM   11  S1  UNL     1     -17.229 -35.794 -28.491  1.00  0.00    -0.092 SA
ENDROOT
TORSDOF 0
ENDMDL
MODEL 4
REMARK VINA RESULT: -4.621311458      2.899      3.693
REMARK  0 active torsions:
REMARK  status: ('A' for Active; 'I' for Inactive)
ROOT
HETATM    1  N1  UNL     1     -17.687 -38.678 -29.272  1.00  0.00    -0.393 N 
ATOM      2  H11 UNL     1     -17.979 -38.309 -30.176  1.00  0.00     0.156 HD
ATOM      3  H12 UNL     1     -17.525 -39.677 -29.145  1.00  0.00     0.156 HD
HETATM    4  C1  UNL     1     -17.520 -37.937 -28.305  1.00  0.00     0.072 C 
HETATM    5  C2  UNL     1     -17.083 -38.488 -26.954  1.00  0.00     0.087 C 
HETATM    6  C3  UNL     1     -16.818 -37.351 -26.153  1.00  0.00    -0.153 C 
HETATM    7  C4  UNL     1     -16.555 -36.314 -25.278  1.00  0.00     0.087 C 
HETATM    8  C5  UNL     1     -16.897 -34.993 -26.047  1.00  0.00     0.043 C 
HETATM    9  C6  UNL     1     -16.876 -35.093 -27.516  1.00  0.00     0.150 C 
HETATM   10 CL1  UNL     1     -17.290 -33.420 -28.082  1.00  0.00    -0.113 Cl
HETATM   11  S1  UNL     1     -17.808 -36.163 -28.531  1.00  0.00    -0.092 SA
ENDROOT
TORSDOF 0
ENDMDL
MODEL 5
REMARK VINA RESULT: -4.484274247      2.988      3.545
REMARK  0 active torsions:
REMARK  status: ('A' for Active; 'I' for Inactive)
ROOT
HETATM    1  N1  UNL     1     -14.131 -39.240 -28.004  1.00  0.00    -0.393 N 
ATOM      2  H11 UNL     1     -13.838 -39.644 -27.114  1.00  0.00     0.156 HD
ATOM      3  H12 UNL     1     -13.923 -39.712 -28.883  1.00  0.00     0.156 HD
HETATM    4  C1  UNL     1     -14.742 -38.174 -28.049  1.00  0.00     0.072 C 
HETATM    5  C2  UNL     1     -15.180 -37.571 -29.378  1.00  0.00     0.087 C 
HETATM    6  C3  UNL     1     -15.999 -36.467 -29.037  1.00  0.00    -0.153 C 
HETATM    7  C4  UNL     1     -16.792 -35.357 -28.818  1.00  0.00     0.087 C 
HETATM    8  C5  UNL     1     -16.840 -35.151 -27.266  1.00  0.00     0.043 C 
HETATM    9  C6  UNL     1     -16.549 -36.348 -26.460  1.00  0.00     0.150 C 
HETATM   10 CL1  UNL     1     -16.703 -35.778 -24.745  1.00  0.00    -0.113 Cl
HETATM   11  S1  UNL     1     -15.112 -37.335 -26.487  1.00  0.00    -0.092 SA
ENDROOT
TORSDOF 0
ENDMDL
