MODEL 1
REMARK VINA RESULT: -4.644834929      0.000      0.000
REMARK  1 active torsions:
REMARK  status: ('A' for Active; 'I' for Inactive)
REMARK    1  A    between atoms: O1_1  and  N1_3 
ROOT
HETATM    1  N1  UNL     1     -16.149 -39.042 -29.919  1.00  0.00    -0.275 N 
ATOM      2  H1  UNL     1     -16.093 -39.935 -30.411  1.00  0.00     0.193 HD
HETATM    3  C1  UNL     1     -16.913 -39.007 -28.913  1.00  0.00     0.038 C 
HETATM    4  C2  UNL     1     -17.641 -40.248 -28.553  1.00  0.00     0.058 C 
HETATM    5  C3  UNL     1     -17.403 -40.715 -27.152  1.00  0.00     0.016 C 
HETATM    6  C4  UNL     1     -17.605 -39.674 -26.103  1.00  0.00     0.076 C 
HETATM    7  S1  UNL     1     -16.571 -38.205 -26.421  1.00  0.00    -0.143 SA
HETATM    8  C5  UNL     1     -17.057 -37.753 -28.141  1.00  0.00     0.190 C 
HETATM    9 CL1  UNL     1     -16.107 -36.423 -28.723  1.00  0.00    -0.107 Cl
ENDROOT
BRANCH   1  10
HETATM   10  O1  UNL     1     -15.401 -38.045 -30.418  1.00  0.00    -0.290 OA
ATOM     11  H1  UNL     1     -14.485 -37.862 -30.244  1.00  0.00     0.244 HD
ENDBRANCH   1  10
TORSDOF 1
ENDMDL
MODEL 2
REMARK VINA RESULT: -4.338517959      2.613      2.893
REMARK  1 active torsions:
REMARK  status: ('A' for Active; 'I' for Inactive)
REMARK    1  A    between atoms: O1_1  and  N1_3 
ROOT
HETATM    1  N1  UNL     1     -17.930 -36.731 -28.766  1.00  0.00    -0.275 N 
ATOM      2  H1  UNL     1     -18.165 -37.615 -29.216  1.00  0.00     0.193 HD
HETATM    3  C1  UNL     1     -17.558 -36.800 -27.560  1.00  0.00     0.038 C 
HETATM    4  C2  UNL     1     -17.502 -38.141 -26.929  1.00  0.00     0.058 C 
HETATM    5  C3  UNL     1     -16.167 -38.495 -26.356  1.00  0.00     0.016 C 
HETATM    6  C4  UNL     1     -15.586 -37.469 -25.442  1.00  0.00     0.076 C 
HETATM    7  S1  UNL     1     -15.466 -35.844 -26.263  1.00  0.00    -0.143 SA
HETATM    8  C5  UNL     1     -17.199 -35.566 -26.827  1.00  0.00     0.190 C 
HETATM    9 CL1  UNL     1     -17.320 -34.104 -27.754  1.00  0.00    -0.107 Cl
ENDROOT
BRANCH   1  10
HETATM   10  O1  UNL     1     -18.051 -35.630 -29.526  1.00  0.00    -0.290 OA
ATOM     11  H1  UNL     1     -17.503 -35.364 -30.255  1.00  0.00     0.244 HD
ENDBRANCH   1  10
TORSDOF 1
ENDMDL
MODEL 3
REMARK VINA RESULT: -4.306377526      2.263      3.160
REMARK  1 active torsions:
REMARK  status: ('A' for Active; 'I' for Inactive)
REMARK    1  A    between atoms: O1_1  and  N1_3 
ROOT
HETATM    1  N1  UNL     1     -16.200 -39.493 -30.058  1.00  0.00    -0.275 N 
ATOM      2  H1  UNL     1     -15.838 -39.204 -30.967  1.00  0.00     0.193 HD
HETATM    3  C1  UNL     1     -15.970 -38.710 -29.092  1.00  0.00     0.038 C 
HETATM    4  C2  UNL     1     -15.209 -37.468 -29.373  1.00  0.00     0.058 C 
HETATM    5  C3  UNL     1     -15.914 -36.213 -28.969  1.00  0.00     0.016 C 
HETATM    6  C4  UNL     1     -16.420 -36.204 -27.565  1.00  0.00     0.076 C 
HETATM    7  S1  UNL     1     -17.517 -37.626 -27.248  1.00  0.00    -0.143 SA
HETATM    8  C5  UNL     1     -16.454 -39.051 -27.736  1.00  0.00     0.190 C 
HETATM    9 CL1  UNL     1     -17.334 -40.543 -27.628  1.00  0.00    -0.107 Cl
ENDROOT
BRANCH   1  10
HETATM   10  O1  UNL     1     -16.863 -40.660 -30.030  1.00  0.00    -0.290 OA
ATOM     11  H1  UNL     1     -16.615 -41.459 -29.580  1.00  0.00     0.244 HD
ENDBRANCH   1  10
TORSDOF 1
ENDMDL
MODEL 4
REMARK VINA RESULT: -4.298092301      2.658      3.049
REMARK  1 active torsions:
REMARK  status: ('A' for Active; 'I' for Inactive)
REMARK    1  A    between atoms: O1_1  and  N1_3 
ROOT
HETATM    1  N1  UNL     1     -14.837 -38.428 -29.519  1.00  0.00    -0.275 N 
ATOM      2  H1  UNL     1     -14.923 -38.095 -30.479  1.00  0.00     0.193 HD
HETATM    3  C1  UNL     1     -15.318 -37.677 -28.623  1.00  0.00     0.038 C 
HETATM    4  C2  UNL     1     -15.949 -36.405 -29.052  1.00  0.00     0.058 C 
HETATM    5  C3  UNL     1     -17.364 -36.239 -28.598  1.00  0.00     0.016 C 
HETATM    6  C4  UNL     1     -17.583 -36.459 -27.139  1.00  0.00     0.076 C 
HETATM    7  S1  UNL     1     -16.984 -38.103 -26.620  1.00  0.00    -0.143 SA
HETATM    8  C5  UNL     1     -15.235 -38.079 -27.202  1.00  0.00     0.190 C 
HETATM    9 CL1  UNL     1     -14.469 -39.610 -26.919  1.00  0.00    -0.107 Cl
ENDROOT
BRANCH   1  10
HETATM   10  O1  UNL     1     -14.227 -39.613 -29.357  1.00  0.00    -0.290 OA
ATOM     11  H1  UNL     1     -13.308 -39.816 -29.484  1.00  0.00     0.244 HD
ENDBRANCH   1  10
TORSDOF 1
ENDMDL
MODEL 5
REMARK VINA RESULT: -4.219562881      3.922      4.540
REMARK  1 active torsions:
REMARK  status: ('A' for Active; 'I' for Inactive)
REMARK    1  A    between atoms: O1_1  and  N1_3 
ROOT
HETATM    1  N1  UNL     1     -16.688 -33.698 -26.616  1.00  0.00    -0.275 N 
ATOM      2  H1  UNL     1     -16.639 -33.045 -25.833  1.00  0.00     0.193 HD
HETATM    3  C1  UNL     1     -16.148 -34.826 -26.437  1.00  0.00     0.038 C 
HETATM    4  C2  UNL     1     -15.504 -35.085 -25.125  1.00  0.00     0.058 C 
HETATM    5  C3  UNL     1     -16.023 -36.294 -24.416  1.00  0.00     0.016 C 
HETATM    6  C4  UNL     1     -16.045 -37.540 -25.236  1.00  0.00     0.076 C 
HETATM    7  S1  UNL     1     -16.997 -37.303 -26.774  1.00  0.00    -0.143 SA
HETATM    8  C5  UNL     1     -16.168 -35.834 -27.519  1.00  0.00     0.190 C 
HETATM    9 CL1  UNL     1     -16.984 -35.334 -28.968  1.00  0.00    -0.107 Cl
ENDROOT
BRANCH   1  10
HETATM   10  O1  UNL     1     -17.321 -33.256 -27.715  1.00  0.00    -0.290 OA
ATOM     11  H1  UNL     1     -18.254 -33.126 -27.835  1.00  0.00     0.244 HD
ENDBRANCH   1  10
TORSDOF 1
ENDMDL
