MODEL 1
REMARK VINA RESULT: -4.631253497      0.000      0.000
REMARK  1 active torsions:
REMARK  status: ('A' for Active; 'I' for Inactive)
REMARK    1  A    between atoms: O1_1  and  N1_3 
ROOT
HETATM    1  N1  UNL     1     -17.363 -33.651 -28.745  1.00  0.00    -0.267 N 
ATOM      2  H1  UNL     1     -17.267 -33.674 -29.761  1.00  0.00     0.194 HD
HETATM    3  C1  UNL     1     -17.204 -34.725 -28.055  1.00  0.00     0.069 C 
HETATM    4  C2  UNL     1     -16.883 -35.983 -28.762  1.00  0.00     0.086 C 
HETATM    5  C3  UNL     1     -16.238 -37.018 -27.930  1.00  0.00     0.089 C 
HETATM    6 CL1  UNL     1     -17.379 -38.339 -27.513  1.00  0.00    -0.125 Cl
HETATM    7  C4  UNL     1     -15.573 -36.536 -26.690  1.00  0.00     0.031 C 
HETATM    8  C5  UNL     1     -16.626 -36.164 -25.636  1.00  0.00     0.082 C 
HETATM    9  S1  UNL     1     -17.379 -34.638 -26.278  1.00  0.00    -0.115 SA
ENDROOT
BRANCH   1  10
HETATM   10  O1  UNL     1     -17.657 -32.490 -28.113  1.00  0.00    -0.289 OA
ATOM     11  H1  UNL     1     -17.042 -31.766 -28.154  1.00  0.00     0.244 HD
ENDBRANCH   1  10
TORSDOF 1
ENDMDL
MODEL 2
REMARK VINA RESULT: -4.416608560      1.638      2.260
REMARK  1 active torsions:
REMARK  status: ('A' for Active; 'I' for Inactive)
REMARK    1  A    between atoms: O1_1  and  N1_3 
ROOT
HETATM    1  N1  UNL     1     -17.322 -33.561 -27.006  1.00  0.00    -0.267 N 
ATOM      2  H1  UNL     1     -17.403 -33.118 -26.090  1.00  0.00     0.194 HD
HETATM    3  C1  UNL     1     -16.939 -34.785 -27.103  1.00  0.00     0.069 C 
HETATM    4  C2  UNL     1     -16.621 -35.529 -25.865  1.00  0.00     0.086 C 
HETATM    5  C3  UNL     1     -16.682 -36.999 -25.990  1.00  0.00     0.089 C 
HETATM    6 CL1  UNL     1     -15.042 -37.728 -26.041  1.00  0.00    -0.125 Cl
HETATM    7  C4  UNL     1     -17.486 -37.524 -27.126  1.00  0.00     0.031 C 
HETATM    8  C5  UNL     1     -16.733 -37.316 -28.448  1.00  0.00     0.082 C 
HETATM    9  S1  UNL     1     -16.812 -35.521 -28.727  1.00  0.00    -0.115 SA
ENDROOT
BRANCH   1  10
HETATM   10  O1  UNL     1     -17.618 -32.865 -28.130  1.00  0.00    -0.289 OA
ATOM     11  H1  UNL     1     -18.524 -32.777 -28.401  1.00  0.00     0.244 HD
ENDBRANCH   1  10
TORSDOF 1
ENDMDL
MODEL 3
REMARK VINA RESULT: -4.388611287      3.884      4.087
REMARK  1 active torsions:
REMARK  status: ('A' for Active; 'I' for Inactive)
REMARK    1  A    between atoms: O1_1  and  N1_3 
ROOT
HETATM    1  N1  UNL     1     -14.729 -38.376 -29.578  1.00  0.00    -0.267 N 
ATOM      2  H1  UNL     1     -14.615 -37.968 -30.506  1.00  0.00     0.194 HD
HETATM    3  C1  UNL     1     -15.367 -37.736 -28.662  1.00  0.00     0.069 C 
HETATM    4  C2  UNL     1     -15.928 -36.407 -28.985  1.00  0.00     0.086 C 
HETATM    5  C3  UNL     1     -17.033 -35.969 -28.108  1.00  0.00     0.089 C 
HETATM    6 CL1  UNL     1     -16.497 -34.708 -26.948  1.00  0.00    -0.125 Cl
HETATM    7  C4  UNL     1     -17.743 -37.045 -27.367  1.00  0.00     0.031 C 
HETATM    8  C5  UNL     1     -16.867 -37.564 -26.218  1.00  0.00     0.082 C 
HETATM    9  S1  UNL     1     -15.542 -38.490 -27.051  1.00  0.00    -0.115 SA
ENDROOT
BRANCH   1  10
HETATM   10  O1  UNL     1     -14.207 -39.595 -29.299  1.00  0.00    -0.289 OA
ATOM     11  H1  UNL     1     -13.806 -39.750 -28.452  1.00  0.00     0.244 HD
ENDBRANCH   1  10
TORSDOF 1
ENDMDL
MODEL 4
REMARK VINA RESULT: -4.355276567      4.058      4.263
REMARK  1 active torsions:
REMARK  status: ('A' for Active; 'I' for Inactive)
REMARK    1  A    between atoms: O1_1  and  N1_3 
ROOT
HETATM    1  N1  UNL     1     -15.877 -38.977 -30.070  1.00  0.00    -0.267 N 
ATOM      2  H1  UNL     1     -15.626 -38.457 -30.912  1.00  0.00     0.194 HD
HETATM    3  C1  UNL     1     -16.021 -38.364 -28.949  1.00  0.00     0.069 C 
HETATM    4  C2  UNL     1     -15.814 -36.900 -28.908  1.00  0.00     0.086 C 
HETATM    5  C3  UNL     1     -16.461 -36.211 -27.774  1.00  0.00     0.089 C 
HETATM    6 CL1  UNL     1     -15.266 -35.731 -26.523  1.00  0.00    -0.125 Cl
HETATM    7  C4  UNL     1     -17.584 -36.939 -27.124  1.00  0.00     0.031 C 
HETATM    8  C5  UNL     1     -17.042 -38.100 -26.276  1.00  0.00     0.082 C 
HETATM    9  S1  UNL     1     -16.464 -39.313 -27.501  1.00  0.00    -0.115 SA
ENDROOT
BRANCH   1  10
HETATM   10  O1  UNL     1     -16.063 -40.318 -30.126  1.00  0.00    -0.289 OA
ATOM     11  H1  UNL     1     -16.609 -40.687 -30.811  1.00  0.00     0.244 HD
ENDBRANCH   1  10
TORSDOF 1
ENDMDL
MODEL 5
REMARK VINA RESULT: -4.289659475      1.899      2.070
REMARK  1 active torsions:
REMARK  status: ('A' for Active; 'I' for Inactive)
REMARK    1  A    between atoms: O1_1  and  N1_3 
ROOT
HETATM    1  N1  UNL     1     -17.752 -36.215 -29.230  1.00  0.00    -0.267 N 
ATOM      2  H1  UNL     1     -17.892 -36.723 -30.104  1.00  0.00     0.194 HD
HETATM    3  C1  UNL     1     -17.478 -36.852 -28.147  1.00  0.00     0.069 C 
HETATM    4  C2  UNL     1     -17.372 -38.326 -28.197  1.00  0.00     0.086 C 
HETATM    5  C3  UNL     1     -16.591 -38.931 -27.100  1.00  0.00     0.089 C 
HETATM    6 CL1  UNL     1     -17.652 -39.727 -25.891  1.00  0.00    -0.125 Cl
HETATM    7  C4  UNL     1     -15.643 -38.025 -26.398  1.00  0.00     0.031 C 
HETATM    8  C5  UNL     1     -16.413 -37.058 -25.486  1.00  0.00     0.082 C 
HETATM    9  S1  UNL     1     -17.238 -35.921 -26.640  1.00  0.00    -0.115 SA
ENDROOT
BRANCH   1  10
HETATM   10  O1  UNL     1     -17.852 -34.864 -29.202  1.00  0.00    -0.289 OA
ATOM     11  H1  UNL     1     -17.070 -34.340 -29.074  1.00  0.00     0.244 HD
ENDBRANCH   1  10
TORSDOF 1
ENDMDL
