MODEL 1
REMARK VINA RESULT: -3.188524776      0.000      0.000
REMARK  4 active torsions:
REMARK  status: ('A' for Active; 'I' for Inactive)
REMARK    1  A    between atoms: O1_1  and  S1_3 
REMARK    2  A    between atoms: S1_3  and  C1_4 
REMARK    3  A    between atoms: C1_4  and  O2_6 
REMARK    4  A    between atoms: O2_6  and  C2_7 
ROOT
HETATM    1  C1  UNL     1     -17.301 -35.992 -27.097  1.00  0.00     0.203 C 
HETATM    2  S2  UNL     1     -17.399 -34.929 -25.869  1.00  0.00    -0.043 SA
ENDROOT
BRANCH   1   3
HETATM    3  S1  UNL     1     -16.889 -35.451 -28.737  1.00  0.00     0.064 SA
BRANCH   3   4
HETATM    4  O1  UNL     1     -17.744 -34.063 -29.211  1.00  0.00    -0.323 OA
ATOM      5  H1  UNL     1     -17.207 -33.279 -29.213  1.00  0.00     0.228 HD
ENDBRANCH   3   4
ENDBRANCH   1   3
BRANCH   1   6
HETATM    6  O2  UNL     1     -17.535 -37.329 -26.882  1.00  0.00    -0.319 OA
BRANCH   6   7
HETATM    7  C2  UNL     1     -16.794 -38.148 -26.006  1.00  0.00     0.291 C 
HETATM    8 CL1  UNL     1     -17.645 -39.707 -25.897  1.00  0.00    -0.101 Cl
ENDBRANCH   6   7
ENDBRANCH   1   6
TORSDOF 4
ENDMDL
MODEL 2
REMARK VINA RESULT: -3.138272166      3.620      4.021
REMARK  4 active torsions:
REMARK  status: ('A' for Active; 'I' for Inactive)
REMARK    1  A    between atoms: O1_1  and  S1_3 
REMARK    2  A    between atoms: S1_3  and  C1_4 
REMARK    3  A    between atoms: C1_4  and  O2_6 
REMARK    4  A    between atoms: O2_6  and  C2_7 
ROOT
HETATM    1  C1  UNL     1     -16.987 -39.266 -28.804  1.00  0.00     0.203 C 
HETATM    2  S2  UNL     1     -18.021 -40.220 -29.624  1.00  0.00    -0.043 SA
ENDROOT
BRANCH   1   3
HETATM    3  S1  UNL     1     -15.359 -38.939 -29.433  1.00  0.00     0.064 SA
BRANCH   3   4
HETATM    4  O1  UNL     1     -15.233 -37.425 -30.190  1.00  0.00    -0.323 OA
ATOM      5  H1  UNL     1     -14.867 -36.756 -29.623  1.00  0.00     0.228 HD
ENDBRANCH   3   4
ENDBRANCH   1   3
BRANCH   1   6
HETATM    6  O2  UNL     1     -17.361 -38.698 -27.611  1.00  0.00    -0.319 OA
BRANCH   6   7
HETATM    7  C2  UNL     1     -17.411 -37.313 -27.356  1.00  0.00     0.291 C 
HETATM    8 CL1  UNL     1     -18.354 -36.569 -28.670  1.00  0.00    -0.101 Cl
ENDBRANCH   6   7
ENDBRANCH   1   6
TORSDOF 4
ENDMDL
MODEL 3
REMARK VINA RESULT: -3.116410620      3.491      4.178
REMARK  4 active torsions:
REMARK  status: ('A' for Active; 'I' for Inactive)
REMARK    1  A    between atoms: O1_1  and  S1_3 
REMARK    2  A    between atoms: S1_3  and  C1_4 
REMARK    3  A    between atoms: C1_4  and  O2_6 
REMARK    4  A    between atoms: O2_6  and  C2_7 
ROOT
HETATM    1  C1  UNL     1     -15.577 -37.431 -28.518  1.00  0.00     0.203 C 
HETATM    2  S2  UNL     1     -15.221 -37.474 -26.930  1.00  0.00    -0.043 SA
ENDROOT
BRANCH   1   3
HETATM    3  S1  UNL     1     -15.574 -38.917 -29.490  1.00  0.00     0.064 SA
BRANCH   3   4
HETATM    4  O1  UNL     1     -14.118 -39.781 -29.374  1.00  0.00    -0.323 OA
ATOM      5  H1  UNL     1     -14.190 -40.558 -28.832  1.00  0.00     0.228 HD
ENDBRANCH   3   4
ENDBRANCH   1   3
BRANCH   1   6
HETATM    6  O2  UNL     1     -15.886 -36.241 -29.131  1.00  0.00    -0.319 OA
BRANCH   6   7
HETATM    7  C2  UNL     1     -17.011 -35.446 -28.831  1.00  0.00     0.291 C 
HETATM    8 CL1  UNL     1     -18.404 -36.543 -28.672  1.00  0.00    -0.101 Cl
ENDBRANCH   6   7
ENDBRANCH   1   6
TORSDOF 4
ENDMDL
MODEL 4
REMARK VINA RESULT: -3.062964842      3.320      3.671
REMARK  4 active torsions:
REMARK  status: ('A' for Active; 'I' for Inactive)
REMARK    1  A    between atoms: O1_1  and  S1_3 
REMARK    2  A    between atoms: S1_3  and  C1_4 
REMARK    3  A    between atoms: C1_4  and  O2_6 
REMARK    4  A    between atoms: O2_6  and  C2_7 
ROOT
HETATM    1  C1  UNL     1     -17.050 -39.260 -28.850  1.00  0.00     0.203 C 
HETATM    2  S2  UNL     1     -17.998 -40.397 -29.528  1.00  0.00    -0.043 SA
ENDROOT
BRANCH   1   3
HETATM    3  S1  UNL     1     -15.402 -38.977 -29.447  1.00  0.00     0.064 SA
BRANCH   3   4
HETATM    4  O1  UNL     1     -15.216 -37.460 -30.186  1.00  0.00    -0.323 OA
ATOM      5  H1  UNL     1     -14.335 -37.114 -30.105  1.00  0.00     0.228 HD
ENDBRANCH   3   4
ENDBRANCH   1   3
BRANCH   1   6
HETATM    6  O2  UNL     1     -17.513 -38.501 -27.803  1.00  0.00    -0.319 OA
BRANCH   6   7
HETATM    7  C2  UNL     1     -17.032 -38.569 -26.480  1.00  0.00     0.291 C 
HETATM    8 CL1  UNL     1     -17.681 -40.063 -25.761  1.00  0.00    -0.101 Cl
ENDBRANCH   6   7
ENDBRANCH   1   6
TORSDOF 4
ENDMDL
MODEL 5
REMARK VINA RESULT: -3.062332967      3.736      4.540
REMARK  4 active torsions:
REMARK  status: ('A' for Active; 'I' for Inactive)
REMARK    1  A    between atoms: O1_1  and  S1_3 
REMARK    2  A    between atoms: S1_3  and  C1_4 
REMARK    3  A    between atoms: C1_4  and  O2_6 
REMARK    4  A    between atoms: O2_6  and  C2_7 
ROOT
HETATM    1  C1  UNL     1     -16.791 -38.579 -28.751  1.00  0.00     0.203 C 
HETATM    2  S2  UNL     1     -17.587 -39.959 -29.087  1.00  0.00    -0.043 SA
ENDROOT
BRANCH   1   3
HETATM    3  S1  UNL     1     -15.125 -38.332 -29.313  1.00  0.00     0.064 SA
BRANCH   3   4
HETATM    4  O1  UNL     1     -14.212 -39.763 -29.331  1.00  0.00    -0.323 OA
ATOM      5  H1  UNL     1     -14.747 -40.545 -29.251  1.00  0.00     0.228 HD
ENDBRANCH   3   4
ENDBRANCH   1   3
BRANCH   1   6
HETATM    6  O2  UNL     1     -17.398 -37.583 -28.026  1.00  0.00    -0.319 OA
BRANCH   6   7
HETATM    7  C2  UNL     1     -18.174 -36.542 -28.575  1.00  0.00     0.291 C 
HETATM    8 CL1  UNL     1     -17.085 -35.162 -28.849  1.00  0.00    -0.101 Cl
ENDBRANCH   6   7
ENDBRANCH   1   6
TORSDOF 4
ENDMDL
