MODEL 1
REMARK VINA RESULT: -7.588814950      0.000      0.000
REMARK  14 active torsions:
REMARK  status: ('A' for Active; 'I' for Inactive)
REMARK    1  A    between atoms: C6_7  and  C7_8 
REMARK       I    between atoms: C7_8  and  N2_10 
REMARK    2  A    between atoms: N2_10  and  C8_12 
REMARK    3  A    between atoms: C8_12  and  C9_13 
REMARK       I    between atoms: C9_13  and  N3_15 
REMARK    4  A    between atoms: N3_15  and  C10_17 
REMARK    5  A    between atoms: C10_17  and  C11_18 
REMARK    6  A    between atoms: C11_18  and  O3_19 
REMARK    7  A    between atoms: C11_18  and  N4_21 
REMARK    8  A    between atoms: N4_21  and  C12_22 
REMARK    9  A    between atoms: C12_22  and  C13_23 
REMARK   10  A    between atoms: C12_22  and  C16_33 
REMARK   11  A    between atoms: C13_23  and  N5_24 
REMARK       I    between atoms: N5_24  and  C14_26 
REMARK   12  A    between atoms: C14_26  and  C15_28 
REMARK   13  A    between atoms: C15_28  and  N6_29 
REMARK       I    between atoms: C16_33  and  N7_35 
REMARK   14  A    between atoms: N7_35  and  N8_37 
REMARK       I    between atoms: N8_37  and  C17_39 
ROOT
HETATM    1  C12 UNL     1      24.904  13.866  42.146  1.00  0.00     0.173 C 
ENDROOT
BRANCH   1   2
HETATM    2  N4  UNL     1      24.021  13.852  42.927  1.00  0.00    -0.380 NA
BRANCH   2   3
HETATM    3  C11 UNL     1      23.029  13.829  43.803  1.00  0.00     0.208 C 
BRANCH   3   4
HETATM    4  C10 UNL     1      21.548  13.711  43.552  1.00  0.00     0.222 C 
BRANCH   4   5
HETATM    5  N3  UNL     1      20.895  14.944  43.267  1.00  0.00    -0.351 N 
HETATM    6  C9  UNL     1      20.363  15.701  44.334  1.00  0.00     0.235 C 
HETATM    7  O2  UNL     1      20.479  15.288  45.501  1.00  0.00    -0.272 OA
ATOM      8  H3  UNL     1      20.814  15.276  42.306  1.00  0.00     0.163 HD
BRANCH   6   9
HETATM    9  C8  UNL     1      19.674  16.971  44.057  1.00  0.00     0.225 C 
BRANCH   9  10
HETATM   10  N2  UNL     1      20.488  18.077  44.480  1.00  0.00    -0.351 N 
HETATM   11  C7  UNL     1      21.746  18.325  43.932  1.00  0.00     0.240 C 
HETATM   12  O1  UNL     1      22.211  17.593  43.033  1.00  0.00    -0.271 OA
ATOM     13  H2  UNL     1      20.134  18.701  45.206  1.00  0.00     0.163 HD
BRANCH  11  14
HETATM   14  C6  UNL     1      22.566  19.485  44.421  1.00  0.00     0.175 C 
HETATM   15  N1  UNL     1      21.883  20.685  44.167  1.00  0.00    -0.384 N 
HETATM   16  C1  UNL     1      22.227  21.436  43.018  1.00  0.00     0.149 C 
HETATM   17  C2  UNL     1      21.191  21.333  45.209  1.00  0.00     0.058 C 
HETATM   18  C3  UNL     1      21.435  20.857  46.598  1.00  0.00     0.044 C 
HETATM   19  C4  UNL     1      22.859  20.407  46.731  1.00  0.00     0.007 C 
HETATM   20  C5  UNL     1      23.042  19.228  45.805  1.00  0.00     0.035 C 
ENDBRANCH  11  14
ENDBRANCH   9  10
ENDBRANCH   6   9
ENDBRANCH   4   5
ENDBRANCH   3   4
BRANCH   3  21
HETATM   21  O3  UNL     1      23.253  13.915  45.089  1.00  0.00    -0.338 OA
ATOM     22  H3  UNL     1      24.051  13.449  45.307  1.00  0.00     0.220 HD
ENDBRANCH   3  21
ENDBRANCH   2   3
ENDBRANCH   1   2
BRANCH   1  23
HETATM   23  C13 UNL     1      26.105  12.937  42.227  1.00  0.00     0.201 C 
BRANCH  23  24
HETATM   24  N5  UNL     1      26.042  11.888  41.259  1.00  0.00    -0.353 N 
HETATM   25  C14 UNL     1      27.199  11.149  40.913  1.00  0.00     0.243 C 
HETATM   26  O4  UNL     1      28.316  11.417  41.467  1.00  0.00    -0.272 OA
ATOM     27  H5  UNL     1      25.151  11.670  40.811  1.00  0.00     0.162 HD
BRANCH  25  28
HETATM   28  C15 UNL     1      27.155  10.049  39.911  1.00  0.00     0.332 C 
BRANCH  28  29
HETATM   29  N6  UNL     1      28.098   9.009  40.278  1.00  0.00    -0.071 N 
ATOM     30  H63 UNL     1      28.869   8.940  39.613  1.00  0.00     0.274 HD
ATOM     31  H62 UNL     1      28.638   9.257  41.107  1.00  0.00     0.274 HD
ATOM     32  H61 UNL     1      27.608   8.121  40.390  1.00  0.00     0.274 HD
ENDBRANCH  28  29
ENDBRANCH  25  28
ENDBRANCH  23  24
ENDBRANCH   1  23
BRANCH   1  33
HETATM   33  C16 UNL     1      24.936  14.800  41.009  1.00  0.00     0.298 C 
HETATM   34  O5  UNL     1      25.952  14.903  40.305  1.00  0.00    -0.263 OA
HETATM   35  N7  UNL     1      23.798  15.577  40.734  1.00  0.00    -0.262 N 
ATOM     36  H7  UNL     1      22.974  15.475  41.326  1.00  0.00     0.190 HD
BRANCH  35  37
HETATM   37  N8  UNL     1      23.763  16.499  39.657  1.00  0.00    -0.271 N 
HETATM   38  C17 UNL     1      24.464  17.720  39.863  1.00  0.00     0.200 C 
HETATM   39  N9  UNL     1      24.151  18.411  40.904  1.00  0.00    -0.372 N 
HETATM   40  N10 UNL     1      25.467  18.183  38.985  1.00  0.00    -0.062 NA
ATOM     41  H92 UNL     1      23.427  18.077  41.539  1.00  0.00     0.158 HD
ATOM     42  H91 UNL     1      24.654  19.286  41.052  1.00  0.00     0.158 HD
ATOM     43  H8  UNL     1      23.267  16.299  38.788  1.00  0.00     0.189 HD
ENDBRANCH  35  37
ENDBRANCH   1  33
TORSDOF 14
ENDMDL
MODEL 2
REMARK VINA RESULT: -7.507661692      1.829      3.619
REMARK  14 active torsions:
REMARK  status: ('A' for Active; 'I' for Inactive)
REMARK    1  A    between atoms: C6_7  and  C7_8 
REMARK       I    between atoms: C7_8  and  N2_10 
REMARK    2  A    between atoms: N2_10  and  C8_12 
REMARK    3  A    between atoms: C8_12  and  C9_13 
REMARK       I    between atoms: C9_13  and  N3_15 
REMARK    4  A    between atoms: N3_15  and  C10_17 
REMARK    5  A    between atoms: C10_17  and  C11_18 
REMARK    6  A    between atoms: C11_18  and  O3_19 
REMARK    7  A    between atoms: C11_18  and  N4_21 
REMARK    8  A    between atoms: N4_21  and  C12_22 
REMARK    9  A    between atoms: C12_22  and  C13_23 
REMARK   10  A    between atoms: C12_22  and  C16_33 
REMARK   11  A    between atoms: C13_23  and  N5_24 
REMARK       I    between atoms: N5_24  and  C14_26 
REMARK   12  A    between atoms: C14_26  and  C15_28 
REMARK   13  A    between atoms: C15_28  and  N6_29 
REMARK       I    between atoms: C16_33  and  N7_35 
REMARK   14  A    between atoms: N7_35  and  N8_37 
REMARK       I    between atoms: N8_37  and  C17_39 
ROOT
HETATM    1  C12 UNL     1      25.362  13.851  41.500  1.00  0.00     0.173 C 
ENDROOT
BRANCH   1   2
HETATM    2  N4  UNL     1      25.297  14.936  41.043  1.00  0.00    -0.380 NA
BRANCH   2   3
HETATM    3  C11 UNL     1      25.223  16.151  40.523  1.00  0.00     0.208 C 
BRANCH   3   4
HETATM    4  C10 UNL     1      24.159  17.199  40.718  1.00  0.00     0.222 C 
BRANCH   4   5
HETATM    5  N3  UNL     1      23.820  17.455  42.077  1.00  0.00    -0.351 N 
HETATM    6  C9  UNL     1      22.574  17.007  42.570  1.00  0.00     0.235 C 
HETATM    7  O2  UNL     1      21.800  16.392  41.816  1.00  0.00    -0.272 OA
ATOM      8  H3  UNL     1      24.468  17.954  42.687  1.00  0.00     0.163 HD
BRANCH   6   9
HETATM    9  C8  UNL     1      22.202  17.273  43.968  1.00  0.00     0.225 C 
BRANCH   9  10
HETATM   10  N2  UNL     1      21.828  18.651  44.126  1.00  0.00    -0.351 N 
HETATM   11  C7  UNL     1      22.350  19.449  45.143  1.00  0.00     0.240 C 
HETATM   12  O1  UNL     1      23.181  18.994  45.956  1.00  0.00    -0.271 OA
ATOM     13  H2  UNL     1      21.159  19.058  43.472  1.00  0.00     0.163 HD
BRANCH  11  14
HETATM   14  C6  UNL     1      21.914  20.882  45.275  1.00  0.00     0.175 C 
HETATM   15  N1  UNL     1      20.816  20.962  46.146  1.00  0.00    -0.384 N 
HETATM   16  C1  UNL     1      19.513  21.029  45.597  1.00  0.00     0.149 C 
HETATM   17  C2  UNL     1      21.005  21.381  47.478  1.00  0.00     0.058 C 
HETATM   18  C3  UNL     1      22.322  21.977  47.832  1.00  0.00     0.044 C 
HETATM   19  C4  UNL     1      22.857  22.744  46.659  1.00  0.00     0.007 C 
HETATM   20  C5  UNL     1      23.089  21.751  45.546  1.00  0.00     0.035 C 
ENDBRANCH  11  14
ENDBRANCH   9  10
ENDBRANCH   6   9
ENDBRANCH   4   5
ENDBRANCH   3   4
BRANCH   3  21
HETATM   21  O3  UNL     1      26.147  16.605  39.715  1.00  0.00    -0.338 OA
ATOM     22  H3  UNL     1      25.802  17.333  39.213  1.00  0.00     0.220 HD
ENDBRANCH   3  21
ENDBRANCH   2   3
ENDBRANCH   1   2
BRANCH   1  23
HETATM   23  C13 UNL     1      26.654  13.053  41.578  1.00  0.00     0.201 C 
BRANCH  23  24
HETATM   24  N5  UNL     1      26.651  11.936  40.688  1.00  0.00    -0.353 N 
HETATM   25  C14 UNL     1      27.557  10.862  40.869  1.00  0.00     0.243 C 
HETATM   26  O4  UNL     1      28.390  10.885  41.834  1.00  0.00    -0.272 OA
ATOM     27  H5  UNL     1      25.988  11.911  39.913  1.00  0.00     0.162 HD
BRANCH  25  28
HETATM   28  C15 UNL     1      27.568   9.685  39.957  1.00  0.00     0.332 C 
BRANCH  28  29
HETATM   29  N6  UNL     1      26.270   9.037  39.973  1.00  0.00    -0.071 N 
ATOM     30  H63 UNL     1      25.506   9.706  39.882  1.00  0.00     0.274 HD
ATOM     31  H62 UNL     1      26.100   8.500  39.123  1.00  0.00     0.274 HD
ATOM     32  H61 UNL     1      26.179   8.464  40.813  1.00  0.00     0.274 HD
ENDBRANCH  28  29
ENDBRANCH  25  28
ENDBRANCH  23  24
ENDBRANCH   1  23
BRANCH   1  33
HETATM   33  C16 UNL     1      24.184  13.150  42.037  1.00  0.00     0.298 C 
HETATM   34  O5  UNL     1      24.208  11.924  42.218  1.00  0.00    -0.263 OA
HETATM   35  N7  UNL     1      23.031  13.893  42.341  1.00  0.00    -0.262 N 
ATOM     36  H7  UNL     1      23.035  14.901  42.185  1.00  0.00     0.190 HD
BRANCH  35  37
HETATM   37  N8  UNL     1      21.860  13.280  42.858  1.00  0.00    -0.271 N 
HETATM   38  C17 UNL     1      21.332  13.858  44.045  1.00  0.00     0.200 C 
HETATM   39  N9  UNL     1      22.126  13.965  45.054  1.00  0.00    -0.372 N 
HETATM   40  N10 UNL     1      19.998  14.307  44.148  1.00  0.00    -0.062 NA
ATOM     41  H92 UNL     1      23.090  13.640  44.980  1.00  0.00     0.158 HD
ATOM     42  H91 UNL     1      21.747  14.380  45.906  1.00  0.00     0.158 HD
ATOM     43  H8  UNL     1      21.426  12.475  42.407  1.00  0.00     0.189 HD
ENDBRANCH  35  37
ENDBRANCH   1  33
TORSDOF 14
ENDMDL
MODEL 3
REMARK VINA RESULT: -7.411488920      4.980      8.549
REMARK  14 active torsions:
REMARK  status: ('A' for Active; 'I' for Inactive)
REMARK    1  A    between atoms: C6_7  and  C7_8 
REMARK       I    between atoms: C7_8  and  N2_10 
REMARK    2  A    between atoms: N2_10  and  C8_12 
REMARK    3  A    between atoms: C8_12  and  C9_13 
REMARK       I    between atoms: C9_13  and  N3_15 
REMARK    4  A    between atoms: N3_15  and  C10_17 
REMARK    5  A    between atoms: C10_17  and  C11_18 
REMARK    6  A    between atoms: C11_18  and  O3_19 
REMARK    7  A    between atoms: C11_18  and  N4_21 
REMARK    8  A    between atoms: N4_21  and  C12_22 
REMARK    9  A    between atoms: C12_22  and  C13_23 
REMARK   10  A    between atoms: C12_22  and  C16_33 
REMARK   11  A    between atoms: C13_23  and  N5_24 
REMARK       I    between atoms: N5_24  and  C14_26 
REMARK   12  A    between atoms: C14_26  and  C15_28 
REMARK   13  A    between atoms: C15_28  and  N6_29 
REMARK       I    between atoms: C16_33  and  N7_35 
REMARK   14  A    between atoms: N7_35  and  N8_37 
REMARK       I    between atoms: N8_37  and  C17_39 
ROOT
HETATM    1  C12 UNL     1      25.412  14.100  41.249  1.00  0.00     0.173 C 
ENDROOT
BRANCH   1   2
HETATM    2  N4  UNL     1      25.303  15.192  40.822  1.00  0.00    -0.380 NA
BRANCH   2   3
HETATM    3  C11 UNL     1      25.175  16.417  40.337  1.00  0.00     0.208 C 
BRANCH   3   4
HETATM    4  C10 UNL     1      25.658  16.969  39.021  1.00  0.00     0.222 C 
BRANCH   4   5
HETATM    5  N3  UNL     1      26.570  18.057  39.133  1.00  0.00    -0.351 N 
HETATM    6  C9  UNL     1      27.687  18.108  38.270  1.00  0.00     0.235 C 
HETATM    7  O2  UNL     1      27.853  17.212  37.424  1.00  0.00    -0.272 OA
ATOM      8  H3  UNL     1      26.418  18.790  39.827  1.00  0.00     0.163 HD
BRANCH   6   9
HETATM    9  C8  UNL     1      28.646  19.218  38.380  1.00  0.00     0.225 C 
BRANCH   9  10
HETATM   10  N2  UNL     1      29.989  18.727  38.236  1.00  0.00    -0.351 N 
HETATM   11  C7  UNL     1      30.749  18.971  37.093  1.00  0.00     0.240 C 
HETATM   12  O1  UNL     1      30.291  19.645  36.147  1.00  0.00    -0.271 OA
ATOM     13  H2  UNL     1      30.398  18.181  38.995  1.00  0.00     0.163 HD
BRANCH  11  14
HETATM   14  C6  UNL     1      32.144  18.421  36.984  1.00  0.00     0.175 C 
HETATM   15  N1  UNL     1      33.074  19.465  37.111  1.00  0.00    -0.384 N 
HETATM   16  C1  UNL     1      33.629  20.030  35.939  1.00  0.00     0.149 C 
HETATM   17  C2  UNL     1      33.745  19.663  38.334  1.00  0.00     0.058 C 
HETATM   18  C3  UNL     1      33.636  18.590  39.361  1.00  0.00     0.044 C 
HETATM   19  C4  UNL     1      33.565  17.254  38.684  1.00  0.00     0.007 C 
HETATM   20  C5  UNL     1      32.295  17.235  37.867  1.00  0.00     0.035 C 
ENDBRANCH  11  14
ENDBRANCH   9  10
ENDBRANCH   6   9
ENDBRANCH   4   5
ENDBRANCH   3   4
BRANCH   3  21
HETATM   21  O3  UNL     1      24.563  17.358  41.011  1.00  0.00    -0.338 OA
ATOM     22  H3  UNL     1      23.623  17.238  40.945  1.00  0.00     0.220 HD
ENDBRANCH   3  21
ENDBRANCH   2   3
ENDBRANCH   1   2
BRANCH   1  23
HETATM   23  C13 UNL     1      26.567  13.176  40.894  1.00  0.00     0.201 C 
BRANCH  23  24
HETATM   24  N5  UNL     1      26.126  11.846  40.614  1.00  0.00    -0.353 N 
HETATM   25  C14 UNL     1      27.056  10.783  40.497  1.00  0.00     0.243 C 
HETATM   26  O4  UNL     1      28.302  11.008  40.641  1.00  0.00    -0.272 OA
ATOM     27  H5  UNL     1      25.130  11.660  40.497  1.00  0.00     0.162 HD
BRANCH  25  28
HETATM   28  C15 UNL     1      26.619   9.390  40.211  1.00  0.00     0.332 C 
BRANCH  28  29
HETATM   29  N6  UNL     1      25.226   9.383  39.804  1.00  0.00    -0.071 N 
ATOM     30  H63 UNL     1      25.117   9.573  38.808  1.00  0.00     0.274 HD
ATOM     31  H62 UNL     1      24.827   8.445  39.822  1.00  0.00     0.274 HD
ATOM     32  H61 UNL     1      24.693  10.037  40.378  1.00  0.00     0.274 HD
ENDBRANCH  28  29
ENDBRANCH  25  28
ENDBRANCH  23  24
ENDBRANCH   1  23
BRANCH   1  33
HETATM   33  C16 UNL     1      24.425  13.510  42.169  1.00  0.00     0.298 C 
HETATM   34  O5  UNL     1      24.785  12.739  43.070  1.00  0.00    -0.263 OA
HETATM   35  N7  UNL     1      23.067  13.834  42.008  1.00  0.00    -0.262 N 
ATOM     36  H7  UNL     1      22.795  14.472  41.261  1.00  0.00     0.190 HD
BRANCH  35  37
HETATM   37  N8  UNL     1      22.065  13.299  42.858  1.00  0.00    -0.271 N 
HETATM   38  C17 UNL     1      21.627  14.149  43.910  1.00  0.00     0.200 C 
HETATM   39  N9  UNL     1      22.526  14.614  44.707  1.00  0.00    -0.372 N 
HETATM   40  N10 UNL     1      20.271  14.492  44.101  1.00  0.00    -0.062 NA
ATOM     41  H92 UNL     1      23.506  14.367  44.569  1.00  0.00     0.158 HD
ATOM     42  H91 UNL     1      22.212  15.224  45.462  1.00  0.00     0.158 HD
ATOM     43  H8  UNL     1      21.683  12.363  42.722  1.00  0.00     0.189 HD
ENDBRANCH  35  37
ENDBRANCH   1  33
TORSDOF 14
ENDMDL
MODEL 4
REMARK VINA RESULT: -7.296164889      1.860      3.809
REMARK  14 active torsions:
REMARK  status: ('A' for Active; 'I' for Inactive)
REMARK    1  A    between atoms: C6_7  and  C7_8 
REMARK       I    between atoms: C7_8  and  N2_10 
REMARK    2  A    between atoms: N2_10  and  C8_12 
REMARK    3  A    between atoms: C8_12  and  C9_13 
REMARK       I    between atoms: C9_13  and  N3_15 
REMARK    4  A    between atoms: N3_15  and  C10_17 
REMARK    5  A    between atoms: C10_17  and  C11_18 
REMARK    6  A    between atoms: C11_18  and  O3_19 
REMARK    7  A    between atoms: C11_18  and  N4_21 
REMARK    8  A    between atoms: N4_21  and  C12_22 
REMARK    9  A    between atoms: C12_22  and  C13_23 
REMARK   10  A    between atoms: C12_22  and  C16_33 
REMARK   11  A    between atoms: C13_23  and  N5_24 
REMARK       I    between atoms: N5_24  and  C14_26 
REMARK   12  A    between atoms: C14_26  and  C15_28 
REMARK   13  A    between atoms: C15_28  and  N6_29 
REMARK       I    between atoms: C16_33  and  N7_35 
REMARK   14  A    between atoms: N7_35  and  N8_37 
REMARK       I    between atoms: N8_37  and  C17_39 
ROOT
HETATM    1  C12 UNL     1      25.643  13.833  41.349  1.00  0.00     0.173 C 
ENDROOT
BRANCH   1   2
HETATM    2  N4  UNL     1      25.549  14.897  40.851  1.00  0.00    -0.380 NA
BRANCH   2   3
HETATM    3  C11 UNL     1      25.443  16.095  40.299  1.00  0.00     0.208 C 
BRANCH   3   4
HETATM    4  C10 UNL     1      24.541  17.238  40.685  1.00  0.00     0.222 C 
BRANCH   4   5
HETATM    5  N3  UNL     1      23.723  16.990  41.824  1.00  0.00    -0.351 N 
HETATM    6  C9  UNL     1      23.201  18.086  42.546  1.00  0.00     0.235 C 
HETATM    7  O2  UNL     1      23.454  19.245  42.174  1.00  0.00    -0.272 OA
ATOM      8  H3  UNL     1      23.517  16.034  42.114  1.00  0.00     0.163 HD
BRANCH   6   9
HETATM    9  C8  UNL     1      22.365  17.848  43.733  1.00  0.00     0.225 C 
BRANCH   9  10
HETATM   10  N2  UNL     1      21.835  19.092  44.220  1.00  0.00    -0.351 N 
HETATM   11  C7  UNL     1      22.287  19.679  45.401  1.00  0.00     0.240 C 
HETATM   12  O1  UNL     1      23.189  19.146  46.080  1.00  0.00    -0.271 OA
ATOM     13  H2  UNL     1      21.103  19.560  43.684  1.00  0.00     0.163 HD
BRANCH  11  14
HETATM   14  C6  UNL     1      21.688  20.973  45.877  1.00  0.00     0.175 C 
HETATM   15  N1  UNL     1      22.389  22.052  45.315  1.00  0.00    -0.384 N 
HETATM   16  C1  UNL     1      23.391  22.690  46.084  1.00  0.00     0.149 C 
HETATM   17  C2  UNL     1      21.848  22.743  44.212  1.00  0.00     0.058 C 
HETATM   18  C3  UNL     1      20.429  22.469  43.857  1.00  0.00     0.044 C 
HETATM   19  C4  UNL     1      19.643  22.195  45.105  1.00  0.00     0.007 C 
HETATM   20  C5  UNL     1      20.210  20.939  45.722  1.00  0.00     0.035 C 
ENDBRANCH  11  14
ENDBRANCH   9  10
ENDBRANCH   6   9
ENDBRANCH   4   5
ENDBRANCH   3   4
BRANCH   3  21
HETATM   21  O3  UNL     1      26.176  16.440  39.271  1.00  0.00    -0.338 OA
ATOM     22  H3  UNL     1      25.618  16.770  38.577  1.00  0.00     0.220 HD
ENDBRANCH   3  21
ENDBRANCH   2   3
ENDBRANCH   1   2
BRANCH   1  23
HETATM   23  C13 UNL     1      26.783  12.871  41.053  1.00  0.00     0.201 C 
BRANCH  23  24
HETATM   24  N5  UNL     1      26.311  11.567  40.707  1.00  0.00    -0.353 N 
HETATM   25  C14 UNL     1      27.217  10.495  40.516  1.00  0.00     0.243 C 
HETATM   26  O4  UNL     1      28.470  10.687  40.651  1.00  0.00    -0.272 OA
ATOM     27  H5  UNL     1      25.310  11.407  40.596  1.00  0.00     0.162 HD
BRANCH  25  28
HETATM   28  C15 UNL     1      26.748   9.128  40.159  1.00  0.00     0.332 C 
BRANCH  28  29
HETATM   29  N6  UNL     1      25.345   9.168  39.793  1.00  0.00    -0.071 N 
ATOM     30  H63 UNL     1      24.815   9.814  40.378  1.00  0.00     0.274 HD
ATOM     31  H62 UNL     1      25.197   9.626  38.894  1.00  0.00     0.274 HD
ATOM     32  H61 UNL     1      24.954   8.226  39.812  1.00  0.00     0.274 HD
ENDBRANCH  28  29
ENDBRANCH  25  28
ENDBRANCH  23  24
ENDBRANCH   1  23
BRANCH   1  33
HETATM   33  C16 UNL     1      24.650  13.320  42.307  1.00  0.00     0.298 C 
HETATM   34  O5  UNL     1      25.010  12.696  43.316  1.00  0.00    -0.263 OA
HETATM   35  N7  UNL     1      23.285  13.546  42.058  1.00  0.00    -0.262 N 
ATOM     36  H7  UNL     1      23.013  14.063  41.223  1.00  0.00     0.190 HD
BRANCH  35  37
HETATM   37  N8  UNL     1      22.276  13.076  42.939  1.00  0.00    -0.271 N 
HETATM   38  C17 UNL     1      21.817  14.010  43.908  1.00  0.00     0.200 C 
HETATM   39  N9  UNL     1      22.702  14.550  44.673  1.00  0.00    -0.372 N 
HETATM   40  N10 UNL     1      20.456  14.354  44.053  1.00  0.00    -0.062 NA
ATOM     41  H92 UNL     1      23.686  14.302  44.569  1.00  0.00     0.158 HD
ATOM     42  H91 UNL     1      22.373  15.220  45.368  1.00  0.00     0.158 HD
ATOM     43  H8  UNL     1      21.904  12.128  42.879  1.00  0.00     0.189 HD
ENDBRANCH  35  37
ENDBRANCH   1  33
TORSDOF 14
ENDMDL
MODEL 5
REMARK VINA RESULT: -7.278230881      2.497      3.046
REMARK  14 active torsions:
REMARK  status: ('A' for Active; 'I' for Inactive)
REMARK    1  A    between atoms: C6_7  and  C7_8 
REMARK       I    between atoms: C7_8  and  N2_10 
REMARK    2  A    between atoms: N2_10  and  C8_12 
REMARK    3  A    between atoms: C8_12  and  C9_13 
REMARK       I    between atoms: C9_13  and  N3_15 
REMARK    4  A    between atoms: N3_15  and  C10_17 
REMARK    5  A    between atoms: C10_17  and  C11_18 
REMARK    6  A    between atoms: C11_18  and  O3_19 
REMARK    7  A    between atoms: C11_18  and  N4_21 
REMARK    8  A    between atoms: N4_21  and  C12_22 
REMARK    9  A    between atoms: C12_22  and  C13_23 
REMARK   10  A    between atoms: C12_22  and  C16_33 
REMARK   11  A    between atoms: C13_23  and  N5_24 
REMARK       I    between atoms: N5_24  and  C14_26 
REMARK   12  A    between atoms: C14_26  and  C15_28 
REMARK   13  A    between atoms: C15_28  and  N6_29 
REMARK       I    between atoms: C16_33  and  N7_35 
REMARK   14  A    between atoms: N7_35  and  N8_37 
REMARK       I    between atoms: N8_37  and  C17_39 
ROOT
HETATM    1  C12 UNL     1      23.794  14.129  41.802  1.00  0.00     0.173 C 
ENDROOT
BRANCH   1   2
HETATM    2  N4  UNL     1      22.778  14.453  42.303  1.00  0.00    -0.380 NA
BRANCH   2   3
HETATM    3  C11 UNL     1      21.641  14.818  42.873  1.00  0.00     0.208 C 
BRANCH   3   4
HETATM    4  C10 UNL     1      21.398  15.293  44.282  1.00  0.00     0.222 C 
BRANCH   4   5
HETATM    5  N3  UNL     1      21.773  16.644  44.525  1.00  0.00    -0.351 N 
HETATM    6  C9  UNL     1      20.799  17.660  44.401  1.00  0.00     0.235 C 
HETATM    7  O2  UNL     1      19.632  17.359  44.093  1.00  0.00    -0.272 OA
ATOM      8  H3  UNL     1      22.732  16.877  44.785  1.00  0.00     0.163 HD
BRANCH   6   9
HETATM    9  C8  UNL     1      21.171  19.064  44.636  1.00  0.00     0.225 C 
BRANCH   9  10
HETATM   10  N2  UNL     1      20.045  19.794  45.148  1.00  0.00    -0.351 N 
HETATM   11  C7  UNL     1      20.032  21.187  45.216  1.00  0.00     0.240 C 
HETATM   12  O1  UNL     1      21.007  21.859  44.818  1.00  0.00    -0.271 OA
ATOM     13  H2  UNL     1      19.227  19.277  45.473  1.00  0.00     0.163 HD
BRANCH  11  14
HETATM   14  C6  UNL     1      18.835  21.903  45.776  1.00  0.00     0.175 C 
HETATM   15  N1  UNL     1      17.838  21.995  44.792  1.00  0.00    -0.384 N 
HETATM   16  C1  UNL     1      17.717  23.195  44.052  1.00  0.00     0.149 C 
HETATM   17  C2  UNL     1      16.742  21.110  44.819  1.00  0.00     0.058 C 
HETATM   18  C3  UNL     1      16.550  20.289  46.045  1.00  0.00     0.044 C 
HETATM   19  C4  UNL     1      16.987  21.072  47.247  1.00  0.00     0.007 C 
HETATM   20  C5  UNL     1      18.468  21.329  47.097  1.00  0.00     0.035 C 
ENDBRANCH  11  14
ENDBRANCH   9  10
ENDBRANCH   6   9
ENDBRANCH   4   5
ENDBRANCH   3   4
BRANCH   3  21
HETATM   21  O3  UNL     1      20.511  14.802  42.213  1.00  0.00    -0.338 OA
ATOM     22  H3  UNL     1      20.673  14.990  41.296  1.00  0.00     0.220 HD
ENDBRANCH   3  21
ENDBRANCH   2   3
ENDBRANCH   1   2
BRANCH   1  23
HETATM   23  C13 UNL     1      24.525  12.842  42.150  1.00  0.00     0.201 C 
BRANCH  23  24
HETATM   24  N5  UNL     1      24.634  11.964  41.028  1.00  0.00    -0.353 N 
HETATM   25  C14 UNL     1      25.895  11.465  40.617  1.00  0.00     0.243 C 
HETATM   26  O4  UNL     1      26.950  11.800  41.249  1.00  0.00    -0.272 OA
ATOM     27  H5  UNL     1      23.794  11.694  40.516  1.00  0.00     0.162 HD
BRANCH  25  28
HETATM   28  C15 UNL     1      26.032  10.546  39.454  1.00  0.00     0.332 C 
BRANCH  28  29
HETATM   29  N6  UNL     1      26.757   9.354  39.850  1.00  0.00    -0.071 N 
ATOM     30  H63 UNL     1      26.860   9.286  40.863  1.00  0.00     0.274 HD
ATOM     31  H62 UNL     1      26.212   8.506  39.698  1.00  0.00     0.274 HD
ATOM     32  H61 UNL     1      27.658   9.321  39.371  1.00  0.00     0.274 HD
ENDBRANCH  28  29
ENDBRANCH  25  28
ENDBRANCH  23  24
ENDBRANCH   1  23
BRANCH   1  33
HETATM   33  C16 UNL     1      24.469  14.953  40.785  1.00  0.00     0.298 C 
HETATM   34  O5  UNL     1      25.705  14.948  40.688  1.00  0.00    -0.263 OA
HETATM   35  N7  UNL     1      23.691  15.747  39.927  1.00  0.00    -0.262 N 
ATOM     36  H7  UNL     1      22.676  15.734  40.025  1.00  0.00     0.190 HD
BRANCH  35  37
HETATM   37  N8  UNL     1      24.277  16.566  38.928  1.00  0.00    -0.271 N 
HETATM   38  C17 UNL     1      23.423  17.548  38.353  1.00  0.00     0.200 C 
HETATM   39  N9  UNL     1      22.314  17.139  37.841  1.00  0.00    -0.372 N 
HETATM   40  N10 UNL     1      23.746  18.922  38.329  1.00  0.00    -0.062 NA
ATOM     41  H92 UNL     1      22.080  16.147  37.858  1.00  0.00     0.158 HD
ATOM     42  H91 UNL     1      21.702  17.844  37.429  1.00  0.00     0.158 HD
ATOM     43  H8  UNL     1      25.249  16.458  38.640  1.00  0.00     0.189 HD
ENDBRANCH  35  37
ENDBRANCH   1  33
TORSDOF 14
ENDMDL
