MODEL 1
REMARK VINA RESULT: -8.985946784      0.000      0.000
REMARK  11 active torsions:
REMARK  status: ('A' for Active; 'I' for Inactive)
REMARK    1  A    between atoms: C2_4  and  C3_5 
REMARK    2  A    between atoms: C2_4  and  N8_26 
REMARK    3  A    between atoms: C3_5  and  C4_6 
REMARK    4  A    between atoms: C4_6  and  N2_7 
REMARK       I    between atoms: N2_7  and  C5_9 
REMARK       I    between atoms: C5_9  and  N5_14 
REMARK    5  A    between atoms: N5_14  and  C7_16 
REMARK    6  A    between atoms: C7_16  and  C8_17 
REMARK    7  A    between atoms: C8_17  and  N6_18 
REMARK    8  A    between atoms: C12_22  and  C13_23 
REMARK    9  A    between atoms: N8_26  and  C14_28 
REMARK   10  A    between atoms: C16_31  and  N9_32 
REMARK       I    between atoms: N9_32  and  C17_34 
REMARK   11  A    between atoms: C18_39  and  O3_40 
ROOT
HETATM    1  N2  UNL     1      21.823  14.898  41.085  1.00  0.00    -0.225 N 
ATOM      2  H2  UNL     1      21.133  14.151  41.006  1.00  0.00     0.177 HD
HETATM    3  C5  UNL     1      23.111  14.761  40.475  1.00  0.00     0.682 C 
HETATM    4  N3  UNL     1      23.432  15.412  39.459  1.00  0.00    -0.126 N 
ATOM      5  H3  UNL     1      24.374  15.232  39.113  1.00  0.00     0.197 HD
HETATM    6  C6  UNL     1      22.713  16.334  38.732  1.00  0.00     0.196 C 
HETATM    7  N4  UNL     1      22.119  17.097  38.102  1.00  0.00    -0.171 NA
HETATM    8  N5  UNL     1      23.976  13.828  41.100  1.00  0.00    -0.224 N 
ATOM      9  H5  UNL     1      23.606  12.889  41.248  1.00  0.00     0.177 HD
ENDROOT
BRANCH   1  10
HETATM   10  C4  UNL     1      21.514  16.097  41.806  1.00  0.00     0.145 C 
BRANCH  10  11
HETATM   11  C3  UNL     1      21.209  15.901  43.264  1.00  0.00     0.096 C 
BRANCH  11  12
HETATM   12  C2  UNL     1      22.116  16.615  44.172  1.00  0.00     0.075 C 
HETATM   13  N1  UNL     1      22.307  16.120  45.346  1.00  0.00    -0.384 N 
HETATM   14  C1  UNL     1      21.724  14.929  45.878  1.00  0.00     0.147 C 
ATOM     15  H1  UNL     1      22.940  16.632  45.960  1.00  0.00     0.160 HD
BRANCH  12  16
HETATM   16  N8  UNL     1      22.759  17.821  43.756  1.00  0.00    -0.351 N 
ATOM     17  H8  UNL     1      23.732  17.765  43.456  1.00  0.00     0.163 HD
BRANCH  16  18
HETATM   18  C14 UNL     1      22.129  19.096  43.732  1.00  0.00     0.253 C 
HETATM   19  O2  UNL     1      22.973  20.175  43.499  1.00  0.00    -0.362 OA
HETATM   20  C15 UNL     1      22.035  21.232  43.610  1.00  0.00     0.198 C 
HETATM   21  C16 UNL     1      21.514  20.956  45.025  1.00  0.00     0.141 C 
HETATM   22  C18 UNL     1      21.352  19.453  44.973  1.00  0.00     0.191 C 
BRANCH  21  23
HETATM   23  N9  UNL     1      22.511  21.400  45.955  1.00  0.00    -0.355 N 
HETATM   24  C17 UNL     1      23.067  20.606  46.993  1.00  0.00     0.182 C 
HETATM   25  N10 UNL     1      23.860  19.608  46.755  1.00  0.00    -0.374 N 
HETATM   26  N11 UNL     1      22.727  20.932  48.331  1.00  0.00    -0.064 NA
ATOM     27 2H10 UNL     1      24.104  19.374  45.792  1.00  0.00     0.158 HD
ATOM     28 1H10 UNL     1      24.259  19.039  47.501  1.00  0.00     0.158 HD
ATOM     29  H9  UNL     1      22.847  22.358  45.864  1.00  0.00     0.162 HD
ENDBRANCH  21  23
BRANCH  22  30
HETATM   30  O3  UNL     1      19.985  19.200  44.803  1.00  0.00    -0.389 OA
ATOM     31  H3  UNL     1      19.806  18.267  44.802  1.00  0.00     0.210 HD
ENDBRANCH  22  30
ENDBRANCH  16  18
ENDBRANCH  12  16
ENDBRANCH  11  12
ENDBRANCH  10  11
ENDBRANCH   1  10
BRANCH   8  32
HETATM   32  C7  UNL     1      25.307  14.065  41.541  1.00  0.00     0.168 C 
BRANCH  32  33
HETATM   33  C8  UNL     1      26.282  13.274  40.728  1.00  0.00     0.293 C 
BRANCH  33  34
HETATM   34  N6  UNL     1      26.468  11.935  41.251  1.00  0.00     0.103 N 
HETATM   35  C9  UNL     1      27.675  11.891  42.023  1.00  0.00     0.273 C 
HETATM   36  C10 UNL     1      28.221  10.471  41.820  1.00  0.00     0.033 C 
HETATM   37  C11 UNL     1      27.865  10.206  40.379  1.00  0.00     0.047 C 
HETATM   38  C12 UNL     1      26.606  11.014  40.173  1.00  0.00     0.311 C 
BRANCH  38  39
HETATM   39  C13 UNL     1      25.426  10.095  40.138  1.00  0.00     0.264 C 
HETATM   40  N7  UNL     1      25.645   8.705  40.025  1.00  0.00    -0.060 NA
HETATM   41  O1  UNL     1      24.293  10.617  40.211  1.00  0.00    -0.274 OA
ENDBRANCH  38  39
ENDBRANCH  33  34
ENDBRANCH  32  33
ENDBRANCH   8  32
TORSDOF 11
ENDMDL
MODEL 2
REMARK VINA RESULT: -8.889445927      1.651      2.346
REMARK  11 active torsions:
REMARK  status: ('A' for Active; 'I' for Inactive)
REMARK    1  A    between atoms: C2_4  and  C3_5 
REMARK    2  A    between atoms: C2_4  and  N8_26 
REMARK    3  A    between atoms: C3_5  and  C4_6 
REMARK    4  A    between atoms: C4_6  and  N2_7 
REMARK       I    between atoms: N2_7  and  C5_9 
REMARK       I    between atoms: C5_9  and  N5_14 
REMARK    5  A    between atoms: N5_14  and  C7_16 
REMARK    6  A    between atoms: C7_16  and  C8_17 
REMARK    7  A    between atoms: C8_17  and  N6_18 
REMARK    8  A    between atoms: C12_22  and  C13_23 
REMARK    9  A    between atoms: N8_26  and  C14_28 
REMARK   10  A    between atoms: C16_31  and  N9_32 
REMARK       I    between atoms: N9_32  and  C17_34 
REMARK   11  A    between atoms: C18_39  and  O3_40 
ROOT
HETATM    1  N2  UNL     1      21.845  14.827  41.400  1.00  0.00    -0.225 N 
ATOM      2  H2  UNL     1      21.144  14.086  41.406  1.00  0.00     0.177 HD
HETATM    3  C5  UNL     1      23.103  14.630  40.746  1.00  0.00     0.682 C 
HETATM    4  N3  UNL     1      23.384  15.202  39.673  1.00  0.00    -0.126 N 
ATOM      5  H3  UNL     1      24.308  14.986  39.300  1.00  0.00     0.197 HD
HETATM    6  C6  UNL     1      22.643  16.080  38.914  1.00  0.00     0.196 C 
HETATM    7  N4  UNL     1      22.029  16.804  38.258  1.00  0.00    -0.171 NA
HETATM    8  N5  UNL     1      23.985  13.733  41.398  1.00  0.00    -0.224 N 
ATOM      9  H5  UNL     1      23.612  12.812  41.630  1.00  0.00     0.177 HD
ENDROOT
BRANCH   1  10
HETATM   10  C4  UNL     1      21.580  16.079  42.047  1.00  0.00     0.145 C 
BRANCH  10  11
HETATM   11  C3  UNL     1      21.544  16.024  43.547  1.00  0.00     0.096 C 
BRANCH  11  12
HETATM   12  C2  UNL     1      21.474  17.339  44.199  1.00  0.00     0.075 C 
HETATM   13  N1  UNL     1      20.313  17.784  44.536  1.00  0.00    -0.384 N 
HETATM   14  C1  UNL     1      19.058  17.130  44.345  1.00  0.00     0.147 C 
ATOM     15  H1  UNL     1      20.289  18.698  44.987  1.00  0.00     0.160 HD
BRANCH  12  16
HETATM   16  N8  UNL     1      22.664  18.092  44.443  1.00  0.00    -0.351 N 
ATOM     17  H8  UNL     1      23.551  17.590  44.461  1.00  0.00     0.163 HD
BRANCH  16  18
HETATM   18  C14 UNL     1      22.690  19.497  44.661  1.00  0.00     0.253 C 
HETATM   19  O2  UNL     1      21.993  19.941  45.777  1.00  0.00    -0.362 OA
HETATM   20  C15 UNL     1      22.183  21.338  45.630  1.00  0.00     0.198 C 
HETATM   21  C16 UNL     1      21.589  21.526  44.229  1.00  0.00     0.141 C 
HETATM   22  C18 UNL     1      22.188  20.335  43.513  1.00  0.00     0.191 C 
BRANCH  21  23
HETATM   23  N9  UNL     1      20.162  21.473  44.346  1.00  0.00    -0.355 N 
HETATM   24  C17 UNL     1      19.275  22.517  43.974  1.00  0.00     0.182 C 
HETATM   25  N10 UNL     1      19.073  22.848  42.736  1.00  0.00    -0.374 N 
HETATM   26  N11 UNL     1      18.599  23.214  45.008  1.00  0.00    -0.064 NA
ATOM     27 2H10 UNL     1      19.559  22.346  41.992  1.00  0.00     0.158 HD
ATOM     28 1H10 UNL     1      18.435  23.598  42.469  1.00  0.00     0.158 HD
ATOM     29  H9  UNL     1      19.752  20.620  44.726  1.00  0.00     0.162 HD
ENDBRANCH  21  23
BRANCH  22  30
HETATM   30  O3  UNL     1      23.250  20.822  42.740  1.00  0.00    -0.389 OA
ATOM     31  H3  UNL     1      23.227  21.770  42.683  1.00  0.00     0.210 HD
ENDBRANCH  22  30
ENDBRANCH  16  18
ENDBRANCH  12  16
ENDBRANCH  11  12
ENDBRANCH  10  11
ENDBRANCH   1  10
BRANCH   8  32
HETATM   32  C7  UNL     1      25.336  13.982  41.763  1.00  0.00     0.168 C 
BRANCH  32  33
HETATM   33  C8  UNL     1      26.272  13.231  40.870  1.00  0.00     0.293 C 
BRANCH  33  34
HETATM   34  N6  UNL     1      26.483  11.870  41.322  1.00  0.00     0.103 N 
HETATM   35  C9  UNL     1      27.711  11.799  42.056  1.00  0.00     0.273 C 
HETATM   36  C10 UNL     1      28.261  10.394  41.770  1.00  0.00     0.033 C 
HETATM   37  C11 UNL     1      27.866  10.196  40.328  1.00  0.00     0.047 C 
HETATM   38  C12 UNL     1      26.595  11.003  40.198  1.00  0.00     0.311 C 
BRANCH  38  39
HETATM   39  C13 UNL     1      25.422  10.076  40.152  1.00  0.00     0.264 C 
HETATM   40  N7  UNL     1      25.649   8.688  40.039  1.00  0.00    -0.060 NA
HETATM   41  O1  UNL     1      24.284  10.592  40.217  1.00  0.00    -0.274 OA
ENDBRANCH  38  39
ENDBRANCH  33  34
ENDBRANCH  32  33
ENDBRANCH   8  32
TORSDOF 11
ENDMDL
MODEL 3
REMARK VINA RESULT: -8.815244094      1.533      2.097
REMARK  11 active torsions:
REMARK  status: ('A' for Active; 'I' for Inactive)
REMARK    1  A    between atoms: C2_4  and  C3_5 
REMARK    2  A    between atoms: C2_4  and  N8_26 
REMARK    3  A    between atoms: C3_5  and  C4_6 
REMARK    4  A    between atoms: C4_6  and  N2_7 
REMARK       I    between atoms: N2_7  and  C5_9 
REMARK       I    between atoms: C5_9  and  N5_14 
REMARK    5  A    between atoms: N5_14  and  C7_16 
REMARK    6  A    between atoms: C7_16  and  C8_17 
REMARK    7  A    between atoms: C8_17  and  N6_18 
REMARK    8  A    between atoms: C12_22  and  C13_23 
REMARK    9  A    between atoms: N8_26  and  C14_28 
REMARK   10  A    between atoms: C16_31  and  N9_32 
REMARK       I    between atoms: N9_32  and  C17_34 
REMARK   11  A    between atoms: C18_39  and  O3_40 
ROOT
HETATM    1  N2  UNL     1      21.851  14.826  41.142  1.00  0.00    -0.225 N 
ATOM      2  H2  UNL     1      21.169  14.072  41.049  1.00  0.00     0.177 HD
HETATM    3  C5  UNL     1      23.137  14.718  40.522  1.00  0.00     0.682 C 
HETATM    4  N3  UNL     1      23.444  15.396  39.520  1.00  0.00    -0.126 N 
ATOM      5  H3  UNL     1      24.387  15.235  39.165  1.00  0.00     0.197 HD
HETATM    6  C6  UNL     1      22.711  16.327  38.819  1.00  0.00     0.196 C 
HETATM    7  N4  UNL     1      22.104  17.097  38.211  1.00  0.00    -0.171 NA
HETATM    8  N5  UNL     1      24.016  13.781  41.120  1.00  0.00    -0.224 N 
ATOM      9  H5  UNL     1      23.657  12.835  41.248  1.00  0.00     0.177 HD
ENDROOT
BRANCH   1  10
HETATM   10  C4  UNL     1      21.531  16.003  41.893  1.00  0.00     0.145 C 
BRANCH  10  11
HETATM   11  C3  UNL     1      20.603  15.785  43.053  1.00  0.00     0.096 C 
BRANCH  11  12
HETATM   12  C2  UNL     1      20.881  16.635  44.218  1.00  0.00     0.075 C 
HETATM   13  N1  UNL     1      21.565  16.128  45.185  1.00  0.00    -0.384 N 
HETATM   14  C1  UNL     1      22.095  14.803  45.255  1.00  0.00     0.147 C 
ATOM     15  H1  UNL     1      21.746  16.736  45.984  1.00  0.00     0.160 HD
BRANCH  12  16
HETATM   16  N8  UNL     1      20.400  17.980  44.268  1.00  0.00    -0.351 N 
ATOM     17  H8  UNL     1      19.488  18.176  43.854  1.00  0.00     0.163 HD
BRANCH  16  18
HETATM   18  C14 UNL     1      21.110  19.062  44.857  1.00  0.00     0.253 C 
HETATM   19  O2  UNL     1      20.536  20.316  44.685  1.00  0.00    -0.362 OA
HETATM   20  C15 UNL     1      21.521  21.111  45.323  1.00  0.00     0.198 C 
HETATM   21  C16 UNL     1      22.745  20.707  44.493  1.00  0.00     0.141 C 
HETATM   22  C18 UNL     1      22.542  19.210  44.411  1.00  0.00     0.191 C 
BRANCH  21  23
HETATM   23  N9  UNL     1      22.658  21.374  43.228  1.00  0.00    -0.355 N 
HETATM   24  C17 UNL     1      23.716  21.479  42.287  1.00  0.00     0.182 C 
HETATM   25  N10 UNL     1      24.153  20.457  41.618  1.00  0.00    -0.374 N 
HETATM   26  N11 UNL     1      24.304  22.755  42.089  1.00  0.00    -0.064 NA
ATOM     27 2H10 UNL     1      23.730  19.540  41.761  1.00  0.00     0.158 HD
ATOM     28 1H10 UNL     1      24.914  20.533  40.943  1.00  0.00     0.158 HD
ATOM     29  H9  UNL     1      21.767  21.806  42.984  1.00  0.00     0.162 HD
ENDBRANCH  21  23
BRANCH  22  30
HETATM   30  O3  UNL     1      23.421  18.632  45.335  1.00  0.00    -0.389 OA
ATOM     31  H3  UNL     1      24.150  19.213  45.524  1.00  0.00     0.210 HD
ENDBRANCH  22  30
ENDBRANCH  16  18
ENDBRANCH  12  16
ENDBRANCH  11  12
ENDBRANCH  10  11
ENDBRANCH   1  10
BRANCH   8  32
HETATM   32  C7  UNL     1      25.346  14.023  41.560  1.00  0.00     0.168 C 
BRANCH  32  33
HETATM   33  C8  UNL     1      26.323  13.227  40.752  1.00  0.00     0.293 C 
BRANCH  33  34
HETATM   34  N6  UNL     1      26.488  11.883  41.266  1.00  0.00     0.103 N 
HETATM   35  C9  UNL     1      27.703  11.808  42.021  1.00  0.00     0.273 C 
HETATM   36  C10 UNL     1      28.216  10.378  41.803  1.00  0.00     0.033 C 
HETATM   37  C11 UNL     1      27.836  10.129  40.366  1.00  0.00     0.047 C 
HETATM   38  C12 UNL     1      26.591  10.964  40.182  1.00  0.00     0.311 C 
BRANCH  38  39
HETATM   39  C13 UNL     1      25.392  10.070  40.158  1.00  0.00     0.264 C 
HETATM   40  N7  UNL     1      25.579   8.678  40.022  1.00  0.00    -0.060 NA
HETATM   41  O1  UNL     1      24.271  10.615  40.260  1.00  0.00    -0.274 OA
ENDBRANCH  38  39
ENDBRANCH  33  34
ENDBRANCH  32  33
ENDBRANCH   8  32
TORSDOF 11
ENDMDL
MODEL 4
REMARK VINA RESULT: -8.651719625      5.622      7.802
REMARK  11 active torsions:
REMARK  status: ('A' for Active; 'I' for Inactive)
REMARK    1  A    between atoms: C2_4  and  C3_5 
REMARK    2  A    between atoms: C2_4  and  N8_26 
REMARK    3  A    between atoms: C3_5  and  C4_6 
REMARK    4  A    between atoms: C4_6  and  N2_7 
REMARK       I    between atoms: N2_7  and  C5_9 
REMARK       I    between atoms: C5_9  and  N5_14 
REMARK    5  A    between atoms: N5_14  and  C7_16 
REMARK    6  A    between atoms: C7_16  and  C8_17 
REMARK    7  A    between atoms: C8_17  and  N6_18 
REMARK    8  A    between atoms: C12_22  and  C13_23 
REMARK    9  A    between atoms: N8_26  and  C14_28 
REMARK   10  A    between atoms: C16_31  and  N9_32 
REMARK       I    between atoms: N9_32  and  C17_34 
REMARK   11  A    between atoms: C18_39  and  O3_40 
ROOT
HETATM    1  N2  UNL     1      25.574  17.003  40.006  1.00  0.00    -0.225 N 
ATOM      2  H2  UNL     1      25.812  17.863  40.500  1.00  0.00     0.177 HD
HETATM    3  C5  UNL     1      24.640  16.077  40.573  1.00  0.00     0.682 C 
HETATM    4  N3  UNL     1      23.491  15.932  40.107  1.00  0.00    -0.126 N 
ATOM      5  H3  UNL     1      22.914  15.245  40.592  1.00  0.00     0.197 HD
HETATM    6  C6  UNL     1      22.880  16.554  39.042  1.00  0.00     0.196 C 
HETATM    7  N4  UNL     1      22.348  17.078  38.161  1.00  0.00    -0.171 NA
HETATM    8  N5  UNL     1      25.113  15.359  41.699  1.00  0.00    -0.224 N 
ATOM      9  H5  UNL     1      25.500  15.912  42.465  1.00  0.00     0.177 HD
ENDROOT
BRANCH   1  10
HETATM   10  C4  UNL     1      26.171  16.707  38.737  1.00  0.00     0.145 C 
BRANCH  10  11
HETATM   11  C3  UNL     1      26.348  17.888  37.827  1.00  0.00     0.096 C 
BRANCH  11  12
HETATM   12  C2  UNL     1      26.909  19.077  38.481  1.00  0.00     0.075 C 
HETATM   13  N1  UNL     1      26.119  20.068  38.713  1.00  0.00    -0.384 N 
HETATM   14  C1  UNL     1      24.727  20.144  38.400  1.00  0.00     0.147 C 
ATOM     15  H1  UNL     1      26.530  20.883  39.169  1.00  0.00     0.160 HD
BRANCH  12  16
HETATM   16  N8  UNL     1      28.291  19.123  38.842  1.00  0.00    -0.351 N 
ATOM     17  H8  UNL     1      28.528  19.423  39.788  1.00  0.00     0.163 HD
BRANCH  16  18
HETATM   18  C14 UNL     1      29.358  18.777  37.967  1.00  0.00     0.253 C 
HETATM   19  O2  UNL     1      30.178  17.744  38.405  1.00  0.00    -0.362 OA
HETATM   20  C15 UNL     1      31.123  17.733  37.348  1.00  0.00     0.198 C 
HETATM   21  C16 UNL     1      31.607  19.186  37.431  1.00  0.00     0.141 C 
HETATM   22  C18 UNL     1      30.290  19.907  37.612  1.00  0.00     0.191 C 
BRANCH  21  23
HETATM   23  N9  UNL     1      32.485  19.292  38.558  1.00  0.00    -0.355 N 
HETATM   24  C17 UNL     1      33.860  18.937  38.557  1.00  0.00     0.182 C 
HETATM   25  N10 UNL     1      34.752  19.620  37.909  1.00  0.00    -0.374 N 
HETATM   26  N11 UNL     1      34.249  17.789  39.293  1.00  0.00    -0.064 NA
ATOM     27 2H10 UNL     1      34.472  20.446  37.379  1.00  0.00     0.158 HD
ATOM     28 1H10 UNL     1      35.740  19.365  37.908  1.00  0.00     0.158 HD
ATOM     29  H9  UNL     1      32.093  19.651  39.428  1.00  0.00     0.162 HD
ENDBRANCH  21  23
BRANCH  22  30
HETATM   30  O3  UNL     1      29.960  20.461  36.368  1.00  0.00    -0.389 OA
ATOM     31  H3  UNL     1      30.726  20.829  35.943  1.00  0.00     0.210 HD
ENDBRANCH  22  30
ENDBRANCH  16  18
ENDBRANCH  12  16
ENDBRANCH  11  12
ENDBRANCH  10  11
ENDBRANCH   1  10
BRANCH   8  32
HETATM   32  C7  UNL     1      25.105  13.948  41.874  1.00  0.00     0.168 C 
BRANCH  32  33
HETATM   33  C8  UNL     1      26.119  13.300  40.985  1.00  0.00     0.293 C 
BRANCH  33  34
HETATM   34  N6  UNL     1      26.423  11.946  41.402  1.00  0.00     0.103 N 
HETATM   35  C9  UNL     1      27.610  11.951  42.204  1.00  0.00     0.273 C 
HETATM   36  C10 UNL     1      28.297  10.612  41.902  1.00  0.00     0.033 C 
HETATM   37  C11 UNL     1      28.002  10.438  40.433  1.00  0.00     0.047 C 
HETATM   38  C12 UNL     1      26.674  11.136  40.256  1.00  0.00     0.311 C 
BRANCH  38  39
HETATM   39  C13 UNL     1      25.591  10.115  40.110  1.00  0.00     0.264 C 
HETATM   40  N7  UNL     1      25.939   8.747  40.092  1.00  0.00    -0.060 NA
HETATM   41  O1  UNL     1      24.418  10.536  40.008  1.00  0.00    -0.274 OA
ENDBRANCH  38  39
ENDBRANCH  33  34
ENDBRANCH  32  33
ENDBRANCH   8  32
TORSDOF 11
ENDMDL
MODEL 5
REMARK VINA RESULT: -8.443585304      1.358      1.842
REMARK  11 active torsions:
REMARK  status: ('A' for Active; 'I' for Inactive)
REMARK    1  A    between atoms: C2_4  and  C3_5 
REMARK    2  A    between atoms: C2_4  and  N8_26 
REMARK    3  A    between atoms: C3_5  and  C4_6 
REMARK    4  A    between atoms: C4_6  and  N2_7 
REMARK       I    between atoms: N2_7  and  C5_9 
REMARK       I    between atoms: C5_9  and  N5_14 
REMARK    5  A    between atoms: N5_14  and  C7_16 
REMARK    6  A    between atoms: C7_16  and  C8_17 
REMARK    7  A    between atoms: C8_17  and  N6_18 
REMARK    8  A    between atoms: C12_22  and  C13_23 
REMARK    9  A    between atoms: N8_26  and  C14_28 
REMARK   10  A    between atoms: C16_31  and  N9_32 
REMARK       I    between atoms: N9_32  and  C17_34 
REMARK   11  A    between atoms: C18_39  and  O3_40 
ROOT
HETATM    1  N2  UNL     1      22.272  14.974  40.478  1.00  0.00    -0.225 N 
ATOM      2  H2  UNL     1      21.683  14.506  39.788  1.00  0.00     0.177 HD
HETATM    3  C5  UNL     1      23.694  14.816  40.441  1.00  0.00     0.682 C 
HETATM    4  N3  UNL     1      24.451  15.741  40.079  1.00  0.00    -0.126 N 
ATOM      5  H3  UNL     1      25.445  15.513  40.094  1.00  0.00     0.197 HD
HETATM    6  C6  UNL     1      24.154  17.019  39.664  1.00  0.00     0.196 C 
HETATM    7  N4  UNL     1      23.921  18.089  39.297  1.00  0.00    -0.171 NA
HETATM    8  N5  UNL     1      24.168  13.538  40.830  1.00  0.00    -0.224 N 
ATOM      9  H5  UNL     1      23.758  12.734  40.353  1.00  0.00     0.177 HD
ENDROOT
BRANCH   1  10
HETATM   10  C4  UNL     1      21.684  15.796  41.494  1.00  0.00     0.145 C 
BRANCH  10  11
HETATM   11  C3  UNL     1      21.635  15.179  42.862  1.00  0.00     0.096 C 
BRANCH  11  12
HETATM   12  C2  UNL     1      21.989  16.097  43.952  1.00  0.00     0.075 C 
HETATM   13  N1  UNL     1      22.477  15.592  45.032  1.00  0.00    -0.384 N 
HETATM   14  C1  UNL     1      22.719  14.209  45.296  1.00  0.00     0.147 C 
ATOM     15  H1  UNL     1      22.715  16.247  45.776  1.00  0.00     0.160 HD
BRANCH  12  16
HETATM   16  N8  UNL     1      21.790  17.505  43.809  1.00  0.00    -0.351 N 
ATOM     17  H8  UNL     1      21.048  17.821  43.184  1.00  0.00     0.163 HD
BRANCH  16  18
HETATM   18  C14 UNL     1      22.559  18.494  44.482  1.00  0.00     0.253 C 
HETATM   19  O2  UNL     1      22.605  18.375  45.865  1.00  0.00    -0.362 OA
HETATM   20  C15 UNL     1      23.373  19.527  46.172  1.00  0.00     0.198 C 
HETATM   21  C16 UNL     1      22.489  20.598  45.522  1.00  0.00     0.141 C 
HETATM   22  C18 UNL     1      22.150  19.919  44.213  1.00  0.00     0.191 C 
BRANCH  21  23
HETATM   23  N9  UNL     1      21.358  20.811  46.375  1.00  0.00    -0.355 N 
HETATM   24  C17 UNL     1      20.143  21.428  45.977  1.00  0.00     0.182 C 
HETATM   25  N10 UNL     1      19.310  20.860  45.162  1.00  0.00    -0.374 N 
HETATM   26  N11 UNL     1      19.851  22.715  46.499  1.00  0.00    -0.064 NA
ATOM     27 2H10 UNL     1      19.520  19.934  44.787  1.00  0.00     0.158 HD
ATOM     28 1H10 UNL     1      18.437  21.304  44.877  1.00  0.00     0.158 HD
ATOM     29  H9  UNL     1      21.431  20.494  47.341  1.00  0.00     0.162 HD
ENDBRANCH  21  23
BRANCH  22  30
HETATM   30  O3  UNL     1      22.963  20.502  43.233  1.00  0.00    -0.389 OA
ATOM     31  H3  UNL     1      22.778  21.430  43.142  1.00  0.00     0.210 HD
ENDBRANCH  22  30
ENDBRANCH  16  18
ENDBRANCH  12  16
ENDBRANCH  11  12
ENDBRANCH  10  11
ENDBRANCH   1  10
BRANCH   8  32
HETATM   32  C7  UNL     1      25.155  13.259  41.814  1.00  0.00     0.168 C 
BRANCH  32  33
HETATM   33  C8  UNL     1      26.429  12.808  41.173  1.00  0.00     0.293 C 
BRANCH  33  34
HETATM   34  N6  UNL     1      26.678  11.397  41.389  1.00  0.00     0.103 N 
HETATM   35  C9  UNL     1      27.993  11.225  41.933  1.00  0.00     0.273 C 
HETATM   36  C10 UNL     1      28.479   9.882  41.373  1.00  0.00     0.033 C 
HETATM   37  C11 UNL     1      27.892   9.895  39.984  1.00  0.00     0.047 C 
HETATM   38  C12 UNL     1      26.627  10.705  40.145  1.00  0.00     0.311 C 
BRANCH  38  39
HETATM   39  C13 UNL     1      25.445   9.789  40.122  1.00  0.00     0.264 C 
HETATM   40  N7  UNL     1      25.660   8.395  40.077  1.00  0.00    -0.060 NA
HETATM   41  O1  UNL     1      24.312  10.318  40.145  1.00  0.00    -0.274 OA
ENDBRANCH  38  39
ENDBRANCH  33  34
ENDBRANCH  32  33
ENDBRANCH   8  32
TORSDOF 11
ENDMDL
