MODEL 1
REMARK VINA RESULT: -8.150974324      0.000      0.000
REMARK  11 active torsions:
REMARK  status: ('A' for Active; 'I' for Inactive)
REMARK       I    between atoms: C1_4  and  N3_6 
REMARK    1  A    between atoms: C3_8  and  N4_9 
REMARK    2  A    between atoms: C5_14  and  C6_15 
REMARK       I    between atoms: C6_15  and  N5_17 
REMARK    3  A    between atoms: N5_17  and  C7_19 
REMARK    4  A    between atoms: C7_19  and  C8_20 
REMARK    5  A    between atoms: C7_19  and  C11_29 
REMARK    6  A    between atoms: C8_20  and  C9_21 
REMARK    7  A    between atoms: C9_21  and  N6_22 
REMARK    8  A    between atoms: C9_21  and  C10_26 
REMARK    9  A    between atoms: C11_29  and  N8_30 
REMARK   10  A    between atoms: C11_29  and  C12_34 
REMARK       I    between atoms: C12_34  and  N9_36 
REMARK   11  A    between atoms: C17_41  and  C18_42 
ROOT
HETATM    1  C7  UNL     1      23.204  15.828  40.510  1.00  0.00     0.126 C 
ENDROOT
BRANCH   1   2
HETATM    2  N5  UNL     1      22.454  15.703  41.772  1.00  0.00    -0.352 N 
HETATM    3  C6  UNL     1      22.552  16.707  42.734  1.00  0.00     0.241 C 
HETATM    4  O1  UNL     1      23.279  17.708  42.517  1.00  0.00    -0.271 OA
ATOM      5  H5  UNL     1      21.868  14.886  41.941  1.00  0.00     0.163 HD
BRANCH   3   6
HETATM    6  C5  UNL     1      21.840  16.683  44.040  1.00  0.00     0.181 C 
HETATM    7  N3  UNL     1      21.367  15.364  44.385  1.00  0.00    -0.340 N 
HETATM    8  C1  UNL     1      22.110  14.211  44.739  1.00  0.00     0.184 C 
HETATM    9  C2  UNL     1      19.903  15.296  44.334  1.00  0.00     0.159 C 
HETATM   10  N1  UNL     1      21.989  13.154  44.037  1.00  0.00    -0.374 N 
HETATM   11  N2  UNL     1      22.965  14.263  45.857  1.00  0.00    -0.064 NA
ATOM     12  H12 UNL     1      22.524  12.323  44.292  1.00  0.00     0.158 HD
ATOM     13  H11 UNL     1      21.370  13.116  43.227  1.00  0.00     0.158 HD
HETATM   14  C3  UNL     1      19.457  16.716  44.424  1.00  0.00     0.204 C 
HETATM   15  C4  UNL     1      20.612  17.547  43.905  1.00  0.00     0.069 C 
BRANCH  14  16
HETATM   16  N4  UNL     1      18.264  16.879  43.614  1.00  0.00    -0.073 N 
ATOM     17  H43 UNL     1      18.454  17.349  42.729  1.00  0.00     0.274 HD
ATOM     18  H42 UNL     1      17.926  15.995  43.233  1.00  0.00     0.274 HD
ATOM     19  H41 UNL     1      17.557  17.361  44.169  1.00  0.00     0.274 HD
ENDBRANCH  14  16
ENDBRANCH   3   6
ENDBRANCH   1   2
BRANCH   1  20
HETATM   20  C8  UNL     1      23.891  14.517  40.355  1.00  0.00     0.070 C 
BRANCH  20  21
HETATM   21  C9  UNL     1      25.228  14.330  40.948  1.00  0.00     0.273 C 
BRANCH  21  22
HETATM   22  N6  UNL     1      25.551  15.392  41.913  1.00  0.00    -0.067 N 
ATOM     23  H63 UNL     1      25.563  16.308  41.467  1.00  0.00     0.275 HD
ATOM     24  H62 UNL     1      24.783  15.544  42.568  1.00  0.00     0.275 HD
ATOM     25  H61 UNL     1      26.425  15.204  42.404  1.00  0.00     0.275 HD
ENDBRANCH  21  22
BRANCH  21  26
HETATM   26  C10 UNL     1      25.105  13.093  41.823  1.00  0.00     0.261 C 
HETATM   27  N7  UNL     1      25.170  13.118  43.222  1.00  0.00    -0.060 NA
HETATM   28  O2  UNL     1      24.936  12.008  41.225  1.00  0.00    -0.275 OA
ENDBRANCH  21  26
ENDBRANCH  20  21
ENDBRANCH   1  20
BRANCH   1  29
HETATM   29  C11 UNL     1      22.258  16.158  39.391  1.00  0.00     0.297 C 
BRANCH  29  30
HETATM   30  N8  UNL     1      21.922  14.985  38.632  1.00  0.00    -0.064 N 
ATOM     31  H83 UNL     1      21.766  15.207  37.649  1.00  0.00     0.275 HD
ATOM     32  H82 UNL     1      22.724  14.364  38.526  1.00  0.00     0.275 HD
ATOM     33  H81 UNL     1      21.122  14.499  39.038  1.00  0.00     0.275 HD
ENDBRANCH  29  30
BRANCH  29  34
HETATM   34  C12 UNL     1      22.797  17.189  38.479  1.00  0.00     0.257 C 
HETATM   35  O3  UNL     1      21.983  17.427  37.496  1.00  0.00    -0.271 OA
HETATM   36  N9  UNL     1      23.952  17.903  38.497  1.00  0.00    -0.315 N 
HETATM   37  C13 UNL     1      24.964  17.756  39.557  1.00  0.00     0.132 C 
HETATM   38  C17 UNL     1      24.375  18.827  37.483  1.00  0.00     0.079 C 
HETATM   39  C14 UNL     1      26.316  17.491  38.874  1.00  0.00     0.021 C 
HETATM   40  C15 UNL     1      26.145  17.087  37.418  1.00  0.00     0.008 C 
HETATM   41  C16 UNL     1      25.429  18.156  36.603  1.00  0.00     0.062 C 
BRANCH  38  42
HETATM   42  C18 UNL     1      23.447  19.668  36.792  1.00  0.00     0.277 C 
HETATM   43  N10 UNL     1      23.219  19.570  35.363  1.00  0.00    -0.056 NA
HETATM   44  O4  UNL     1      22.768  20.556  37.402  1.00  0.00    -0.270 OA
ENDBRANCH  38  42
ENDBRANCH  29  34
ENDBRANCH   1  29
TORSDOF 11
ENDMDL
MODEL 2
REMARK VINA RESULT: -7.679985850      3.234      6.828
REMARK  11 active torsions:
REMARK  status: ('A' for Active; 'I' for Inactive)
REMARK       I    between atoms: C1_4  and  N3_6 
REMARK    1  A    between atoms: C3_8  and  N4_9 
REMARK    2  A    between atoms: C5_14  and  C6_15 
REMARK       I    between atoms: C6_15  and  N5_17 
REMARK    3  A    between atoms: N5_17  and  C7_19 
REMARK    4  A    between atoms: C7_19  and  C8_20 
REMARK    5  A    between atoms: C7_19  and  C11_29 
REMARK    6  A    between atoms: C8_20  and  C9_21 
REMARK    7  A    between atoms: C9_21  and  N6_22 
REMARK    8  A    between atoms: C9_21  and  C10_26 
REMARK    9  A    between atoms: C11_29  and  N8_30 
REMARK   10  A    between atoms: C11_29  and  C12_34 
REMARK       I    between atoms: C12_34  and  N9_36 
REMARK   11  A    between atoms: C17_41  and  C18_42 
ROOT
HETATM    1  C7  UNL     1      22.146  17.351  44.008  1.00  0.00     0.126 C 
ENDROOT
BRANCH   1   2
HETATM    2  N5  UNL     1      22.996  17.001  42.857  1.00  0.00    -0.352 N 
HETATM    3  C6  UNL     1      22.439  16.334  41.767  1.00  0.00     0.241 C 
HETATM    4  O1  UNL     1      21.219  16.037  41.776  1.00  0.00    -0.271 OA
ATOM      5  H5  UNL     1      23.986  17.244  42.858  1.00  0.00     0.163 HD
BRANCH   3   6
HETATM    6  C5  UNL     1      23.203  15.933  40.554  1.00  0.00     0.181 C 
HETATM    7  N3  UNL     1      24.529  15.458  40.873  1.00  0.00    -0.340 N 
HETATM    8  C1  UNL     1      24.917  14.271  41.542  1.00  0.00     0.184 C 
HETATM    9  C2  UNL     1      25.555  16.395  40.402  1.00  0.00     0.159 C 
HETATM   10  N1  UNL     1      25.606  14.359  42.611  1.00  0.00    -0.374 N 
HETATM   11  N2  UNL     1      24.532  13.026  41.009  1.00  0.00    -0.064 NA
ATOM     12  H12 UNL     1      25.885  13.504  43.094  1.00  0.00     0.158 HD
ATOM     13  H11 UNL     1      25.885  15.260  42.997  1.00  0.00     0.158 HD
HETATM   14  C3  UNL     1      24.867  17.217  39.366  1.00  0.00     0.204 C 
HETATM   15  C4  UNL     1      23.392  17.165  39.707  1.00  0.00     0.069 C 
BRANCH  14  16
HETATM   16  N4  UNL     1      25.390  18.569  39.425  1.00  0.00    -0.073 N 
ATOM     17  H43 UNL     1      25.993  18.789  38.632  1.00  0.00     0.274 HD
ATOM     18  H42 UNL     1      24.673  19.274  39.255  1.00  0.00     0.274 HD
ATOM     19  H41 UNL     1      25.860  18.698  40.321  1.00  0.00     0.274 HD
ENDBRANCH  14  16
ENDBRANCH   3   6
ENDBRANCH   1   2
BRANCH   1  20
HETATM   20  C8  UNL     1      22.328  16.223  44.961  1.00  0.00     0.070 C 
BRANCH  20  21
HETATM   21  C9  UNL     1      21.252  15.225  45.110  1.00  0.00     0.273 C 
BRANCH  21  22
HETATM   22  N6  UNL     1      20.009  15.661  44.457  1.00  0.00    -0.067 N 
ATOM     23  H63 UNL     1      20.197  16.325  43.706  1.00  0.00     0.275 HD
ATOM     24  H62 UNL     1      19.595  14.909  43.905  1.00  0.00     0.275 HD
ATOM     25  H61 UNL     1      19.340  16.039  45.128  1.00  0.00     0.275 HD
ENDBRANCH  21  22
BRANCH  21  26
HETATM   26  C10 UNL     1      21.689  14.040  44.265  1.00  0.00     0.261 C 
HETATM   27  N7  UNL     1      20.799  13.185  43.601  1.00  0.00    -0.060 NA
HETATM   28  O2  UNL     1      22.922  13.847  44.180  1.00  0.00    -0.275 OA
ENDBRANCH  21  26
ENDBRANCH  20  21
ENDBRANCH   1  20
BRANCH   1  29
HETATM   29  C11 UNL     1      22.562  18.686  44.556  1.00  0.00     0.297 C 
BRANCH  29  30
HETATM   30  N8  UNL     1      23.337  18.536  45.756  1.00  0.00    -0.064 N 
ATOM     31  H83 UNL     1      23.171  17.634  46.200  1.00  0.00     0.275 HD
ATOM     32  H82 UNL     1      24.330  18.427  45.550  1.00  0.00     0.275 HD
ATOM     33  H81 UNL     1      23.171  19.308  46.402  1.00  0.00     0.275 HD
ENDBRANCH  29  30
BRANCH  29  34
HETATM   34  C12 UNL     1      21.410  19.571  44.828  1.00  0.00     0.257 C 
HETATM   35  O3  UNL     1      20.297  18.903  44.866  1.00  0.00    -0.271 OA
HETATM   36  N9  UNL     1      21.322  20.910  45.038  1.00  0.00    -0.315 N 
HETATM   37  C13 UNL     1      22.499  21.794  45.042  1.00  0.00     0.132 C 
HETATM   38  C17 UNL     1      20.102  21.645  45.213  1.00  0.00     0.079 C 
HETATM   39  C14 UNL     1      22.216  22.946  44.063  1.00  0.00     0.021 C 
HETATM   40  C15 UNL     1      21.049  22.631  43.141  1.00  0.00     0.008 C 
HETATM   41  C16 UNL     1      19.762  22.368  43.910  1.00  0.00     0.062 C 
BRANCH  38  42
HETATM   42  C18 UNL     1      18.985  21.100  45.920  1.00  0.00     0.277 C 
HETATM   43  N10 UNL     1      17.750  20.724  45.258  1.00  0.00    -0.056 NA
HETATM   44  O4  UNL     1      19.016  20.917  47.180  1.00  0.00    -0.270 OA
ENDBRANCH  38  42
ENDBRANCH  29  34
ENDBRANCH   1  29
TORSDOF 11
ENDMDL
MODEL 3
REMARK VINA RESULT: -7.505729947      1.361      2.087
REMARK  11 active torsions:
REMARK  status: ('A' for Active; 'I' for Inactive)
REMARK       I    between atoms: C1_4  and  N3_6 
REMARK    1  A    between atoms: C3_8  and  N4_9 
REMARK    2  A    between atoms: C5_14  and  C6_15 
REMARK       I    between atoms: C6_15  and  N5_17 
REMARK    3  A    between atoms: N5_17  and  C7_19 
REMARK    4  A    between atoms: C7_19  and  C8_20 
REMARK    5  A    between atoms: C7_19  and  C11_29 
REMARK    6  A    between atoms: C8_20  and  C9_21 
REMARK    7  A    between atoms: C9_21  and  N6_22 
REMARK    8  A    between atoms: C9_21  and  C10_26 
REMARK    9  A    between atoms: C11_29  and  N8_30 
REMARK   10  A    between atoms: C11_29  and  C12_34 
REMARK       I    between atoms: C12_34  and  N9_36 
REMARK   11  A    between atoms: C17_41  and  C18_42 
ROOT
HETATM    1  C7  UNL     1      23.597  15.865  40.909  1.00  0.00     0.126 C 
ENDROOT
BRANCH   1   2
HETATM    2  N5  UNL     1      22.693  15.729  42.064  1.00  0.00    -0.352 N 
HETATM    3  C6  UNL     1      22.598  16.767  42.991  1.00  0.00     0.241 C 
HETATM    4  O1  UNL     1      23.285  17.805  42.835  1.00  0.00    -0.271 OA
ATOM      5  H5  UNL     1      22.139  14.881  42.185  1.00  0.00     0.163 HD
BRANCH   3   6
HETATM    6  C5  UNL     1      21.718  16.736  44.191  1.00  0.00     0.181 C 
HETATM    7  N3  UNL     1      21.262  15.402  44.504  1.00  0.00    -0.340 N 
HETATM    8  C1  UNL     1      22.000  14.293  44.984  1.00  0.00     0.184 C 
HETATM    9  C2  UNL     1      19.821  15.265  44.260  1.00  0.00     0.159 C 
HETATM   10  N1  UNL     1      22.020  13.217  44.300  1.00  0.00    -0.374 N 
HETATM   11  N2  UNL     1      22.693  14.407  46.204  1.00  0.00    -0.064 NA
ATOM     12  H12 UNL     1      22.552  12.418  44.646  1.00  0.00     0.158 HD
ATOM     13  H11 UNL     1      21.518  13.134  43.416  1.00  0.00     0.158 HD
HETATM   14  C3  UNL     1      19.306  16.664  44.253  1.00  0.00     0.204 C 
HETATM   15  C4  UNL     1      20.483  17.538  43.871  1.00  0.00     0.069 C 
BRANCH  14  16
HETATM   16  N4  UNL     1      18.227  16.755  43.286  1.00  0.00    -0.073 N 
ATOM     17  H43 UNL     1      17.328  16.958  43.723  1.00  0.00     0.274 HD
ATOM     18  H42 UNL     1      18.292  17.591  42.705  1.00  0.00     0.274 HD
ATOM     19  H41 UNL     1      18.210  15.896  42.736  1.00  0.00     0.274 HD
ENDBRANCH  14  16
ENDBRANCH   3   6
ENDBRANCH   1   2
BRANCH   1  20
HETATM   20  C8  UNL     1      24.044  14.475  40.623  1.00  0.00     0.070 C 
BRANCH  20  21
HETATM   21  C9  UNL     1      25.288  13.976  41.237  1.00  0.00     0.273 C 
BRANCH  21  22
HETATM   22  N6  UNL     1      25.994  15.035  41.975  1.00  0.00    -0.067 N 
ATOM     23  H63 UNL     1      26.081  15.883  41.416  1.00  0.00     0.275 HD
ATOM     24  H62 UNL     1      25.421  15.403  42.736  1.00  0.00     0.275 HD
ATOM     25  H61 UNL     1      26.903  14.718  42.315  1.00  0.00     0.275 HD
ENDBRANCH  21  22
BRANCH  21  26
HETATM   26  C10 UNL     1      24.837  13.029  42.337  1.00  0.00     0.261 C 
HETATM   27  N7  UNL     1      25.298  13.093  43.658  1.00  0.00    -0.060 NA
HETATM   28  O2  UNL     1      24.004  12.156  42.007  1.00  0.00    -0.275 OA
ENDBRANCH  21  26
ENDBRANCH  20  21
ENDBRANCH   1  20
BRANCH   1  29
HETATM   29  C11 UNL     1      22.868  16.519  39.771  1.00  0.00     0.297 C 
BRANCH  29  30
HETATM   30  N8  UNL     1      22.141  15.553  38.996  1.00  0.00    -0.064 N 
ATOM     31  H83 UNL     1      22.768  14.901  38.525  1.00  0.00     0.275 HD
ATOM     32  H82 UNL     1      21.646  14.890  39.592  1.00  0.00     0.275 HD
ATOM     33  H81 UNL     1      21.510  16.008  38.336  1.00  0.00     0.275 HD
ENDBRANCH  29  30
BRANCH  29  34
HETATM   34  C12 UNL     1      23.773  17.277  38.880  1.00  0.00     0.257 C 
HETATM   35  O3  UNL     1      25.005  17.205  39.284  1.00  0.00    -0.271 OA
HETATM   36  N9  UNL     1      23.543  18.003  37.756  1.00  0.00    -0.315 N 
HETATM   37  C13 UNL     1      22.202  18.160  37.170  1.00  0.00     0.132 C 
HETATM   38  C17 UNL     1      24.530  18.756  37.037  1.00  0.00     0.079 C 
HETATM   39  C14 UNL     1      21.951  19.665  36.984  1.00  0.00     0.021 C 
HETATM   40  C15 UNL     1      22.935  20.506  37.781  1.00  0.00     0.008 C 
HETATM   41  C16 UNL     1      24.379  20.238  37.382  1.00  0.00     0.062 C 
BRANCH  38  42
HETATM   42  C18 UNL     1      25.877  18.297  36.894  1.00  0.00     0.277 C 
HETATM   43  N10 UNL     1      27.008  19.000  37.469  1.00  0.00    -0.056 NA
HETATM   44  O4  UNL     1      26.156  17.236  36.247  1.00  0.00    -0.270 OA
ENDBRANCH  38  42
ENDBRANCH  29  34
ENDBRANCH   1  29
TORSDOF 11
ENDMDL
MODEL 4
REMARK VINA RESULT: -7.456705936      1.639      2.063
REMARK  11 active torsions:
REMARK  status: ('A' for Active; 'I' for Inactive)
REMARK       I    between atoms: C1_4  and  N3_6 
REMARK    1  A    between atoms: C3_8  and  N4_9 
REMARK    2  A    between atoms: C5_14  and  C6_15 
REMARK       I    between atoms: C6_15  and  N5_17 
REMARK    3  A    between atoms: N5_17  and  C7_19 
REMARK    4  A    between atoms: C7_19  and  C8_20 
REMARK    5  A    between atoms: C7_19  and  C11_29 
REMARK    6  A    between atoms: C8_20  and  C9_21 
REMARK    7  A    between atoms: C9_21  and  N6_22 
REMARK    8  A    between atoms: C9_21  and  C10_26 
REMARK    9  A    between atoms: C11_29  and  N8_30 
REMARK   10  A    between atoms: C11_29  and  C12_34 
REMARK       I    between atoms: C12_34  and  N9_36 
REMARK   11  A    between atoms: C17_41  and  C18_42 
ROOT
HETATM    1  C7  UNL     1      23.678  16.043  41.007  1.00  0.00     0.126 C 
ENDROOT
BRANCH   1   2
HETATM    2  N5  UNL     1      23.091  16.168  42.352  1.00  0.00    -0.352 N 
HETATM    3  C6  UNL     1      22.943  17.430  42.926  1.00  0.00     0.241 C 
HETATM    4  O1  UNL     1      23.313  18.448  42.292  1.00  0.00    -0.271 OA
ATOM      5  H5  UNL     1      22.795  15.335  42.862  1.00  0.00     0.163 HD
BRANCH   3   6
HETATM    6  C5  UNL     1      22.363  17.670  44.275  1.00  0.00     0.181 C 
HETATM    7  N3  UNL     1      20.943  17.414  44.317  1.00  0.00    -0.340 N 
HETATM    8  C1  UNL     1      20.253  16.182  44.212  1.00  0.00     0.184 C 
HETATM    9  C2  UNL     1      20.186  18.657  44.496  1.00  0.00     0.159 C 
HETATM   10  N1  UNL     1      19.400  16.025  43.277  1.00  0.00    -0.374 N 
HETATM   11  N2  UNL     1      20.527  15.161  45.142  1.00  0.00    -0.064 NA
ATOM     12  H12 UNL     1      18.903  15.138  43.201  1.00  0.00     0.158 HD
ATOM     13  H11 UNL     1      19.202  16.765  42.603  1.00  0.00     0.158 HD
HETATM   14  C3  UNL     1      21.177  19.626  45.046  1.00  0.00     0.204 C 
HETATM   15  C4  UNL     1      22.535  19.134  44.590  1.00  0.00     0.069 C 
BRANCH  14  16
HETATM   16  N4  UNL     1      20.874  20.946  44.523  1.00  0.00    -0.073 N 
ATOM     17  H43 UNL     1      20.686  21.624  45.260  1.00  0.00     0.274 HD
ATOM     18  H42 UNL     1      21.691  21.403  44.117  1.00  0.00     0.274 HD
ATOM     19  H41 UNL     1      20.102  20.864  43.860  1.00  0.00     0.274 HD
ENDBRANCH  14  16
ENDBRANCH   3   6
ENDBRANCH   1   2
BRANCH   1  20
HETATM   20  C8  UNL     1      24.399  14.742  41.036  1.00  0.00     0.070 C 
BRANCH  20  21
HETATM   21  C9  UNL     1      24.435  13.965  42.289  1.00  0.00     0.273 C 
BRANCH  21  22
HETATM   22  N6  UNL     1      23.504  12.827  42.252  1.00  0.00    -0.067 N 
ATOM     23  H63 UNL     1      22.602  13.072  42.662  1.00  0.00     0.275 HD
ATOM     24  H62 UNL     1      23.197  12.629  41.300  1.00  0.00     0.275 HD
ATOM     25  H61 UNL     1      23.901  11.998  42.695  1.00  0.00     0.275 HD
ENDBRANCH  21  22
BRANCH  21  26
HETATM   26  C10 UNL     1      25.799  13.295  42.302  1.00  0.00     0.261 C 
HETATM   27  N7  UNL     1      26.460  12.852  41.149  1.00  0.00    -0.060 NA
HETATM   28  O2  UNL     1      26.332  13.149  43.424  1.00  0.00    -0.275 OA
ENDBRANCH  21  26
ENDBRANCH  20  21
ENDBRANCH   1  20
BRANCH   1  29
HETATM   29  C11 UNL     1      22.592  16.117  39.973  1.00  0.00     0.297 C 
BRANCH  29  30
HETATM   30  N8  UNL     1      22.250  14.810  39.484  1.00  0.00    -0.064 N 
ATOM     31  H83 UNL     1      22.892  14.099  39.833  1.00  0.00     0.275 HD
ATOM     32  H82 UNL     1      21.389  14.464  39.909  1.00  0.00     0.275 HD
ATOM     33  H81 UNL     1      22.196  14.799  38.465  1.00  0.00     0.275 HD
ENDBRANCH  29  30
BRANCH  29  34
HETATM   34  C12 UNL     1      22.954  16.984  38.832  1.00  0.00     0.257 C 
HETATM   35  O3  UNL     1      22.055  16.938  37.896  1.00  0.00    -0.271 OA
HETATM   36  N9  UNL     1      24.024  17.789  38.607  1.00  0.00    -0.315 N 
HETATM   37  C13 UNL     1      25.114  17.957  39.583  1.00  0.00     0.132 C 
HETATM   38  C17 UNL     1      24.276  18.520  37.397  1.00  0.00     0.079 C 
HETATM   39  C14 UNL     1      26.438  17.683  38.850  1.00  0.00     0.021 C 
HETATM   40  C15 UNL     1      26.214  16.974  37.523  1.00  0.00     0.008 C 
HETATM   41  C16 UNL     1      25.335  17.782  36.579  1.00  0.00     0.062 C 
BRANCH  38  42
HETATM   42  C18 UNL     1      23.219  19.111  36.637  1.00  0.00     0.277 C 
HETATM   43  N10 UNL     1      22.400  20.194  37.147  1.00  0.00    -0.056 NA
HETATM   44  O4  UNL     1      22.939  18.712  35.460  1.00  0.00    -0.270 OA
ENDBRANCH  38  42
ENDBRANCH  29  34
ENDBRANCH   1  29
TORSDOF 11
ENDMDL
MODEL 5
REMARK VINA RESULT: -7.184090742      2.152      6.981
REMARK  11 active torsions:
REMARK  status: ('A' for Active; 'I' for Inactive)
REMARK       I    between atoms: C1_4  and  N3_6 
REMARK    1  A    between atoms: C3_8  and  N4_9 
REMARK    2  A    between atoms: C5_14  and  C6_15 
REMARK       I    between atoms: C6_15  and  N5_17 
REMARK    3  A    between atoms: N5_17  and  C7_19 
REMARK    4  A    between atoms: C7_19  and  C8_20 
REMARK    5  A    between atoms: C7_19  and  C11_29 
REMARK    6  A    between atoms: C8_20  and  C9_21 
REMARK    7  A    between atoms: C9_21  and  N6_22 
REMARK    8  A    between atoms: C9_21  and  C10_26 
REMARK    9  A    between atoms: C11_29  and  N8_30 
REMARK   10  A    between atoms: C11_29  and  C12_34 
REMARK       I    between atoms: C12_34  and  N9_36 
REMARK   11  A    between atoms: C17_41  and  C18_42 
ROOT
HETATM    1  C7  UNL     1      24.686  15.483  40.346  1.00  0.00     0.126 C 
ENDROOT
BRANCH   1   2
HETATM    2  N5  UNL     1      25.424  16.758  40.329  1.00  0.00    -0.352 N 
HETATM    3  C6  UNL     1      25.843  17.295  39.113  1.00  0.00     0.241 C 
HETATM    4  O1  UNL     1      25.589  16.688  38.044  1.00  0.00    -0.271 OA
ATOM      5  H5  UNL     1      25.628  17.244  41.202  1.00  0.00     0.163 HD
BRANCH   3   6
HETATM    6  C5  UNL     1      26.593  18.574  38.980  1.00  0.00     0.181 C 
HETATM    7  N3  UNL     1      25.828  19.591  38.298  1.00  0.00    -0.340 N 
HETATM    8  C1  UNL     1      24.672  20.284  38.733  1.00  0.00     0.184 C 
HETATM    9  C2  UNL     1      26.397  19.885  36.978  1.00  0.00     0.159 C 
HETATM   10  N1  UNL     1      23.605  20.208  38.040  1.00  0.00    -0.374 N 
HETATM   11  N2  UNL     1      24.732  21.039  39.921  1.00  0.00    -0.064 NA
ATOM     12  H12 UNL     1      22.772  20.707  38.353  1.00  0.00     0.158 HD
ATOM     13  H11 UNL     1      23.562  19.662  37.180  1.00  0.00     0.158 HD
HETATM   14  C3  UNL     1      27.800  19.385  37.053  1.00  0.00     0.204 C 
HETATM   15  C4  UNL     1      27.799  18.307  38.117  1.00  0.00     0.069 C 
BRANCH  14  16
HETATM   16  N4  UNL     1      28.175  18.863  35.752  1.00  0.00    -0.073 N 
ATOM     17  H43 UNL     1      29.153  18.577  35.713  1.00  0.00     0.274 HD
ATOM     18  H42 UNL     1      27.756  17.953  35.559  1.00  0.00     0.274 HD
ATOM     19  H41 UNL     1      27.941  19.558  35.042  1.00  0.00     0.274 HD
ENDBRANCH  14  16
ENDBRANCH   3   6
ENDBRANCH   1   2
BRANCH   1  20
HETATM   20  C8  UNL     1      25.278  14.727  41.483  1.00  0.00     0.070 C 
BRANCH  20  21
HETATM   21  C9  UNL     1      25.994  13.465  41.215  1.00  0.00     0.273 C 
BRANCH  21  22
HETATM   22  N6  UNL     1      26.851  13.074  42.344  1.00  0.00    -0.067 N 
ATOM     23  H63 UNL     1      26.987  13.848  42.993  1.00  0.00     0.275 HD
ATOM     24  H62 UNL     1      26.371  12.425  42.967  1.00  0.00     0.275 HD
ATOM     25  H61 UNL     1      27.743  12.693  42.028  1.00  0.00     0.275 HD
ENDBRANCH  21  22
BRANCH  21  26
HETATM   26  C10 UNL     1      24.919  12.392  41.208  1.00  0.00     0.261 C 
HETATM   27  N7  UNL     1      24.778  11.437  40.192  1.00  0.00    -0.060 NA
HETATM   28  O2  UNL     1      24.133  12.391  42.180  1.00  0.00    -0.275 OA
ENDBRANCH  21  26
ENDBRANCH  20  21
ENDBRANCH   1  20
BRANCH   1  29
HETATM   29  C11 UNL     1      23.216  15.752  40.492  1.00  0.00     0.297 C 
BRANCH  29  30
HETATM   30  N8  UNL     1      22.755  16.678  39.495  1.00  0.00    -0.064 N 
ATOM     31  H83 UNL     1      22.562  16.210  38.610  1.00  0.00     0.275 HD
ATOM     32  H82 UNL     1      21.815  17.014  39.702  1.00  0.00     0.275 HD
ATOM     33  H81 UNL     1      23.412  17.449  39.376  1.00  0.00     0.275 HD
ENDBRANCH  29  30
BRANCH  29  34
HETATM   34  C12 UNL     1      22.865  16.265  41.833  1.00  0.00     0.257 C 
HETATM   35  O3  UNL     1      23.576  17.306  42.144  1.00  0.00    -0.271 OA
HETATM   36  N9  UNL     1      21.960  15.850  42.757  1.00  0.00    -0.315 N 
HETATM   37  C13 UNL     1      21.071  14.697  42.539  1.00  0.00     0.132 C 
HETATM   38  C17 UNL     1      21.789  16.415  44.065  1.00  0.00     0.079 C 
HETATM   39  C14 UNL     1      21.230  13.756  43.745  1.00  0.00     0.021 C 
HETATM   40  C15 UNL     1      22.475  14.080  44.556  1.00  0.00     0.008 C 
HETATM   41  C16 UNL     1      22.457  15.504  45.094  1.00  0.00     0.062 C 
BRANCH  38  42
HETATM   42  C18 UNL     1      21.928  17.817  44.308  1.00  0.00     0.277 C 
HETATM   43  N10 UNL     1      22.867  18.353  45.275  1.00  0.00    -0.056 NA
HETATM   44  O4  UNL     1      21.226  18.676  43.683  1.00  0.00    -0.270 OA
ENDBRANCH  38  42
ENDBRANCH  29  34
ENDBRANCH   1  29
TORSDOF 11
ENDMDL
