MODEL 1
REMARK VINA RESULT: -7.276423622      0.000      0.000
REMARK  12 active torsions:
REMARK  status: ('A' for Active; 'I' for Inactive)
REMARK    1  A    between atoms: C2_2  and  C3_3 
REMARK    2  A    between atoms: C3_3  and  O1_4 
REMARK    3  A    between atoms: O1_4  and  C4_5 
REMARK    4  A    between atoms: C5_6  and  O2_7 
REMARK    5  A    between atoms: C6_9  and  N1_10 
REMARK       I    between atoms: N1_10  and  C7_12 
REMARK    6  A    between atoms: C11_17  and  N2_18 
REMARK    7  A    between atoms: C12_22  and  C13_23 
REMARK       I    between atoms: C13_23  and  N3_25 
REMARK    8  A    between atoms: N3_25  and  C14_27 
REMARK    9  A    between atoms: C14_27  and  C15_28 
REMARK   10  A    between atoms: C15_28  and  C16_29 
REMARK   11  A    between atoms: C16_29  and  N4_30 
REMARK   12  A    between atoms: N7_35  and  N8_37 
ROOT
HETATM    1  C4  UNL     1      24.238  15.080  41.382  1.00  0.00     0.167 C 
HETATM    2  C5  UNL     1      25.343  15.772  40.690  1.00  0.00     0.171 C 
HETATM    3  C6  UNL     1      25.002  16.786  39.663  1.00  0.00     0.121 C 
HETATM    4  C9  UNL     1      23.753  17.516  40.061  1.00  0.00     0.038 C 
HETATM    5  C10 UNL     1      23.837  18.213  41.377  1.00  0.00     0.014 C 
HETATM    6  C11 UNL     1      22.644  16.486  40.009  1.00  0.00     0.204 C 
HETATM    7  C12 UNL     1      22.849  15.378  41.003  1.00  0.00     0.140 C 
ENDROOT
BRANCH   7   8
HETATM    8  C13 UNL     1      22.015  15.745  42.195  1.00  0.00     0.231 C 
HETATM    9  O4  UNL     1      22.424  16.651  42.958  1.00  0.00    -0.273 OA
HETATM   10  N3  UNL     1      20.787  15.115  42.500  1.00  0.00    -0.315 N 
ATOM     11  H3  UNL     1      20.473  14.380  41.866  1.00  0.00     0.170 HD
BRANCH  10  12
HETATM   12  C14 UNL     1      19.956  15.412  43.601  1.00  0.00     0.100 C 
HETATM   13  N7  UNL     1      20.223  14.927  44.756  1.00  0.00    -0.287 N 
ATOM     14  H7  UNL     1      19.625  15.137  45.555  1.00  0.00     0.188 HD
BRANCH  12  15
HETATM   15  C15 UNL     1      18.770  16.270  43.473  1.00  0.00     0.097 C 
BRANCH  15  16
HETATM   16  C16 UNL     1      18.845  17.482  44.388  1.00  0.00     0.129 C 
BRANCH  16  17
HETATM   17  N4  UNL     1      20.184  17.966  44.378  1.00  0.00    -0.366 N 
HETATM   18  C17 UNL     1      20.453  19.132  44.841  1.00  0.00     0.196 C 
HETATM   19  N5  UNL     1      19.407  19.927  45.362  1.00  0.00    -0.067 NA
HETATM   20  N6  UNL     1      21.804  19.548  44.799  1.00  0.00    -0.067 NA
ATOM     21  H4  UNL     1      20.932  17.384  44.000  1.00  0.00     0.161 HD
ENDBRANCH  16  17
ENDBRANCH  15  16
ENDBRANCH  12  15
BRANCH  13  22
HETATM   22  N8  UNL     1      21.337  14.111  44.908  1.00  0.00    -0.275 N 
HETATM   23  C18 UNL     1      22.383  14.549  45.481  1.00  0.00     0.215 C 
HETATM   24  N9  UNL     1      23.562  13.769  45.672  1.00  0.00    -0.065 NA
HETATM   25  N10 UNL     1      22.398  15.886  45.963  1.00  0.00    -0.065 NA
ATOM     26  H8  UNL     1      21.316  13.154  44.555  1.00  0.00     0.189 HD
ENDBRANCH  13  22
ENDBRANCH  10  12
ENDBRANCH   7   8
BRANCH   1  27
HETATM   27  O1  UNL     1      24.457  13.695  41.186  1.00  0.00    -0.379 OA
BRANCH  27  28
HETATM   28  C3  UNL     1      24.469  12.991  42.386  1.00  0.00     0.195 C 
BRANCH  28  29
HETATM   29  C2  UNL     1      25.804  12.932  42.999  1.00  0.00    -0.011 C 
HETATM   30  C1  UNL     1      26.844  12.318  42.399  1.00  0.00     0.009 C 
ENDBRANCH  28  29
ENDBRANCH  27  28
ENDBRANCH   1  27
BRANCH   6  31
HETATM   31  N2  UNL     1      22.600  15.981  38.646  1.00  0.00    -0.074 N 
ATOM     32  H23 UNL     1      21.699  15.570  38.400  1.00  0.00     0.274 HD
ATOM     33  H22 UNL     1      22.602  16.720  37.943  1.00  0.00     0.274 HD
ATOM     34  H21 UNL     1      23.378  15.330  38.546  1.00  0.00     0.274 HD
ENDBRANCH   6  31
BRANCH   2  35
HETATM   35  O2  UNL     1      26.260  14.882  40.073  1.00  0.00    -0.391 OA
ATOM     36  H2  UNL     1      26.726  15.272  39.343  1.00  0.00     0.210 HD
ENDBRANCH   2  35
BRANCH   3  37
HETATM   37  N1  UNL     1      26.065  17.698  39.417  1.00  0.00    -0.354 N 
HETATM   38  C7  UNL     1      26.896  17.590  38.275  1.00  0.00     0.214 C 
HETATM   39  C8  UNL     1      28.006  18.501  37.973  1.00  0.00     0.117 C 
HETATM   40  O3  UNL     1      26.660  16.640  37.468  1.00  0.00    -0.274 OA
ATOM     41  H1  UNL     1      26.234  18.452  40.083  1.00  0.00     0.163 HD
ENDBRANCH   3  37
TORSDOF 12
ENDMDL
MODEL 2
REMARK VINA RESULT: -7.229555388      5.491      9.539
REMARK  12 active torsions:
REMARK  status: ('A' for Active; 'I' for Inactive)
REMARK    1  A    between atoms: C2_2  and  C3_3 
REMARK    2  A    between atoms: C3_3  and  O1_4 
REMARK    3  A    between atoms: O1_4  and  C4_5 
REMARK    4  A    between atoms: C5_6  and  O2_7 
REMARK    5  A    between atoms: C6_9  and  N1_10 
REMARK       I    between atoms: N1_10  and  C7_12 
REMARK    6  A    between atoms: C11_17  and  N2_18 
REMARK    7  A    between atoms: C12_22  and  C13_23 
REMARK       I    between atoms: C13_23  and  N3_25 
REMARK    8  A    between atoms: N3_25  and  C14_27 
REMARK    9  A    between atoms: C14_27  and  C15_28 
REMARK   10  A    between atoms: C15_28  and  C16_29 
REMARK   11  A    between atoms: C16_29  and  N4_30 
REMARK   12  A    between atoms: N7_35  and  N8_37 
ROOT
HETATM    1  C4  UNL     1      18.676  23.066  43.517  1.00  0.00     0.167 C 
HETATM    2  C5  UNL     1      18.652  24.342  42.773  1.00  0.00     0.171 C 
HETATM    3  C6  UNL     1      19.157  25.559  43.452  1.00  0.00     0.121 C 
HETATM    4  C9  UNL     1      20.303  25.204  44.353  1.00  0.00     0.038 C 
HETATM    5  C10 UNL     1      21.456  24.558  43.661  1.00  0.00     0.014 C 
HETATM    6  C11 UNL     1      19.711  24.338  45.445  1.00  0.00     0.204 C 
HETATM    7  C12 UNL     1      19.149  23.051  44.909  1.00  0.00     0.140 C 
ENDROOT
BRANCH   7   8
HETATM    8  C13 UNL     1      20.221  22.023  45.119  1.00  0.00     0.231 C 
HETATM    9  O4  UNL     1      20.935  22.102  46.145  1.00  0.00    -0.273 OA
HETATM   10  N3  UNL     1      20.463  20.966  44.213  1.00  0.00    -0.315 N 
ATOM     11  H3  UNL     1      19.870  20.920  43.384  1.00  0.00     0.170 HD
BRANCH  10  12
HETATM   12  C14 UNL     1      21.452  19.968  44.352  1.00  0.00     0.100 C 
HETATM   13  N7  UNL     1      22.676  20.236  44.088  1.00  0.00    -0.287 N 
ATOM     14  H7  UNL     1      23.394  19.518  44.185  1.00  0.00     0.188 HD
BRANCH  12  15
HETATM   15  C15 UNL     1      21.125  18.604  44.792  1.00  0.00     0.097 C 
BRANCH  15  16
HETATM   16  C16 UNL     1      21.733  17.553  43.877  1.00  0.00     0.129 C 
BRANCH  16  17
HETATM   17  N4  UNL     1      22.427  16.607  44.684  1.00  0.00    -0.366 N 
HETATM   18  C17 UNL     1      21.975  15.413  44.812  1.00  0.00     0.196 C 
HETATM   19  N5  UNL     1      20.784  15.049  44.143  1.00  0.00    -0.067 NA
HETATM   20  N6  UNL     1      22.716  14.526  45.628  1.00  0.00    -0.067 NA
ATOM     21  H4  UNL     1      23.286  16.880  45.161  1.00  0.00     0.161 HD
ENDBRANCH  16  17
ENDBRANCH  15  16
ENDBRANCH  12  15
BRANCH  13  22
HETATM   22  N8  UNL     1      23.015  21.516  43.668  1.00  0.00    -0.275 N 
HETATM   23  C18 UNL     1      23.621  21.693  42.567  1.00  0.00     0.215 C 
HETATM   24  N9  UNL     1      23.999  22.977  42.072  1.00  0.00    -0.065 NA
HETATM   25  N10 UNL     1      23.951  20.563  41.770  1.00  0.00    -0.065 NA
ATOM     26  H8  UNL     1      22.774  22.320  44.250  1.00  0.00     0.189 HD
ENDBRANCH  13  22
ENDBRANCH  10  12
ENDBRANCH   7   8
BRANCH   1  27
HETATM   27  O1  UNL     1      17.347  22.577  43.501  1.00  0.00    -0.379 OA
BRANCH  27  28
HETATM   28  C3  UNL     1      16.927  22.162  44.760  1.00  0.00     0.195 C 
BRANCH  28  29
HETATM   29  C2  UNL     1      16.417  20.783  44.764  1.00  0.00    -0.011 C 
HETATM   30  C1  UNL     1      16.972  19.812  45.518  1.00  0.00     0.009 C 
ENDBRANCH  28  29
ENDBRANCH  27  28
ENDBRANCH   1  27
BRANCH   6  31
HETATM   31  N2  UNL     1      18.689  25.132  46.108  1.00  0.00    -0.074 N 
ATOM     32  H23 UNL     1      19.028  25.601  46.947  1.00  0.00     0.274 HD
ATOM     33  H22 UNL     1      18.431  25.970  45.587  1.00  0.00     0.274 HD
ATOM     34  H21 UNL     1      17.900  24.512  46.285  1.00  0.00     0.274 HD
ENDBRANCH   6  31
BRANCH   2  35
HETATM   35  O2  UNL     1      17.365  24.675  42.276  1.00  0.00    -0.391 OA
ATOM     36  H2  UNL     1      17.349  25.498  41.802  1.00  0.00     0.210 HD
ENDBRANCH   2  35
BRANCH   3  37
HETATM   37  N1  UNL     1      19.529  26.584  42.538  1.00  0.00    -0.354 N 
HETATM   38  C7  UNL     1      19.135  27.931  42.720  1.00  0.00     0.214 C 
HETATM   39  C8  UNL     1      19.489  29.026  41.810  1.00  0.00     0.117 C 
HETATM   40  O3  UNL     1      18.428  28.200  43.739  1.00  0.00    -0.274 OA
ATOM     41  H1  UNL     1      20.097  26.339  41.726  1.00  0.00     0.163 HD
ENDBRANCH   3  37
TORSDOF 12
ENDMDL
MODEL 3
REMARK VINA RESULT: -7.021322102      1.577      2.411
REMARK  12 active torsions:
REMARK  status: ('A' for Active; 'I' for Inactive)
REMARK    1  A    between atoms: C2_2  and  C3_3 
REMARK    2  A    between atoms: C3_3  and  O1_4 
REMARK    3  A    between atoms: O1_4  and  C4_5 
REMARK    4  A    between atoms: C5_6  and  O2_7 
REMARK    5  A    between atoms: C6_9  and  N1_10 
REMARK       I    between atoms: N1_10  and  C7_12 
REMARK    6  A    between atoms: C11_17  and  N2_18 
REMARK    7  A    between atoms: C12_22  and  C13_23 
REMARK       I    between atoms: C13_23  and  N3_25 
REMARK    8  A    between atoms: N3_25  and  C14_27 
REMARK    9  A    between atoms: C14_27  and  C15_28 
REMARK   10  A    between atoms: C15_28  and  C16_29 
REMARK   11  A    between atoms: C16_29  and  N4_30 
REMARK   12  A    between atoms: N7_35  and  N8_37 
ROOT
HETATM    1  C4  UNL     1      24.288  15.012  41.685  1.00  0.00     0.167 C 
HETATM    2  C5  UNL     1      25.344  15.709  40.924  1.00  0.00     0.171 C 
HETATM    3  C6  UNL     1      24.934  16.667  39.871  1.00  0.00     0.121 C 
HETATM    4  C9  UNL     1      23.677  17.374  40.285  1.00  0.00     0.038 C 
HETATM    5  C10 UNL     1      23.785  18.127  41.567  1.00  0.00     0.014 C 
HETATM    6  C11 UNL     1      22.601  16.309  40.315  1.00  0.00     0.204 C 
HETATM    7  C12 UNL     1      22.878  15.250  41.345  1.00  0.00     0.140 C 
ENDROOT
BRANCH   7   8
HETATM    8  C13 UNL     1      22.075  15.639  42.551  1.00  0.00     0.231 C 
HETATM    9  O4  UNL     1      22.467  15.263  43.680  1.00  0.00    -0.273 OA
HETATM   10  N3  UNL     1      20.894  16.412  42.475  1.00  0.00    -0.315 N 
ATOM     11  H3  UNL     1      20.593  16.707  41.547  1.00  0.00     0.170 HD
BRANCH  10  12
HETATM   12  C14 UNL     1      20.096  16.812  43.568  1.00  0.00     0.100 C 
HETATM   13  N7  UNL     1      20.476  17.776  44.322  1.00  0.00    -0.287 N 
ATOM     14  H7  UNL     1      19.904  18.068  45.114  1.00  0.00     0.188 HD
BRANCH  12  15
HETATM   15  C15 UNL     1      18.822  16.152  43.885  1.00  0.00     0.097 C 
BRANCH  15  16
HETATM   16  C16 UNL     1      17.664  17.137  43.912  1.00  0.00     0.129 C 
BRANCH  16  17
HETATM   17  N4  UNL     1      17.962  18.149  44.869  1.00  0.00    -0.366 N 
HETATM   18  C17 UNL     1      17.128  19.099  45.085  1.00  0.00     0.196 C 
HETATM   19  N5  UNL     1      15.912  19.128  44.365  1.00  0.00    -0.067 NA
HETATM   20  N6  UNL     1      17.489  20.069  46.049  1.00  0.00    -0.067 NA
ATOM     21  H4  UNL     1      18.842  18.118  45.384  1.00  0.00     0.161 HD
ENDBRANCH  16  17
ENDBRANCH  15  16
ENDBRANCH  12  15
BRANCH  13  22
HETATM   22  N8  UNL     1      21.677  18.418  44.047  1.00  0.00    -0.275 N 
HETATM   23  C18 UNL     1      21.827  19.649  44.321  1.00  0.00     0.215 C 
HETATM   24  N9  UNL     1      23.030  20.373  44.069  1.00  0.00    -0.065 NA
HETATM   25  N10 UNL     1      20.747  20.362  44.911  1.00  0.00    -0.065 NA
ATOM     26  H8  UNL     1      22.444  17.897  43.622  1.00  0.00     0.189 HD
ENDBRANCH  13  22
ENDBRANCH  10  12
ENDBRANCH   7   8
BRANCH   1  27
HETATM   27  O1  UNL     1      24.546  13.627  41.537  1.00  0.00    -0.379 OA
BRANCH  27  28
HETATM   28  C3  UNL     1      24.563  12.964  42.759  1.00  0.00     0.195 C 
BRANCH  28  29
HETATM   29  C2  UNL     1      25.917  12.830  43.316  1.00  0.00    -0.011 C 
HETATM   30  C1  UNL     1      26.965  12.424  42.571  1.00  0.00     0.009 C 
ENDBRANCH  28  29
ENDBRANCH  27  28
ENDBRANCH   1  27
BRANCH   6  31
HETATM   31  N2  UNL     1      22.525  15.746  38.977  1.00  0.00    -0.074 N 
ATOM     32  H23 UNL     1      23.430  15.445  38.616  1.00  0.00     0.274 HD
ATOM     33  H22 UNL     1      22.066  14.836  38.949  1.00  0.00     0.274 HD
ATOM     34  H21 UNL     1      22.070  16.442  38.387  1.00  0.00     0.274 HD
ENDBRANCH   6  31
BRANCH   2  35
HETATM   35  O2  UNL     1      26.268  14.823  40.311  1.00  0.00    -0.391 OA
ATOM     36  H2  UNL     1      25.859  14.221  39.700  1.00  0.00     0.210 HD
ENDBRANCH   2  35
BRANCH   3  37
HETATM   37  N1  UNL     1      25.958  17.601  39.549  1.00  0.00    -0.354 N 
HETATM   38  C7  UNL     1      26.736  17.485  38.372  1.00  0.00     0.214 C 
HETATM   39  C8  UNL     1      27.804  18.417  37.991  1.00  0.00     0.117 C 
HETATM   40  O3  UNL     1      26.489  16.506  37.603  1.00  0.00    -0.274 OA
ATOM     41  H1  UNL     1      26.136  18.378  40.186  1.00  0.00     0.163 HD
ENDBRANCH   3  37
TORSDOF 12
ENDMDL
MODEL 4
REMARK VINA RESULT: -6.924097220      2.679      4.994
REMARK  12 active torsions:
REMARK  status: ('A' for Active; 'I' for Inactive)
REMARK    1  A    between atoms: C2_2  and  C3_3 
REMARK    2  A    between atoms: C3_3  and  O1_4 
REMARK    3  A    between atoms: O1_4  and  C4_5 
REMARK    4  A    between atoms: C5_6  and  O2_7 
REMARK    5  A    between atoms: C6_9  and  N1_10 
REMARK       I    between atoms: N1_10  and  C7_12 
REMARK    6  A    between atoms: C11_17  and  N2_18 
REMARK    7  A    between atoms: C12_22  and  C13_23 
REMARK       I    between atoms: C13_23  and  N3_25 
REMARK    8  A    between atoms: N3_25  and  C14_27 
REMARK    9  A    between atoms: C14_27  and  C15_28 
REMARK   10  A    between atoms: C15_28  and  C16_29 
REMARK   11  A    between atoms: C16_29  and  N4_30 
REMARK   12  A    between atoms: N7_35  and  N8_37 
ROOT
HETATM    1  C4  UNL     1      23.994  17.471  37.388  1.00  0.00     0.167 C 
HETATM    2  C5  UNL     1      25.408  17.674  37.014  1.00  0.00     0.171 C 
HETATM    3  C6  UNL     1      26.341  18.185  38.046  1.00  0.00     0.121 C 
HETATM    4  C9  UNL     1      25.963  17.639  39.392  1.00  0.00     0.038 C 
HETATM    5  C10 UNL     1      25.961  16.151  39.477  1.00  0.00     0.014 C 
HETATM    6  C11 UNL     1      24.616  18.250  39.715  1.00  0.00     0.204 C 
HETATM    7  C12 UNL     1      23.550  17.824  38.745  1.00  0.00     0.140 C 
ENDROOT
BRANCH   7   8
HETATM    8  C13 UNL     1      22.832  16.685  39.407  1.00  0.00     0.231 C 
HETATM    9  O4  UNL     1      22.200  15.876  38.689  1.00  0.00    -0.273 OA
HETATM   10  N3  UNL     1      22.835  16.481  40.805  1.00  0.00    -0.315 N 
ATOM     11  H3  UNL     1      23.355  17.152  41.371  1.00  0.00     0.170 HD
BRANCH  10  12
HETATM   12  C14 UNL     1      22.183  15.432  41.489  1.00  0.00     0.100 C 
HETATM   13  N7  UNL     1      22.670  14.247  41.461  1.00  0.00    -0.287 N 
ATOM     14  H7  UNL     1      22.202  13.486  41.952  1.00  0.00     0.188 HD
BRANCH  12  15
HETATM   15  C15 UNL     1      20.941  15.648  42.244  1.00  0.00     0.097 C 
BRANCH  15  16
HETATM   16  C16 UNL     1      21.196  16.366  43.560  1.00  0.00     0.129 C 
BRANCH  16  17
HETATM   17  N4  UNL     1      22.193  15.643  44.276  1.00  0.00    -0.366 N 
HETATM   18  C17 UNL     1      21.893  15.036  45.365  1.00  0.00     0.196 C 
HETATM   19  N5  UNL     1      20.565  15.090  45.844  1.00  0.00    -0.067 NA
HETATM   20  N6  UNL     1      22.934  14.338  46.023  1.00  0.00    -0.067 NA
ATOM     21  H4  UNL     1      23.149  15.609  43.921  1.00  0.00     0.161 HD
ENDBRANCH  16  17
ENDBRANCH  15  16
ENDBRANCH  12  15
BRANCH  13  22
HETATM   22  N8  UNL     1      23.842  14.013  40.753  1.00  0.00    -0.275 N 
HETATM   23  C18 UNL     1      24.757  13.283  41.247  1.00  0.00     0.215 C 
HETATM   24  N9  UNL     1      25.985  12.998  40.578  1.00  0.00    -0.065 NA
HETATM   25  N10 UNL     1      24.566  12.711  42.534  1.00  0.00    -0.065 NA
ATOM     26  H8  UNL     1      23.969  14.430  39.831  1.00  0.00     0.189 HD
ENDBRANCH  13  22
ENDBRANCH  10  12
ENDBRANCH   7   8
BRANCH   1  27
HETATM   27  O1  UNL     1      23.231  18.228  36.467  1.00  0.00    -0.379 OA
BRANCH  27  28
HETATM   28  C3  UNL     1      22.439  19.181  37.100  1.00  0.00     0.195 C 
BRANCH  28  29
HETATM   29  C2  UNL     1      21.254  19.551  36.313  1.00  0.00    -0.011 C 
HETATM   30  C1  UNL     1      21.335  19.917  35.018  1.00  0.00     0.009 C 
ENDBRANCH  28  29
ENDBRANCH  27  28
ENDBRANCH   1  27
BRANCH   6  31
HETATM   31  N2  UNL     1      24.794  19.694  39.713  1.00  0.00    -0.074 N 
ATOM     32  H23 UNL     1      25.459  20.017  40.415  1.00  0.00     0.274 HD
ATOM     33  H22 UNL     1      25.295  20.035  38.893  1.00  0.00     0.274 HD
ATOM     34  H21 UNL     1      23.868  20.107  39.818  1.00  0.00     0.274 HD
ENDBRANCH   6  31
BRANCH   2  35
HETATM   35  O2  UNL     1      25.571  18.519  35.884  1.00  0.00    -0.391 OA
ATOM     36  H2  UNL     1      26.302  18.267  35.332  1.00  0.00     0.210 HD
ENDBRANCH   2  35
BRANCH   3  37
HETATM   37  N1  UNL     1      27.702  17.897  37.747  1.00  0.00    -0.354 N 
HETATM   38  C7  UNL     1      28.758  18.734  38.180  1.00  0.00     0.214 C 
HETATM   39  C8  UNL     1      30.177  18.486  37.900  1.00  0.00     0.117 C 
HETATM   40  O3  UNL     1      28.449  19.765  38.852  1.00  0.00    -0.274 OA
ATOM     41  H1  UNL     1      27.923  17.062  37.203  1.00  0.00     0.163 HD
ENDBRANCH   3  37
TORSDOF 12
ENDMDL
MODEL 5
REMARK VINA RESULT: -6.825560332      1.513      2.105
REMARK  12 active torsions:
REMARK  status: ('A' for Active; 'I' for Inactive)
REMARK    1  A    between atoms: C2_2  and  C3_3 
REMARK    2  A    between atoms: C3_3  and  O1_4 
REMARK    3  A    between atoms: O1_4  and  C4_5 
REMARK    4  A    between atoms: C5_6  and  O2_7 
REMARK    5  A    between atoms: C6_9  and  N1_10 
REMARK       I    between atoms: N1_10  and  C7_12 
REMARK    6  A    between atoms: C11_17  and  N2_18 
REMARK    7  A    between atoms: C12_22  and  C13_23 
REMARK       I    between atoms: C13_23  and  N3_25 
REMARK    8  A    between atoms: N3_25  and  C14_27 
REMARK    9  A    between atoms: C14_27  and  C15_28 
REMARK   10  A    between atoms: C15_28  and  C16_29 
REMARK   11  A    between atoms: C16_29  and  N4_30 
REMARK   12  A    between atoms: N7_35  and  N8_37 
ROOT
HETATM    1  C4  UNL     1      24.405  15.560  41.355  1.00  0.00     0.167 C 
HETATM    2  C5  UNL     1      25.520  16.071  40.534  1.00  0.00     0.171 C 
HETATM    3  C6  UNL     1      25.199  16.933  39.372  1.00  0.00     0.121 C 
HETATM    4  C9  UNL     1      24.007  17.789  39.685  1.00  0.00     0.038 C 
HETATM    5  C10 UNL     1      24.175  18.673  40.874  1.00  0.00     0.014 C 
HETATM    6  C11 UNL     1      22.842  16.831  39.823  1.00  0.00     0.204 C 
HETATM    7  C12 UNL     1      23.022  15.879  40.971  1.00  0.00     0.140 C 
ENDROOT
BRANCH   7   8
HETATM    8  C13 UNL     1      22.251  16.472  42.114  1.00  0.00     0.231 C 
HETATM    9  O4  UNL     1      21.090  16.056  42.335  1.00  0.00    -0.273 OA
HETATM   10  N3  UNL     1      22.774  17.481  42.954  1.00  0.00    -0.315 N 
ATOM     11  H3  UNL     1      23.720  17.805  42.756  1.00  0.00     0.170 HD
BRANCH  10  12
HETATM   12  C14 UNL     1      22.104  18.079  44.043  1.00  0.00     0.100 C 
HETATM   13  N7  UNL     1      22.031  17.466  45.167  1.00  0.00    -0.287 N 
ATOM     14  H7  UNL     1      21.548  17.893  45.956  1.00  0.00     0.188 HD
BRANCH  12  15
HETATM   15  C15 UNL     1      21.470  19.400  43.938  1.00  0.00     0.097 C 
BRANCH  15  16
HETATM   16  C16 UNL     1      21.213  20.016  45.304  1.00  0.00     0.129 C 
BRANCH  16  17
HETATM   17  N4  UNL     1      22.044  21.164  45.439  1.00  0.00    -0.366 N 
HETATM   18  C17 UNL     1      23.095  21.117  46.174  1.00  0.00     0.196 C 
HETATM   19  N5  UNL     1      23.417  19.916  46.844  1.00  0.00    -0.067 NA
HETATM   20  N6  UNL     1      23.874  22.295  46.262  1.00  0.00    -0.067 NA
ATOM     21  H4  UNL     1      21.804  22.026  44.950  1.00  0.00     0.161 HD
ENDBRANCH  16  17
ENDBRANCH  15  16
ENDBRANCH  12  15
BRANCH  13  22
HETATM   22  N8  UNL     1      22.620  16.214  45.296  1.00  0.00    -0.275 N 
HETATM   23  C18 UNL     1      21.909  15.191  45.542  1.00  0.00     0.215 C 
HETATM   24  N9  UNL     1      22.444  13.876  45.686  1.00  0.00    -0.065 NA
HETATM   25  N10 UNL     1      20.503  15.344  45.686  1.00  0.00    -0.065 NA
ATOM     26  H8  UNL     1      23.630  16.117  45.192  1.00  0.00     0.189 HD
ENDBRANCH  13  22
ENDBRANCH  10  12
ENDBRANCH   7   8
BRANCH   1  27
HETATM   27  O1  UNL     1      24.541  14.151  41.371  1.00  0.00    -0.379 OA
BRANCH  27  28
HETATM   28  C3  UNL     1      24.097  13.595  42.566  1.00  0.00     0.195 C 
BRANCH  28  29
HETATM   29  C2  UNL     1      25.196  13.091  43.403  1.00  0.00    -0.011 C 
HETATM   30  C1  UNL     1      26.393  12.745  42.888  1.00  0.00     0.009 C 
ENDBRANCH  28  29
ENDBRANCH  27  28
ENDBRANCH   1  27
BRANCH   6  31
HETATM   31  N2  UNL     1      22.722  16.126  38.557  1.00  0.00    -0.074 N 
ATOM     32  H23 UNL     1      23.622  15.945  38.112  1.00  0.00     0.274 HD
ATOM     33  H22 UNL     1      22.434  15.153  38.665  1.00  0.00     0.274 HD
ATOM     34  H21 UNL     1      22.088  16.670  37.973  1.00  0.00     0.274 HD
ENDBRANCH   6  31
BRANCH   2  35
HETATM   35  O2  UNL     1      26.366  15.044  40.039  1.00  0.00    -0.391 OA
ATOM     36  H2  UNL     1      27.187  15.372  39.691  1.00  0.00     0.210 HD
ENDBRANCH   2  35
BRANCH   3  37
HETATM   37  N1  UNL     1      26.301  17.732  38.959  1.00  0.00    -0.354 N 
HETATM   38  C7  UNL     1      27.079  17.407  37.822  1.00  0.00     0.214 C 
HETATM   39  C8  UNL     1      28.225  18.193  37.352  1.00  0.00     0.117 C 
HETATM   40  O3  UNL     1      26.757  16.365  37.173  1.00  0.00    -0.274 OA
ATOM     41  H1  UNL     1      26.539  18.564  39.500  1.00  0.00     0.163 HD
ENDBRANCH   3  37
TORSDOF 12
ENDMDL
