MODEL 1
REMARK VINA RESULT: -7.036054115      0.000      0.000
REMARK  10 active torsions:
REMARK  status: ('A' for Active; 'I' for Inactive)
REMARK    1  A    between atoms: O1_2  and  C2_3 
REMARK    2  A    between atoms: C2_3  and  C3_4 
REMARK    3  A    between atoms: C3_4  and  N1_5 
REMARK       I    between atoms: N2_8  and  C6_9 
REMARK       I    between atoms: C6_9  and  N3_11 
REMARK    4  A    between atoms: N3_11  and  C7_13 
REMARK       I    between atoms: N4_16  and  C10_17 
REMARK       I    between atoms: C10_17  and  N5_19 
REMARK    5  A    between atoms: N5_19  and  C11_21 
REMARK    6  A    between atoms: C11_21  and  C12_22 
REMARK    7  A    between atoms: C12_22  and  N6_23 
REMARK    8  A    between atoms: N6_23  and  N7_24 
REMARK       I    between atoms: N7_24  and  C13_26 
REMARK    9  A    between atoms: C14_31  and  O4_32 
REMARK   10  A    between atoms: C15_34  and  C16_35 
ROOT
HETATM    1  C7  UNL     1      21.442  19.496  45.120  1.00  0.00     0.136 C 
HETATM    2  C8  UNL     1      22.388  20.323  45.989  1.00  0.00     0.049 C 
HETATM    3  C9  UNL     1      22.400  21.658  45.328  1.00  0.00     0.132 C 
HETATM    4  N4  UNL     1      21.166  21.756  44.604  1.00  0.00    -0.305 N 
HETATM    5  C10 UNL     1      20.679  22.944  43.954  1.00  0.00     0.320 C 
HETATM    6  O3  UNL     1      21.378  23.989  44.008  1.00  0.00    -0.247 OA
HETATM    7  N5  UNL     1      19.431  22.899  43.280  1.00  0.00    -0.342 N 
ATOM      8  H5  UNL     1      18.889  22.035  43.256  1.00  0.00     0.164 HD
HETATM    9  C14 UNL     1      20.477  20.504  44.613  1.00  0.00     0.247 C 
ENDROOT
BRANCH   1  10
HETATM   10  N3  UNL     1      22.242  18.884  44.085  1.00  0.00    -0.334 N 
HETATM   11  C6  UNL     1      21.957  17.560  43.665  1.00  0.00     0.319 C 
HETATM   12  N2  UNL     1      22.697  16.923  42.671  1.00  0.00    -0.318 N 
HETATM   13  O2  UNL     1      20.972  17.030  44.284  1.00  0.00    -0.247 OA
HETATM   14  C5  UNL     1      23.761  17.679  41.965  1.00  0.00     0.158 C 
HETATM   15  C15 UNL     1      22.570  15.592  42.184  1.00  0.00     0.206 C 
HETATM   16  C4  UNL     1      23.855  17.139  40.540  1.00  0.00     0.292 C 
HETATM   17  N1  UNL     1      22.613  16.719  40.027  1.00  0.00     0.094 N 
HETATM   18  C17 UNL     1      21.934  15.711  40.810  1.00  0.00     0.307 C 
ATOM     19  H3  UNL     1      23.009  19.403  43.656  1.00  0.00     0.164 HD
BRANCH  17  20
HETATM   20  C3  UNL     1      22.530  16.408  38.660  1.00  0.00     0.298 C 
BRANCH  20  21
HETATM   21  C2  UNL     1      22.652  17.514  37.678  1.00  0.00     0.197 C 
BRANCH  21  22
HETATM   22  O1  UNL     1      21.494  18.087  37.233  1.00  0.00    -0.394 OA
HETATM   23  C1  UNL     1      21.578  19.395  36.823  1.00  0.00     0.201 C 
ENDBRANCH  21  22
ENDBRANCH  20  21
ENDBRANCH  17  20
BRANCH  15  24
HETATM   24  C16 UNL     1      21.917  14.555  42.953  1.00  0.00     0.256 C 
HETATM   25  N10 UNL     1      22.597  13.938  44.088  1.00  0.00    -0.060 NA
HETATM   26  O5  UNL     1      20.777  14.118  42.730  1.00  0.00    -0.275 OA
ENDBRANCH  15  24
ENDBRANCH   1  10
BRANCH   9  27
HETATM   27  O4  UNL     1      19.303  20.566  45.369  1.00  0.00    -0.374 OA
ATOM     28  H4  UNL     1      18.517  20.525  44.838  1.00  0.00     0.212 HD
ENDBRANCH   9  27
BRANCH   7  29
HETATM   29  C11 UNL     1      18.938  24.088  42.630  1.00  0.00     0.142 C 
BRANCH  29  30
HETATM   30  C12 UNL     1      18.046  24.842  43.558  1.00  0.00     0.154 C 
BRANCH  30  31
HETATM   31  N6  UNL     1      16.663  24.488  43.478  1.00  0.00    -0.137 NA
BRANCH  31  32
HETATM   32  N7  UNL     1      16.197  23.905  44.652  1.00  0.00    -0.278 N 
HETATM   33  C13 UNL     1      16.708  22.736  45.249  1.00  0.00     0.197 C 
HETATM   34  N8  UNL     1      17.138  22.751  46.477  1.00  0.00    -0.373 N 
HETATM   35  N9  UNL     1      16.738  21.548  44.484  1.00  0.00    -0.063 NA
ATOM     36  H82 UNL     1      17.116  23.609  47.029  1.00  0.00     0.158 HD
ATOM     37  H81 UNL     1      17.509  21.905  46.909  1.00  0.00     0.158 HD
ATOM     38  H7  UNL     1      15.416  24.364  45.122  1.00  0.00     0.185 HD
ENDBRANCH  31  32
ENDBRANCH  30  31
ENDBRANCH  29  30
ENDBRANCH   7  29
TORSDOF 10
ENDMDL
MODEL 2
REMARK VINA RESULT: -6.956328678      1.469      1.780
REMARK  10 active torsions:
REMARK  status: ('A' for Active; 'I' for Inactive)
REMARK    1  A    between atoms: O1_2  and  C2_3 
REMARK    2  A    between atoms: C2_3  and  C3_4 
REMARK    3  A    between atoms: C3_4  and  N1_5 
REMARK       I    between atoms: N2_8  and  C6_9 
REMARK       I    between atoms: C6_9  and  N3_11 
REMARK    4  A    between atoms: N3_11  and  C7_13 
REMARK       I    between atoms: N4_16  and  C10_17 
REMARK       I    between atoms: C10_17  and  N5_19 
REMARK    5  A    between atoms: N5_19  and  C11_21 
REMARK    6  A    between atoms: C11_21  and  C12_22 
REMARK    7  A    between atoms: C12_22  and  N6_23 
REMARK    8  A    between atoms: N6_23  and  N7_24 
REMARK       I    between atoms: N7_24  and  C13_26 
REMARK    9  A    between atoms: C14_31  and  O4_32 
REMARK   10  A    between atoms: C15_34  and  C16_35 
ROOT
HETATM    1  C7  UNL     1      20.746  20.320  44.878  1.00  0.00     0.136 C 
HETATM    2  C8  UNL     1      21.462  20.621  46.194  1.00  0.00     0.049 C 
HETATM    3  C9  UNL     1      22.220  21.872  45.905  1.00  0.00     0.132 C 
HETATM    4  N4  UNL     1      21.527  22.519  44.829  1.00  0.00    -0.305 N 
HETATM    5  C10 UNL     1      21.810  23.842  44.339  1.00  0.00     0.320 C 
HETATM    6  O3  UNL     1      22.740  24.497  44.877  1.00  0.00    -0.247 OA
HETATM    7  N5  UNL     1      21.034  24.361  43.270  1.00  0.00    -0.342 N 
ATOM      8  H5  UNL     1      20.287  23.803  42.856  1.00  0.00     0.164 HD
HETATM    9  C14 UNL     1      20.507  21.667  44.304  1.00  0.00     0.247 C 
ENDROOT
BRANCH   1  10
HETATM   10  N3  UNL     1      21.635  19.500  44.089  1.00  0.00    -0.334 N 
HETATM   11  C6  UNL     1      21.408  18.104  43.996  1.00  0.00     0.319 C 
HETATM   12  N2  UNL     1      22.235  17.267  43.248  1.00  0.00    -0.318 N 
HETATM   13  O2  UNL     1      20.389  17.707  44.658  1.00  0.00    -0.247 OA
HETATM   14  C5  UNL     1      23.337  17.863  42.451  1.00  0.00     0.158 C 
HETATM   15  C15 UNL     1      22.171  15.853  43.103  1.00  0.00     0.206 C 
HETATM   16  C4  UNL     1      23.551  16.990  41.217  1.00  0.00     0.292 C 
HETATM   17  N1  UNL     1      22.360  16.409  40.741  1.00  0.00     0.094 N 
HETATM   18  C17 UNL     1      21.641  15.602  41.702  1.00  0.00     0.307 C 
ATOM     19  H3  UNL     1      22.423  19.924  43.599  1.00  0.00     0.164 HD
BRANCH  17  20
HETATM   20  C3  UNL     1      22.389  15.765  39.493  1.00  0.00     0.298 C 
BRANCH  20  21
HETATM   21  C2  UNL     1      22.847  16.538  38.312  1.00  0.00     0.197 C 
BRANCH  21  22
HETATM   22  O1  UNL     1      21.949  17.388  37.732  1.00  0.00    -0.394 OA
HETATM   23  C1  UNL     1      22.448  18.576  37.260  1.00  0.00     0.201 C 
ENDBRANCH  21  22
ENDBRANCH  20  21
ENDBRANCH  17  20
BRANCH  15  24
HETATM   24  C16 UNL     1      21.481  15.016  44.060  1.00  0.00     0.256 C 
HETATM   25  N10 UNL     1      22.042  14.796  45.390  1.00  0.00    -0.060 NA
HETATM   26  O5  UNL     1      20.403  14.438  43.849  1.00  0.00    -0.275 OA
ENDBRANCH  15  24
ENDBRANCH   1  10
BRANCH   9  27
HETATM   27  O4  UNL     1      19.228  22.160  44.581  1.00  0.00    -0.374 OA
ATOM     28  H4  UNL     1      18.991  22.903  44.039  1.00  0.00     0.212 HD
ENDBRANCH   9  27
BRANCH   7  29
HETATM   29  C11 UNL     1      21.313  25.688  42.777  1.00  0.00     0.142 C 
BRANCH  29  30
HETATM   30  C12 UNL     1      20.040  26.375  42.416  1.00  0.00     0.154 C 
BRANCH  30  31
HETATM   31  N6  UNL     1      19.107  26.510  43.491  1.00  0.00    -0.137 NA
BRANCH  31  32
HETATM   32  N7  UNL     1      17.808  26.189  43.109  1.00  0.00    -0.278 N 
HETATM   33  C13 UNL     1      17.172  24.950  43.318  1.00  0.00     0.197 C 
HETATM   34  N8  UNL     1      16.049  24.882  43.971  1.00  0.00    -0.373 N 
HETATM   35  N9  UNL     1      17.782  23.786  42.798  1.00  0.00    -0.063 NA
ATOM     36  H82 UNL     1      15.609  25.723  44.346  1.00  0.00     0.158 HD
ATOM     37  H81 UNL     1      15.588  23.984  44.123  1.00  0.00     0.158 HD
ATOM     38  H7  UNL     1      17.268  26.915  42.637  1.00  0.00     0.185 HD
ENDBRANCH  31  32
ENDBRANCH  30  31
ENDBRANCH  29  30
ENDBRANCH   7  29
TORSDOF 10
ENDMDL
MODEL 3
REMARK VINA RESULT: -6.777578108      5.102     10.184
REMARK  10 active torsions:
REMARK  status: ('A' for Active; 'I' for Inactive)
REMARK    1  A    between atoms: O1_2  and  C2_3 
REMARK    2  A    between atoms: C2_3  and  C3_4 
REMARK    3  A    between atoms: C3_4  and  N1_5 
REMARK       I    between atoms: N2_8  and  C6_9 
REMARK       I    between atoms: C6_9  and  N3_11 
REMARK    4  A    between atoms: N3_11  and  C7_13 
REMARK       I    between atoms: N4_16  and  C10_17 
REMARK       I    between atoms: C10_17  and  N5_19 
REMARK    5  A    between atoms: N5_19  and  C11_21 
REMARK    6  A    between atoms: C11_21  and  C12_22 
REMARK    7  A    between atoms: C12_22  and  N6_23 
REMARK    8  A    between atoms: N6_23  and  N7_24 
REMARK       I    between atoms: N7_24  and  C13_26 
REMARK    9  A    between atoms: C14_31  and  O4_32 
REMARK   10  A    between atoms: C15_34  and  C16_35 
ROOT
HETATM    1  C7  UNL     1      24.197  16.812  40.226  1.00  0.00     0.136 C 
HETATM    2  C8  UNL     1      23.422  16.993  38.922  1.00  0.00     0.049 C 
HETATM    3  C9  UNL     1      24.202  18.029  38.188  1.00  0.00     0.132 C 
HETATM    4  N4  UNL     1      25.541  17.957  38.699  1.00  0.00    -0.305 N 
HETATM    5  C10 UNL     1      26.672  18.661  38.157  1.00  0.00     0.320 C 
HETATM    6  O3  UNL     1      26.496  19.410  37.161  1.00  0.00    -0.247 OA
HETATM    7  N5  UNL     1      27.946  18.487  38.760  1.00  0.00    -0.342 N 
ATOM      8  H5  UNL     1      28.054  17.873  39.567  1.00  0.00     0.164 HD
HETATM    9  C14 UNL     1      25.601  17.085  39.829  1.00  0.00     0.247 C 
ENDROOT
BRANCH   1  10
HETATM   10  N3  UNL     1      23.665  17.765  41.173  1.00  0.00    -0.334 N 
HETATM   11  C6  UNL     1      22.915  17.307  42.285  1.00  0.00     0.319 C 
HETATM   12  N2  UNL     1      22.380  18.183  43.229  1.00  0.00    -0.318 N 
HETATM   13  O2  UNL     1      22.787  16.036  42.327  1.00  0.00    -0.247 OA
HETATM   14  C5  UNL     1      22.674  19.633  43.117  1.00  0.00     0.158 C 
HETATM   15  C15 UNL     1      21.566  17.884  44.357  1.00  0.00     0.206 C 
HETATM   16  C4  UNL     1      22.695  20.218  44.528  1.00  0.00     0.292 C 
HETATM   17  N1  UNL     1      23.177  19.313  45.492  1.00  0.00     0.094 N 
HETATM   18  C17 UNL     1      22.461  18.060  45.572  1.00  0.00     0.307 C 
ATOM     19  H3  UNL     1      23.829  18.763  41.042  1.00  0.00     0.164 HD
BRANCH  17  20
HETATM   20  C3  UNL     1      23.448  19.799  46.781  1.00  0.00     0.298 C 
BRANCH  20  21
HETATM   21  C2  UNL     1      22.530  20.813  47.360  1.00  0.00     0.197 C 
BRANCH  21  22
HETATM   22  O1  UNL     1      23.056  22.038  47.656  1.00  0.00    -0.394 OA
HETATM   23  C1  UNL     1      22.587  23.098  46.919  1.00  0.00     0.201 C 
ENDBRANCH  21  22
ENDBRANCH  20  21
ENDBRANCH  17  20
BRANCH  15  24
HETATM   24  C16 UNL     1      20.818  16.650  44.456  1.00  0.00     0.256 C 
HETATM   25  N10 UNL     1      19.621  16.444  43.647  1.00  0.00    -0.060 NA
HETATM   26  O5  UNL     1      21.112  15.700  45.201  1.00  0.00    -0.275 OA
ENDBRANCH  15  24
ENDBRANCH   1  10
BRANCH   9  27
HETATM   27  O4  UNL     1      26.325  15.922  39.546  1.00  0.00    -0.374 OA
ATOM     28  H4  UNL     1      27.151  15.877  40.010  1.00  0.00     0.212 HD
ENDBRANCH   9  27
BRANCH   7  29
HETATM   29  C11 UNL     1      29.084  19.189  38.218  1.00  0.00     0.142 C 
BRANCH  29  30
HETATM   30  C12 UNL     1      30.060  18.215  37.652  1.00  0.00     0.154 C 
BRANCH  30  31
HETATM   31  N6  UNL     1      31.086  17.801  38.557  1.00  0.00    -0.137 NA
BRANCH  31  32
HETATM   32  N7  UNL     1      32.137  18.712  38.619  1.00  0.00    -0.278 N 
HETATM   33  C13 UNL     1      33.506  18.385  38.676  1.00  0.00     0.197 C 
HETATM   34  N8  UNL     1      34.335  18.841  37.784  1.00  0.00    -0.373 N 
HETATM   35  N9  UNL     1      33.955  17.553  39.727  1.00  0.00    -0.063 NA
ATOM     36  H82 UNL     1      34.011  19.441  37.025  1.00  0.00     0.158 HD
ATOM     37  H81 UNL     1      35.327  18.604  37.825  1.00  0.00     0.158 HD
ATOM     38  H7  UNL     1      31.895  19.703  38.623  1.00  0.00     0.185 HD
ENDBRANCH  31  32
ENDBRANCH  30  31
ENDBRANCH  29  30
ENDBRANCH   7  29
TORSDOF 10
ENDMDL
MODEL 4
REMARK VINA RESULT: -6.628174498      1.425      2.248
REMARK  10 active torsions:
REMARK  status: ('A' for Active; 'I' for Inactive)
REMARK    1  A    between atoms: O1_2  and  C2_3 
REMARK    2  A    between atoms: C2_3  and  C3_4 
REMARK    3  A    between atoms: C3_4  and  N1_5 
REMARK       I    between atoms: N2_8  and  C6_9 
REMARK       I    between atoms: C6_9  and  N3_11 
REMARK    4  A    between atoms: N3_11  and  C7_13 
REMARK       I    between atoms: N4_16  and  C10_17 
REMARK       I    between atoms: C10_17  and  N5_19 
REMARK    5  A    between atoms: N5_19  and  C11_21 
REMARK    6  A    between atoms: C11_21  and  C12_22 
REMARK    7  A    between atoms: C12_22  and  N6_23 
REMARK    8  A    between atoms: N6_23  and  N7_24 
REMARK       I    between atoms: N7_24  and  C13_26 
REMARK    9  A    between atoms: C14_31  and  O4_32 
REMARK   10  A    between atoms: C15_34  and  C16_35 
ROOT
HETATM    1  C7  UNL     1      21.462  19.457  45.098  1.00  0.00     0.136 C 
HETATM    2  C8  UNL     1      22.404  20.274  45.979  1.00  0.00     0.049 C 
HETATM    3  C9  UNL     1      22.406  21.621  45.341  1.00  0.00     0.132 C 
HETATM    4  N4  UNL     1      21.170  21.723  44.621  1.00  0.00    -0.305 N 
HETATM    5  C10 UNL     1      20.674  22.919  43.993  1.00  0.00     0.320 C 
HETATM    6  O3  UNL     1      21.366  23.967  44.062  1.00  0.00    -0.247 OA
HETATM    7  N5  UNL     1      19.424  22.876  43.321  1.00  0.00    -0.342 N 
ATOM      8  H5  UNL     1      18.888  22.010  43.283  1.00  0.00     0.164 HD
HETATM    9  C14 UNL     1      20.490  20.467  44.610  1.00  0.00     0.247 C 
ENDROOT
BRANCH   1  10
HETATM   10  N3  UNL     1      22.263  18.867  44.051  1.00  0.00    -0.334 N 
HETATM   11  C6  UNL     1      21.994  17.544  43.619  1.00  0.00     0.319 C 
HETATM   12  N2  UNL     1      22.736  16.928  42.612  1.00  0.00    -0.318 N 
HETATM   13  O2  UNL     1      21.021  16.993  44.238  1.00  0.00    -0.247 OA
HETATM   14  C5  UNL     1      23.785  17.707  41.908  1.00  0.00     0.158 C 
HETATM   15  C15 UNL     1      22.625  15.601  42.112  1.00  0.00     0.206 C 
HETATM   16  C4  UNL     1      23.877  17.185  40.476  1.00  0.00     0.292 C 
HETATM   17  N1  UNL     1      22.637  16.752  39.967  1.00  0.00     0.094 N 
HETATM   18  C17 UNL     1      21.977  15.726  40.743  1.00  0.00     0.307 C 
ATOM     19  H3  UNL     1      23.020  19.401  43.623  1.00  0.00     0.164 HD
BRANCH  17  20
HETATM   20  C3  UNL     1      22.549  16.455  38.597  1.00  0.00     0.298 C 
BRANCH  20  21
HETATM   21  C2  UNL     1      22.643  17.574  37.627  1.00  0.00     0.197 C 
BRANCH  21  22
HETATM   22  O1  UNL     1      21.475  18.166  37.238  1.00  0.00    -0.394 OA
HETATM   23  C1  UNL     1      21.575  19.438  36.729  1.00  0.00     0.201 C 
ENDBRANCH  21  22
ENDBRANCH  20  21
ENDBRANCH  17  20
BRANCH  15  24
HETATM   24  C16 UNL     1      21.992  14.546  42.874  1.00  0.00     0.256 C 
HETATM   25  N10 UNL     1      22.713  13.880  43.954  1.00  0.00    -0.060 NA
HETATM   26  O5  UNL     1      20.836  14.133  42.689  1.00  0.00    -0.275 OA
ENDBRANCH  15  24
ENDBRANCH   1  10
BRANCH   9  27
HETATM   27  O4  UNL     1      19.317  20.508  45.370  1.00  0.00    -0.374 OA
ATOM     28  H4  UNL     1      18.615  20.984  44.944  1.00  0.00     0.212 HD
ENDBRANCH   9  27
BRANCH   7  29
HETATM   29  C11 UNL     1      18.922  24.074  42.692  1.00  0.00     0.142 C 
BRANCH  29  30
HETATM   30  C12 UNL     1      17.648  24.495  43.344  1.00  0.00     0.154 C 
BRANCH  30  31
HETATM   31  N6  UNL     1      17.691  25.781  43.965  1.00  0.00    -0.137 NA
BRANCH  31  32
HETATM   32  N7  UNL     1      17.653  26.819  43.039  1.00  0.00    -0.278 N 
HETATM   33  C13 UNL     1      18.546  27.907  42.986  1.00  0.00     0.197 C 
HETATM   34  N8  UNL     1      19.227  28.155  41.905  1.00  0.00    -0.373 N 
HETATM   35  N9  UNL     1      18.681  28.723  44.132  1.00  0.00    -0.063 NA
ATOM     36  H82 UNL     1      19.130  27.566  41.078  1.00  0.00     0.158 HD
ATOM     37  H81 UNL     1      19.875  28.943  41.867  1.00  0.00     0.158 HD
ATOM     38  H7  UNL     1      16.914  26.790  42.336  1.00  0.00     0.185 HD
ENDBRANCH  31  32
ENDBRANCH  30  31
ENDBRANCH  29  30
ENDBRANCH   7  29
TORSDOF 10
ENDMDL
MODEL 5
REMARK VINA RESULT: -6.476898595      6.953     10.980
REMARK  10 active torsions:
REMARK  status: ('A' for Active; 'I' for Inactive)
REMARK    1  A    between atoms: O1_2  and  C2_3 
REMARK    2  A    between atoms: C2_3  and  C3_4 
REMARK    3  A    between atoms: C3_4  and  N1_5 
REMARK       I    between atoms: N2_8  and  C6_9 
REMARK       I    between atoms: C6_9  and  N3_11 
REMARK    4  A    between atoms: N3_11  and  C7_13 
REMARK       I    between atoms: N4_16  and  C10_17 
REMARK       I    between atoms: C10_17  and  N5_19 
REMARK    5  A    between atoms: N5_19  and  C11_21 
REMARK    6  A    between atoms: C11_21  and  C12_22 
REMARK    7  A    between atoms: C12_22  and  N6_23 
REMARK    8  A    between atoms: N6_23  and  N7_24 
REMARK       I    between atoms: N7_24  and  C13_26 
REMARK    9  A    between atoms: C14_31  and  O4_32 
REMARK   10  A    between atoms: C15_34  and  C16_35 
ROOT
HETATM    1  C7  UNL     1      24.065  17.112  39.786  1.00  0.00     0.136 C 
HETATM    2  C8  UNL     1      22.804  16.335  39.411  1.00  0.00     0.049 C 
HETATM    3  C9  UNL     1      23.143  14.925  39.752  1.00  0.00     0.132 C 
HETATM    4  N4  UNL     1      24.164  14.992  40.758  1.00  0.00    -0.305 N 
HETATM    5  C10 UNL     1      24.670  13.868  41.500  1.00  0.00     0.320 C 
HETATM    6  O3  UNL     1      24.199  12.727  41.260  1.00  0.00    -0.247 OA
HETATM    7  N5  UNL     1      25.678  14.085  42.476  1.00  0.00    -0.342 N 
ATOM      8  H5  UNL     1      26.038  15.023  42.646  1.00  0.00     0.164 HD
HETATM    9  C14 UNL     1      24.616  16.337  40.925  1.00  0.00     0.247 C 
ENDROOT
BRANCH   1  10
HETATM   10  N3  UNL     1      24.920  17.123  38.622  1.00  0.00    -0.334 N 
HETATM   11  C6  UNL     1      25.571  18.323  38.239  1.00  0.00     0.319 C 
HETATM   12  N2  UNL     1      26.406  18.388  37.124  1.00  0.00    -0.318 N 
HETATM   13  O2  UNL     1      25.314  19.311  39.007  1.00  0.00    -0.247 OA
HETATM   14  C5  UNL     1      26.695  17.147  36.363  1.00  0.00     0.158 C 
HETATM   15  C15 UNL     1      27.081  19.520  36.585  1.00  0.00     0.206 C 
HETATM   16  C4  UNL     1      28.102  17.269  35.781  1.00  0.00     0.292 C 
HETATM   17  N1  UNL     1      28.979  17.996  36.608  1.00  0.00     0.094 N 
HETATM   18  C17 UNL     1      28.547  19.336  36.937  1.00  0.00     0.307 C 
ATOM     19  H3  UNL     1      25.054  16.271  38.077  1.00  0.00     0.164 HD
BRANCH  17  20
HETATM   20  C3  UNL     1      30.347  17.992  36.291  1.00  0.00     0.298 C 
BRANCH  20  21
HETATM   21  C2  UNL     1      31.271  17.226  37.165  1.00  0.00     0.197 C 
BRANCH  21  22
HETATM   22  O1  UNL     1      31.272  17.532  38.497  1.00  0.00    -0.394 OA
HETATM   23  C1  UNL     1      32.475  17.919  39.034  1.00  0.00     0.201 C 
ENDBRANCH  21  22
ENDBRANCH  20  21
ENDBRANCH  17  20
BRANCH  15  24
HETATM   24  C16 UNL     1      26.658  20.872  36.875  1.00  0.00     0.256 C 
HETATM   25  N10 UNL     1      27.447  21.718  37.765  1.00  0.00    -0.060 NA
HETATM   26  O5  UNL     1      25.639  21.411  36.415  1.00  0.00    -0.275 OA
ENDBRANCH  15  24
ENDBRANCH   1  10
BRANCH   9  27
HETATM   27  O4  UNL     1      24.246  16.855  42.169  1.00  0.00    -0.374 OA
ATOM     28  H4  UNL     1      24.873  17.479  42.514  1.00  0.00     0.212 HD
ENDBRANCH   9  27
BRANCH   7  29
HETATM   29  C11 UNL     1      26.186  12.961  43.225  1.00  0.00     0.142 C 
BRANCH  29  30
HETATM   30  C12 UNL     1      27.527  12.569  42.705  1.00  0.00     0.154 C 
BRANCH  30  31
HETATM   31  N6  UNL     1      27.507  11.896  41.443  1.00  0.00    -0.137 NA
BRANCH  31  32
HETATM   32  N7  UNL     1      28.120  10.648  41.498  1.00  0.00    -0.278 N 
HETATM   33  C13 UNL     1      27.983   9.623  40.542  1.00  0.00     0.197 C 
HETATM   34  N8  UNL     1      29.028   9.123  39.949  1.00  0.00    -0.373 N 
HETATM   35  N9  UNL     1      26.685   9.149  40.247  1.00  0.00    -0.063 NA
ATOM     36  H82 UNL     1      29.965   9.466  40.163  1.00  0.00     0.158 HD
ATOM     37  H81 UNL     1      28.929   8.381  39.257  1.00  0.00     0.158 HD
ATOM     38  H7  UNL     1      28.722  10.459  42.299  1.00  0.00     0.185 HD
ENDBRANCH  31  32
ENDBRANCH  30  31
ENDBRANCH  29  30
ENDBRANCH   7  29
TORSDOF 10
ENDMDL
