MODEL 1
REMARK VINA RESULT: -7.514398140      0.000      0.000
REMARK  12 active torsions:
REMARK  status: ('A' for Active; 'I' for Inactive)
REMARK    1  A    between atoms: C2_2  and  O1_3 
REMARK    2  A    between atoms: O1_3  and  C3_4 
REMARK    3  A    between atoms: C3_4  and  C4_6 
REMARK    4  A    between atoms: C4_6  and  N1_7 
REMARK    5  A    between atoms: N1_7  and  N2_8 
REMARK    6  A    between atoms: N2_8  and  C5_10 
REMARK    7  A    between atoms: N5_15  and  C6_16 
REMARK    8  A    between atoms: C9_23  and  C10_24 
REMARK    9  A    between atoms: C11_26  and  C12_27 
REMARK   10  A    between atoms: C12_27  and  N8_28 
REMARK   11  A    between atoms: C14_33  and  N11_34 
REMARK   12  A    between atoms: C17_47  and  C18_48 
ROOT
HETATM    1  C6  UNL     1      59.688  13.276  30.837  1.00  0.00     0.724 A 
HETATM    2  N6  UNL     1      59.120  14.100  31.639  1.00  0.00    -0.207 N 
ATOM      3  H6  UNL     1      59.712  14.762  32.141  1.00  0.00     0.179 HD
HETATM    4  C7  UNL     1      57.698  14.153  31.880  1.00  0.00     0.263 A 
HETATM    5  N7  UNL     1      56.965  13.120  31.217  1.00  0.00    -0.356 N 
ATOM      6  H7  UNL     1      55.964  13.025  31.388  1.00  0.00     0.162 HD
HETATM    7  C8  UNL     1      57.609  12.224  30.324  1.00  0.00     0.171 A 
HETATM    8  C9  UNL     1      57.148  11.224  29.560  1.00  0.00     0.109 A 
HETATM    9  N13 UNL     1      58.262  10.718  28.913  1.00  0.00    -0.283 N 
ATOM     10  H13 UNL     1      58.245   9.942  28.250  1.00  0.00     0.188 HD
HETATM   11  N14 UNL     1      59.335  11.367  29.265  1.00  0.00    -0.219 N 
ATOM     12  H14 UNL     1      60.287  11.199  28.939  1.00  0.00     0.209 HD
HETATM   13  N15 UNL     1      58.948  12.280  30.122  1.00  0.00    -0.052 N 
ENDROOT
BRANCH   1  14
HETATM   14  N5  UNL     1      61.092  13.285  30.649  1.00  0.00    -0.073 N 
HETATM   15  N4  UNL     1      61.602  14.155  29.711  1.00  0.00    -0.225 N 
HETATM   16  N3  UNL     1      62.893  14.531  29.823  1.00  0.00    -0.280 N 
ATOM     17  H4  UNL     1      61.018  14.507  28.952  1.00  0.00     0.209 HD
HETATM   18  C5  UNL     1      63.524  14.325  31.122  1.00  0.00     0.314 C 
ATOM     19  H3  UNL     1      63.403  14.938  29.039  1.00  0.00     0.186 HD
HETATM   20  N16 UNL     1      63.033  13.288  31.921  1.00  0.00    -0.353 N 
HETATM   21  C17 UNL     1      62.012  12.431  31.380  1.00  0.00     0.326 C 
ATOM     22  H16 UNL     1      63.389  13.144  32.866  1.00  0.00     0.159 HD
BRANCH  18  23
HETATM   23  N2  UNL     1      64.922  14.252  30.873  1.00  0.00    -0.298 N 
ATOM     24  H2  UNL     1      65.367  14.972  30.303  1.00  0.00     0.179 HD
BRANCH  23  25
HETATM   25  N1  UNL     1      65.674  13.238  31.381  1.00  0.00    -0.133 NA
BRANCH  25  26
HETATM   26  C4  UNL     1      67.086  13.581  31.151  1.00  0.00     0.245 C 
BRANCH  26  27
HETATM   27  C3  UNL     1      67.117  15.046  31.000  1.00  0.00     0.275 C 
HETATM   28  O2  UNL     1      67.340  15.457  29.795  1.00  0.00    -0.264 OA
BRANCH  27  29
HETATM   29  O1  UNL     1      66.932  15.999  31.966  1.00  0.00    -0.321 OA
BRANCH  29  30
HETATM   30  C2  UNL     1      68.139  16.594  32.478  1.00  0.00     0.174 C 
HETATM   31  C1  UNL     1      68.024  16.952  33.929  1.00  0.00     0.034 C 
ENDBRANCH  29  30
ENDBRANCH  27  29
ENDBRANCH  26  27
ENDBRANCH  25  26
ENDBRANCH  23  25
ENDBRANCH  18  23
BRANCH  21  32
HETATM   32  C18 UNL     1      61.386  11.722  32.518  1.00  0.00     0.219 C 
HETATM   33  O5  UNL     1      61.067  12.361  33.585  1.00  0.00    -0.645 OA
HETATM   34  O6  UNL     1      61.098  10.370  32.556  1.00  0.00    -0.645 OA
ENDBRANCH  21  32
ENDBRANCH   1  14
BRANCH   8  35
HETATM   35  C10 UNL     1      55.828  10.644  29.332  1.00  0.00     0.246 C 
HETATM   36  O3  UNL     1      54.729  11.377  29.748  1.00  0.00    -0.365 OA
HETATM   37  C11 UNL     1      53.832  10.419  30.203  1.00  0.00     0.151 C 
HETATM   38  C15 UNL     1      54.778   9.636  31.166  1.00  0.00     0.115 C 
HETATM   39  C16 UNL     1      55.831   9.366  30.163  1.00  0.00     0.164 C 
HETATM   40  O4  UNL     1      56.537   8.435  29.982  1.00  0.00    -0.295 OA
BRANCH  37  41
HETATM   41  C12 UNL     1      52.617  10.847  30.887  1.00  0.00     0.202 C 
BRANCH  41  42
HETATM   42  N8  UNL     1      52.789  11.742  31.991  1.00  0.00    -0.229 N 
HETATM   43  N9  UNL     1      52.642  11.575  33.278  1.00  0.00    -0.268 N 
HETATM   44  C13 UNL     1      52.854  12.692  33.958  1.00  0.00     0.177 A 
ATOM     45  H9  UNL     1      52.393  10.685  33.711  1.00  0.00     0.190 HD
HETATM   46  N10 UNL     1      52.813  13.001  35.358  1.00  0.00    -0.077 NA
HETATM   47  C14 UNL     1      53.163  13.668  33.009  1.00  0.00     0.158 A 
HETATM   48  N12 UNL     1      53.112  13.037  31.837  1.00  0.00    -0.266 N 
ATOM     49  H12 UNL     1      53.295  13.481  30.937  1.00  0.00     0.190 HD
BRANCH  47  50
HETATM   50  N11 UNL     1      53.425  14.921  33.199  1.00  0.00    -0.382 N 
ATOM     51 2H11 UNL     1      53.490  15.644  32.482  1.00  0.00     0.157 HD
ATOM     52 1H11 UNL     1      53.597  15.406  34.080  1.00  0.00     0.157 HD
ENDBRANCH  47  50
ENDBRANCH  41  42
ENDBRANCH  37  41
ENDBRANCH   8  35
TORSDOF 12
ENDMDL
MODEL 2
REMARK VINA RESULT: -7.496970203      1.140      1.693
REMARK  12 active torsions:
REMARK  status: ('A' for Active; 'I' for Inactive)
REMARK    1  A    between atoms: C2_2  and  O1_3 
REMARK    2  A    between atoms: O1_3  and  C3_4 
REMARK    3  A    between atoms: C3_4  and  C4_6 
REMARK    4  A    between atoms: C4_6  and  N1_7 
REMARK    5  A    between atoms: N1_7  and  N2_8 
REMARK    6  A    between atoms: N2_8  and  C5_10 
REMARK    7  A    between atoms: N5_15  and  C6_16 
REMARK    8  A    between atoms: C9_23  and  C10_24 
REMARK    9  A    between atoms: C11_26  and  C12_27 
REMARK   10  A    between atoms: C12_27  and  N8_28 
REMARK   11  A    between atoms: C14_33  and  N11_34 
REMARK   12  A    between atoms: C17_47  and  C18_48 
ROOT
HETATM    1  C6  UNL     1      59.756  13.431  30.763  1.00  0.00     0.724 A 
HETATM    2  N6  UNL     1      59.192  14.159  31.657  1.00  0.00    -0.207 N 
ATOM      3  H6  UNL     1      59.770  14.838  32.152  1.00  0.00     0.179 HD
HETATM    4  C7  UNL     1      57.796  14.080  32.010  1.00  0.00     0.263 A 
HETATM    5  N7  UNL     1      57.094  13.028  31.342  1.00  0.00    -0.356 N 
ATOM      6  H7  UNL     1      56.121  12.841  31.583  1.00  0.00     0.162 HD
HETATM    7  C8  UNL     1      57.731  12.241  30.347  1.00  0.00     0.171 A 
HETATM    8  C9  UNL     1      57.287  11.251  29.559  1.00  0.00     0.109 A 
HETATM    9  N13 UNL     1      58.381  10.876  28.797  1.00  0.00    -0.283 N 
ATOM     10  H13 UNL     1      58.371  10.140  28.090  1.00  0.00     0.188 HD
HETATM   11  N14 UNL     1      59.426  11.592  29.106  1.00  0.00    -0.219 N 
ATOM     12  H14 UNL     1      60.358  11.522  28.697  1.00  0.00     0.209 HD
HETATM   13  N15 UNL     1      59.040  12.419  30.046  1.00  0.00    -0.052 N 
ENDROOT
BRANCH   1  14
HETATM   14  N5  UNL     1      61.135  13.568  30.468  1.00  0.00    -0.073 N 
HETATM   15  N4  UNL     1      61.486  14.442  29.464  1.00  0.00    -0.225 N 
HETATM   16  N3  UNL     1      62.739  14.944  29.463  1.00  0.00    -0.280 N 
ATOM     17  H4  UNL     1      60.817  14.703  28.740  1.00  0.00     0.209 HD
HETATM   18  C5  UNL     1      63.480  14.855  30.717  1.00  0.00     0.314 C 
ATOM     19  H3  UNL     1      63.147  15.365  28.629  1.00  0.00     0.186 HD
HETATM   20  N16 UNL     1      63.153  13.812  31.588  1.00  0.00    -0.353 N 
HETATM   21  C17 UNL     1      62.185  12.838  31.156  1.00  0.00     0.326 C 
ATOM     22  H16 UNL     1      63.589  13.743  32.507  1.00  0.00     0.159 HD
BRANCH  18  23
HETATM   23  N2  UNL     1      64.856  14.907  30.364  1.00  0.00    -0.298 N 
ATOM     24  H2  UNL     1      65.154  14.550  29.457  1.00  0.00     0.179 HD
BRANCH  23  25
HETATM   25  N1  UNL     1      65.781  15.426  31.218  1.00  0.00    -0.133 NA
BRANCH  25  26
HETATM   26  C4  UNL     1      67.030  14.674  31.020  1.00  0.00     0.245 C 
BRANCH  26  27
HETATM   27  C3  UNL     1      66.646  13.253  31.057  1.00  0.00     0.275 C 
HETATM   28  O2  UNL     1      66.045  12.887  32.141  1.00  0.00    -0.264 OA
BRANCH  27  29
HETATM   29  O1  UNL     1      66.843  12.300  30.093  1.00  0.00    -0.321 OA
BRANCH  29  30
HETATM   30  C2  UNL     1      68.219  12.046  29.755  1.00  0.00     0.174 C 
HETATM   31  C1  UNL     1      68.960  11.368  30.868  1.00  0.00     0.034 C 
ENDBRANCH  29  30
ENDBRANCH  27  29
ENDBRANCH  26  27
ENDBRANCH  25  26
ENDBRANCH  23  25
ENDBRANCH  18  23
BRANCH  21  32
HETATM   32  C18 UNL     1      61.717  12.121  32.363  1.00  0.00     0.219 C 
HETATM   33  O5  UNL     1      61.861  12.645  33.526  1.00  0.00    -0.645 OA
HETATM   34  O6  UNL     1      61.113  10.877  32.369  1.00  0.00    -0.645 OA
ENDBRANCH  21  32
ENDBRANCH   1  14
BRANCH   8  35
HETATM   35  C10 UNL     1      56.004  10.577  29.398  1.00  0.00     0.246 C 
HETATM   36  O3  UNL     1      54.864  11.286  29.741  1.00  0.00    -0.365 OA
HETATM   37  C11 UNL     1      54.021  10.331  30.296  1.00  0.00     0.151 C 
HETATM   38  C15 UNL     1      55.009   9.706  31.330  1.00  0.00     0.115 C 
HETATM   39  C16 UNL     1      56.076   9.394  30.356  1.00  0.00     0.164 C 
HETATM   40  O4  UNL     1      56.835   8.491  30.269  1.00  0.00    -0.295 OA
BRANCH  37  41
HETATM   41  C12 UNL     1      52.783  10.758  30.937  1.00  0.00     0.202 C 
BRANCH  41  42
HETATM   42  N8  UNL     1      52.912  11.696  32.011  1.00  0.00    -0.229 N 
HETATM   43  N9  UNL     1      52.740  11.574  33.300  1.00  0.00    -0.268 N 
HETATM   44  C13 UNL     1      52.914  12.719  33.943  1.00  0.00     0.177 A 
ATOM     45  H9  UNL     1      52.498  10.695  33.759  1.00  0.00     0.190 HD
HETATM   46  N10 UNL     1      52.835  13.077  35.328  1.00  0.00    -0.077 NA
HETATM   47  C14 UNL     1      53.226  13.665  32.965  1.00  0.00     0.158 A 
HETATM   48  N12 UNL     1      53.214  12.991  31.816  1.00  0.00    -0.266 N 
ATOM     49  H12 UNL     1      53.409  13.405  30.905  1.00  0.00     0.190 HD
BRANCH  47  50
HETATM   50  N11 UNL     1      53.460  14.930  33.114  1.00  0.00    -0.382 N 
ATOM     51 2H11 UNL     1      53.580  15.425  33.997  1.00  0.00     0.157 HD
ATOM     52 1H11 UNL     1      53.578  15.642  32.393  1.00  0.00     0.157 HD
ENDBRANCH  47  50
ENDBRANCH  41  42
ENDBRANCH  37  41
ENDBRANCH   8  35
TORSDOF 12
ENDMDL
MODEL 3
REMARK VINA RESULT: -7.474170954      3.986      5.419
REMARK  12 active torsions:
REMARK  status: ('A' for Active; 'I' for Inactive)
REMARK    1  A    between atoms: C2_2  and  O1_3 
REMARK    2  A    between atoms: O1_3  and  C3_4 
REMARK    3  A    between atoms: C3_4  and  C4_6 
REMARK    4  A    between atoms: C4_6  and  N1_7 
REMARK    5  A    between atoms: N1_7  and  N2_8 
REMARK    6  A    between atoms: N2_8  and  C5_10 
REMARK    7  A    between atoms: N5_15  and  C6_16 
REMARK    8  A    between atoms: C9_23  and  C10_24 
REMARK    9  A    between atoms: C11_26  and  C12_27 
REMARK   10  A    between atoms: C12_27  and  N8_28 
REMARK   11  A    between atoms: C14_33  and  N11_34 
REMARK   12  A    between atoms: C17_47  and  C18_48 
ROOT
HETATM    1  C6  UNL     1      59.541  13.004  28.602  1.00  0.00     0.724 A 
HETATM    2  N6  UNL     1      59.196  11.907  28.031  1.00  0.00    -0.207 N 
ATOM      3  H6  UNL     1      59.632  11.677  27.139  1.00  0.00     0.179 HD
HETATM    4  C7  UNL     1      58.232  10.979  28.568  1.00  0.00     0.263 A 
HETATM    5  N7  UNL     1      57.596  11.438  29.764  1.00  0.00    -0.356 N 
ATOM      6  H7  UNL     1      56.843  10.887  30.176  1.00  0.00     0.162 HD
HETATM    7  C8  UNL     1      57.999  12.648  30.388  1.00  0.00     0.171 A 
HETATM    8  C9  UNL     1      57.604  13.258  31.514  1.00  0.00     0.109 A 
HETATM    9  N13 UNL     1      58.365  14.412  31.588  1.00  0.00    -0.283 N 
ATOM     10  H13 UNL     1      58.304  15.099  32.339  1.00  0.00     0.188 HD
HETATM   11  N14 UNL     1      59.170  14.500  30.567  1.00  0.00    -0.219 N 
ATOM     12  H14 UNL     1      59.836  15.249  30.376  1.00  0.00     0.209 HD
HETATM   13  N15 UNL     1      58.952  13.436  29.834  1.00  0.00    -0.052 N 
ENDROOT
BRANCH   1  14
HETATM   14  N5  UNL     1      60.499  13.866  28.015  1.00  0.00    -0.073 N 
HETATM   15  N4  UNL     1      61.827  13.612  28.277  1.00  0.00    -0.225 N 
HETATM   16  N3  UNL     1      62.750  14.079  27.410  1.00  0.00    -0.280 N 
ATOM     17  H4  UNL     1      62.105  13.085  29.105  1.00  0.00     0.209 HD
HETATM   18  C5  UNL     1      62.272  14.448  26.082  1.00  0.00     0.314 C 
ATOM     19  H3  UNL     1      63.732  14.169  27.670  1.00  0.00     0.186 HD
HETATM   20  N16 UNL     1      60.942  14.862  25.966  1.00  0.00    -0.353 N 
HETATM   21  C17 UNL     1      60.160  14.995  27.167  1.00  0.00     0.326 C 
ATOM     22  H16 UNL     1      60.536  15.065  25.053  1.00  0.00     0.159 HD
BRANCH  18  23
HETATM   23  N2  UNL     1      63.216  15.379  25.570  1.00  0.00    -0.298 N 
ATOM     24  H2  UNL     1      63.231  15.580  24.570  1.00  0.00     0.179 HD
BRANCH  23  25
HETATM   25  N1  UNL     1      64.101  16.007  26.393  1.00  0.00    -0.133 NA
BRANCH  25  26
HETATM   26  C4  UNL     1      64.442  17.295  25.770  1.00  0.00     0.245 C 
BRANCH  26  27
HETATM   27  C3  UNL     1      63.351  18.213  26.139  1.00  0.00     0.275 C 
HETATM   28  O2  UNL     1      63.702  19.453  26.237  1.00  0.00    -0.264 OA
BRANCH  27  29
HETATM   29  O1  UNL     1      62.036  17.910  26.376  1.00  0.00    -0.321 OA
BRANCH  29  30
HETATM   30  C2  UNL     1      61.513  18.393  27.627  1.00  0.00     0.174 C 
HETATM   31  C1  UNL     1      61.929  17.536  28.784  1.00  0.00     0.034 C 
ENDBRANCH  29  30
ENDBRANCH  27  29
ENDBRANCH  26  27
ENDBRANCH  25  26
ENDBRANCH  23  25
ENDBRANCH  18  23
BRANCH  21  32
HETATM   32  C18 UNL     1      58.737  15.025  26.761  1.00  0.00     0.219 C 
HETATM   33  O5  UNL     1      57.970  15.978  27.152  1.00  0.00    -0.645 OA
HETATM   34  O6  UNL     1      58.112  14.081  25.968  1.00  0.00    -0.645 OA
ENDBRANCH  21  32
ENDBRANCH   1  14
BRANCH   8  35
HETATM   35  C10 UNL     1      56.618  12.950  32.545  1.00  0.00     0.246 C 
HETATM   36  O3  UNL     1      56.231  11.627  32.683  1.00  0.00    -0.365 OA
HETATM   37  C11 UNL     1      54.881  11.697  32.999  1.00  0.00     0.151 C 
HETATM   38  C15 UNL     1      54.408  12.631  31.841  1.00  0.00     0.115 C 
HETATM   39  C16 UNL     1      55.373  13.717  32.115  1.00  0.00     0.164 C 
HETATM   40  O4  UNL     1      55.287  14.895  32.043  1.00  0.00    -0.295 OA
BRANCH  37  41
HETATM   41  C12 UNL     1      54.094  10.469  33.043  1.00  0.00     0.202 C 
BRANCH  41  42
HETATM   42  N8  UNL     1      54.616   9.351  32.316  1.00  0.00    -0.229 N 
HETATM   43  N9  UNL     1      54.841   8.114  32.666  1.00  0.00    -0.268 N 
HETATM   44  C13 UNL     1      55.388   7.405  31.690  1.00  0.00     0.177 A 
ATOM     45  H9  UNL     1      54.622   7.735  33.588  1.00  0.00     0.190 HD
HETATM   46  N10 UNL     1      55.806   6.037  31.597  1.00  0.00    -0.077 NA
HETATM   47  C14 UNL     1      55.527   8.281  30.611  1.00  0.00     0.158 A 
HETATM   48  N12 UNL     1      55.041   9.442  31.044  1.00  0.00    -0.266 N 
ATOM     49  H12 UNL     1      54.997  10.293  30.483  1.00  0.00     0.190 HD
BRANCH  47  50
HETATM   50  N11 UNL     1      56.031   8.045  29.442  1.00  0.00    -0.382 N 
ATOM     51 2H11 UNL     1      55.630   7.452  28.715  1.00  0.00     0.157 HD
ATOM     52 1H11 UNL     1      56.894   8.410  29.038  1.00  0.00     0.157 HD
ENDBRANCH  47  50
ENDBRANCH  41  42
ENDBRANCH  37  41
ENDBRANCH   8  35
TORSDOF 12
ENDMDL
MODEL 4
REMARK VINA RESULT: -7.430364017      3.373      5.176
REMARK  12 active torsions:
REMARK  status: ('A' for Active; 'I' for Inactive)
REMARK    1  A    between atoms: C2_2  and  O1_3 
REMARK    2  A    between atoms: O1_3  and  C3_4 
REMARK    3  A    between atoms: C3_4  and  C4_6 
REMARK    4  A    between atoms: C4_6  and  N1_7 
REMARK    5  A    between atoms: N1_7  and  N2_8 
REMARK    6  A    between atoms: N2_8  and  C5_10 
REMARK    7  A    between atoms: N5_15  and  C6_16 
REMARK    8  A    between atoms: C9_23  and  C10_24 
REMARK    9  A    between atoms: C11_26  and  C12_27 
REMARK   10  A    between atoms: C12_27  and  N8_28 
REMARK   11  A    between atoms: C14_33  and  N11_34 
REMARK   12  A    between atoms: C17_47  and  C18_48 
ROOT
HETATM    1  C6  UNL     1      59.783  13.865  28.822  1.00  0.00     0.724 A 
HETATM    2  N6  UNL     1      59.706  12.799  28.112  1.00  0.00    -0.207 N 
ATOM      3  H6  UNL     1      60.248  12.761  27.249  1.00  0.00     0.179 HD
HETATM    4  C7  UNL     1      58.904  11.649  28.454  1.00  0.00     0.263 A 
HETATM    5  N7  UNL     1      58.100  11.837  29.621  1.00  0.00    -0.356 N 
ATOM      6  H7  UNL     1      57.440  11.111  29.898  1.00  0.00     0.162 HD
HETATM    7  C8  UNL     1      58.207  13.019  30.400  1.00  0.00     0.171 A 
HETATM    8  C9  UNL     1      57.612  13.406  31.538  1.00  0.00     0.109 A 
HETATM    9  N13 UNL     1      58.123  14.665  31.803  1.00  0.00    -0.283 N 
ATOM     10  H13 UNL     1      57.870  15.235  32.611  1.00  0.00     0.188 HD
HETATM   11  N14 UNL     1      58.973  15.023  30.881  1.00  0.00    -0.219 N 
ATOM     12  H14 UNL     1      59.492  15.899  30.835  1.00  0.00     0.209 HD
HETATM   13  N15 UNL     1      59.026  14.031  30.027  1.00  0.00    -0.052 N 
ENDROOT
BRANCH   1  14
HETATM   14  N5  UNL     1      60.596  14.954  28.424  1.00  0.00    -0.073 N 
HETATM   15  N4  UNL     1      61.949  14.859  28.664  1.00  0.00    -0.225 N 
HETATM   16  N3  UNL     1      62.785  15.610  27.917  1.00  0.00    -0.280 N 
ATOM     17  H4  UNL     1      62.309  14.236  29.387  1.00  0.00     0.209 HD
HETATM   18  C5  UNL     1      62.248  16.141  26.669  1.00  0.00     0.314 C 
ATOM     19  H3  UNL     1      63.744  15.797  28.210  1.00  0.00     0.186 HD
HETATM   20  N16 UNL     1      60.870  16.365  26.602  1.00  0.00    -0.353 N 
HETATM   21  C17 UNL     1      60.084  16.156  27.789  1.00  0.00     0.326 C 
ATOM     22  H16 UNL     1      60.432  16.669  25.733  1.00  0.00     0.159 HD
BRANCH  18  23
HETATM   23  N2  UNL     1      63.037  17.282  26.356  1.00  0.00    -0.298 N 
ATOM     24  H2  UNL     1      63.565  17.302  25.484  1.00  0.00     0.179 HD
BRANCH  23  25
HETATM   25  N1  UNL     1      63.100  18.346  27.203  1.00  0.00    -0.133 NA
BRANCH  25  26
HETATM   26  C4  UNL     1      64.466  18.886  27.129  1.00  0.00     0.245 C 
BRANCH  26  27
HETATM   27  C3  UNL     1      65.166  18.352  28.310  1.00  0.00     0.275 C 
HETATM   28  O2  UNL     1      65.993  19.177  28.862  1.00  0.00    -0.264 OA
BRANCH  27  29
HETATM   29  O1  UNL     1      65.035  17.114  28.881  1.00  0.00    -0.321 OA
BRANCH  29  30
HETATM   30  C2  UNL     1      66.215  16.290  28.832  1.00  0.00     0.174 C 
HETATM   31  C1  UNL     1      66.443  15.705  27.471  1.00  0.00     0.034 C 
ENDBRANCH  29  30
ENDBRANCH  27  29
ENDBRANCH  26  27
ENDBRANCH  25  26
ENDBRANCH  23  25
ENDBRANCH  18  23
BRANCH  21  32
HETATM   32  C18 UNL     1      58.670  16.047  27.365  1.00  0.00     0.219 C 
HETATM   33  O5  UNL     1      57.732  16.509  28.109  1.00  0.00    -0.645 OA
HETATM   34  O6  UNL     1      58.231  15.462  26.192  1.00  0.00    -0.645 OA
ENDBRANCH  21  32
ENDBRANCH   1  14
BRANCH   8  35
HETATM   35  C10 UNL     1      56.629  12.800  32.429  1.00  0.00     0.246 C 
HETATM   36  O3  UNL     1      56.451  11.429  32.344  1.00  0.00    -0.365 OA
HETATM   37  C11 UNL     1      55.090  11.247  32.554  1.00  0.00     0.151 C 
HETATM   38  C15 UNL     1      54.543  12.267  31.507  1.00  0.00     0.115 C 
HETATM   39  C16 UNL     1      55.305  13.430  32.012  1.00  0.00     0.164 C 
HETATM   40  O4  UNL     1      55.037  14.578  32.102  1.00  0.00    -0.295 OA
BRANCH  37  41
HETATM   41  C12 UNL     1      54.509   9.924  32.357  1.00  0.00     0.202 C 
BRANCH  41  42
HETATM   42  N8  UNL     1      54.824   9.265  31.125  1.00  0.00    -0.229 N 
HETATM   43  N9  UNL     1      54.082   8.610  30.274  1.00  0.00    -0.268 N 
HETATM   44  C13 UNL     1      54.789   8.106  29.273  1.00  0.00     0.177 A 
ATOM     45  H9  UNL     1      53.072   8.499  30.368  1.00  0.00     0.190 HD
HETATM   46  N10 UNL     1      54.430   7.330  28.123  1.00  0.00    -0.077 NA
HETATM   47  C14 UNL     1      56.114   8.475  29.515  1.00  0.00     0.158 A 
HETATM   48  N12 UNL     1      56.076   9.177  30.645  1.00  0.00    -0.266 N 
ATOM     49  H12 UNL     1      56.893   9.595  31.090  1.00  0.00     0.190 HD
BRANCH  47  50
HETATM   50  N11 UNL     1      57.168   8.192  28.818  1.00  0.00    -0.382 N 
ATOM     51 2H11 UNL     1      57.292   8.341  27.816  1.00  0.00     0.157 HD
ATOM     52 1H11 UNL     1      58.051   7.794  29.137  1.00  0.00     0.157 HD
ENDBRANCH  47  50
ENDBRANCH  41  42
ENDBRANCH  37  41
ENDBRANCH   8  35
TORSDOF 12
ENDMDL
MODEL 5
REMARK VINA RESULT: -7.417859777      3.556      5.206
REMARK  12 active torsions:
REMARK  status: ('A' for Active; 'I' for Inactive)
REMARK    1  A    between atoms: C2_2  and  O1_3 
REMARK    2  A    between atoms: O1_3  and  C3_4 
REMARK    3  A    between atoms: C3_4  and  C4_6 
REMARK    4  A    between atoms: C4_6  and  N1_7 
REMARK    5  A    between atoms: N1_7  and  N2_8 
REMARK    6  A    between atoms: N2_8  and  C5_10 
REMARK    7  A    between atoms: N5_15  and  C6_16 
REMARK    8  A    between atoms: C9_23  and  C10_24 
REMARK    9  A    between atoms: C11_26  and  C12_27 
REMARK   10  A    between atoms: C12_27  and  N8_28 
REMARK   11  A    between atoms: C14_33  and  N11_34 
REMARK   12  A    between atoms: C17_47  and  C18_48 
ROOT
HETATM    1  C6  UNL     1      59.810  13.908  28.902  1.00  0.00     0.724 A 
HETATM    2  N6  UNL     1      59.795  12.815  28.229  1.00  0.00    -0.207 N 
ATOM      3  H6  UNL     1      60.372  12.767  27.389  1.00  0.00     0.179 HD
HETATM    4  C7  UNL     1      59.018  11.653  28.580  1.00  0.00     0.263 A 
HETATM    5  N7  UNL     1      58.161  11.853  29.708  1.00  0.00    -0.356 N 
ATOM      6  H7  UNL     1      57.514  11.115  29.985  1.00  0.00     0.162 HD
HETATM    7  C8  UNL     1      58.199  13.064  30.448  1.00  0.00     0.171 A 
HETATM    8  C9  UNL     1      57.547  13.471  31.546  1.00  0.00     0.109 A 
HETATM    9  N13 UNL     1      58.007  14.754  31.786  1.00  0.00    -0.283 N 
ATOM     10  H13 UNL     1      57.703  15.344  32.562  1.00  0.00     0.188 HD
HETATM   11  N14 UNL     1      58.880  15.108  30.886  1.00  0.00    -0.219 N 
ATOM     12  H14 UNL     1      59.373  16.000  30.828  1.00  0.00     0.209 HD
HETATM   13  N15 UNL     1      59.000  14.090  30.070  1.00  0.00    -0.052 N 
ENDROOT
BRANCH   1  14
HETATM   14  N5  UNL     1      60.602  15.009  28.497  1.00  0.00    -0.073 N 
HETATM   15  N4  UNL     1      61.948  14.965  28.788  1.00  0.00    -0.225 N 
HETATM   16  N3  UNL     1      62.787  15.718  28.047  1.00  0.00    -0.280 N 
ATOM     17  H4  UNL     1      62.300  14.378  29.544  1.00  0.00     0.209 HD
HETATM   18  C5  UNL     1      62.280  16.192  26.764  1.00  0.00     0.314 C 
ATOM     19  H3  UNL     1      63.728  15.945  28.368  1.00  0.00     0.186 HD
HETATM   20  N16 UNL     1      60.899  16.369  26.641  1.00  0.00    -0.353 N 
HETATM   21  C17 UNL     1      60.077  16.173  27.805  1.00  0.00     0.326 C 
ATOM     22  H16 UNL     1      60.484  16.631  25.747  1.00  0.00     0.159 HD
BRANCH  18  23
HETATM   23  N2  UNL     1      63.044  17.346  26.442  1.00  0.00    -0.298 N 
ATOM     24  H2  UNL     1      63.490  17.413  25.527  1.00  0.00     0.179 HD
BRANCH  23  25
HETATM   25  N1  UNL     1      63.192  18.363  27.335  1.00  0.00    -0.133 NA
BRANCH  25  26
HETATM   26  C4  UNL     1      64.524  18.948  27.118  1.00  0.00     0.245 C 
BRANCH  26  27
HETATM   27  C3  UNL     1      65.310  18.597  28.312  1.00  0.00     0.275 C 
HETATM   28  O2  UNL     1      65.095  17.406  28.765  1.00  0.00    -0.264 OA
BRANCH  27  29
HETATM   29  O1  UNL     1      66.227  19.368  28.977  1.00  0.00    -0.321 OA
BRANCH  29  30
HETATM   30  C2  UNL     1      66.495  20.651  28.379  1.00  0.00     0.174 C 
HETATM   31  C1  UNL     1      66.941  21.665  29.388  1.00  0.00     0.034 C 
ENDBRANCH  29  30
ENDBRANCH  27  29
ENDBRANCH  26  27
ENDBRANCH  25  26
ENDBRANCH  23  25
ENDBRANCH  18  23
BRANCH  21  32
HETATM   32  C18 UNL     1      58.684  16.005  27.336  1.00  0.00     0.219 C 
HETATM   33  O5  UNL     1      57.706  16.472  28.024  1.00  0.00    -0.645 OA
HETATM   34  O6  UNL     1      58.306  15.358  26.174  1.00  0.00    -0.645 OA
ENDBRANCH  21  32
ENDBRANCH   1  14
BRANCH   8  35
HETATM   35  C10 UNL     1      56.549  12.863  32.420  1.00  0.00     0.246 C 
HETATM   36  O3  UNL     1      56.377  11.491  32.335  1.00  0.00    -0.365 OA
HETATM   37  C11 UNL     1      55.013  11.306  32.518  1.00  0.00     0.151 C 
HETATM   38  C15 UNL     1      54.483  12.321  31.459  1.00  0.00     0.115 C 
HETATM   39  C16 UNL     1      55.231  13.488  31.975  1.00  0.00     0.164 C 
HETATM   40  O4  UNL     1      54.957  14.635  32.058  1.00  0.00    -0.295 OA
BRANCH  37  41
HETATM   41  C12 UNL     1      54.440   9.980  32.313  1.00  0.00     0.202 C 
BRANCH  41  42
HETATM   42  N8  UNL     1      54.777   9.322  31.087  1.00  0.00    -0.229 N 
HETATM   43  N9  UNL     1      54.052   8.657  30.228  1.00  0.00    -0.268 N 
HETATM   44  C13 UNL     1      54.776   8.158  29.238  1.00  0.00     0.177 A 
ATOM     45  H9  UNL     1      53.042   8.536  30.311  1.00  0.00     0.190 HD
HETATM   46  N10 UNL     1      54.439   7.376  28.085  1.00  0.00    -0.077 NA
HETATM   47  C14 UNL     1      56.094   8.542  29.494  1.00  0.00     0.158 A 
HETATM   48  N12 UNL     1      56.036   9.246  30.622  1.00  0.00    -0.266 N 
ATOM     49  H12 UNL     1      56.843   9.673  31.076  1.00  0.00     0.190 HD
BRANCH  47  50
HETATM   50  N11 UNL     1      57.159   8.269  28.810  1.00  0.00    -0.382 N 
ATOM     51 2H11 UNL     1      58.111   8.198  29.170  1.00  0.00     0.157 HD
ATOM     52 1H11 UNL     1      57.238   8.064  27.814  1.00  0.00     0.157 HD
ENDBRANCH  47  50
ENDBRANCH  41  42
ENDBRANCH  37  41
ENDBRANCH   8  35
TORSDOF 12
ENDMDL
