MODEL 1
REMARK VINA RESULT: -8.037034139      0.000      0.000
REMARK  14 active torsions:
REMARK  status: ('A' for Active; 'I' for Inactive)
REMARK    1  A    between atoms: C2_3  and  S1_4 
REMARK    2  A    between atoms: S1_4  and  C3_5 
REMARK    3  A    between atoms: C3_5  and  C4_6 
REMARK       I    between atoms: C4_6  and  N2_8 
REMARK    4  A    between atoms: N2_8  and  C5_10 
REMARK    5  A    between atoms: C6_11  and  O2_12 
REMARK    6  A    between atoms: C7_14  and  N3_15 
REMARK    7  A    between atoms: C9_17  and  C10_18 
REMARK    8  A    between atoms: C12_22  and  C13_23 
REMARK    9  A    between atoms: C15_34  and  C16_35 
REMARK   10  A    between atoms: C16_35  and  O4_36 
REMARK   11  A    between atoms: C16_35  and  O5_38 
REMARK   12  A    between atoms: C17_44  and  C18_45 
REMARK   13  A    between atoms: C18_45  and  N12_46 
REMARK   14  A    between atoms: C18_45  and  N13_50 
ROOT
HETATM    1  C5  UNL     1      60.940  13.241  30.473  1.00  0.00     0.152 C 
HETATM    2  C6  UNL     1      59.737  14.121  30.534  1.00  0.00     0.194 C 
HETATM    3  C7  UNL     1      59.179  13.899  31.899  1.00  0.00     0.335 C 
HETATM    4  N9  UNL     1      59.637  12.596  32.341  1.00  0.00    -0.039 N 
ATOM      5  H91 UNL     1      58.968  11.847  32.164  1.00  0.00     0.280 HD
ATOM      6  H92 UNL     1      59.667  12.497  33.356  1.00  0.00     0.280 HD
HETATM    7  C15 UNL     1      60.921  12.391  31.699  1.00  0.00     0.267 C 
ENDROOT
BRANCH   1   8
HETATM    8  N2  UNL     1      62.111  14.092  30.432  1.00  0.00    -0.351 N 
HETATM    9  C4  UNL     1      63.147  13.808  29.518  1.00  0.00     0.227 C 
HETATM   10  O1  UNL     1      63.047  12.831  28.753  1.00  0.00    -0.273 OA
ATOM     11  H2  UNL     1      62.186  14.892  31.060  1.00  0.00     0.163 HD
BRANCH   9  12
HETATM   12  C3  UNL     1      64.350  14.663  29.461  1.00  0.00     0.185 C 
BRANCH  12  13
HETATM   13  S1  UNL     1      64.322  15.624  27.945  1.00  0.00    -0.083 SA
BRANCH  13  14
HETATM   14  C2  UNL     1      62.651  15.631  27.305  1.00  0.00     0.162 A 
HETATM   15  N1  UNL     1      61.624  16.382  27.713  1.00  0.00    -0.316 N 
HETATM   16  C1  UNL     1      61.656  17.368  28.780  1.00  0.00     0.160 C 
HETATM   17  C17 UNL     1      60.513  16.119  27.001  1.00  0.00     0.158 A 
HETATM   18  N11 UNL     1      60.872  15.168  26.120  1.00  0.00    -0.284 N 
HETATM   19  N10 UNL     1      62.147  14.867  26.291  1.00  0.00    -0.278 N 
ATOM     20  H11 UNL     1      60.255  14.743  25.428  1.00  0.00     0.188 HD
ATOM     21  H10 UNL     1      62.671  14.177  25.752  1.00  0.00     0.189 HD
BRANCH  17  22
HETATM   22  C18 UNL     1      59.157  16.718  27.120  1.00  0.00     0.446 C 
BRANCH  22  23
HETATM   23  N12 UNL     1      59.221  18.163  27.043  1.00  0.00    -0.043 N 
ATOM     24 3H12 UNL     1      59.988  18.474  26.448  1.00  0.00     0.277 HD
ATOM     25 2H12 UNL     1      58.443  18.546  26.505  1.00  0.00     0.277 HD
ATOM     26 1H12 UNL     1      59.276  18.575  27.974  1.00  0.00     0.277 HD
ENDBRANCH  22  23
BRANCH  22  27
HETATM   27  N13 UNL     1      58.252  16.192  26.134  1.00  0.00    -0.043 N 
ATOM     28 3H13 UNL     1      58.735  15.985  25.260  1.00  0.00     0.277 HD
ATOM     29 2H13 UNL     1      57.947  15.249  26.376  1.00  0.00     0.277 HD
ATOM     30 1H13 UNL     1      57.456  16.811  25.981  1.00  0.00     0.277 HD
ENDBRANCH  22  27
ENDBRANCH  17  22
ENDBRANCH  13  14
ENDBRANCH  12  13
ENDBRANCH   9  12
ENDBRANCH   1   8
BRANCH   2  31
HETATM   31  O2  UNL     1      58.777  13.791  29.579  1.00  0.00    -0.390 OA
ATOM     32  H2  UNL     1      58.825  14.340  28.805  1.00  0.00     0.210 HD
ENDBRANCH   2  31
BRANCH   7  33
HETATM   33  C16 UNL     1      61.068  10.919  31.421  1.00  0.00     0.286 C 
BRANCH  33  34
HETATM   34  O4  UNL     1      59.937  10.507  30.705  1.00  0.00    -0.369 OA
ATOM     35  H4  UNL     1      59.806   9.583  30.880  1.00  0.00     0.212 HD
ENDBRANCH  33  34
BRANCH  33  36
HETATM   36  O5  UNL     1      61.210  10.175  32.584  1.00  0.00    -0.369 OA
ATOM     37  H5  UNL     1      61.560   9.309  32.417  1.00  0.00     0.212 HD
ENDBRANCH  33  36
ENDBRANCH   7  33
BRANCH   3  38
HETATM   38  N3  UNL     1      57.738  13.993  31.826  1.00  0.00    -0.251 N 
HETATM   39  C8  UNL     1      56.927  12.945  31.624  1.00  0.00     0.142 A 
HETATM   40  C9  UNL     1      55.628  13.395  31.610  1.00  0.00     0.077 A 
HETATM   41  N7  UNL     1      55.708  14.720  31.809  1.00  0.00    -0.282 N 
HETATM   42  N8  UNL     1      56.975  15.076  31.938  1.00  0.00    -0.018 NA
ATOM     43  H7  UNL     1      54.913  15.356  31.854  1.00  0.00     0.184 HD
BRANCH  40  44
HETATM   44  C10 UNL     1      54.388  12.576  31.413  1.00  0.00     0.050 A 
HETATM   45  C11 UNL     1      53.318  12.685  32.261  1.00  0.00     0.102 A 
HETATM   46  N4  UNL     1      53.207  13.552  33.419  1.00  0.00    -0.093 NA
HETATM   47  S2  UNL     1      52.196  11.577  31.624  1.00  0.00    -0.067 SA
HETATM   48  C12 UNL     1      53.100  11.000  30.304  1.00  0.00     0.096 A 
HETATM   49  C14 UNL     1      54.274  11.695  30.390  1.00  0.00     0.083 A 
HETATM   50  N6  UNL     1      55.321  11.452  29.393  1.00  0.00    -0.100 NA
BRANCH  48  51
HETATM   51  C13 UNL     1      52.719   9.985  29.289  1.00  0.00     0.273 C 
HETATM   52  N5  UNL     1      53.600   8.938  28.946  1.00  0.00    -0.057 NA
HETATM   53  O3  UNL     1      51.606  10.048  28.718  1.00  0.00    -0.270 OA
ENDBRANCH  48  51
ENDBRANCH  40  44
ENDBRANCH   3  38
TORSDOF 14
ENDMDL
MODEL 2
REMARK VINA RESULT: -8.005909505      0.863      1.328
REMARK  14 active torsions:
REMARK  status: ('A' for Active; 'I' for Inactive)
REMARK    1  A    between atoms: C2_3  and  S1_4 
REMARK    2  A    between atoms: S1_4  and  C3_5 
REMARK    3  A    between atoms: C3_5  and  C4_6 
REMARK       I    between atoms: C4_6  and  N2_8 
REMARK    4  A    between atoms: N2_8  and  C5_10 
REMARK    5  A    between atoms: C6_11  and  O2_12 
REMARK    6  A    between atoms: C7_14  and  N3_15 
REMARK    7  A    between atoms: C9_17  and  C10_18 
REMARK    8  A    between atoms: C12_22  and  C13_23 
REMARK    9  A    between atoms: C15_34  and  C16_35 
REMARK   10  A    between atoms: C16_35  and  O4_36 
REMARK   11  A    between atoms: C16_35  and  O5_38 
REMARK   12  A    between atoms: C17_44  and  C18_45 
REMARK   13  A    between atoms: C18_45  and  N12_46 
REMARK   14  A    between atoms: C18_45  and  N13_50 
ROOT
HETATM    1  C5  UNL     1      61.147  13.156  30.720  1.00  0.00     0.152 C 
HETATM    2  C6  UNL     1      59.983  14.088  30.769  1.00  0.00     0.194 C 
HETATM    3  C7  UNL     1      59.316  13.785  32.068  1.00  0.00     0.335 C 
HETATM    4  N9  UNL     1      59.680  12.430  32.429  1.00  0.00    -0.039 N 
ATOM      5  H91 UNL     1      58.993  11.733  32.143  1.00  0.00     0.280 HD
ATOM      6  H92 UNL     1      59.630  12.247  33.432  1.00  0.00     0.280 HD
HETATM    7  C15 UNL     1      60.999  12.212  31.865  1.00  0.00     0.267 C 
ENDROOT
BRANCH   1   8
HETATM    8  N2  UNL     1      62.355  13.946  30.833  1.00  0.00    -0.351 N 
HETATM    9  C4  UNL     1      63.396  13.767  29.899  1.00  0.00     0.227 C 
HETATM   10  O1  UNL     1      63.269  12.933  28.984  1.00  0.00    -0.273 OA
ATOM     11  H2  UNL     1      62.452  14.629  31.584  1.00  0.00     0.163 HD
BRANCH   9  12
HETATM   12  C3  UNL     1      64.637  14.562  29.998  1.00  0.00     0.185 C 
BRANCH  12  13
HETATM   13  S1  UNL     1      64.607  15.862  28.760  1.00  0.00    -0.083 SA
BRANCH  13  14
HETATM   14  C2  UNL     1      62.917  16.406  28.544  1.00  0.00     0.162 A 
HETATM   15  N1  UNL     1      62.081  16.098  27.548  1.00  0.00    -0.316 N 
HETATM   16  C1  UNL     1      62.381  15.240  26.414  1.00  0.00     0.160 C 
HETATM   17  C17 UNL     1      60.885  16.691  27.713  1.00  0.00     0.158 A 
HETATM   18  N11 UNL     1      60.989  17.391  28.857  1.00  0.00    -0.284 N 
HETATM   19  N10 UNL     1      62.198  17.229  29.364  1.00  0.00    -0.278 N 
ATOM     20  H11 UNL     1      60.249  17.959  29.270  1.00  0.00     0.188 HD
ATOM     21  H10 UNL     1      62.540  17.651  30.228  1.00  0.00     0.189 HD
BRANCH  17  22
HETATM   22  C18 UNL     1      59.674  16.623  26.851  1.00  0.00     0.446 C 
BRANCH  22  23
HETATM   23  N12 UNL     1      58.932  15.404  27.097  1.00  0.00    -0.043 N 
ATOM     24 3H12 UNL     1      59.151  14.684  26.409  1.00  0.00     0.277 HD
ATOM     25 2H12 UNL     1      59.264  14.923  27.934  1.00  0.00     0.277 HD
ATOM     26 1H12 UNL     1      57.930  15.590  27.141  1.00  0.00     0.277 HD
ENDBRANCH  22  23
BRANCH  22  27
HETATM   27  N13 UNL     1      58.834  17.777  27.017  1.00  0.00    -0.043 N 
ATOM     28 3H13 UNL     1      57.952  17.532  27.468  1.00  0.00     0.277 HD
ATOM     29 2H13 UNL     1      59.207  18.409  27.725  1.00  0.00     0.277 HD
ATOM     30 1H13 UNL     1      58.677  18.262  26.133  1.00  0.00     0.277 HD
ENDBRANCH  22  27
ENDBRANCH  17  22
ENDBRANCH  13  14
ENDBRANCH  12  13
ENDBRANCH   9  12
ENDBRANCH   1   8
BRANCH   2  31
HETATM   31  O2  UNL     1      59.085  13.886  29.725  1.00  0.00    -0.390 OA
ATOM     32  H2  UNL     1      58.620  13.060  29.793  1.00  0.00     0.210 HD
ENDBRANCH   2  31
BRANCH   7  33
HETATM   33  C16 UNL     1      61.099  10.761  31.475  1.00  0.00     0.286 C 
BRANCH  33  34
HETATM   34  O4  UNL     1      59.982  10.455  30.688  1.00  0.00    -0.369 OA
ATOM     35  H4  UNL     1      60.295  10.046  29.890  1.00  0.00     0.212 HD
ENDBRANCH  33  34
BRANCH  33  36
HETATM   36  O5  UNL     1      61.166   9.923  32.579  1.00  0.00    -0.369 OA
ATOM     37  H5  UNL     1      62.045   9.864  32.934  1.00  0.00     0.212 HD
ENDBRANCH  33  36
ENDBRANCH   7  33
BRANCH   3  38
HETATM   38  N3  UNL     1      57.890  13.958  31.901  1.00  0.00    -0.251 N 
HETATM   39  C8  UNL     1      57.020  12.946  31.779  1.00  0.00     0.142 A 
HETATM   40  C9  UNL     1      55.758  13.470  31.636  1.00  0.00     0.077 A 
HETATM   41  N7  UNL     1      55.918  14.802  31.680  1.00  0.00    -0.282 N 
HETATM   42  N8  UNL     1      57.198  15.092  31.838  1.00  0.00    -0.018 NA
ATOM     43  H7  UNL     1      55.167  15.487  31.602  1.00  0.00     0.184 HD
BRANCH  40  44
HETATM   44  C10 UNL     1      54.475  12.711  31.467  1.00  0.00     0.050 A 
HETATM   45  C11 UNL     1      53.380  12.978  32.244  1.00  0.00     0.102 A 
HETATM   46  N4  UNL     1      53.277  13.974  33.295  1.00  0.00    -0.093 NA
HETATM   47  S2  UNL     1      52.216  11.877  31.676  1.00  0.00    -0.067 SA
HETATM   48  C12 UNL     1      53.135  11.103  30.472  1.00  0.00     0.096 A 
HETATM   49  C14 UNL     1      54.347  11.731  30.541  1.00  0.00     0.083 A 
HETATM   50  N6  UNL     1      55.419  11.316  29.629  1.00  0.00    -0.100 NA
BRANCH  48  51
HETATM   51  C13 UNL     1      52.732  10.007  29.554  1.00  0.00     0.273 C 
HETATM   52  N5  UNL     1      51.630  10.158  28.687  1.00  0.00    -0.057 NA
HETATM   53  O3  UNL     1      53.369   8.929  29.541  1.00  0.00    -0.270 OA
ENDBRANCH  48  51
ENDBRANCH  40  44
ENDBRANCH   3  38
TORSDOF 14
ENDMDL
MODEL 3
REMARK VINA RESULT: -7.913794819      2.916      4.088
REMARK  14 active torsions:
REMARK  status: ('A' for Active; 'I' for Inactive)
REMARK    1  A    between atoms: C2_3  and  S1_4 
REMARK    2  A    between atoms: S1_4  and  C3_5 
REMARK    3  A    between atoms: C3_5  and  C4_6 
REMARK       I    between atoms: C4_6  and  N2_8 
REMARK    4  A    between atoms: N2_8  and  C5_10 
REMARK    5  A    between atoms: C6_11  and  O2_12 
REMARK    6  A    between atoms: C7_14  and  N3_15 
REMARK    7  A    between atoms: C9_17  and  C10_18 
REMARK    8  A    between atoms: C12_22  and  C13_23 
REMARK    9  A    between atoms: C15_34  and  C16_35 
REMARK   10  A    between atoms: C16_35  and  O4_36 
REMARK   11  A    between atoms: C16_35  and  O5_38 
REMARK   12  A    between atoms: C17_44  and  C18_45 
REMARK   13  A    between atoms: C18_45  and  N12_46 
REMARK   14  A    between atoms: C18_45  and  N13_50 
ROOT
HETATM    1  C5  UNL     1      59.293  11.472  30.066  1.00  0.00     0.152 C 
HETATM    2  C6  UNL     1      57.826  11.564  29.809  1.00  0.00     0.194 C 
HETATM    3  C7  UNL     1      57.430  12.887  30.371  1.00  0.00     0.335 C 
HETATM    4  N9  UNL     1      58.415  13.237  31.375  1.00  0.00    -0.039 N 
ATOM      5  H91 UNL     1      58.141  12.978  32.322  1.00  0.00     0.280 HD
ATOM      6  H92 UNL     1      58.491  14.241  31.539  1.00  0.00     0.280 HD
HETATM    7  C15 UNL     1      59.656  12.623  30.941  1.00  0.00     0.267 C 
ENDROOT
BRANCH   1   8
HETATM    8  N2  UNL     1      59.972  11.538  28.788  1.00  0.00    -0.351 N 
HETATM    9  C4  UNL     1      61.089  10.710  28.549  1.00  0.00     0.227 C 
HETATM   10  O1  UNL     1      61.482   9.929  29.435  1.00  0.00    -0.273 OA
ATOM     11  H2  UNL     1      59.645  12.178  28.066  1.00  0.00     0.163 HD
BRANCH   9  12
HETATM   12  C3  UNL     1      61.797  10.763  27.254  1.00  0.00     0.185 C 
BRANCH  12  13
HETATM   13  S1  UNL     1      60.789  11.653  26.064  1.00  0.00    -0.083 SA
BRANCH  13  14
HETATM   14  C2  UNL     1      60.746  13.379  26.530  1.00  0.00     0.162 A 
HETATM   15  N1  UNL     1      59.746  14.248  26.353  1.00  0.00    -0.316 N 
HETATM   16  C1  UNL     1      58.463  13.961  25.735  1.00  0.00     0.160 C 
HETATM   17  C17 UNL     1      60.067  15.465  26.828  1.00  0.00     0.158 A 
HETATM   18  N11 UNL     1      61.313  15.340  27.316  1.00  0.00    -0.284 N 
HETATM   19  N10 UNL     1      61.731  14.098  27.145  1.00  0.00    -0.278 N 
ATOM     20  H11 UNL     1      61.854  16.088  27.752  1.00  0.00     0.188 HD
ATOM     21  H10 UNL     1      62.642  13.735  27.427  1.00  0.00     0.189 HD
BRANCH  17  22
HETATM   22  C18 UNL     1      59.258  16.714  26.836  1.00  0.00     0.446 C 
BRANCH  22  23
HETATM   23  N12 UNL     1      58.304  16.705  27.926  1.00  0.00    -0.043 N 
ATOM     24 3H12 UNL     1      57.360  16.503  27.599  1.00  0.00     0.277 HD
ATOM     25 2H12 UNL     1      58.434  15.895  28.534  1.00  0.00     0.277 HD
ATOM     26 1H12 UNL     1      58.342  17.579  28.450  1.00  0.00     0.277 HD
ENDBRANCH  22  23
BRANCH  22  27
HETATM   27  N13 UNL     1      60.087  17.887  26.890  1.00  0.00    -0.043 N 
ATOM     28 3H13 UNL     1      61.037  17.657  27.182  1.00  0.00     0.277 HD
ATOM     29 2H13 UNL     1      60.288  18.242  25.955  1.00  0.00     0.277 HD
ATOM     30 1H13 UNL     1      59.681  18.611  27.483  1.00  0.00     0.277 HD
ENDBRANCH  22  27
ENDBRANCH  17  22
ENDBRANCH  13  14
ENDBRANCH  12  13
ENDBRANCH   9  12
ENDBRANCH   1   8
BRANCH   2  31
HETATM   31  O2  UNL     1      57.103  10.554  30.440  1.00  0.00    -0.390 OA
ATOM     32  H2  UNL     1      56.174  10.749  30.500  1.00  0.00     0.210 HD
ENDBRANCH   2  31
BRANCH   7  33
HETATM   33  C16 UNL     1      60.431  12.232  32.171  1.00  0.00     0.286 C 
BRANCH  33  34
HETATM   34  O4  UNL     1      60.671  10.854  32.101  1.00  0.00    -0.369 OA
ATOM     35  H4  UNL     1      61.280  10.703  31.388  1.00  0.00     0.212 HD
ENDBRANCH  33  34
BRANCH  33  36
HETATM   36  O5  UNL     1      59.759  12.554  33.341  1.00  0.00    -0.369 OA
ATOM     37  H5  UNL     1      59.733  11.827  33.953  1.00  0.00     0.212 HD
ENDBRANCH  33  36
ENDBRANCH   7  33
BRANCH   3  38
HETATM   38  N3  UNL     1      56.093  12.774  30.910  1.00  0.00    -0.251 N 
HETATM   39  C8  UNL     1      55.740  13.193  32.133  1.00  0.00     0.142 A 
HETATM   40  C9  UNL     1      54.403  12.930  32.314  1.00  0.00     0.077 A 
HETATM   41  N7  UNL     1      53.995  12.353  31.172  1.00  0.00    -0.282 N 
HETATM   42  N8  UNL     1      55.011  12.261  30.332  1.00  0.00    -0.018 NA
ATOM     43  H7  UNL     1      53.045  12.035  30.982  1.00  0.00     0.184 HD
BRANCH  40  44
HETATM   44  C10 UNL     1      53.578  13.226  33.532  1.00  0.00     0.050 A 
HETATM   45  C11 UNL     1      53.444  12.312  34.542  1.00  0.00     0.102 A 
HETATM   46  N4  UNL     1      54.036  10.989  34.606  1.00  0.00    -0.093 NA
HETATM   47  S2  UNL     1      52.440  13.106  35.661  1.00  0.00    -0.067 SA
HETATM   48  C12 UNL     1      52.209  14.572  34.830  1.00  0.00     0.096 A 
HETATM   49  C14 UNL     1      52.932  14.407  33.682  1.00  0.00     0.083 A 
HETATM   50  N6  UNL     1      52.967  15.495  32.698  1.00  0.00    -0.100 NA
BRANCH  48  51
HETATM   51  C13 UNL     1      51.416  15.759  35.240  1.00  0.00     0.273 C 
HETATM   52  N5  UNL     1      52.043  17.001  35.476  1.00  0.00    -0.057 NA
HETATM   53  O3  UNL     1      50.175  15.671  35.384  1.00  0.00    -0.270 OA
ENDBRANCH  48  51
ENDBRANCH  40  44
ENDBRANCH   3  38
TORSDOF 14
ENDMDL
MODEL 4
REMARK VINA RESULT: -7.826115207      2.269      2.768
REMARK  14 active torsions:
REMARK  status: ('A' for Active; 'I' for Inactive)
REMARK    1  A    between atoms: C2_3  and  S1_4 
REMARK    2  A    between atoms: S1_4  and  C3_5 
REMARK    3  A    between atoms: C3_5  and  C4_6 
REMARK       I    between atoms: C4_6  and  N2_8 
REMARK    4  A    between atoms: N2_8  and  C5_10 
REMARK    5  A    between atoms: C6_11  and  O2_12 
REMARK    6  A    between atoms: C7_14  and  N3_15 
REMARK    7  A    between atoms: C9_17  and  C10_18 
REMARK    8  A    between atoms: C12_22  and  C13_23 
REMARK    9  A    between atoms: C15_34  and  C16_35 
REMARK   10  A    between atoms: C16_35  and  O4_36 
REMARK   11  A    between atoms: C16_35  and  O5_38 
REMARK   12  A    between atoms: C17_44  and  C18_45 
REMARK   13  A    between atoms: C18_45  and  N12_46 
REMARK   14  A    between atoms: C18_45  and  N13_50 
ROOT
HETATM    1  C5  UNL     1      62.850  13.645  30.168  1.00  0.00     0.152 C 
HETATM    2  C6  UNL     1      61.687  13.486  29.247  1.00  0.00     0.194 C 
HETATM    3  C7  UNL     1      60.492  13.710  30.111  1.00  0.00     0.335 C 
HETATM    4  N9  UNL     1      60.889  13.417  31.474  1.00  0.00    -0.039 N 
ATOM      5  H91 UNL     1      60.672  12.464  31.766  1.00  0.00     0.280 HD
ATOM      6  H92 UNL     1      60.322  13.893  32.176  1.00  0.00     0.280 HD
HETATM    7  C15 UNL     1      62.302  13.741  31.552  1.00  0.00     0.267 C 
ENDROOT
BRANCH   1   8
HETATM    8  N2  UNL     1      63.555  14.852  29.789  1.00  0.00    -0.351 N 
HETATM    9  C4  UNL     1      64.502  14.808  28.745  1.00  0.00     0.227 C 
HETATM   10  O1  UNL     1      64.724  13.734  28.156  1.00  0.00    -0.273 OA
ATOM     11  H2  UNL     1      63.367  15.729  30.273  1.00  0.00     0.163 HD
BRANCH   9  12
HETATM   12  C3  UNL     1      65.232  16.027  28.344  1.00  0.00     0.185 C 
BRANCH  12  13
HETATM   13  S1  UNL     1      64.651  16.562  26.732  1.00  0.00    -0.083 SA
BRANCH  13  14
HETATM   14  C2  UNL     1      62.909  16.179  26.598  1.00  0.00     0.162 A 
HETATM   15  N1  UNL     1      61.876  16.932  26.987  1.00  0.00    -0.316 N 
HETATM   16  C1  UNL     1      61.958  18.242  27.609  1.00  0.00     0.160 C 
HETATM   17  C17 UNL     1      60.704  16.323  26.729  1.00  0.00     0.158 A 
HETATM   18  N11 UNL     1      61.030  15.148  26.160  1.00  0.00    -0.284 N 
HETATM   19  N10 UNL     1      62.345  15.050  26.075  1.00  0.00    -0.278 N 
ATOM     20  H11 UNL     1      60.365  14.443  25.843  1.00  0.00     0.188 HD
ATOM     21  H10 UNL     1      62.856  14.259  25.682  1.00  0.00     0.189 HD
BRANCH  17  22
HETATM   22  C18 UNL     1      59.319  16.797  26.996  1.00  0.00     0.446 C 
BRANCH  22  23
HETATM   23  N12 UNL     1      58.411  16.351  25.959  1.00  0.00    -0.043 N 
ATOM     24 3H12 UNL     1      58.808  16.482  25.029  1.00  0.00     0.277 HD
ATOM     25 2H12 UNL     1      58.324  15.334  25.948  1.00  0.00     0.277 HD
ATOM     26 1H12 UNL     1      57.503  16.807  26.050  1.00  0.00     0.277 HD
ENDBRANCH  22  23
BRANCH  22  27
HETATM   27  N13 UNL     1      58.855  16.390  28.294  1.00  0.00    -0.043 N 
ATOM     28 3H13 UNL     1      58.101  16.992  28.624  1.00  0.00     0.277 HD
ATOM     29 2H13 UNL     1      58.346  15.507  28.246  1.00  0.00     0.277 HD
ATOM     30 1H13 UNL     1      59.617  16.343  28.971  1.00  0.00     0.277 HD
ENDBRANCH  22  27
ENDBRANCH  17  22
ENDBRANCH  13  14
ENDBRANCH  12  13
ENDBRANCH   9  12
ENDBRANCH   1   8
BRANCH   2  31
HETATM   31  O2  UNL     1      61.618  12.217  28.677  1.00  0.00    -0.390 OA
ATOM     32  H2  UNL     1      60.830  11.746  28.921  1.00  0.00     0.210 HD
ENDBRANCH   2  31
BRANCH   7  33
HETATM   33  C16 UNL     1      62.940  12.788  32.526  1.00  0.00     0.286 C 
BRANCH  33  34
HETATM   34  O4  UNL     1      62.648  13.244  33.818  1.00  0.00    -0.369 OA
ATOM     35  H4  UNL     1      63.465  13.275  34.304  1.00  0.00     0.212 HD
ENDBRANCH  33  34
BRANCH  33  36
HETATM   36  O5  UNL     1      64.312  12.687  32.341  1.00  0.00    -0.369 OA
ATOM     37  H5  UNL     1      64.736  12.206  33.043  1.00  0.00     0.212 HD
ENDBRANCH  33  36
ENDBRANCH   7  33
BRANCH   3  38
HETATM   38  N3  UNL     1      59.422  12.858  29.643  1.00  0.00    -0.251 N 
HETATM   39  C8  UNL     1      58.439  12.390  30.424  1.00  0.00     0.142 A 
HETATM   40  C9  UNL     1      57.601  11.618  29.655  1.00  0.00     0.077 A 
HETATM   41  N7  UNL     1      58.120  11.652  28.418  1.00  0.00    -0.282 N 
HETATM   42  N8  UNL     1      59.212  12.397  28.413  1.00  0.00    -0.018 NA
ATOM     43  H7  UNL     1      57.731  11.176  27.604  1.00  0.00     0.184 HD
BRANCH  40  44
HETATM   44  C10 UNL     1      56.369  10.891  30.107  1.00  0.00     0.050 A 
HETATM   45  C11 UNL     1      55.305  11.560  30.650  1.00  0.00     0.102 A 
HETATM   46  N4  UNL     1      55.192  12.990  30.869  1.00  0.00    -0.093 NA
HETATM   47  S2  UNL     1      54.192  10.320  30.989  1.00  0.00    -0.067 SA
HETATM   48  C12 UNL     1      55.093   8.986  30.441  1.00  0.00     0.096 A 
HETATM   49  C14 UNL     1      56.258   9.546  29.998  1.00  0.00     0.083 A 
HETATM   50  N6  UNL     1      57.301   8.677  29.441  1.00  0.00    -0.100 NA
BRANCH  48  51
HETATM   51  C13 UNL     1      54.717   7.549  30.434  1.00  0.00     0.273 C 
HETATM   52  N5  UNL     1      54.725   6.793  31.625  1.00  0.00    -0.057 NA
HETATM   53  O3  UNL     1      54.389   6.987  29.363  1.00  0.00    -0.270 OA
ENDBRANCH  48  51
ENDBRANCH  40  44
ENDBRANCH   3  38
TORSDOF 14
ENDMDL
MODEL 5
REMARK VINA RESULT: -7.748843808      2.610      3.364
REMARK  14 active torsions:
REMARK  status: ('A' for Active; 'I' for Inactive)
REMARK    1  A    between atoms: C2_3  and  S1_4 
REMARK    2  A    between atoms: S1_4  and  C3_5 
REMARK    3  A    between atoms: C3_5  and  C4_6 
REMARK       I    between atoms: C4_6  and  N2_8 
REMARK    4  A    between atoms: N2_8  and  C5_10 
REMARK    5  A    between atoms: C6_11  and  O2_12 
REMARK    6  A    between atoms: C7_14  and  N3_15 
REMARK    7  A    between atoms: C9_17  and  C10_18 
REMARK    8  A    between atoms: C12_22  and  C13_23 
REMARK    9  A    between atoms: C15_34  and  C16_35 
REMARK   10  A    between atoms: C16_35  and  O4_36 
REMARK   11  A    between atoms: C16_35  and  O5_38 
REMARK   12  A    between atoms: C17_44  and  C18_45 
REMARK   13  A    between atoms: C18_45  and  N12_46 
REMARK   14  A    between atoms: C18_45  and  N13_50 
ROOT
HETATM    1  C5  UNL     1      61.182  12.845  28.811  1.00  0.00     0.152 C 
HETATM    2  C6  UNL     1      60.002  13.215  29.645  1.00  0.00     0.194 C 
HETATM    3  C7  UNL     1      59.556  11.929  30.254  1.00  0.00     0.335 C 
HETATM    4  N9  UNL     1      60.027  10.863  29.393  1.00  0.00    -0.039 N 
ATOM      5  H91 UNL     1      59.334  10.550  28.713  1.00  0.00     0.280 HD
ATOM      6  H92 UNL     1      60.140   9.969  29.873  1.00  0.00     0.280 HD
HETATM    7  C15 UNL     1      61.251  11.355  28.789  1.00  0.00     0.267 C 
ENDROOT
BRANCH   1   8
HETATM    8  N2  UNL     1      62.359  13.425  29.424  1.00  0.00    -0.351 N 
HETATM    9  C4  UNL     1      63.499  13.687  28.635  1.00  0.00     0.227 C 
HETATM   10  O1  UNL     1      63.485  13.419  27.420  1.00  0.00    -0.273 OA
ATOM     11  H2  UNL     1      62.364  13.644  30.420  1.00  0.00     0.163 HD
BRANCH   9  12
HETATM   12  C3  UNL     1      64.709  14.277  29.241  1.00  0.00     0.185 C 
BRANCH  12  13
HETATM   13  S1  UNL     1      64.858  15.988  28.721  1.00  0.00    -0.083 SA
BRANCH  13  14
HETATM   14  C2  UNL     1      63.216  16.682  28.564  1.00  0.00     0.162 A 
HETATM   15  N1  UNL     1      62.629  17.146  27.458  1.00  0.00    -0.316 N 
HETATM   16  C1  UNL     1      63.215  17.182  26.129  1.00  0.00     0.160 C 
HETATM   17  C17 UNL     1      61.386  17.594  27.715  1.00  0.00     0.158 A 
HETATM   18  N11 UNL     1      61.203  17.396  29.033  1.00  0.00    -0.284 N 
HETATM   19  N10 UNL     1      62.288  16.852  29.553  1.00  0.00    -0.278 N 
ATOM     20  H11 UNL     1      60.356  17.632  29.552  1.00  0.00     0.188 HD
ATOM     21  H10 UNL     1      62.414  16.599  30.534  1.00  0.00     0.189 HD
BRANCH  17  22
HETATM   22  C18 UNL     1      60.389  18.188  26.785  1.00  0.00     0.446 C 
BRANCH  22  23
HETATM   23  N12 UNL     1      59.093  17.563  26.948  1.00  0.00    -0.043 N 
ATOM     24 3H12 UNL     1      59.179  16.584  27.221  1.00  0.00     0.277 HD
ATOM     25 2H12 UNL     1      58.608  17.912  27.776  1.00  0.00     0.277 HD
ATOM     26 1H12 UNL     1      58.528  17.671  26.106  1.00  0.00     0.277 HD
ENDBRANCH  22  23
BRANCH  22  27
HETATM   27  N13 UNL     1      60.294  19.614  26.942  1.00  0.00    -0.043 N 
ATOM     28 3H13 UNL     1      61.213  20.033  27.087  1.00  0.00     0.277 HD
ATOM     29 2H13 UNL     1      60.048  20.068  26.063  1.00  0.00     0.277 HD
ATOM     30 1H13 UNL     1      59.646  19.871  27.687  1.00  0.00     0.277 HD
ENDBRANCH  22  27
ENDBRANCH  17  22
ENDBRANCH  13  14
ENDBRANCH  12  13
ENDBRANCH   9  12
ENDBRANCH   1   8
BRANCH   2  31
HETATM   31  O2  UNL     1      58.962  13.763  28.898  1.00  0.00    -0.390 OA
ATOM     32  H2  UNL     1      58.108  13.449  29.170  1.00  0.00     0.210 HD
ENDBRANCH   2  31
BRANCH   7  33
HETATM   33  C16 UNL     1      61.351  10.771  27.406  1.00  0.00     0.286 C 
BRANCH  33  34
HETATM   34  O4  UNL     1      62.678  10.366  27.211  1.00  0.00    -0.369 OA
ATOM     35  H4  UNL     1      62.665   9.592  26.660  1.00  0.00     0.212 HD
ENDBRANCH  33  34
BRANCH  33  36
HETATM   36  O5  UNL     1      60.965  11.672  26.424  1.00  0.00    -0.369 OA
ATOM     37  H5  UNL     1      60.132  11.442  26.031  1.00  0.00     0.212 HD
ENDBRANCH  33  36
ENDBRANCH   7  33
BRANCH   3  38
HETATM   38  N3  UNL     1      58.115  11.956  30.376  1.00  0.00    -0.251 N 
HETATM   39  C8  UNL     1      57.454  12.658  31.307  1.00  0.00     0.142 A 
HETATM   40  C9  UNL     1      56.106  12.454  31.132  1.00  0.00     0.077 A 
HETATM   41  N7  UNL     1      56.005  11.622  30.083  1.00  0.00    -0.282 N 
HETATM   42  N8  UNL     1      57.211  11.325  29.632  1.00  0.00    -0.018 NA
ATOM     43  H7  UNL     1      55.130  11.272  29.694  1.00  0.00     0.184 HD
BRANCH  40  44
HETATM   44  C10 UNL     1      54.989  13.037  31.944  1.00  0.00     0.050 A 
HETATM   45  C11 UNL     1      54.492  14.286  31.682  1.00  0.00     0.102 A 
HETATM   46  N4  UNL     1      54.932  15.199  30.644  1.00  0.00    -0.093 NA
HETATM   47  S2  UNL     1      53.271  14.478  32.849  1.00  0.00    -0.067 SA
HETATM   48  C12 UNL     1      53.413  12.981  33.643  1.00  0.00     0.096 A 
HETATM   49  C14 UNL     1      54.425  12.355  32.970  1.00  0.00     0.083 A 
HETATM   50  N6  UNL     1      54.835  11.010  33.387  1.00  0.00    -0.100 NA
BRANCH  48  51
HETATM   51  C13 UNL     1      52.632  12.460  34.794  1.00  0.00     0.273 C 
HETATM   52  N5  UNL     1      51.877  11.274  34.679  1.00  0.00    -0.057 NA
HETATM   53  O3  UNL     1      52.633  13.072  35.887  1.00  0.00    -0.270 OA
ENDBRANCH  48  51
ENDBRANCH  40  44
ENDBRANCH   3  38
TORSDOF 14
ENDMDL
