MODEL 1
REMARK VINA RESULT: -8.056153134      0.000      0.000
REMARK  18 active torsions:
REMARK  status: ('A' for Active; 'I' for Inactive)
REMARK    1  A    between atoms: O1_2  and  C2_3 
REMARK    2  A    between atoms: C2_3  and  O3_21 
REMARK    3  A    between atoms: N1_4  and  N2_6 
REMARK    4  A    between atoms: C5_10  and  C6_11 
REMARK    5  A    between atoms: C7_17  and  N6_18 
REMARK    6  A    between atoms: O3_21  and  C8_22 
REMARK    7  A    between atoms: C8_22  and  C13_35 
REMARK    8  A    between atoms: C9_23  and  O4_24 
REMARK    9  A    between atoms: O4_24  and  C10_25 
REMARK   10  A    between atoms: C10_25  and  C11_27 
REMARK   11  A    between atoms: C11_27  and  O6_28 
REMARK   12  A    between atoms: C11_27  and  C12_30 
REMARK   13  A    between atoms: C12_30  and  O7_31 
REMARK   14  A    between atoms: C12_30  and  O8_33 
REMARK   15  A    between atoms: C13_35  and  O9_36 
REMARK   16  A    between atoms: O9_36  and  C14_37 
REMARK   17  A    between atoms: C17_43  and  N8_44 
REMARK   18  A    between atoms: C18_49  and  N10_50 
ROOT
HETATM    1  C8  UNL     1      58.770  13.652  31.463  1.00  0.00     0.140 C 
HETATM    2  C9  UNL     1      59.316  12.705  32.398  1.00  0.00     0.186 C 
ENDROOT
BRANCH   1   3
HETATM    3  O3  UNL     1      57.875  14.662  32.071  1.00  0.00    -0.268 OA
BRANCH   3   4
HETATM    4  C2  UNL     1      56.489  14.330  32.071  1.00  0.00     0.284 C 
HETATM    5  N1  UNL     1      56.207  13.183  32.407  1.00  0.00    -0.257 N 
ATOM      6  H1  UNL     1      57.056  12.665  32.633  1.00  0.00     0.191 HD
BRANCH   4   7
HETATM    7  O1  UNL     1      55.542  15.249  31.712  1.00  0.00    -0.320 OA
HETATM    8  C1  UNL     1      54.806  15.206  30.510  1.00  0.00     0.214 C 
ENDBRANCH   4   7
BRANCH   5   9
HETATM    9  N2  UNL     1      55.121  12.390  32.572  1.00  0.00    -0.257 N 
HETATM   10  C3  UNL     1      54.645  11.193  31.851  1.00  0.00     0.420 C 
HETATM   11  N3  UNL     1      53.307  11.542  32.302  1.00  0.00     0.133 N 
HETATM   12  C4  UNL     1      52.680  12.388  31.316  1.00  0.00     0.315 C 
HETATM   13  C5  UNL     1      53.934  12.247  33.400  1.00  0.00     0.398 C 
BRANCH  13  14
HETATM   14  C6  UNL     1      53.274  13.495  33.783  1.00  0.00     0.133 A 
HETATM   15  N4  UNL     1      53.145  14.663  33.158  1.00  0.00    -0.238 N 
HETATM   16  O2  UNL     1      52.468  15.469  33.916  1.00  0.00    -0.155 OA
ATOM     17  H4  UNL     1      53.516  14.887  32.235  1.00  0.00     0.196 HD
HETATM   18  N5  UNL     1      52.128  14.910  35.028  1.00  0.00    -0.224 N 
HETATM   19  C7  UNL     1      52.606  13.670  35.001  1.00  0.00     0.150 A 
ATOM     20  H5  UNL     1      51.594  15.338  35.784  1.00  0.00     0.198 HD
BRANCH  19  21
HETATM   21  N6  UNL     1      52.462  12.800  35.953  1.00  0.00    -0.382 N 
ATOM     22  H62 UNL     1      53.067  11.991  36.100  1.00  0.00     0.157 HD
ATOM     23  H61 UNL     1      51.745  12.788  36.679  1.00  0.00     0.157 HD
ENDBRANCH  19  21
ENDBRANCH  13  14
ENDBRANCH   5   9
ENDBRANCH   3   4
ENDBRANCH   1   3
BRANCH   1  24
HETATM   24  C13 UNL     1      58.893  13.838  30.210  1.00  0.00     0.160 C 
HETATM   25  C16 UNL     1      59.495  14.936  29.508  1.00  0.00     0.173 A 
HETATM   26  N7  UNL     1      60.815  15.266  29.726  1.00  0.00    -0.173 N 
HETATM   27  N11 UNL     1      58.882  15.718  28.606  1.00  0.00    -0.173 N 
HETATM   28  C17 UNL     1      61.442  16.265  29.107  1.00  0.00     0.692 A 
ATOM     29  H7  UNL     1      61.343  14.713  30.402  1.00  0.00     0.186 HD
HETATM   30  N9  UNL     1      60.763  16.992  28.227  1.00  0.00    -0.023 N 
HETATM   31  C18 UNL     1      59.477  16.738  27.957  1.00  0.00     0.692 A 
ATOM     32  H9  UNL     1      61.231  17.760  27.746  1.00  0.00     0.203 HD
ATOM     33  H11 UNL     1      57.902  15.527  28.398  1.00  0.00     0.186 HD
BRANCH  24  34
HETATM   34  O9  UNL     1      58.392  12.812  29.347  1.00  0.00    -0.272 OA
BRANCH  34  35
HETATM   35  C14 UNL     1      59.155  12.149  28.438  1.00  0.00     0.260 C 
HETATM   36  C15 UNL     1      58.695  12.224  27.003  1.00  0.00     0.126 C 
HETATM   37  O10 UNL     1      60.176  11.514  28.760  1.00  0.00    -0.265 OA
ENDBRANCH  34  35
ENDBRANCH  24  34
BRANCH  28  38
HETATM   38  N8  UNL     1      62.684  16.562  29.325  1.00  0.00    -0.234 N 
ATOM     39  H82 UNL     1      63.328  15.809  29.566  1.00  0.00     0.174 HD
ATOM     40  H81 UNL     1      63.046  17.513  29.266  1.00  0.00     0.174 HD
ENDBRANCH  28  38
BRANCH  31  41
HETATM   41  N10 UNL     1      58.821  17.443  27.103  1.00  0.00    -0.234 N 
ATOM     42 2H10 UNL     1      59.311  18.021  26.420  1.00  0.00     0.174 HD
ATOM     43 1H10 UNL     1      57.801  17.442  27.086  1.00  0.00     0.174 HD
ENDBRANCH  31  41
ENDBRANCH   1  24
BRANCH   2  44
HETATM   44  O4  UNL     1      60.206  11.756  32.011  1.00  0.00    -0.286 OA
BRANCH  44  45
HETATM   45  C10 UNL     1      61.435  11.488  32.648  1.00  0.00     0.297 C 
HETATM   46  O5  UNL     1      61.560  10.374  33.208  1.00  0.00    -0.262 OA
BRANCH  45  47
HETATM   47  C11 UNL     1      62.550  12.435  32.684  1.00  0.00     0.272 C 
BRANCH  47  48
HETATM   48  O6  UNL     1      62.648  13.146  33.853  1.00  0.00    -0.381 OA
ATOM     49  H6  UNL     1      63.358  13.778  33.867  1.00  0.00     0.210 HD
ENDBRANCH  47  48
BRANCH  47  50
HETATM   50  C12 UNL     1      62.436  13.396  31.494  1.00  0.00     0.292 C 
BRANCH  50  51
HETATM   51  O7  UNL     1      62.339  12.672  30.307  1.00  0.00    -0.368 OA
ATOM     52  H7  UNL     1      62.349  13.265  29.565  1.00  0.00     0.212 HD
ENDBRANCH  50  51
BRANCH  50  53
HETATM   53  O8  UNL     1      63.482  14.312  31.483  1.00  0.00    -0.368 OA
ATOM     54  H8  UNL     1      64.322  13.877  31.401  1.00  0.00     0.212 HD
ENDBRANCH  50  53
ENDBRANCH  47  50
ENDBRANCH  45  47
ENDBRANCH  44  45
ENDBRANCH   2  44
TORSDOF 18
ENDMDL
MODEL 2
REMARK VINA RESULT: -7.944436355      2.956      8.062
REMARK  18 active torsions:
REMARK  status: ('A' for Active; 'I' for Inactive)
REMARK    1  A    between atoms: O1_2  and  C2_3 
REMARK    2  A    between atoms: C2_3  and  O3_21 
REMARK    3  A    between atoms: N1_4  and  N2_6 
REMARK    4  A    between atoms: C5_10  and  C6_11 
REMARK    5  A    between atoms: C7_17  and  N6_18 
REMARK    6  A    between atoms: O3_21  and  C8_22 
REMARK    7  A    between atoms: C8_22  and  C13_35 
REMARK    8  A    between atoms: C9_23  and  O4_24 
REMARK    9  A    between atoms: O4_24  and  C10_25 
REMARK   10  A    between atoms: C10_25  and  C11_27 
REMARK   11  A    between atoms: C11_27  and  O6_28 
REMARK   12  A    between atoms: C11_27  and  C12_30 
REMARK   13  A    between atoms: C12_30  and  O7_31 
REMARK   14  A    between atoms: C12_30  and  O8_33 
REMARK   15  A    between atoms: C13_35  and  O9_36 
REMARK   16  A    between atoms: O9_36  and  C14_37 
REMARK   17  A    between atoms: C17_43  and  N8_44 
REMARK   18  A    between atoms: C18_49  and  N10_50 
ROOT
HETATM    1  C8  UNL     1      57.500  11.253  29.771  1.00  0.00     0.140 C 
HETATM    2  C9  UNL     1      56.630  10.336  29.084  1.00  0.00     0.186 C 
ENDROOT
BRANCH   1   3
HETATM    3  O3  UNL     1      58.908  11.215  29.317  1.00  0.00    -0.268 OA
BRANCH   3   4
HETATM    4  C2  UNL     1      59.295  12.267  28.437  1.00  0.00     0.284 C 
HETATM    5  N1  UNL     1      60.387  12.784  28.658  1.00  0.00    -0.257 N 
ATOM      6  H1  UNL     1      60.827  12.341  29.464  1.00  0.00     0.191 HD
BRANCH   4   7
HETATM    7  O1  UNL     1      58.483  12.666  27.411  1.00  0.00    -0.320 OA
HETATM    8  C1  UNL     1      58.571  12.180  26.090  1.00  0.00     0.214 C 
ENDBRANCH   4   7
BRANCH   5   9
HETATM    9  N2  UNL     1      61.190  13.758  28.167  1.00  0.00    -0.257 N 
HETATM   10  C3  UNL     1      62.634  14.028  28.319  1.00  0.00     0.420 C 
HETATM   11  N3  UNL     1      62.328  15.422  28.041  1.00  0.00     0.133 N 
HETATM   12  C4  UNL     1      62.068  16.107  29.284  1.00  0.00     0.315 C 
HETATM   13  C5  UNL     1      61.149  14.956  27.343  1.00  0.00     0.398 C 
BRANCH  13  14
HETATM   14  C6  UNL     1      59.965  15.799  27.507  1.00  0.00     0.133 A 
HETATM   15  N4  UNL     1      58.809  15.598  28.136  1.00  0.00    -0.238 N 
HETATM   16  O2  UNL     1      58.069  16.654  27.995  1.00  0.00    -0.155 OA
ATOM     17  H4  UNL     1      58.548  14.753  28.645  1.00  0.00     0.196 HD
HETATM   18  N5  UNL     1      58.663  17.566  27.303  1.00  0.00    -0.224 N 
HETATM   19  C7  UNL     1      59.857  17.086  26.969  1.00  0.00     0.150 A 
ATOM     20  H5  UNL     1      58.287  18.482  27.057  1.00  0.00     0.198 HD
BRANCH  19  21
HETATM   21  N6  UNL     1      60.742  17.724  26.266  1.00  0.00    -0.382 N 
ATOM     22  H62 UNL     1      60.974  17.517  25.295  1.00  0.00     0.157 HD
ATOM     23  H61 UNL     1      61.325  18.506  26.566  1.00  0.00     0.157 HD
ENDBRANCH  19  21
ENDBRANCH  13  14
ENDBRANCH   5   9
ENDBRANCH   3   4
ENDBRANCH   1   3
BRANCH   1  24
HETATM   24  C13 UNL     1      57.332  12.121  30.687  1.00  0.00     0.160 C 
HETATM   25  C16 UNL     1      56.144  12.448  31.423  1.00  0.00     0.173 A 
HETATM   26  N7  UNL     1      55.491  11.484  32.161  1.00  0.00    -0.173 N 
HETATM   27  N11 UNL     1      55.569  13.659  31.482  1.00  0.00    -0.173 N 
HETATM   28  C17 UNL     1      54.390  11.716  32.874  1.00  0.00     0.692 A 
ATOM     29  H7  UNL     1      55.874  10.538  32.162  1.00  0.00     0.186 HD
HETATM   30  N9  UNL     1      53.884  12.944  32.879  1.00  0.00    -0.023 N 
HETATM   31  C18 UNL     1      54.456  13.937  32.189  1.00  0.00     0.692 A 
ATOM     32  H9  UNL     1      53.041  13.134  33.421  1.00  0.00     0.203 HD
ATOM     33  H11 UNL     1      56.003  14.418  30.957  1.00  0.00     0.186 HD
BRANCH  24  34
HETATM   34  O9  UNL     1      58.479  12.881  31.083  1.00  0.00    -0.272 OA
BRANCH  34  35
HETATM   35  C14 UNL     1      59.131  12.705  32.263  1.00  0.00     0.260 C 
HETATM   36  C15 UNL     1      60.558  12.224  32.166  1.00  0.00     0.126 C 
HETATM   37  O10 UNL     1      58.593  12.925  33.363  1.00  0.00    -0.265 OA
ENDBRANCH  34  35
ENDBRANCH  24  34
BRANCH  28  38
HETATM   38  N8  UNL     1      53.789  10.798  33.562  1.00  0.00    -0.234 N 
ATOM     39  H82 UNL     1      53.841   9.833  33.235  1.00  0.00     0.174 HD
ATOM     40  H81 UNL     1      53.267  10.995  34.415  1.00  0.00     0.174 HD
ENDBRANCH  28  38
BRANCH  31  41
HETATM   41  N10 UNL     1      53.964  15.127  32.196  1.00  0.00    -0.234 N 
ATOM     42 2H10 UNL     1      52.960  15.275  32.089  1.00  0.00     0.174 HD
ATOM     43 1H10 UNL     1      54.561  15.947  32.309  1.00  0.00     0.174 HD
ENDBRANCH  31  41
ENDBRANCH   1  24
BRANCH   2  44
HETATM   44  O4  UNL     1      55.297  10.294  29.336  1.00  0.00    -0.286 OA
BRANCH  44  45
HETATM   45  C10 UNL     1      54.628   9.238  29.987  1.00  0.00     0.297 C 
HETATM   46  O5  UNL     1      53.548   9.511  30.563  1.00  0.00    -0.262 OA
BRANCH  45  47
HETATM   47  C11 UNL     1      55.127   7.863  30.021  1.00  0.00     0.272 C 
BRANCH  47  48
HETATM   48  O6  UNL     1      54.385   6.976  29.282  1.00  0.00    -0.381 OA
ATOM     49  H6  UNL     1      54.734   6.803  28.416  1.00  0.00     0.210 HD
ENDBRANCH  47  48
BRANCH  47  50
HETATM   50  C12 UNL     1      55.209   7.390  31.478  1.00  0.00     0.292 C 
BRANCH  50  51
HETATM   51  O7  UNL     1      54.048   6.698  31.818  1.00  0.00    -0.368 OA
ATOM     52  H7  UNL     1      53.923   5.966  31.225  1.00  0.00     0.212 HD
ENDBRANCH  50  51
BRANCH  50  53
HETATM   53  O8  UNL     1      55.478   8.448  32.338  1.00  0.00    -0.368 OA
ATOM     54  H8  UNL     1      56.209   8.250  32.912  1.00  0.00     0.212 HD
ENDBRANCH  50  53
ENDBRANCH  47  50
ENDBRANCH  45  47
ENDBRANCH  44  45
ENDBRANCH   2  44
TORSDOF 18
ENDMDL
MODEL 3
REMARK VINA RESULT: -7.856596022      1.648      2.334
REMARK  18 active torsions:
REMARK  status: ('A' for Active; 'I' for Inactive)
REMARK    1  A    between atoms: O1_2  and  C2_3 
REMARK    2  A    between atoms: C2_3  and  O3_21 
REMARK    3  A    between atoms: N1_4  and  N2_6 
REMARK    4  A    between atoms: C5_10  and  C6_11 
REMARK    5  A    between atoms: C7_17  and  N6_18 
REMARK    6  A    between atoms: O3_21  and  C8_22 
REMARK    7  A    between atoms: C8_22  and  C13_35 
REMARK    8  A    between atoms: C9_23  and  O4_24 
REMARK    9  A    between atoms: O4_24  and  C10_25 
REMARK   10  A    between atoms: C10_25  and  C11_27 
REMARK   11  A    between atoms: C11_27  and  O6_28 
REMARK   12  A    between atoms: C11_27  and  C12_30 
REMARK   13  A    between atoms: C12_30  and  O7_31 
REMARK   14  A    between atoms: C12_30  and  O8_33 
REMARK   15  A    between atoms: C13_35  and  O9_36 
REMARK   16  A    between atoms: O9_36  and  C14_37 
REMARK   17  A    between atoms: C17_43  and  N8_44 
REMARK   18  A    between atoms: C18_49  and  N10_50 
ROOT
HETATM    1  C8  UNL     1      58.817  13.086  30.156  1.00  0.00     0.140 C 
HETATM    2  C9  UNL     1      59.194  13.123  31.543  1.00  0.00     0.186 C 
ENDROOT
BRANCH   1   3
HETATM    3  O3  UNL     1      57.364  12.928  29.922  1.00  0.00    -0.268 OA
BRANCH   3   4
HETATM    4  C2  UNL     1      56.740  11.871  30.645  1.00  0.00     0.284 C 
HETATM    5  N1  UNL     1      55.789  12.187  31.356  1.00  0.00    -0.257 N 
ATOM      6  H1  UNL     1      55.621  13.191  31.288  1.00  0.00     0.191 HD
BRANCH   4   7
HETATM    7  O1  UNL     1      57.189  10.583  30.543  1.00  0.00    -0.320 OA
HETATM    8  C1  UNL     1      56.995   9.759  29.415  1.00  0.00     0.214 C 
ENDBRANCH   4   7
BRANCH   5   9
HETATM    9  N2  UNL     1      54.895  11.622  32.201  1.00  0.00    -0.257 N 
HETATM   10  C3  UNL     1      54.251  10.293  32.225  1.00  0.00     0.420 C 
HETATM   11  N3  UNL     1      53.166  10.913  32.969  1.00  0.00     0.133 N 
HETATM   12  C4  UNL     1      52.164  11.382  32.043  1.00  0.00     0.315 C 
HETATM   13  C5  UNL     1      54.119  11.915  33.396  1.00  0.00     0.398 C 
BRANCH  13  14
HETATM   14  C6  UNL     1      53.583  13.272  33.487  1.00  0.00     0.133 A 
HETATM   15  N4  UNL     1      53.638  14.310  32.655  1.00  0.00    -0.238 N 
HETATM   16  O2  UNL     1      53.004  15.308  33.190  1.00  0.00    -0.155 OA
ATOM     17  H4  UNL     1      54.103  14.320  31.748  1.00  0.00     0.196 HD
HETATM   18  N5  UNL     1      52.517  15.002  34.345  1.00  0.00    -0.224 N 
HETATM   19  C7  UNL     1      52.848  13.737  34.584  1.00  0.00     0.150 A 
ATOM     20  H5  UNL     1      51.980  15.615  34.958  1.00  0.00     0.198 HD
BRANCH  19  21
HETATM   21  N6  UNL     1      52.530  13.079  35.657  1.00  0.00    -0.382 N 
ATOM     22  H62 UNL     1      51.578  12.941  35.996  1.00  0.00     0.157 HD
ATOM     23  H61 UNL     1      53.163  12.612  36.307  1.00  0.00     0.157 HD
ENDBRANCH  19  21
ENDBRANCH  13  14
ENDBRANCH   5   9
ENDBRANCH   3   4
ENDBRANCH   1   3
BRANCH   1  24
HETATM   24  C13 UNL     1      59.455  13.176  29.058  1.00  0.00     0.160 C 
HETATM   25  C16 UNL     1      59.226  14.050  27.942  1.00  0.00     0.173 A 
HETATM   26  N7  UNL     1      59.245  15.418  28.111  1.00  0.00    -0.173 N 
HETATM   27  N11 UNL     1      58.990  13.662  26.680  1.00  0.00    -0.173 N 
HETATM   28  C17 UNL     1      59.050  16.290  27.122  1.00  0.00     0.692 A 
ATOM     29  H7  UNL     1      59.419  15.785  29.047  1.00  0.00     0.186 HD
HETATM   30  N9  UNL     1      58.822  15.822  25.900  1.00  0.00    -0.023 N 
HETATM   31  C18 UNL     1      58.787  14.508  25.651  1.00  0.00     0.692 A 
ATOM     32  H9  UNL     1      58.670  16.479  25.135  1.00  0.00     0.203 HD
ATOM     33  H11 UNL     1      58.963  12.661  26.486  1.00  0.00     0.186 HD
BRANCH  24  34
HETATM   34  O9  UNL     1      60.584  12.313  28.887  1.00  0.00    -0.272 OA
BRANCH  34  35
HETATM   35  C14 UNL     1      60.508  11.067  28.347  1.00  0.00     0.260 C 
HETATM   36  C15 UNL     1      60.727   9.917  29.299  1.00  0.00     0.126 C 
HETATM   37  O10 UNL     1      60.273  10.875  27.140  1.00  0.00    -0.265 OA
ENDBRANCH  34  35
ENDBRANCH  24  34
BRANCH  28  38
HETATM   38  N8  UNL     1      59.070  17.573  27.299  1.00  0.00    -0.234 N 
ATOM     39  H82 UNL     1      59.974  18.040  27.365  1.00  0.00     0.174 HD
ATOM     40  H81 UNL     1      58.224  18.136  27.373  1.00  0.00     0.174 HD
ENDBRANCH  28  38
BRANCH  31  41
HETATM   41  N10 UNL     1      58.567  14.058  24.465  1.00  0.00    -0.234 N 
ATOM     42 2H10 UNL     1      57.731  13.508  24.265  1.00  0.00     0.174 HD
ATOM     43 1H10 UNL     1      59.217  14.238  23.700  1.00  0.00     0.174 HD
ENDBRANCH  31  41
ENDBRANCH   1  24
BRANCH   2  44
HETATM   44  O4  UNL     1      60.479  13.329  31.927  1.00  0.00    -0.286 OA
BRANCH  44  45
HETATM   45  C10 UNL     1      61.364  12.326  32.372  1.00  0.00     0.297 C 
HETATM   46  O5  UNL     1      60.928  11.151  32.409  1.00  0.00    -0.262 OA
BRANCH  45  47
HETATM   47  C11 UNL     1      62.743  12.589  32.784  1.00  0.00     0.272 C 
BRANCH  47  48
HETATM   48  O6  UNL     1      62.856  13.287  33.960  1.00  0.00    -0.381 OA
ATOM     49  H6  UNL     1      63.751  13.430  34.245  1.00  0.00     0.210 HD
ENDBRANCH  47  48
BRANCH  47  50
HETATM   50  C12 UNL     1      63.474  13.334  31.661  1.00  0.00     0.292 C 
BRANCH  50  51
HETATM   51  O7  UNL     1      62.876  13.049  30.435  1.00  0.00    -0.368 OA
ATOM     52  H7  UNL     1      63.224  12.236  30.087  1.00  0.00     0.212 HD
ENDBRANCH  50  51
BRANCH  50  53
HETATM   53  O8  UNL     1      64.836  13.058  31.674  1.00  0.00    -0.368 OA
ATOM     54  H8  UNL     1      65.006  12.145  31.476  1.00  0.00     0.212 HD
ENDBRANCH  50  53
ENDBRANCH  47  50
ENDBRANCH  45  47
ENDBRANCH  44  45
ENDBRANCH   2  44
TORSDOF 18
ENDMDL
MODEL 4
REMARK VINA RESULT: -7.718542499      3.044      8.011
REMARK  18 active torsions:
REMARK  status: ('A' for Active; 'I' for Inactive)
REMARK    1  A    between atoms: O1_2  and  C2_3 
REMARK    2  A    between atoms: C2_3  and  O3_21 
REMARK    3  A    between atoms: N1_4  and  N2_6 
REMARK    4  A    between atoms: C5_10  and  C6_11 
REMARK    5  A    between atoms: C7_17  and  N6_18 
REMARK    6  A    between atoms: O3_21  and  C8_22 
REMARK    7  A    between atoms: C8_22  and  C13_35 
REMARK    8  A    between atoms: C9_23  and  O4_24 
REMARK    9  A    between atoms: O4_24  and  C10_25 
REMARK   10  A    between atoms: C10_25  and  C11_27 
REMARK   11  A    between atoms: C11_27  and  O6_28 
REMARK   12  A    between atoms: C11_27  and  C12_30 
REMARK   13  A    between atoms: C12_30  and  O7_31 
REMARK   14  A    between atoms: C12_30  and  O8_33 
REMARK   15  A    between atoms: C13_35  and  O9_36 
REMARK   16  A    between atoms: O9_36  and  C14_37 
REMARK   17  A    between atoms: C17_43  and  N8_44 
REMARK   18  A    between atoms: C18_49  and  N10_50 
ROOT
HETATM    1  C8  UNL     1      57.064  10.676  29.492  1.00  0.00     0.140 C 
HETATM    2  C9  UNL     1      57.233   9.270  29.238  1.00  0.00     0.186 C 
ENDROOT
BRANCH   1   3
HETATM    3  O3  UNL     1      57.181  11.531  28.291  1.00  0.00    -0.268 OA
BRANCH   3   4
HETATM    4  C2  UNL     1      58.510  11.746  27.820  1.00  0.00     0.284 C 
HETATM    5  N1  UNL     1      59.056  12.782  28.191  1.00  0.00    -0.257 N 
ATOM      6  H1  UNL     1      58.426  13.313  28.792  1.00  0.00     0.191 HD
BRANCH   4   7
HETATM    7  O1  UNL     1      59.124  10.839  27.001  1.00  0.00    -0.320 OA
HETATM    8  C1  UNL     1      58.540  10.292  25.839  1.00  0.00     0.214 C 
ENDBRANCH   4   7
BRANCH   5   9
HETATM    9  N2  UNL     1      60.231  13.440  28.052  1.00  0.00    -0.257 N 
HETATM   10  C3  UNL     1      61.577  13.201  28.610  1.00  0.00     0.420 C 
HETATM   11  N3  UNL     1      61.823  14.624  28.435  1.00  0.00     0.133 N 
HETATM   12  C4  UNL     1      61.446  15.321  29.640  1.00  0.00     0.315 C 
HETATM   13  C5  UNL     1      60.811  14.603  27.400  1.00  0.00     0.398 C 
BRANCH  13  14
HETATM   14  C6  UNL     1      59.961  15.792  27.351  1.00  0.00     0.133 A 
HETATM   15  N4  UNL     1      58.695  15.998  27.708  1.00  0.00    -0.238 N 
HETATM   16  O2  UNL     1      58.389  17.235  27.465  1.00  0.00    -0.155 OA
ATOM     17  H4  UNL     1      58.069  15.298  28.107  1.00  0.00     0.196 HD
HETATM   18  N5  UNL     1      59.383  17.884  26.961  1.00  0.00    -0.224 N 
HETATM   19  C7  UNL     1      60.398  17.031  26.866  1.00  0.00     0.150 A 
ATOM     20  H5  UNL     1      59.389  18.867  26.687  1.00  0.00     0.198 HD
BRANCH  19  21
HETATM   21  N6  UNL     1      61.572  17.326  26.400  1.00  0.00    -0.382 N 
ATOM     22  H62 UNL     1      62.454  17.109  26.864  1.00  0.00     0.157 HD
ATOM     23  H61 UNL     1      61.790  17.805  25.526  1.00  0.00     0.157 HD
ENDBRANCH  19  21
ENDBRANCH  13  14
ENDBRANCH   5   9
ENDBRANCH   3   4
ENDBRANCH   1   3
BRANCH   1  24
HETATM   24  C13 UNL     1      56.815  11.368  30.531  1.00  0.00     0.160 C 
HETATM   25  C16 UNL     1      55.590  12.003  30.928  1.00  0.00     0.173 A 
HETATM   26  N7  UNL     1      54.441  11.261  31.099  1.00  0.00    -0.173 N 
HETATM   27  N11 UNL     1      55.431  13.313  31.173  1.00  0.00    -0.173 N 
HETATM   28  C17 UNL     1      53.272  11.779  31.473  1.00  0.00     0.692 A 
ATOM     29  H7  UNL     1      54.488  10.255  30.929  1.00  0.00     0.186 HD
HETATM   30  N9  UNL     1      53.199  13.086  31.695  1.00  0.00    -0.023 N 
HETATM   31  C18 UNL     1      54.268  13.878  31.552  1.00  0.00     0.692 A 
ATOM     32  H9  UNL     1      52.310  13.495  31.981  1.00  0.00     0.203 HD
ATOM     33  H11 UNL     1      56.244  13.919  31.064  1.00  0.00     0.186 HD
BRANCH  24  34
HETATM   34  O9  UNL     1      57.879  11.538  31.473  1.00  0.00    -0.272 OA
BRANCH  34  35
HETATM   35  C14 UNL     1      58.750  12.582  31.448  1.00  0.00     0.260 C 
HETATM   36  C15 UNL     1      60.122  12.314  32.016  1.00  0.00     0.126 C 
HETATM   37  O10 UNL     1      58.445  13.697  30.986  1.00  0.00    -0.265 OA
ENDBRANCH  34  35
ENDBRANCH  24  34
BRANCH  28  38
HETATM   38  N8  UNL     1      52.201  11.066  31.628  1.00  0.00    -0.234 N 
ATOM     39  H82 UNL     1      51.880  10.871  32.576  1.00  0.00     0.174 HD
ATOM     40  H81 UNL     1      51.665  10.692  30.845  1.00  0.00     0.174 HD
ENDBRANCH  28  38
BRANCH  31  41
HETATM   41  N10 UNL     1      54.195  15.146  31.769  1.00  0.00    -0.234 N 
ATOM     42 2H10 UNL     1      53.463  15.706  31.334  1.00  0.00     0.174 HD
ATOM     43 1H10 UNL     1      54.864  15.618  32.378  1.00  0.00     0.174 HD
ENDBRANCH  31  41
ENDBRANCH   1  24
BRANCH   2  44
HETATM   44  O4  UNL     1      57.090   8.346  30.222  1.00  0.00    -0.286 OA
BRANCH  44  45
HETATM   45  C10 UNL     1      56.123   7.321  30.238  1.00  0.00     0.297 C 
HETATM   46  O5  UNL     1      56.394   6.266  29.619  1.00  0.00    -0.262 OA
BRANCH  45  47
HETATM   47  C11 UNL     1      54.839   7.432  30.931  1.00  0.00     0.272 C 
BRANCH  47  48
HETATM   48  O6  UNL     1      54.025   8.428  30.455  1.00  0.00    -0.381 OA
ATOM     49  H6  UNL     1      54.135   9.265  30.892  1.00  0.00     0.210 HD
ENDBRANCH  47  48
BRANCH  47  50
HETATM   50  C12 UNL     1      55.090   7.632  32.431  1.00  0.00     0.292 C 
BRANCH  50  51
HETATM   51  O7  UNL     1      55.109   8.993  32.731  1.00  0.00    -0.368 OA
ATOM     52  H7  UNL     1      54.301   9.240  33.165  1.00  0.00     0.212 HD
ENDBRANCH  50  51
BRANCH  50  53
HETATM   53  O8  UNL     1      56.242   6.973  32.844  1.00  0.00    -0.368 OA
ATOM     54  H8  UNL     1      56.037   6.130  33.231  1.00  0.00     0.212 HD
ENDBRANCH  50  53
ENDBRANCH  47  50
ENDBRANCH  45  47
ENDBRANCH  44  45
ENDBRANCH   2  44
TORSDOF 18
ENDMDL
MODEL 5
REMARK VINA RESULT: -7.645158171      2.542      4.460
REMARK  18 active torsions:
REMARK  status: ('A' for Active; 'I' for Inactive)
REMARK    1  A    between atoms: O1_2  and  C2_3 
REMARK    2  A    between atoms: C2_3  and  O3_21 
REMARK    3  A    between atoms: N1_4  and  N2_6 
REMARK    4  A    between atoms: C5_10  and  C6_11 
REMARK    5  A    between atoms: C7_17  and  N6_18 
REMARK    6  A    between atoms: O3_21  and  C8_22 
REMARK    7  A    between atoms: C8_22  and  C13_35 
REMARK    8  A    between atoms: C9_23  and  O4_24 
REMARK    9  A    between atoms: O4_24  and  C10_25 
REMARK   10  A    between atoms: C10_25  and  C11_27 
REMARK   11  A    between atoms: C11_27  and  O6_28 
REMARK   12  A    between atoms: C11_27  and  C12_30 
REMARK   13  A    between atoms: C12_30  and  O7_31 
REMARK   14  A    between atoms: C12_30  and  O8_33 
REMARK   15  A    between atoms: C13_35  and  O9_36 
REMARK   16  A    between atoms: O9_36  and  C14_37 
REMARK   17  A    between atoms: C17_43  and  N8_44 
REMARK   18  A    between atoms: C18_49  and  N10_50 
ROOT
HETATM    1  C8  UNL     1      59.307  13.401  31.607  1.00  0.00     0.140 C 
HETATM    2  C9  UNL     1      59.393  14.645  30.890  1.00  0.00     0.186 C 
ENDROOT
BRANCH   1   3
HETATM    3  O3  UNL     1      58.299  13.389  32.690  1.00  0.00    -0.268 OA
BRANCH   3   4
HETATM    4  C2  UNL     1      56.971  13.069  32.286  1.00  0.00     0.284 C 
HETATM    5  N1  UNL     1      56.369  12.263  32.992  1.00  0.00    -0.257 N 
ATOM      6  H1  UNL     1      56.961  11.966  33.767  1.00  0.00     0.191 HD
BRANCH   4   7
HETATM    7  O1  UNL     1      56.415  13.634  31.172  1.00  0.00    -0.320 OA
HETATM    8  C1  UNL     1      55.771  14.888  31.152  1.00  0.00     0.214 C 
ENDBRANCH   4   7
BRANCH   5   9
HETATM    9  N2  UNL     1      55.165  11.647  33.064  1.00  0.00    -0.257 N 
HETATM   10  C3  UNL     1      54.627  10.438  32.409  1.00  0.00     0.420 C 
HETATM   11  N3  UNL     1      53.304  11.014  32.597  1.00  0.00     0.133 N 
HETATM   12  C4  UNL     1      52.960  11.798  31.436  1.00  0.00     0.315 C 
HETATM   13  C5  UNL     1      53.862  11.768  33.699  1.00  0.00     0.398 C 
BRANCH  13  14
HETATM   14  C6  UNL     1      53.347  13.131  33.832  1.00  0.00     0.133 A 
HETATM   15  N4  UNL     1      53.389  14.183  33.018  1.00  0.00    -0.238 N 
HETATM   16  O2  UNL     1      52.786  15.178  33.592  1.00  0.00    -0.155 OA
ATOM     17  H4  UNL     1      53.824  14.204  32.096  1.00  0.00     0.196 HD
HETATM   18  N5  UNL     1      52.333  14.857  34.756  1.00  0.00    -0.224 N 
HETATM   19  C7  UNL     1      52.655  13.584  34.962  1.00  0.00     0.150 A 
ATOM     20  H5  UNL     1      51.825  15.466  35.398  1.00  0.00     0.198 HD
BRANCH  19  21
HETATM   21  N6  UNL     1      52.364  12.910  36.032  1.00  0.00    -0.382 N 
ATOM     22  H62 UNL     1      52.864  12.080  36.351  1.00  0.00     0.157 HD
ATOM     23  H61 UNL     1      51.615  13.098  36.698  1.00  0.00     0.157 HD
ENDBRANCH  19  21
ENDBRANCH  13  14
ENDBRANCH   5   9
ENDBRANCH   3   4
ENDBRANCH   1   3
BRANCH   1  24
HETATM   24  C13 UNL     1      59.899  12.278  31.514  1.00  0.00     0.160 C 
HETATM   25  C16 UNL     1      60.185  11.496  30.344  1.00  0.00     0.173 A 
HETATM   26  N7  UNL     1      60.940  12.023  29.318  1.00  0.00    -0.173 N 
HETATM   27  N11 UNL     1      59.784  10.233  30.130  1.00  0.00    -0.173 N 
HETATM   28  C17 UNL     1      61.252  11.355  28.209  1.00  0.00     0.692 A 
ATOM     29  H7  UNL     1      61.279  12.980  29.414  1.00  0.00     0.186 HD
HETATM   30  N9  UNL     1      60.815  10.108  28.074  1.00  0.00    -0.023 N 
HETATM   31  C18 UNL     1      60.077   9.521  29.024  1.00  0.00     0.692 A 
ATOM     32  H9  UNL     1      61.047   9.586  27.229  1.00  0.00     0.203 HD
ATOM     33  H11 UNL     1      59.221   9.783  30.852  1.00  0.00     0.186 HD
BRANCH  24  34
HETATM   34  O9  UNL     1      60.383  11.692  32.727  1.00  0.00    -0.272 OA
BRANCH  34  35
HETATM   35  C14 UNL     1      61.701  11.590  33.044  1.00  0.00     0.260 C 
HETATM   36  C15 UNL     1      62.582  12.728  32.592  1.00  0.00     0.126 C 
HETATM   37  O10 UNL     1      62.165  10.618  33.669  1.00  0.00    -0.265 OA
ENDBRANCH  34  35
ENDBRANCH  24  34
BRANCH  28  38
HETATM   38  N8  UNL     1      61.962  11.867  27.253  1.00  0.00    -0.234 N 
ATOM     39  H82 UNL     1      62.321  12.814  27.369  1.00  0.00     0.174 HD
ATOM     40  H81 UNL     1      62.179  11.365  26.393  1.00  0.00     0.174 HD
ENDBRANCH  28  38
BRANCH  31  41
HETATM   41  N10 UNL     1      59.654   8.312  28.891  1.00  0.00    -0.234 N 
ATOM     42 2H10 UNL     1      58.665   8.092  29.003  1.00  0.00     0.174 HD
ATOM     43 1H10 UNL     1      60.294   7.549  28.671  1.00  0.00     0.174 HD
ENDBRANCH  31  41
ENDBRANCH   1  24
BRANCH   2  44
HETATM   44  O4  UNL     1      60.221  14.797  29.826  1.00  0.00    -0.286 OA
BRANCH  44  45
HETATM   45  C10 UNL     1      59.805  15.078  28.508  1.00  0.00     0.297 C 
HETATM   46  O5  UNL     1      59.110  14.212  27.928  1.00  0.00    -0.262 OA
BRANCH  45  47
HETATM   47  C11 UNL     1      60.143  16.313  27.800  1.00  0.00     0.272 C 
BRANCH  47  48
HETATM   48  O6  UNL     1      60.751  17.263  28.582  1.00  0.00    -0.381 OA
ATOM     49  H6  UNL     1      61.141  17.979  28.094  1.00  0.00     0.210 HD
ENDBRANCH  47  48
BRANCH  47  50
HETATM   50  C12 UNL     1      58.876  16.894  27.162  1.00  0.00     0.292 C 
BRANCH  50  51
HETATM   51  O7  UNL     1      57.783  16.681  28.000  1.00  0.00    -0.368 OA
ATOM     52  H7  UNL     1      57.561  17.487  28.453  1.00  0.00     0.212 HD
ENDBRANCH  50  51
BRANCH  50  53
HETATM   53  O8  UNL     1      58.679  16.392  25.881  1.00  0.00    -0.368 OA
ATOM     54  H8  UNL     1      57.756  16.268  25.696  1.00  0.00     0.212 HD
ENDBRANCH  50  53
ENDBRANCH  47  50
ENDBRANCH  45  47
ENDBRANCH  44  45
ENDBRANCH   2  44
TORSDOF 18
ENDMDL
