MODEL 1
REMARK VINA RESULT: -8.436727827      0.000      0.000
REMARK  14 active torsions:
REMARK  status: ('A' for Active; 'I' for Inactive)
REMARK    1  A    between atoms: C2_2  and  C4_4 
REMARK    2  A    between atoms: C4_4  and  O1_5 
REMARK    3  A    between atoms: C4_4  and  C5_7 
REMARK    4  A    between atoms: C4_4  and  C7_13 
REMARK    5  A    between atoms: C5_7  and  C6_8 
REMARK    6  A    between atoms: C6_8  and  O2_9 
REMARK    7  A    between atoms: C6_8  and  O3_11 
REMARK    8  A    between atoms: C8_16  and  N2_17 
REMARK    9  A    between atoms: N2_17  and  C9_19 
REMARK   10  A    between atoms: C11_23  and  C12_24 
REMARK       I    between atoms: C12_24  and  N4_26 
REMARK   11  A    between atoms: N4_26  and  N5_27 
REMARK   12  A    between atoms: C15_36  and  O7_37 
REMARK   13  A    between atoms: C16_39  and  N8_40 
REMARK   14  A    between atoms: N8_40  and  C17_42 
ROOT
HETATM    1  C7  UNL     1      55.078  12.309  31.386  1.00  0.00     0.090 A 
HETATM    2  N1  UNL     1      56.353  12.601  31.342  1.00  0.00    -0.336 N 
ATOM      3  H1  UNL     1      56.684  13.413  31.864  1.00  0.00     0.168 HD
HETATM    4  C8  UNL     1      57.203  11.918  30.676  1.00  0.00     0.137 A 
HETATM    5  C16 UNL     1      56.669  10.801  29.974  1.00  0.00     0.136 A 
HETATM    6  S1  UNL     1      55.013  10.903  30.371  1.00  0.00    -0.051 SA
ENDROOT
BRANCH   4   7
HETATM    7  N2  UNL     1      58.581  12.204  30.522  1.00  0.00    -0.365 N 
ATOM      8  H2  UNL     1      59.149  11.415  30.830  1.00  0.00     0.161 HD
BRANCH   7   9
HETATM    9  C9  UNL     1      59.391  13.249  30.073  1.00  0.00     0.140 C 
HETATM   10  C10 UNL     1      58.926  14.487  29.460  1.00  0.00     0.231 C 
HETATM   11  O4  UNL     1      60.046  15.022  28.701  1.00  0.00    -0.254 OA
HETATM   12  N3  UNL     1      61.327  15.372  29.140  1.00  0.00    -0.131 N 
HETATM   13  C11 UNL     1      62.010  16.434  28.711  1.00  0.00     0.241 A 
HETATM   14  N7  UNL     1      62.034  14.757  30.062  1.00  0.00    -0.211 N 
HETATM   15  N6  UNL     1      63.201  16.463  29.425  1.00  0.00    -0.284 N 
HETATM   16  C13 UNL     1      63.188  15.412  30.249  1.00  0.00     0.344 A 
ATOM     17  H6  UNL     1      63.945  17.156  29.337  1.00  0.00     0.172 HD
HETATM   18  O6  UNL     1      64.123  15.129  31.054  1.00  0.00    -0.245 OA
HETATM   19  C14 UNL     1      61.741  13.564  30.844  1.00  0.00     0.190 C 
HETATM   20  C15 UNL     1      60.281  13.683  31.298  1.00  0.00     0.163 C 
BRANCH  13  21
HETATM   21  C12 UNL     1      61.631  17.431  27.680  1.00  0.00     0.383 C 
HETATM   22  O5  UNL     1      62.530  18.068  27.140  1.00  0.00    -0.246 OA
HETATM   23  N4  UNL     1      60.219  17.510  27.430  1.00  0.00    -0.285 NA
BRANCH  23  24
HETATM   24  N5  UNL     1      59.015  17.585  27.207  1.00  0.00    -0.276 N 
ATOM     25  H52 UNL     1      59.970  17.944  27.205  1.00  0.00     0.191 HD
ATOM     26  H51 UNL     1      58.013  17.639  27.025  1.00  0.00     0.191 HD
ENDBRANCH  23  24
ENDBRANCH  13  21
BRANCH  20  27
HETATM   27  O7  UNL     1      60.105  12.861  32.374  1.00  0.00    -0.392 OA
ATOM     28  H7  UNL     1      60.564  13.178  33.143  1.00  0.00     0.210 HD
ENDBRANCH  20  27
ENDBRANCH   7   9
ENDBRANCH   4   7
BRANCH   5  29
HETATM   29  N8  UNL     1      57.446   9.837  29.281  1.00  0.00    -0.181 N 
ATOM     30  H8  UNL     1      58.176  10.198  28.668  1.00  0.00     0.185 HD
BRANCH  29  31
HETATM   31  C17 UNL     1      57.323   8.478  29.343  1.00  0.00     0.692 C 
HETATM   32  N9  UNL     1      58.101   7.628  29.858  1.00  0.00    -0.210 N 
HETATM   33  C18 UNL     1      57.598   6.236  29.707  1.00  0.00     0.271 C 
ATOM     34  H9  UNL     1      58.976   7.868  30.324  1.00  0.00     0.179 HD
HETATM   35  N10 UNL     1      56.247   6.214  30.213  1.00  0.00    -0.106 NA
HETATM   36  N11 UNL     1      55.398   6.959  29.406  1.00  0.00    -0.015 NA
HETATM   37  N12 UNL     1      56.094   7.934  28.729  1.00  0.00    -0.119 N 
ATOM     38  H12 UNL     1      55.768   8.274  27.824  1.00  0.00     0.202 HD
ENDBRANCH  29  31
ENDBRANCH   5  29
BRANCH   1  39
HETATM   39  C4  UNL     1      53.956  12.972  32.145  1.00  0.00     0.114 C 
BRANCH  39  40
HETATM   40  C2  UNL     1      54.003  14.446  32.121  1.00  0.00     0.019 C 
HETATM   41  C1  UNL     1      52.955  15.143  32.943  1.00  0.00     0.013 C 
HETATM   42  C3  UNL     1      53.718  14.887  30.664  1.00  0.00     0.013 C 
ENDBRANCH  39  40
BRANCH  39  43
HETATM   43  O1  UNL     1      52.810  12.618  31.346  1.00  0.00    -0.382 OA
ATOM     44  H1  UNL     1      52.217  12.179  31.943  1.00  0.00     0.211 HD
ENDBRANCH  39  43
BRANCH  39  45
HETATM   45  C5  UNL     1      53.865  12.259  33.439  1.00  0.00     0.105 C 
BRANCH  45  46
HETATM   46  C6  UNL     1      53.177  10.955  33.479  1.00  0.00     0.257 C 
BRANCH  46  47
HETATM   47  O2  UNL     1      52.128  11.080  34.460  1.00  0.00    -0.371 OA
ATOM     48  H2  UNL     1      51.711  11.918  34.300  1.00  0.00     0.212 HD
ENDBRANCH  46  47
BRANCH  46  49
HETATM   49  O3  UNL     1      53.992   9.933  34.014  1.00  0.00    -0.371 OA
ATOM     50  H3  UNL     1      53.607   9.071  33.910  1.00  0.00     0.212 HD
ENDBRANCH  46  49
ENDBRANCH  45  46
ENDBRANCH  39  45
ENDBRANCH   1  39
TORSDOF 14
ENDMDL
MODEL 2
REMARK VINA RESULT: -8.340975188      2.332      3.535
REMARK  14 active torsions:
REMARK  status: ('A' for Active; 'I' for Inactive)
REMARK    1  A    between atoms: C2_2  and  C4_4 
REMARK    2  A    between atoms: C4_4  and  O1_5 
REMARK    3  A    between atoms: C4_4  and  C5_7 
REMARK    4  A    between atoms: C4_4  and  C7_13 
REMARK    5  A    between atoms: C5_7  and  C6_8 
REMARK    6  A    between atoms: C6_8  and  O2_9 
REMARK    7  A    between atoms: C6_8  and  O3_11 
REMARK    8  A    between atoms: C8_16  and  N2_17 
REMARK    9  A    between atoms: N2_17  and  C9_19 
REMARK   10  A    between atoms: C11_23  and  C12_24 
REMARK       I    between atoms: C12_24  and  N4_26 
REMARK   11  A    between atoms: N4_26  and  N5_27 
REMARK   12  A    between atoms: C15_36  and  O7_37 
REMARK   13  A    between atoms: C16_39  and  N8_40 
REMARK   14  A    between atoms: N8_40  and  C17_42 
ROOT
HETATM    1  C7  UNL     1      55.436  10.669  30.529  1.00  0.00     0.090 A 
HETATM    2  N1  UNL     1      56.546  11.223  30.944  1.00  0.00    -0.336 N 
ATOM      3  H1  UNL     1      56.641  11.437  31.937  1.00  0.00     0.168 HD
HETATM    4  C8  UNL     1      57.517  11.509  30.164  1.00  0.00     0.137 A 
HETATM    5  C16 UNL     1      57.314  11.181  28.794  1.00  0.00     0.136 A 
HETATM    6  S1  UNL     1      55.744  10.515  28.829  1.00  0.00    -0.051 SA
ENDROOT
BRANCH   4   7
HETATM    7  N2  UNL     1      58.720  12.166  30.520  1.00  0.00    -0.365 N 
ATOM      8  H2  UNL     1      59.163  11.702  31.313  1.00  0.00     0.161 HD
BRANCH   7   9
HETATM    9  C9  UNL     1      59.477  13.263  30.104  1.00  0.00     0.140 C 
HETATM   10  C10 UNL     1      58.948  14.532  29.619  1.00  0.00     0.231 C 
HETATM   11  O4  UNL     1      60.005  15.152  28.835  1.00  0.00    -0.254 OA
HETATM   12  N3  UNL     1      61.305  15.500  29.220  1.00  0.00    -0.131 N 
HETATM   13  C11 UNL     1      61.936  16.608  28.833  1.00  0.00     0.241 A 
HETATM   14  N7  UNL     1      62.082  14.835  30.045  1.00  0.00    -0.211 N 
HETATM   15  N6  UNL     1      63.170  16.614  29.471  1.00  0.00    -0.284 N 
HETATM   16  C13 UNL     1      63.232  15.503  30.210  1.00  0.00     0.344 A 
ATOM     17  H6  UNL     1      63.892  17.330  29.391  1.00  0.00     0.172 HD
HETATM   18  O6  UNL     1      64.223  15.183  30.930  1.00  0.00    -0.245 OA
HETATM   19  C14 UNL     1      61.865  13.578  30.748  1.00  0.00     0.190 C 
HETATM   20  C15 UNL     1      60.435  13.624  31.301  1.00  0.00     0.163 C 
BRANCH  13  21
HETATM   21  C12 UNL     1      61.471  17.672  27.908  1.00  0.00     0.383 C 
HETATM   22  O5  UNL     1      62.267  18.554  27.602  1.00  0.00    -0.246 OA
HETATM   23  N4  UNL     1      60.113  17.515  27.467  1.00  0.00    -0.285 NA
BRANCH  23  24
HETATM   24  N5  UNL     1      58.955  17.389  27.083  1.00  0.00    -0.276 N 
ATOM     25  H52 UNL     1      59.877  17.826  27.083  1.00  0.00     0.191 HD
ATOM     26  H51 UNL     1      57.991  17.278  26.770  1.00  0.00     0.191 HD
ENDBRANCH  23  24
ENDBRANCH  13  21
BRANCH  20  27
HETATM   27  O7  UNL     1      60.346  12.718  32.318  1.00  0.00    -0.392 OA
ATOM     28  H7  UNL     1      61.175  12.605  32.767  1.00  0.00     0.210 HD
ENDBRANCH  20  27
ENDBRANCH   7   9
ENDBRANCH   4   7
BRANCH   5  29
HETATM   29  N8  UNL     1      58.302  11.291  27.782  1.00  0.00    -0.181 N 
ATOM     30  H8  UNL     1      59.186  10.814  27.958  1.00  0.00     0.185 HD
BRANCH  29  31
HETATM   31  C17 UNL     1      58.201  11.965  26.598  1.00  0.00     0.692 C 
HETATM   32  N9  UNL     1      57.583  11.644  25.546  1.00  0.00    -0.210 N 
HETATM   33  C18 UNL     1      57.730  12.663  24.472  1.00  0.00     0.271 C 
ATOM     34  H9  UNL     1      57.045  10.784  25.444  1.00  0.00     0.179 HD
HETATM   35  N10 UNL     1      57.354  13.936  25.037  1.00  0.00    -0.106 NA
HETATM   36  N11 UNL     1      58.266  14.343  26.002  1.00  0.00    -0.015 NA
HETATM   37  N12 UNL     1      58.909  13.262  26.558  1.00  0.00    -0.119 N 
ATOM     38  H12 UNL     1      59.853  13.353  26.933  1.00  0.00     0.202 HD
ENDBRANCH  29  31
ENDBRANCH   5  29
BRANCH   1  39
HETATM   39  C4  UNL     1      54.220  10.231  31.306  1.00  0.00     0.114 C 
BRANCH  39  40
HETATM   40  C2  UNL     1      53.379  11.344  31.785  1.00  0.00     0.019 C 
HETATM   41  C1  UNL     1      52.904  11.237  33.207  1.00  0.00     0.013 C 
HETATM   42  C3  UNL     1      52.083  11.333  30.936  1.00  0.00     0.013 C 
ENDBRANCH  39  40
BRANCH  39  43
HETATM   43  O1  UNL     1      53.437   9.578  30.288  1.00  0.00    -0.382 OA
ATOM     44  H1  UNL     1      53.957   8.832  30.015  1.00  0.00     0.211 HD
ENDBRANCH  39  43
BRANCH  39  45
HETATM   45  C5  UNL     1      54.697   9.206  32.262  1.00  0.00     0.105 C 
BRANCH  45  46
HETATM   46  C6  UNL     1      55.289   7.965  31.727  1.00  0.00     0.257 C 
BRANCH  46  47
HETATM   47  O2  UNL     1      54.186   7.088  31.423  1.00  0.00    -0.371 OA
ATOM     48  H2  UNL     1      54.486   6.513  30.729  1.00  0.00     0.212 HD
ENDBRANCH  46  47
BRANCH  46  49
HETATM   49  O3  UNL     1      56.007   7.245  32.708  1.00  0.00    -0.371 OA
ATOM     50  H3  UNL     1      55.509   6.516  33.058  1.00  0.00     0.212 HD
ENDBRANCH  46  49
ENDBRANCH  45  46
ENDBRANCH  39  45
ENDBRANCH   1  39
TORSDOF 14
ENDMDL
MODEL 3
REMARK VINA RESULT: -8.268605212      0.843      1.078
REMARK  14 active torsions:
REMARK  status: ('A' for Active; 'I' for Inactive)
REMARK    1  A    between atoms: C2_2  and  C4_4 
REMARK    2  A    between atoms: C4_4  and  O1_5 
REMARK    3  A    between atoms: C4_4  and  C5_7 
REMARK    4  A    between atoms: C4_4  and  C7_13 
REMARK    5  A    between atoms: C5_7  and  C6_8 
REMARK    6  A    between atoms: C6_8  and  O2_9 
REMARK    7  A    between atoms: C6_8  and  O3_11 
REMARK    8  A    between atoms: C8_16  and  N2_17 
REMARK    9  A    between atoms: N2_17  and  C9_19 
REMARK   10  A    between atoms: C11_23  and  C12_24 
REMARK       I    between atoms: C12_24  and  N4_26 
REMARK   11  A    between atoms: N4_26  and  N5_27 
REMARK   12  A    between atoms: C15_36  and  O7_37 
REMARK   13  A    between atoms: C16_39  and  N8_40 
REMARK   14  A    between atoms: N8_40  and  C17_42 
ROOT
HETATM    1  C7  UNL     1      54.601  11.855  31.567  1.00  0.00     0.090 A 
HETATM    2  N1  UNL     1      55.850  12.208  31.735  1.00  0.00    -0.336 N 
ATOM      3  H1  UNL     1      56.060  12.945  32.406  1.00  0.00     0.168 HD
HETATM    4  C8  UNL     1      56.818  11.671  31.096  1.00  0.00     0.137 A 
HETATM    5  C16 UNL     1      56.449  10.649  30.177  1.00  0.00     0.136 A 
HETATM    6  S1  UNL     1      54.753  10.617  30.361  1.00  0.00    -0.051 SA
ENDROOT
BRANCH   4   7
HETATM    7  N2  UNL     1      58.183  12.039  31.170  1.00  0.00    -0.365 N 
ATOM      8  H2  UNL     1      58.703  11.379  31.748  1.00  0.00     0.161 HD
BRANCH   7   9
HETATM    9  C9  UNL     1      59.027  13.039  30.683  1.00  0.00     0.140 C 
HETATM   10  C10 UNL     1      58.611  14.359  30.225  1.00  0.00     0.231 C 
HETATM   11  O4  UNL     1      59.668  14.850  29.355  1.00  0.00    -0.254 OA
HETATM   12  N3  UNL     1      61.025  15.048  29.633  1.00  0.00    -0.131 N 
HETATM   13  C11 UNL     1      61.748  16.074  29.185  1.00  0.00     0.241 A 
HETATM   14  N7  UNL     1      61.783  14.300  30.404  1.00  0.00    -0.211 N 
HETATM   15  N6  UNL     1      63.020  15.939  29.727  1.00  0.00    -0.284 N 
HETATM   16  C13 UNL     1      63.011  14.831  30.473  1.00  0.00     0.344 A 
ATOM     17  H6  UNL     1      63.811  16.567  29.583  1.00  0.00     0.172 HD
HETATM   18  O6  UNL     1      64.011  14.401  31.118  1.00  0.00    -0.245 OA
HETATM   19  C14 UNL     1      61.478  13.079  31.138  1.00  0.00     0.190 C 
HETATM   20  C15 UNL     1      60.111  13.292  31.799  1.00  0.00     0.163 C 
BRANCH  13  21
HETATM   21  C12 UNL     1      61.337  17.181  28.286  1.00  0.00     0.383 C 
HETATM   22  O5  UNL     1      62.192  17.996  27.954  1.00  0.00    -0.246 OA
HETATM   23  N4  UNL     1      59.955  17.142  27.899  1.00  0.00    -0.285 NA
BRANCH  23  24
HETATM   24  N5  UNL     1      58.776  17.117  27.561  1.00  0.00    -0.276 N 
ATOM     25  H52 UNL     1      59.702  16.707  27.681  1.00  0.00     0.191 HD
ATOM     26  H51 UNL     1      57.795  17.105  27.283  1.00  0.00     0.191 HD
ENDBRANCH  23  24
ENDBRANCH  13  21
BRANCH  20  27
HETATM   27  O7  UNL     1      59.997  12.405  32.830  1.00  0.00    -0.392 OA
ATOM     28  H7  UNL     1      60.836  12.224  33.237  1.00  0.00     0.210 HD
ENDBRANCH  20  27
ENDBRANCH   7   9
ENDBRANCH   4   7
BRANCH   5  29
HETATM   29  N8  UNL     1      57.366   9.836  29.462  1.00  0.00    -0.181 N 
ATOM     30  H8  UNL     1      58.084  10.324  28.928  1.00  0.00     0.185 HD
BRANCH  29  31
HETATM   31  C17 UNL     1      57.393   8.471  29.411  1.00  0.00     0.692 C 
HETATM   32  N9  UNL     1      58.259   7.671  29.862  1.00  0.00    -0.210 N 
HETATM   33  C18 UNL     1      57.911   6.251  29.590  1.00  0.00     0.271 C 
ATOM     34  H9  UNL     1      59.101   7.966  30.356  1.00  0.00     0.179 HD
HETATM   35  N10 UNL     1      56.570   6.039  30.078  1.00  0.00    -0.106 NA
HETATM   36  N11 UNL     1      55.646   6.752  29.326  1.00  0.00    -0.015 NA
HETATM   37  N12 UNL     1      56.231   7.850  28.740  1.00  0.00    -0.119 N 
ATOM     38  H12 UNL     1      55.872   8.227  27.863  1.00  0.00     0.202 HD
ENDBRANCH  29  31
ENDBRANCH   5  29
BRANCH   1  39
HETATM   39  C4  UNL     1      53.352  12.346  32.257  1.00  0.00     0.114 C 
BRANCH  39  40
HETATM   40  C2  UNL     1      52.792  13.581  31.679  1.00  0.00     0.019 C 
HETATM   41  C1  UNL     1      52.871  13.694  30.182  1.00  0.00     0.013 C 
HETATM   42  C3  UNL     1      53.647  14.760  32.208  1.00  0.00     0.013 C 
ENDBRANCH  39  40
BRANCH  39  43
HETATM   43  O1  UNL     1      52.406  11.311  31.924  1.00  0.00    -0.382 OA
ATOM     44  H1  UNL     1      52.082  11.538  31.061  1.00  0.00     0.211 HD
ENDBRANCH  39  43
BRANCH  39  45
HETATM   45  C5  UNL     1      53.636  12.275  33.707  1.00  0.00     0.105 C 
BRANCH  45  46
HETATM   46  C6  UNL     1      52.507  12.361  34.652  1.00  0.00     0.257 C 
BRANCH  46  47
HETATM   47  O2  UNL     1      53.087  12.509  35.964  1.00  0.00    -0.371 OA
ATOM     48  H2  UNL     1      52.362  12.521  36.577  1.00  0.00     0.212 HD
ENDBRANCH  46  47
BRANCH  46  49
HETATM   49  O3  UNL     1      51.796  11.145  34.754  1.00  0.00    -0.371 OA
ATOM     50  H3  UNL     1      50.944  11.257  35.159  1.00  0.00     0.212 HD
ENDBRANCH  46  49
ENDBRANCH  45  46
ENDBRANCH  39  45
ENDBRANCH   1  39
TORSDOF 14
ENDMDL
MODEL 4
REMARK VINA RESULT: -8.268191824      1.381      2.360
REMARK  14 active torsions:
REMARK  status: ('A' for Active; 'I' for Inactive)
REMARK    1  A    between atoms: C2_2  and  C4_4 
REMARK    2  A    between atoms: C4_4  and  O1_5 
REMARK    3  A    between atoms: C4_4  and  C5_7 
REMARK    4  A    between atoms: C4_4  and  C7_13 
REMARK    5  A    between atoms: C5_7  and  C6_8 
REMARK    6  A    between atoms: C6_8  and  O2_9 
REMARK    7  A    between atoms: C6_8  and  O3_11 
REMARK    8  A    between atoms: C8_16  and  N2_17 
REMARK    9  A    between atoms: N2_17  and  C9_19 
REMARK   10  A    between atoms: C11_23  and  C12_24 
REMARK       I    between atoms: C12_24  and  N4_26 
REMARK   11  A    between atoms: N4_26  and  N5_27 
REMARK   12  A    between atoms: C15_36  and  O7_37 
REMARK   13  A    between atoms: C16_39  and  N8_40 
REMARK   14  A    between atoms: N8_40  and  C17_42 
ROOT
HETATM    1  C7  UNL     1      55.366  11.833  30.999  1.00  0.00     0.090 A 
HETATM    2  N1  UNL     1      56.588  12.293  31.086  1.00  0.00    -0.336 N 
ATOM      3  H1  UNL     1      56.763  13.095  31.691  1.00  0.00     0.168 HD
HETATM    4  C8  UNL     1      57.572  11.783  30.451  1.00  0.00     0.137 A 
HETATM    5  C16 UNL     1      57.253  10.666  29.628  1.00  0.00     0.136 A 
HETATM    6  S1  UNL     1      55.573  10.518  29.886  1.00  0.00    -0.051 SA
ENDROOT
BRANCH   4   7
HETATM    7  N2  UNL     1      58.906  12.259  30.439  1.00  0.00    -0.365 N 
ATOM      8  H2  UNL     1      59.521  11.617  30.938  1.00  0.00     0.161 HD
BRANCH   7   9
HETATM    9  C9  UNL     1      59.625  13.348  29.944  1.00  0.00     0.140 C 
HETATM   10  C10 UNL     1      59.055  14.555  29.360  1.00  0.00     0.231 C 
HETATM   11  O4  UNL     1      60.095  15.152  28.537  1.00  0.00    -0.254 OA
HETATM   12  N3  UNL     1      61.377  15.578  28.901  1.00  0.00    -0.131 N 
HETATM   13  C11 UNL     1      61.970  16.676  28.433  1.00  0.00     0.241 A 
HETATM   14  N7  UNL     1      62.171  15.008  29.779  1.00  0.00    -0.211 N 
HETATM   15  N6  UNL     1      63.197  16.777  29.077  1.00  0.00    -0.284 N 
HETATM   16  C13 UNL     1      63.294  15.730  29.900  1.00  0.00     0.344 A 
ATOM     17  H6  UNL     1      63.892  17.512  28.946  1.00  0.00     0.172 HD
HETATM   18  O6  UNL     1      64.289  15.503  30.648  1.00  0.00    -0.245 OA
HETATM   19  C14 UNL     1      61.995  13.801  30.577  1.00  0.00     0.190 C 
HETATM   20  C15 UNL     1      60.559  13.836  31.115  1.00  0.00     0.163 C 
BRANCH  13  21
HETATM   21  C12 UNL     1      61.474  17.647  27.427  1.00  0.00     0.383 C 
HETATM   22  O5  UNL     1      62.303  18.318  26.820  1.00  0.00    -0.246 OA
HETATM   23  N4  UNL     1      60.046  17.662  27.279  1.00  0.00    -0.285 NA
BRANCH  23  24
HETATM   24  N5  UNL     1      58.826  17.683  27.144  1.00  0.00    -0.276 N 
ATOM     25  H52 UNL     1      59.778  17.967  26.911  1.00  0.00     0.191 HD
ATOM     26  H51 UNL     1      57.812  17.693  27.038  1.00  0.00     0.191 HD
ENDBRANCH  23  24
ENDBRANCH  13  21
BRANCH  20  27
HETATM   27  O7  UNL     1      60.495  13.008  32.199  1.00  0.00    -0.392 OA
ATOM     28  H7  UNL     1      61.325  12.957  32.658  1.00  0.00     0.210 HD
ENDBRANCH  20  27
ENDBRANCH   7   9
ENDBRANCH   4   7
BRANCH   5  29
HETATM   29  N8  UNL     1      58.205   9.871  28.940  1.00  0.00    -0.181 N 
ATOM     30  H8  UNL     1      58.406  10.137  27.976  1.00  0.00     0.185 HD
BRANCH  29  31
HETATM   31  C17 UNL     1      58.884   8.790  29.426  1.00  0.00     0.692 C 
HETATM   32  N9  UNL     1      60.123   8.645  29.620  1.00  0.00    -0.210 N 
HETATM   33  C18 UNL     1      60.456   7.301  30.162  1.00  0.00     0.271 C 
ATOM     34  H9  UNL     1      60.816   9.368  29.427  1.00  0.00     0.179 HD
HETATM   35  N10 UNL     1      59.627   7.091  31.324  1.00  0.00    -0.106 NA
HETATM   36  N11 UNL     1      58.288   6.980  30.970  1.00  0.00    -0.015 NA
HETATM   37  N12 UNL     1      58.038   7.633  29.785  1.00  0.00    -0.119 N 
ATOM     38  H12 UNL     1      57.284   7.326  29.170  1.00  0.00     0.202 HD
ENDBRANCH  29  31
ENDBRANCH   5  29
BRANCH   1  39
HETATM   39  C4  UNL     1      54.108  12.280  31.701  1.00  0.00     0.114 C 
BRANCH  39  40
HETATM   40  C2  UNL     1      53.108  11.211  31.882  1.00  0.00     0.019 C 
HETATM   41  C1  UNL     1      51.878  11.318  31.024  1.00  0.00     0.013 C 
HETATM   42  C3  UNL     1      52.584  11.319  33.336  1.00  0.00     0.013 C 
ENDBRANCH  39  40
BRANCH  39  43
HETATM   43  O1  UNL     1      54.596  12.568  33.026  1.00  0.00    -0.382 OA
ATOM     44  H1  UNL     1      54.378  13.480  33.178  1.00  0.00     0.211 HD
ENDBRANCH  39  43
BRANCH  39  45
HETATM   45  C5  UNL     1      53.715  13.554  31.057  1.00  0.00     0.105 C 
BRANCH  45  46
HETATM   46  C6  UNL     1      54.470  14.776  31.392  1.00  0.00     0.257 C 
BRANCH  46  47
HETATM   47  O2  UNL     1      53.673  15.494  32.355  1.00  0.00    -0.371 OA
ATOM     48  H2  UNL     1      54.155  16.286  32.562  1.00  0.00     0.212 HD
ENDBRANCH  46  47
BRANCH  46  49
HETATM   49  O3  UNL     1      54.546  15.676  30.306  1.00  0.00    -0.371 OA
ATOM     50  H3  UNL     1      54.921  15.277  29.530  1.00  0.00     0.212 HD
ENDBRANCH  46  49
ENDBRANCH  45  46
ENDBRANCH  39  45
ENDBRANCH   1  39
TORSDOF 14
ENDMDL
MODEL 5
REMARK VINA RESULT: -8.165997204      1.954      3.095
REMARK  14 active torsions:
REMARK  status: ('A' for Active; 'I' for Inactive)
REMARK    1  A    between atoms: C2_2  and  C4_4 
REMARK    2  A    between atoms: C4_4  and  O1_5 
REMARK    3  A    between atoms: C4_4  and  C5_7 
REMARK    4  A    between atoms: C4_4  and  C7_13 
REMARK    5  A    between atoms: C5_7  and  C6_8 
REMARK    6  A    between atoms: C6_8  and  O2_9 
REMARK    7  A    between atoms: C6_8  and  O3_11 
REMARK    8  A    between atoms: C8_16  and  N2_17 
REMARK    9  A    between atoms: N2_17  and  C9_19 
REMARK   10  A    between atoms: C11_23  and  C12_24 
REMARK       I    between atoms: C12_24  and  N4_26 
REMARK   11  A    between atoms: N4_26  and  N5_27 
REMARK   12  A    between atoms: C15_36  and  O7_37 
REMARK   13  A    between atoms: C16_39  and  N8_40 
REMARK   14  A    between atoms: N8_40  and  C17_42 
ROOT
HETATM    1  C7  UNL     1      55.233  11.902  30.959  1.00  0.00     0.090 A 
HETATM    2  N1  UNL     1      56.480  12.275  31.099  1.00  0.00    -0.336 N 
ATOM      3  H1  UNL     1      56.708  12.939  31.839  1.00  0.00     0.168 HD
HETATM    4  C8  UNL     1      57.424  11.847  30.353  1.00  0.00     0.137 A 
HETATM    5  C16 UNL     1      57.032  10.924  29.343  1.00  0.00     0.136 A 
HETATM    6  S1  UNL     1      55.351  10.813  29.613  1.00  0.00    -0.051 SA
ENDROOT
BRANCH   4   7
HETATM    7  N2  UNL     1      58.781  12.250  30.395  1.00  0.00    -0.365 N 
ATOM      8  H2  UNL     1      59.351  11.547  30.866  1.00  0.00     0.161 HD
BRANCH   7   9
HETATM    9  C9  UNL     1      59.568  13.327  29.981  1.00  0.00     0.140 C 
HETATM   10  C10 UNL     1      59.075  14.585  29.433  1.00  0.00     0.231 C 
HETATM   11  O4  UNL     1      60.174  15.170  28.681  1.00  0.00    -0.254 OA
HETATM   12  N3  UNL     1      61.457  15.520  29.115  1.00  0.00    -0.131 N 
HETATM   13  C11 UNL     1      62.117  16.610  28.724  1.00  0.00     0.241 A 
HETATM   14  N7  UNL     1      62.189  14.874  29.995  1.00  0.00    -0.211 N 
HETATM   15  N6  UNL     1      63.320  16.624  29.419  1.00  0.00    -0.284 N 
HETATM   16  C13 UNL     1      63.336  15.537  30.194  1.00  0.00     0.344 A 
ATOM     17  H6  UNL     1      64.052  17.332  29.350  1.00  0.00     0.172 HD
HETATM   18  O6  UNL     1      64.289  15.231  30.969  1.00  0.00    -0.245 OA
HETATM   19  C14 UNL     1      61.927  13.641  30.727  1.00  0.00     0.190 C 
HETATM   20  C15 UNL     1      60.473  13.717  31.210  1.00  0.00     0.163 C 
BRANCH  13  21
HETATM   21  C12 UNL     1      61.706  17.648  27.746  1.00  0.00     0.383 C 
HETATM   22  O5  UNL     1      62.572  18.400  27.311  1.00  0.00    -0.246 OA
HETATM   23  N4  UNL     1      60.309  17.623  27.415  1.00  0.00    -0.285 NA
BRANCH  23  24
HETATM   24  N5  UNL     1      59.117  17.609  27.124  1.00  0.00    -0.276 N 
ATOM     25  H52 UNL     1      60.044  17.191  27.206  1.00  0.00     0.191 HD
ATOM     26  H51 UNL     1      58.126  17.607  26.885  1.00  0.00     0.191 HD
ENDBRANCH  23  24
ENDBRANCH  13  21
BRANCH  20  27
HETATM   27  O7  UNL     1      60.327  12.844  32.249  1.00  0.00    -0.392 OA
ATOM     28  H7  UNL     1      61.165  12.573  32.606  1.00  0.00     0.210 HD
ENDBRANCH  20  27
ENDBRANCH   7   9
ENDBRANCH   4   7
BRANCH   5  29
HETATM   29  N8  UNL     1      57.929  10.228  28.492  1.00  0.00    -0.181 N 
ATOM     30  H8  UNL     1      58.395   9.414  28.893  1.00  0.00     0.185 HD
BRANCH  29  31
HETATM   31  C17 UNL     1      58.237  10.527  27.196  1.00  0.00     0.692 C 
HETATM   32  N9  UNL     1      58.478   9.750  26.231  1.00  0.00    -0.210 N 
HETATM   33  C18 UNL     1      58.776  10.485  24.973  1.00  0.00     0.271 C 
ATOM     34  H9  UNL     1      58.470   8.732  26.307  1.00  0.00     0.179 HD
HETATM   35  N10 UNL     1      57.693  11.412  24.754  1.00  0.00    -0.106 NA
HETATM   36  N11 UNL     1      57.683  12.408  25.722  1.00  0.00    -0.015 NA
HETATM   37  N12 UNL     1      58.279  11.971  26.882  1.00  0.00    -0.119 N 
ATOM     38  H12 UNL     1      58.738  12.629  27.513  1.00  0.00     0.202 HD
ENDBRANCH  29  31
ENDBRANCH   5  29
BRANCH   1  39
HETATM   39  C4  UNL     1      54.013  12.269  31.766  1.00  0.00     0.114 C 
BRANCH  39  40
HETATM   40  C2  UNL     1      53.047  11.167  31.930  1.00  0.00     0.019 C 
HETATM   41  C1  UNL     1      51.812  11.252  31.076  1.00  0.00     0.013 C 
HETATM   42  C3  UNL     1      52.523  11.232  33.387  1.00  0.00     0.013 C 
ENDBRANCH  39  40
BRANCH  39  43
HETATM   43  O1  UNL     1      54.577  12.473  33.076  1.00  0.00    -0.382 OA
ATOM     44  H1  UNL     1      54.755  13.405  33.128  1.00  0.00     0.211 HD
ENDBRANCH  39  43
BRANCH  39  45
HETATM   45  C5  UNL     1      53.558  13.575  31.241  1.00  0.00     0.105 C 
BRANCH  45  46
HETATM   46  C6  UNL     1      54.373  14.772  31.521  1.00  0.00     0.257 C 
BRANCH  46  47
HETATM   47  O2  UNL     1      53.620  15.564  32.462  1.00  0.00    -0.371 OA
ATOM     48  H2  UNL     1      54.134  16.346  32.625  1.00  0.00     0.212 HD
ENDBRANCH  46  47
BRANCH  46  49
HETATM   49  O3  UNL     1      54.480  15.625  30.401  1.00  0.00    -0.371 OA
ATOM     50  H3  UNL     1      54.522  16.542  30.647  1.00  0.00     0.212 HD
ENDBRANCH  46  49
ENDBRANCH  45  46
ENDBRANCH  39  45
ENDBRANCH   1  39
TORSDOF 14
ENDMDL
