MODEL 1
REMARK VINA RESULT: -7.772055282      0.000      0.000
REMARK  13 active torsions:
REMARK  status: ('A' for Active; 'I' for Inactive)
REMARK       I    between atoms: C2_2  and  N1_4 
REMARK    1  A    between atoms: N1_4  and  C3_6 
REMARK    2  A    between atoms: N2_8  and  C5_9 
REMARK    3  A    between atoms: C5_9  and  C6_10 
REMARK    4  A    between atoms: C5_9  and  C7_13 
REMARK    5  A    between atoms: C8_16  and  C9_17 
REMARK    6  A    between atoms: C9_17  and  O4_18 
REMARK    7  A    between atoms: C9_17  and  O5_20 
REMARK    8  A    between atoms: O5_20  and  C10_21 
REMARK    9  A    between atoms: C11_25  and  N7_26 
REMARK   10  A    between atoms: C14_37  and  C15_38 
REMARK   11  A    between atoms: C15_38  and  O8_39 
REMARK   12  A    between atoms: O8_39  and  S1_40 
REMARK   13  A    between atoms: C16_44  and  O12_45 
ROOT
HETATM    1  C5  UNL     1      57.476  10.663  28.404  1.00  0.00     0.262 C 
ENDROOT
BRANCH   1   2
HETATM    2  N2  UNL     1      57.651  11.339  29.674  1.00  0.00    -0.299 N 
HETATM    3  C4  UNL     1      58.930  11.625  30.085  1.00  0.00     0.128 A 
HETATM    4  C3  UNL     1      59.193  12.260  31.264  1.00  0.00     0.085 A 
HETATM    5  C16 UNL     1      58.108  12.650  32.117  1.00  0.00     0.107 A 
HETATM    6  C14 UNL     1      56.843  12.360  31.694  1.00  0.00     0.070 A 
HETATM    7  C13 UNL     1      56.674  11.707  30.471  1.00  0.00     0.260 A 
HETATM    8  O7  UNL     1      55.492  11.447  30.098  1.00  0.00    -0.267 OA
BRANCH   4   9
HETATM    9  N1  UNL     1      60.477  12.576  31.733  1.00  0.00    -0.324 N 
HETATM   10  C2  UNL     1      61.328  11.685  32.400  1.00  0.00     0.218 C 
HETATM   11  C1  UNL     1      62.673  12.240  32.820  1.00  0.00     0.117 C 
HETATM   12  O1  UNL     1      61.136  10.499  32.699  1.00  0.00    -0.274 OA
ATOM     13  H1  UNL     1      60.816  13.525  31.578  1.00  0.00     0.169 HD
ENDBRANCH   4   9
BRANCH   5  14
HETATM   14  O12 UNL     1      58.400  13.282  33.285  1.00  0.00    -0.358 OA
ATOM     15  H12 UNL     1      58.467  12.759  34.075  1.00  0.00     0.217 HD
ENDBRANCH   5  14
BRANCH   6  16
HETATM   16  C15 UNL     1      55.623  12.699  32.462  1.00  0.00     0.240 C 
BRANCH  16  17
HETATM   17  O8  UNL     1      55.154  11.807  33.349  1.00  0.00    -0.252 OA
BRANCH  17  18
HETATM   18  S1  UNL     1      53.529  12.133  33.625  1.00  0.00     0.251 S 
HETATM   19  O9  UNL     1      53.276  13.585  33.315  1.00  0.00    -0.572 OA
HETATM   20  O10 UNL     1      53.286  11.950  35.094  1.00  0.00    -0.572 OA
HETATM   21  O11 UNL     1      52.545  11.136  32.704  1.00  0.00    -0.572 OA
ENDBRANCH  17  18
ENDBRANCH  16  17
ENDBRANCH   6  16
ENDBRANCH   1   2
BRANCH   1  22
HETATM   22  C6  UNL     1      58.317  11.273  27.329  1.00  0.00     0.205 C 
HETATM   23  O2  UNL     1      57.900  12.300  26.752  1.00  0.00    -0.646 OA
HETATM   24  O3  UNL     1      59.535  10.737  26.958  1.00  0.00    -0.646 OA
ENDBRANCH   1  22
BRANCH   1  25
HETATM   25  C7  UNL     1      57.726   9.201  28.504  1.00  0.00     0.132 A 
HETATM   26  N3  UNL     1      57.583   8.429  29.604  1.00  0.00    -0.327 N 
HETATM   27  C8  UNL     1      57.903   7.144  29.305  1.00  0.00     0.155 A 
ATOM     28  H3  UNL     1      57.280   8.760  30.520  1.00  0.00     0.168 HD
HETATM   29  N8  UNL     1      58.246   7.126  28.003  1.00  0.00    -0.279 N 
HETATM   30  C12 UNL     1      58.660   5.927  27.279  1.00  0.00     0.179 C 
HETATM   31  N9  UNL     1      58.136   8.363  27.532  1.00  0.00    -0.283 N 
ATOM     32  H9  UNL     1      58.335   8.639  26.571  1.00  0.00     0.188 HD
BRANCH  27  33
HETATM   33  C9  UNL     1      57.863   6.005  30.277  1.00  0.00     0.332 C 
BRANCH  33  34
HETATM   34  O4  UNL     1      56.575   5.445  30.193  1.00  0.00    -0.364 OA
ATOM     35  H4  UNL     1      56.416   5.258  29.274  1.00  0.00     0.213 HD
ENDBRANCH  33  34
BRANCH  33  36
HETATM   36  O5  UNL     1      58.015   6.454  31.588  1.00  0.00    -0.308 OA
BRANCH  36  37
HETATM   37  C10 UNL     1      56.802   6.502  32.271  1.00  0.00     0.384 C 
HETATM   38  N4  UNL     1      57.036   6.406  33.697  1.00  0.00    -0.070 NA
HETATM   39  N5  UNL     1      55.816   6.376  34.343  1.00  0.00    -0.031 NA
HETATM   40  N6  UNL     1      54.758   6.451  33.449  1.00  0.00    -0.069 NA
HETATM   41  C11 UNL     1      54.845   7.560  32.544  1.00  0.00     0.436 C 
HETATM   42  O6  UNL     1      56.149   7.730  32.055  1.00  0.00    -0.299 OA
BRANCH  41  43
HETATM   43  N7  UNL     1      54.370   8.764  33.182  1.00  0.00    -0.037 N 
ATOM     44  H73 UNL     1      53.465   8.626  33.632  1.00  0.00     0.279 HD
ATOM     45  H72 UNL     1      54.917   8.996  34.012  1.00  0.00     0.279 HD
ATOM     46  H71 UNL     1      54.348   9.534  32.512  1.00  0.00     0.279 HD
ENDBRANCH  41  43
ENDBRANCH  36  37
ENDBRANCH  33  36
ENDBRANCH  27  33
ENDBRANCH   1  25
TORSDOF 13
ENDMDL
MODEL 2
REMARK VINA RESULT: -7.610382253      2.357      4.327
REMARK  13 active torsions:
REMARK  status: ('A' for Active; 'I' for Inactive)
REMARK       I    between atoms: C2_2  and  N1_4 
REMARK    1  A    between atoms: N1_4  and  C3_6 
REMARK    2  A    between atoms: N2_8  and  C5_9 
REMARK    3  A    between atoms: C5_9  and  C6_10 
REMARK    4  A    between atoms: C5_9  and  C7_13 
REMARK    5  A    between atoms: C8_16  and  C9_17 
REMARK    6  A    between atoms: C9_17  and  O4_18 
REMARK    7  A    between atoms: C9_17  and  O5_20 
REMARK    8  A    between atoms: O5_20  and  C10_21 
REMARK    9  A    between atoms: C11_25  and  N7_26 
REMARK   10  A    between atoms: C14_37  and  C15_38 
REMARK   11  A    between atoms: C15_38  and  O8_39 
REMARK   12  A    between atoms: O8_39  and  S1_40 
REMARK   13  A    between atoms: C16_44  and  O12_45 
ROOT
HETATM    1  C5  UNL     1      57.010  10.382  28.804  1.00  0.00     0.262 C 
ENDROOT
BRANCH   1   2
HETATM    2  N2  UNL     1      57.197  11.327  29.887  1.00  0.00    -0.299 N 
HETATM    3  C4  UNL     1      56.082  11.895  30.451  1.00  0.00     0.128 A 
HETATM    4  C3  UNL     1      56.160  12.794  31.475  1.00  0.00     0.085 A 
HETATM    5  C16 UNL     1      57.443  13.170  31.993  1.00  0.00     0.107 A 
HETATM    6  C14 UNL     1      58.542  12.596  31.423  1.00  0.00     0.070 A 
HETATM    7  C13 UNL     1      58.362  11.686  30.379  1.00  0.00     0.260 A 
HETATM    8  O7  UNL     1      59.395  11.165  29.863  1.00  0.00    -0.267 OA
BRANCH   4   9
HETATM    9  N1  UNL     1      55.056  13.406  32.088  1.00  0.00    -0.324 N 
HETATM   10  C2  UNL     1      54.353  14.500  31.565  1.00  0.00     0.218 C 
HETATM   11  C1  UNL     1      53.191  15.001  32.396  1.00  0.00     0.117 C 
HETATM   12  O1  UNL     1      54.549  15.122  30.512  1.00  0.00    -0.274 OA
ATOM     13  H1  UNL     1      54.741  13.027  32.981  1.00  0.00     0.169 HD
ENDBRANCH   4   9
BRANCH   5  14
HETATM   14  O12 UNL     1      57.490  14.067  33.013  1.00  0.00    -0.358 OA
ATOM     15  H12 UNL     1      58.242  14.052  33.593  1.00  0.00     0.217 HD
ENDBRANCH   5  14
BRANCH   6  16
HETATM   16  C15 UNL     1      59.931  12.882  31.847  1.00  0.00     0.240 C 
BRANCH  16  17
HETATM   17  O8  UNL     1      60.306  12.542  33.091  1.00  0.00    -0.252 OA
BRANCH  17  18
HETATM   18  S1  UNL     1      61.890  11.985  33.037  1.00  0.00     0.251 S 
HETATM   19  O9  UNL     1      62.786  13.040  33.632  1.00  0.00    -0.572 OA
HETATM   20  O10 UNL     1      62.265  11.859  31.590  1.00  0.00    -0.572 OA
HETATM   21  O11 UNL     1      62.049  10.527  33.849  1.00  0.00    -0.572 OA
ENDBRANCH  17  18
ENDBRANCH  16  17
ENDBRANCH   6  16
ENDBRANCH   1   2
BRANCH   1  22
HETATM   22  C6  UNL     1      57.511  10.921  27.503  1.00  0.00     0.205 C 
HETATM   23  O2  UNL     1      57.672  10.131  26.548  1.00  0.00    -0.646 OA
HETATM   24  O3  UNL     1      57.801  12.260  27.328  1.00  0.00    -0.646 OA
ENDBRANCH   1  22
BRANCH   1  25
HETATM   25  C7  UNL     1      57.618   9.058  29.097  1.00  0.00     0.132 A 
HETATM   26  N3  UNL     1      57.157   8.129  29.963  1.00  0.00    -0.327 N 
HETATM   27  C8  UNL     1      57.982   7.050  29.958  1.00  0.00     0.155 A 
ATOM     28  H3  UNL     1      56.317   8.223  30.535  1.00  0.00     0.168 HD
HETATM   29  N8  UNL     1      58.961   7.319  29.075  1.00  0.00    -0.279 N 
HETATM   30  C12 UNL     1      60.062   6.409  28.767  1.00  0.00     0.179 C 
HETATM   31  N9  UNL     1      58.735   8.525  28.564  1.00  0.00    -0.283 N 
ATOM     32  H9  UNL     1      59.324   8.981  27.868  1.00  0.00     0.188 HD
BRANCH  27  33
HETATM   33  C9  UNL     1      57.787   5.823  30.794  1.00  0.00     0.332 C 
BRANCH  33  34
HETATM   34  O4  UNL     1      56.450   5.421  30.620  1.00  0.00    -0.364 OA
ATOM     35  H4  UNL     1      55.927   5.941  31.219  1.00  0.00     0.213 HD
ENDBRANCH  33  34
BRANCH  33  36
HETATM   36  O5  UNL     1      57.943   6.105  32.150  1.00  0.00    -0.308 OA
BRANCH  36  37
HETATM   37  C10 UNL     1      56.720   6.235  32.804  1.00  0.00     0.384 C 
HETATM   38  N4  UNL     1      56.929   6.258  34.237  1.00  0.00    -0.070 NA
HETATM   39  N5  UNL     1      55.697   6.308  34.861  1.00  0.00    -0.031 NA
HETATM   40  N6  UNL     1      54.656   6.325  33.945  1.00  0.00    -0.069 NA
HETATM   41  C11 UNL     1      54.781   7.350  32.949  1.00  0.00     0.436 C 
HETATM   42  O6  UNL     1      56.097   7.452  32.471  1.00  0.00    -0.299 OA
BRANCH  41  43
HETATM   43  N7  UNL     1      54.321   8.614  33.471  1.00  0.00    -0.037 N 
ATOM     44  H73 UNL     1      55.078   9.147  33.901  1.00  0.00     0.279 HD
ATOM     45  H72 UNL     1      54.079   9.268  32.727  1.00  0.00     0.279 HD
ATOM     46  H71 UNL     1      53.545   8.468  34.118  1.00  0.00     0.279 HD
ENDBRANCH  41  43
ENDBRANCH  36  37
ENDBRANCH  33  36
ENDBRANCH  27  33
ENDBRANCH   1  25
TORSDOF 13
ENDMDL
MODEL 3
REMARK VINA RESULT: -7.587769851      3.204      7.349
REMARK  13 active torsions:
REMARK  status: ('A' for Active; 'I' for Inactive)
REMARK       I    between atoms: C2_2  and  N1_4 
REMARK    1  A    between atoms: N1_4  and  C3_6 
REMARK    2  A    between atoms: N2_8  and  C5_9 
REMARK    3  A    between atoms: C5_9  and  C6_10 
REMARK    4  A    between atoms: C5_9  and  C7_13 
REMARK    5  A    between atoms: C8_16  and  C9_17 
REMARK    6  A    between atoms: C9_17  and  O4_18 
REMARK    7  A    between atoms: C9_17  and  O5_20 
REMARK    8  A    between atoms: O5_20  and  C10_21 
REMARK    9  A    between atoms: C11_25  and  N7_26 
REMARK   10  A    between atoms: C14_37  and  C15_38 
REMARK   11  A    between atoms: C15_38  and  O8_39 
REMARK   12  A    between atoms: O8_39  and  S1_40 
REMARK   13  A    between atoms: C16_44  and  O12_45 
ROOT
HETATM    1  C5  UNL     1      53.494  10.776  29.308  1.00  0.00     0.262 C 
ENDROOT
BRANCH   1   2
HETATM    2  N2  UNL     1      54.340   9.603  29.396  1.00  0.00    -0.299 N 
HETATM    3  C4  UNL     1      54.927   9.139  28.245  1.00  0.00     0.128 A 
HETATM    4  C3  UNL     1      55.739   8.042  28.231  1.00  0.00     0.085 A 
HETATM    5  C16 UNL     1      56.000   7.336  29.451  1.00  0.00     0.107 A 
HETATM    6  C14 UNL     1      55.411   7.810  30.588  1.00  0.00     0.070 A 
HETATM    7  C13 UNL     1      54.595   8.941  30.502  1.00  0.00     0.260 A 
HETATM    8  O7  UNL     1      54.057   9.363  31.568  1.00  0.00    -0.267 OA
BRANCH   4   9
HETATM    9  N1  UNL     1      56.364   7.524  27.086  1.00  0.00    -0.324 N 
HETATM   10  C2  UNL     1      55.698   6.897  26.024  1.00  0.00     0.218 C 
HETATM   11  C1  UNL     1      56.572   6.412  24.886  1.00  0.00     0.117 C 
HETATM   12  O1  UNL     1      54.487   6.682  25.881  1.00  0.00    -0.274 OA
ATOM     13  H1  UNL     1      57.378   7.609  27.022  1.00  0.00     0.169 HD
ENDBRANCH   4   9
BRANCH   5  14
HETATM   14  O12 UNL     1      56.813   6.248  29.407  1.00  0.00    -0.358 OA
ATOM     15  H12 UNL     1      57.701   6.334  29.735  1.00  0.00     0.217 HD
ENDBRANCH   5  14
BRANCH   6  16
HETATM   16  C15 UNL     1      55.584   7.192  31.922  1.00  0.00     0.240 C 
BRANCH  16  17
HETATM   17  O8  UNL     1      55.871   5.883  31.991  1.00  0.00    -0.252 OA
BRANCH  17  18
HETATM   18  S1  UNL     1      57.322   5.697  32.819  1.00  0.00     0.251 S 
HETATM   19  O9  UNL     1      57.188   6.359  34.166  1.00  0.00    -0.572 OA
HETATM   20  O10 UNL     1      58.365   6.461  32.058  1.00  0.00    -0.572 OA
HETATM   21  O11 UNL     1      57.729   4.079  32.976  1.00  0.00    -0.572 OA
ENDBRANCH  17  18
ENDBRANCH  16  17
ENDBRANCH   6  16
ENDBRANCH   1   2
BRANCH   1  22
HETATM   22  C6  UNL     1      52.058  10.446  29.560  1.00  0.00     0.205 C 
HETATM   23  O2  UNL     1      51.420   9.832  28.678  1.00  0.00    -0.646 OA
HETATM   24  O3  UNL     1      51.421  10.797  30.734  1.00  0.00    -0.646 OA
ENDBRANCH   1  22
BRANCH   1  25
HETATM   25  C7  UNL     1      53.950  11.871  30.203  1.00  0.00     0.132 A 
HETATM   26  N3  UNL     1      55.218  12.114  30.604  1.00  0.00    -0.327 N 
HETATM   27  C8  UNL     1      55.239  13.200  31.418  1.00  0.00     0.155 A 
ATOM     28  H3  UNL     1      56.035  11.565  30.335  1.00  0.00     0.168 HD
HETATM   29  N8  UNL     1      53.968  13.631  31.518  1.00  0.00    -0.279 N 
HETATM   30  C12 UNL     1      53.552  14.787  32.308  1.00  0.00     0.179 C 
HETATM   31  N9  UNL     1      53.203  12.828  30.787  1.00  0.00    -0.283 N 
ATOM     32  H9  UNL     1      52.193  12.923  30.683  1.00  0.00     0.188 HD
BRANCH  27  33
HETATM   33  C9  UNL     1      56.472  13.766  32.054  1.00  0.00     0.332 C 
BRANCH  33  34
HETATM   34  O4  UNL     1      57.225  14.357  31.023  1.00  0.00    -0.364 OA
ATOM     35  H4  UNL     1      57.474  13.658  30.430  1.00  0.00     0.213 HD
ENDBRANCH  33  34
BRANCH  33  36
HETATM   36  O5  UNL     1      57.267  12.760  32.600  1.00  0.00    -0.308 OA
BRANCH  36  37
HETATM   37  C10 UNL     1      58.546  12.744  32.048  1.00  0.00     0.384 C 
HETATM   38  N4  UNL     1      59.530  12.552  33.093  1.00  0.00    -0.070 NA
HETATM   39  N5  UNL     1      60.790  12.619  32.530  1.00  0.00    -0.031 NA
HETATM   40  N6  UNL     1      60.731  12.840  31.162  1.00  0.00    -0.069 NA
HETATM   41  C11 UNL     1      59.893  11.910  30.463  1.00  0.00     0.436 C 
HETATM   42  O6  UNL     1      58.697  11.668  31.154  1.00  0.00    -0.299 OA
BRANCH  41  43
HETATM   43  N7  UNL     1      60.608  10.681  30.216  1.00  0.00    -0.037 N 
ATOM     44  H73 UNL     1      61.606  10.777  30.403  1.00  0.00     0.279 HD
ATOM     45  H72 UNL     1      60.391   9.969  30.914  1.00  0.00     0.279 HD
ATOM     46  H71 UNL     1      60.429  10.352  29.267  1.00  0.00     0.279 HD
ENDBRANCH  41  43
ENDBRANCH  36  37
ENDBRANCH  33  36
ENDBRANCH  27  33
ENDBRANCH   1  25
TORSDOF 13
ENDMDL
MODEL 4
REMARK VINA RESULT: -7.580955963      3.264      6.993
REMARK  13 active torsions:
REMARK  status: ('A' for Active; 'I' for Inactive)
REMARK       I    between atoms: C2_2  and  N1_4 
REMARK    1  A    between atoms: N1_4  and  C3_6 
REMARK    2  A    between atoms: N2_8  and  C5_9 
REMARK    3  A    between atoms: C5_9  and  C6_10 
REMARK    4  A    between atoms: C5_9  and  C7_13 
REMARK    5  A    between atoms: C8_16  and  C9_17 
REMARK    6  A    between atoms: C9_17  and  O4_18 
REMARK    7  A    between atoms: C9_17  and  O5_20 
REMARK    8  A    between atoms: O5_20  and  C10_21 
REMARK    9  A    between atoms: C11_25  and  N7_26 
REMARK   10  A    between atoms: C14_37  and  C15_38 
REMARK   11  A    between atoms: C15_38  and  O8_39 
REMARK   12  A    between atoms: O8_39  and  S1_40 
REMARK   13  A    between atoms: C16_44  and  O12_45 
ROOT
HETATM    1  C5  UNL     1      56.391  10.138  29.846  1.00  0.00     0.262 C 
ENDROOT
BRANCH   1   2
HETATM    2  N2  UNL     1      56.759  11.331  30.581  1.00  0.00    -0.299 N 
HETATM    3  C4  UNL     1      55.767  12.223  30.906  1.00  0.00     0.128 A 
HETATM    4  C3  UNL     1      56.018  13.374  31.597  1.00  0.00     0.085 A 
HETATM    5  C16 UNL     1      57.359  13.679  32.004  1.00  0.00     0.107 A 
HETATM    6  C14 UNL     1      58.334  12.782  31.674  1.00  0.00     0.070 A 
HETATM    7  C13 UNL     1      57.979  11.632  30.966  1.00  0.00     0.260 A 
HETATM    8  O7  UNL     1      58.899  10.813  30.669  1.00  0.00    -0.267 OA
BRANCH   4   9
HETATM    9  N1  UNL     1      55.046  14.320  31.955  1.00  0.00    -0.324 N 
HETATM   10  C2  UNL     1      53.859  14.029  32.641  1.00  0.00     0.218 C 
HETATM   11  C1  UNL     1      52.951  15.207  32.926  1.00  0.00     0.117 C 
HETATM   12  O1  UNL     1      53.443  12.937  33.052  1.00  0.00    -0.274 OA
ATOM     13  H1  UNL     1      55.215  15.292  31.697  1.00  0.00     0.169 HD
ENDBRANCH   4   9
BRANCH   5  14
HETATM   14  O12 UNL     1      57.579  14.831  32.691  1.00  0.00    -0.358 OA
ATOM     15  H12 UNL     1      58.363  14.896  33.222  1.00  0.00     0.217 HD
ENDBRANCH   5  14
BRANCH   6  16
HETATM   16  C15 UNL     1      59.761  12.955  32.024  1.00  0.00     0.240 C 
BRANCH  16  17
HETATM   17  O8  UNL     1      60.194  12.490  33.206  1.00  0.00    -0.252 OA
BRANCH  17  18
HETATM   18  S1  UNL     1      61.783  11.972  33.027  1.00  0.00     0.251 S 
HETATM   19  O9  UNL     1      62.697  13.061  33.524  1.00  0.00    -0.572 OA
HETATM   20  O10 UNL     1      62.036  11.827  31.555  1.00  0.00    -0.572 OA
HETATM   21  O11 UNL     1      62.050  10.535  33.847  1.00  0.00    -0.572 OA
ENDBRANCH  17  18
ENDBRANCH  16  17
ENDBRANCH   6  16
ENDBRANCH   1   2
BRANCH   1  22
HETATM   22  C6  UNL     1      54.916   9.894  29.886  1.00  0.00     0.205 C 
HETATM   23  O2  UNL     1      54.228  10.217  28.893  1.00  0.00    -0.646 OA
HETATM   24  O3  UNL     1      54.296   9.327  30.982  1.00  0.00    -0.646 OA
ENDBRANCH   1  22
BRANCH   1  25
HETATM   25  C7  UNL     1      56.884  10.161  28.445  1.00  0.00     0.132 A 
HETATM   26  N3  UNL     1      57.299  11.244  27.751  1.00  0.00    -0.327 N 
HETATM   27  C8  UNL     1      57.676  10.870  26.501  1.00  0.00     0.155 A 
ATOM     28  H3  UNL     1      57.325  12.198  28.111  1.00  0.00     0.168 HD
HETATM   29  N8  UNL     1      57.492   9.538  26.428  1.00  0.00    -0.279 N 
HETATM   30  C12 UNL     1      57.780   8.734  25.242  1.00  0.00     0.179 C 
HETATM   31  N9  UNL     1      57.017   9.122  27.596  1.00  0.00    -0.283 N 
ATOM     32  H9  UNL     1      56.787   8.155  27.820  1.00  0.00     0.188 HD
BRANCH  27  33
HETATM   33  C9  UNL     1      58.192  11.803  25.449  1.00  0.00     0.332 C 
BRANCH  33  34
HETATM   34  O4  UNL     1      59.552  12.023  25.734  1.00  0.00    -0.364 OA
ATOM     35  H4  UNL     1      60.018  11.239  25.470  1.00  0.00     0.213 HD
ENDBRANCH  33  34
BRANCH  33  36
HETATM   36  O5  UNL     1      57.564  13.046  25.524  1.00  0.00    -0.308 OA
BRANCH  36  37
HETATM   37  C10 UNL     1      58.396  14.022  26.067  1.00  0.00     0.384 C 
HETATM   38  N4  UNL     1      57.823  15.333  25.846  1.00  0.00    -0.070 NA
HETATM   39  N5  UNL     1      58.704  16.285  26.324  1.00  0.00    -0.031 NA
HETATM   40  N6  UNL     1      59.844  15.707  26.863  1.00  0.00    -0.069 NA
HETATM   41  C11 UNL     1      59.569  14.704  27.851  1.00  0.00     0.436 C 
HETATM   42  O6  UNL     1      58.513  13.867  27.461  1.00  0.00    -0.299 OA
BRANCH  41  43
HETATM   43  N7  UNL     1      59.297  15.321  29.127  1.00  0.00    -0.037 N 
ATOM     44  H73 UNL     1      59.284  16.339  29.063  1.00  0.00     0.279 HD
ATOM     45  H72 UNL     1      58.331  15.175  29.422  1.00  0.00     0.279 HD
ATOM     46  H71 UNL     1      59.963  14.992  29.827  1.00  0.00     0.279 HD
ENDBRANCH  41  43
ENDBRANCH  36  37
ENDBRANCH  33  36
ENDBRANCH  27  33
ENDBRANCH   1  25
TORSDOF 13
ENDMDL
MODEL 5
REMARK VINA RESULT: -7.558749432      3.011      5.428
REMARK  13 active torsions:
REMARK  status: ('A' for Active; 'I' for Inactive)
REMARK       I    between atoms: C2_2  and  N1_4 
REMARK    1  A    between atoms: N1_4  and  C3_6 
REMARK    2  A    between atoms: N2_8  and  C5_9 
REMARK    3  A    between atoms: C5_9  and  C6_10 
REMARK    4  A    between atoms: C5_9  and  C7_13 
REMARK    5  A    between atoms: C8_16  and  C9_17 
REMARK    6  A    between atoms: C9_17  and  O4_18 
REMARK    7  A    between atoms: C9_17  and  O5_20 
REMARK    8  A    between atoms: O5_20  and  C10_21 
REMARK    9  A    between atoms: C11_25  and  N7_26 
REMARK   10  A    between atoms: C14_37  and  C15_38 
REMARK   11  A    between atoms: C15_38  and  O8_39 
REMARK   12  A    between atoms: O8_39  and  S1_40 
REMARK   13  A    between atoms: C16_44  and  O12_45 
ROOT
HETATM    1  C5  UNL     1      54.299   9.651  30.725  1.00  0.00     0.262 C 
ENDROOT
BRANCH   1   2
HETATM    2  N2  UNL     1      54.965  10.888  31.081  1.00  0.00    -0.299 N 
HETATM    3  C4  UNL     1      54.189  11.946  31.488  1.00  0.00     0.128 A 
HETATM    4  C3  UNL     1      54.726  13.150  31.843  1.00  0.00     0.085 A 
HETATM    5  C16 UNL     1      56.148  13.334  31.796  1.00  0.00     0.107 A 
HETATM    6  C14 UNL     1      56.905  12.273  31.391  1.00  0.00     0.070 A 
HETATM    7  C13 UNL     1      56.264  11.081  31.047  1.00  0.00     0.260 A 
HETATM    8  O7  UNL     1      56.985  10.109  30.673  1.00  0.00    -0.267 OA
BRANCH   4   9
HETATM    9  N1  UNL     1      53.984  14.263  32.265  1.00  0.00    -0.324 N 
HETATM   10  C2  UNL     1      53.181  14.303  33.412  1.00  0.00     0.218 C 
HETATM   11  C1  UNL     1      52.467  15.612  33.677  1.00  0.00     0.117 C 
HETATM   12  O1  UNL     1      52.968  13.414  34.247  1.00  0.00    -0.274 OA
ATOM     13  H1  UNL     1      54.033  15.107  31.694  1.00  0.00     0.169 HD
ENDBRANCH   4   9
BRANCH   5  14
HETATM   14  O12 UNL     1      56.654  14.543  32.156  1.00  0.00    -0.358 OA
ATOM     15  H12 UNL     1      57.030  15.094  31.480  1.00  0.00     0.217 HD
ENDBRANCH   5  14
BRANCH   6  16
HETATM   16  C15 UNL     1      58.381  12.308  31.291  1.00  0.00     0.240 C 
BRANCH  16  17
HETATM   17  O8  UNL     1      59.101  12.333  32.424  1.00  0.00    -0.252 OA
BRANCH  17  18
HETATM   18  S1  UNL     1      60.702  11.989  32.046  1.00  0.00     0.251 S 
HETATM   19  O9  UNL     1      61.577  13.035  32.685  1.00  0.00    -0.572 OA
HETATM   20  O10 UNL     1      60.848  12.144  30.561  1.00  0.00    -0.572 OA
HETATM   21  O11 UNL     1      61.128  10.449  32.555  1.00  0.00    -0.572 OA
ENDBRANCH  17  18
ENDBRANCH  16  17
ENDBRANCH   6  16
ENDBRANCH   1   2
BRANCH   1  22
HETATM   22  C6  UNL     1      53.950   9.606  29.272  1.00  0.00     0.205 C 
HETATM   23  O2  UNL     1      52.750   9.720  28.940  1.00  0.00    -0.646 OA
HETATM   24  O3  UNL     1      54.909   9.444  28.293  1.00  0.00    -0.646 OA
ENDBRANCH   1  22
BRANCH   1  25
HETATM   25  C7  UNL     1      55.087   8.453  31.116  1.00  0.00     0.132 A 
HETATM   26  N3  UNL     1      55.299   7.997  32.370  1.00  0.00    -0.327 N 
HETATM   27  C8  UNL     1      56.067   6.878  32.326  1.00  0.00     0.155 A 
ATOM     28  H3  UNL     1      54.937   8.428  33.221  1.00  0.00     0.168 HD
HETATM   29  N8  UNL     1      56.329   6.643  31.027  1.00  0.00    -0.279 N 
HETATM   30  C12 UNL     1      57.131   5.522  30.541  1.00  0.00     0.179 C 
HETATM   31  N9  UNL     1      55.738   7.591  30.309  1.00  0.00    -0.283 N 
ATOM     32  H9  UNL     1      55.772   7.658  29.293  1.00  0.00     0.188 HD
BRANCH  27  33
HETATM   33  C9  UNL     1      56.507   6.097  33.526  1.00  0.00     0.332 C 
BRANCH  33  34
HETATM   34  O4  UNL     1      55.572   6.357  34.545  1.00  0.00    -0.364 OA
ATOM     35  H4  UNL     1      55.916   5.966  35.339  1.00  0.00     0.213 HD
ENDBRANCH  33  34
BRANCH  33  36
HETATM   36  O5  UNL     1      57.741   6.543  33.996  1.00  0.00    -0.308 OA
BRANCH  36  37
HETATM   37  C10 UNL     1      58.611   5.490  34.269  1.00  0.00     0.384 C 
HETATM   38  N4  UNL     1      59.726   5.968  35.061  1.00  0.00    -0.070 NA
HETATM   39  N5  UNL     1      60.611   4.923  35.250  1.00  0.00    -0.031 NA
HETATM   40  N6  UNL     1      60.170   3.758  34.641  1.00  0.00    -0.069 NA
HETATM   41  C11 UNL     1      58.834   3.386  35.007  1.00  0.00     0.436 C 
HETATM   42  O6  UNL     1      57.975   4.495  35.034  1.00  0.00    -0.299 OA
BRANCH  41  43
HETATM   43  N7  UNL     1      58.836   2.702  36.277  1.00  0.00    -0.037 N 
ATOM     44  H73 UNL     1      58.549   1.727  36.186  1.00  0.00     0.279 HD
ATOM     45  H72 UNL     1      59.783   2.547  36.624  1.00  0.00     0.279 HD
ATOM     46  H71 UNL     1      58.260   3.206  36.952  1.00  0.00     0.279 HD
ENDBRANCH  41  43
ENDBRANCH  36  37
ENDBRANCH  33  36
ENDBRANCH  27  33
ENDBRANCH   1  25
TORSDOF 13
ENDMDL
