MODEL 1
REMARK VINA RESULT: -5.167505745      0.000      0.000
REMARK  1 active torsions:
REMARK  status: ('A' for Active; 'I' for Inactive)
REMARK    1  A    between atoms: C3_3  and  N1_4 
ROOT
HETATM    1  C1  UNL     1      18.847  47.296 -10.541  1.00  0.00     0.018 C 
HETATM    2  C2  UNL     1      19.528  46.701  -9.731  1.00  0.00    -0.072 C 
HETATM    3  C3  UNL     1      20.351  45.996  -8.730  1.00  0.00     0.155 C 
ENDROOT
BRANCH   3   4
HETATM    4  N1  UNL     1      21.018  44.893  -9.299  1.00  0.00    -0.346 N 
HETATM    5  C4  UNL     1      22.359  44.661  -8.953  1.00  0.00     0.071 C 
HETATM    6  C5  UNL     1      22.996  43.782  -9.990  1.00  0.00     0.089 C 
HETATM    7  C6  UNL     1      22.128  42.825 -10.675  1.00  0.00     0.062 C 
HETATM    8  N2  UNL     1      20.734  42.948 -10.539  1.00  0.00    -0.386 N 
HETATM    9  C7  UNL     1      20.274  43.668  -9.375  1.00  0.00     0.249 C 
ATOM     10  H2  UNL     1      20.086  42.553 -11.221  1.00  0.00     0.160 HD
ENDBRANCH   3   4
TORSDOF 1
ENDMDL
MODEL 2
REMARK VINA RESULT: -5.016837401      1.817      4.135
REMARK  1 active torsions:
REMARK  status: ('A' for Active; 'I' for Inactive)
REMARK    1  A    between atoms: C3_3  and  N1_4 
ROOT
HETATM    1  C1  UNL     1      25.075  44.480 -11.997  1.00  0.00     0.018 C 
HETATM    2  C2  UNL     1      24.153  43.759 -11.675  1.00  0.00    -0.072 C 
HETATM    3  C3  UNL     1      23.038  42.868 -11.304  1.00  0.00     0.155 C 
ENDROOT
BRANCH   3   4
HETATM    4  N1  UNL     1      22.240  43.440 -10.294  1.00  0.00    -0.346 N 
HETATM    5  C4  UNL     1      21.044  42.797  -9.931  1.00  0.00     0.071 C 
HETATM    6  C5  UNL     1      20.148  43.774  -9.228  1.00  0.00     0.089 C 
HETATM    7  C6  UNL     1      20.794  44.839  -8.462  1.00  0.00     0.062 C 
HETATM    8  N2  UNL     1      22.172  45.062  -8.631  1.00  0.00    -0.386 N 
HETATM    9  C7  UNL     1      22.933  43.948  -9.144  1.00  0.00     0.249 C 
ATOM     10  H2  UNL     1      22.607  45.956  -8.404  1.00  0.00     0.160 HD
ENDBRANCH   3   4
TORSDOF 1
ENDMDL
MODEL 3
REMARK VINA RESULT: -4.856882445      0.991      1.132
REMARK  1 active torsions:
REMARK  status: ('A' for Active; 'I' for Inactive)
REMARK    1  A    between atoms: C3_3  and  N1_4 
ROOT
HETATM    1  C1  UNL     1      19.643  47.083  -9.335  1.00  0.00     0.018 C 
HETATM    2  C2  UNL     1      20.067  46.015  -8.947  1.00  0.00    -0.072 C 
HETATM    3  C3  UNL     1      20.572  44.720  -8.451  1.00  0.00     0.155 C 
ENDROOT
BRANCH   3   4
HETATM    4  N1  UNL     1      21.486  44.145  -9.357  1.00  0.00    -0.346 N 
HETATM    5  C4  UNL     1      22.860  44.234  -9.079  1.00  0.00     0.071 C 
HETATM    6  C5  UNL     1      23.638  44.010 -10.343  1.00  0.00     0.089 C 
HETATM    7  C6  UNL     1      23.039  43.132 -11.347  1.00  0.00     0.062 C 
HETATM    8  N2  UNL     1      21.689  42.764 -11.215  1.00  0.00    -0.386 N 
HETATM    9  C7  UNL     1      21.137  42.857  -9.885  1.00  0.00     0.249 C 
ATOM     10  H2  UNL     1      21.133  42.452 -12.011  1.00  0.00     0.160 HD
ENDBRANCH   3   4
TORSDOF 1
ENDMDL
MODEL 4
REMARK VINA RESULT: -4.822941882      2.034      3.652
REMARK  1 active torsions:
REMARK  status: ('A' for Active; 'I' for Inactive)
REMARK    1  A    between atoms: C3_3  and  N1_4 
ROOT
HETATM    1  C1  UNL     1      24.891  44.037 -12.020  1.00  0.00     0.018 C 
HETATM    2  C2  UNL     1      24.284  44.397 -11.032  1.00  0.00    -0.072 C 
HETATM    3  C3  UNL     1      23.569  44.846  -9.822  1.00  0.00     0.155 C 
ENDROOT
BRANCH   3   4
HETATM    4  N1  UNL     1      22.292  44.257  -9.734  1.00  0.00    -0.346 N 
HETATM    5  C4  UNL     1      22.178  42.865  -9.885  1.00  0.00     0.071 C 
HETATM    6  C5  UNL     1      20.761  42.517 -10.234  1.00  0.00     0.089 C 
HETATM    7  C6  UNL     1      19.712  43.393  -9.713  1.00  0.00     0.062 C 
HETATM    8  N2  UNL     1      20.072  44.634  -9.158  1.00  0.00    -0.386 N 
HETATM    9  C7  UNL     1      21.434  44.745  -8.693  1.00  0.00     0.249 C 
ATOM     10  H2  UNL     1      19.412  45.408  -9.089  1.00  0.00     0.160 HD
ENDBRANCH   3   4
TORSDOF 1
ENDMDL
MODEL 5
REMARK VINA RESULT: -4.585522292      1.665      3.516
REMARK  1 active torsions:
REMARK  status: ('A' for Active; 'I' for Inactive)
REMARK    1  A    between atoms: C3_3  and  N1_4 
ROOT
HETATM    1  C1  UNL     1      24.721  44.820 -11.780  1.00  0.00     0.018 C 
HETATM    2  C2  UNL     1      24.207  44.538 -10.718  1.00  0.00    -0.072 C 
HETATM    3  C3  UNL     1      23.606  44.194  -9.415  1.00  0.00     0.155 C 
ENDROOT
BRANCH   3   4
HETATM    4  N1  UNL     1      22.230  43.917  -9.543  1.00  0.00    -0.346 N 
HETATM    5  C4  UNL     1      21.333  44.991  -9.668  1.00  0.00     0.071 C 
HETATM    6  C5  UNL     1      19.950  44.528  -9.312  1.00  0.00     0.089 C 
HETATM    7  C6  UNL     1      19.627  43.128  -9.583  1.00  0.00     0.062 C 
HETATM    8  N2  UNL     1      20.666  42.235  -9.898  1.00  0.00    -0.386 N 
HETATM    9  C7  UNL     1      21.876  42.832 -10.413  1.00  0.00     0.249 C 
ATOM     10  H2  UNL     1      20.572  41.227  -9.771  1.00  0.00     0.160 HD
ENDBRANCH   3   4
TORSDOF 1
ENDMDL
