MODEL 1
REMARK VINA RESULT: -5.733041433      0.000      0.000
REMARK  1 active torsions:
REMARK  status: ('A' for Active; 'I' for Inactive)
REMARK    1  A    between atoms: O1_1  and  C1_3 
ROOT
HETATM    1  C1  UNL     1      20.029  43.266  -9.329  1.00  0.00     0.147 C 
HETATM    2  C2  UNL     1      20.332  44.744  -9.217  1.00  0.00     0.035 C 
HETATM    3  C3  UNL     1      21.813  44.763  -8.912  1.00  0.00     0.010 C 
HETATM    4  C4  UNL     1      22.411  43.557  -9.546  1.00  0.00     0.019 C 
HETATM    5  C5  UNL     1      23.037  43.828 -10.897  1.00  0.00     0.033 C 
HETATM    6  C6  UNL     1      22.562  42.577 -11.651  1.00  0.00     0.168 C 
HETATM    7  O2  UNL     1      21.193  42.630 -11.306  1.00  0.00    -0.383 OA
HETATM    8  C7  UNL     1      21.272  42.635  -9.913  1.00  0.00     0.154 C 
ENDROOT
BRANCH   1   9
HETATM    9  O1  UNL     1      18.993  43.146 -10.272  1.00  0.00    -0.393 OA
ATOM     10  H1  UNL     1      18.192  43.033  -9.774  1.00  0.00     0.210 HD
ENDBRANCH   1   9
TORSDOF 1
ENDMDL
MODEL 2
REMARK VINA RESULT: -5.363478901      1.104      1.413
REMARK  1 active torsions:
REMARK  status: ('A' for Active; 'I' for Inactive)
REMARK    1  A    between atoms: O1_1  and  C1_3 
ROOT
HETATM    1  C1  UNL     1      21.197  42.739  -9.897  1.00  0.00     0.147 C 
HETATM    2  C2  UNL     1      20.791  44.149  -9.527  1.00  0.00     0.035 C 
HETATM    3  C3  UNL     1      22.017  44.676  -8.815  1.00  0.00     0.010 C 
HETATM    4  C4  UNL     1      23.199  43.981  -9.395  1.00  0.00     0.019 C 
HETATM    5  C5  UNL     1      23.905  44.777 -10.471  1.00  0.00     0.033 C 
HETATM    6  C6  UNL     1      24.191  43.650 -11.473  1.00  0.00     0.168 C 
HETATM    7  O2  UNL     1      22.898  43.081 -11.526  1.00  0.00    -0.383 OA
HETATM    8  C7  UNL     1      22.680  42.797 -10.177  1.00  0.00     0.154 C 
ENDROOT
BRANCH   1   9
HETATM    9  O1  UNL     1      20.535  42.442 -11.101  1.00  0.00    -0.393 OA
ATOM     10  H1  UNL     1      21.100  42.751 -11.799  1.00  0.00     0.210 HD
ENDBRANCH   1   9
TORSDOF 1
ENDMDL
MODEL 3
REMARK VINA RESULT: -4.924130174      2.122      2.670
REMARK  1 active torsions:
REMARK  status: ('A' for Active; 'I' for Inactive)
REMARK    1  A    between atoms: O1_1  and  C1_3 
ROOT
HETATM    1  C1  UNL     1      20.401  45.541  -8.650  1.00  0.00     0.147 C 
HETATM    2  C2  UNL     1      19.904  44.262  -8.014  1.00  0.00     0.035 C 
HETATM    3  C3  UNL     1      19.971  43.271  -9.154  1.00  0.00     0.010 C 
HETATM    4  C4  UNL     1      21.077  43.703 -10.053  1.00  0.00     0.019 C 
HETATM    5  C5  UNL     1      22.381  42.978  -9.802  1.00  0.00     0.033 C 
HETATM    6  C6  UNL     1      23.355  44.157  -9.931  1.00  0.00     0.168 C 
HETATM    7  O2  UNL     1      22.695  45.071  -9.078  1.00  0.00    -0.383 OA
HETATM    8  C7  UNL     1      21.433  45.120  -9.670  1.00  0.00     0.154 C 
ENDROOT
BRANCH   1   9
HETATM    9  O1  UNL     1      21.058  46.257  -7.633  1.00  0.00    -0.393 OA
ATOM     10  H1  UNL     1      20.911  45.774  -6.829  1.00  0.00     0.210 HD
ENDBRANCH   1   9
TORSDOF 1
ENDMDL
MODEL 4
REMARK VINA RESULT: -4.873310441      1.818      2.453
REMARK  1 active torsions:
REMARK  status: ('A' for Active; 'I' for Inactive)
REMARK    1  A    between atoms: O1_1  and  C1_3 
ROOT
HETATM    1  C1  UNL     1      20.007  44.644  -9.468  1.00  0.00     0.147 C 
HETATM    2  C2  UNL     1      19.847  43.171  -9.168  1.00  0.00     0.035 C 
HETATM    3  C3  UNL     1      20.775  42.520 -10.169  1.00  0.00     0.010 C 
HETATM    4  C4  UNL     1      21.881  43.481 -10.438  1.00  0.00     0.019 C 
HETATM    5  C5  UNL     1      23.129  43.213  -9.625  1.00  0.00     0.033 C 
HETATM    6  C6  UNL     1      23.505  44.656  -9.258  1.00  0.00     0.168 C 
HETATM    7  O2  UNL     1      22.245  45.090  -8.789  1.00  0.00    -0.383 OA
HETATM    8  C7  UNL     1      21.444  44.823  -9.900  1.00  0.00     0.154 C 
ENDROOT
BRANCH   1   9
HETATM    9  O1  UNL     1      19.831  45.317  -8.246  1.00  0.00    -0.393 OA
ATOM     10  H1  UNL     1      18.931  45.162  -7.984  1.00  0.00     0.210 HD
ENDBRANCH   1   9
TORSDOF 1
ENDMDL
MODEL 5
REMARK VINA RESULT: -4.682761985      2.287      3.361
REMARK  1 active torsions:
REMARK  status: ('A' for Active; 'I' for Inactive)
REMARK    1  A    between atoms: O1_1  and  C1_3 
ROOT
HETATM    1  C1  UNL     1      20.030  43.878  -9.329  1.00  0.00     0.147 C 
HETATM    2  C2  UNL     1      19.702  44.252  -7.900  1.00  0.00     0.035 C 
HETATM    3  C3  UNL     1      20.392  45.587  -7.734  1.00  0.00     0.010 C 
HETATM    4  C4  UNL     1      20.418  46.242  -9.072  1.00  0.00     0.019 C 
HETATM    5  C5  UNL     1      19.297  47.236  -9.282  1.00  0.00     0.033 C 
HETATM    6  C6  UNL     1      18.923  46.894 -10.731  1.00  0.00     0.168 C 
HETATM    7  O2  UNL     1      18.820  45.491 -10.596  1.00  0.00    -0.383 OA
HETATM    8  C7  UNL     1      20.084  45.181 -10.093  1.00  0.00     0.154 C 
ENDROOT
BRANCH   1   9
HETATM    9  O1  UNL     1      18.933  43.138  -9.804  1.00  0.00    -0.393 OA
ATOM     10  H1  UNL     1      18.199  43.360  -9.245  1.00  0.00     0.210 HD
ENDBRANCH   1   9
TORSDOF 1
ENDMDL
