MODEL 1
REMARK VINA RESULT: -4.641677510      0.000      0.000
REMARK  1 active torsions:
REMARK  status: ('A' for Active; 'I' for Inactive)
REMARK    1  A    between atoms: N1_1  and  C1_5 
ROOT
HETATM    1  C1  UNL     1      20.462  43.716  -9.553  1.00  0.00     0.212 C 
HETATM    2  C2  UNL     1      21.175  42.526 -10.206  1.00  0.00     0.041 C 
HETATM    3  C3  UNL     1      22.655  42.619 -10.030  1.00  0.00     0.018 C 
HETATM    4  C4  UNL     1      23.319  43.276 -11.248  1.00  0.00     0.036 C 
HETATM    5  C5  UNL     1      23.373  44.749 -10.882  1.00  0.00     0.273 C 
HETATM    6  N2  UNL     1      22.633  44.877  -9.630  1.00  0.00     0.090 N 
HETATM    7  C6  UNL     1      21.223  44.981  -9.863  1.00  0.00     0.305 C 
HETATM    8  C7  UNL     1      23.015  43.651  -8.953  1.00  0.00     0.277 C 
ENDROOT
BRANCH   1   9
HETATM    9  N1  UNL     1      19.139  43.741 -10.024  1.00  0.00    -0.073 N 
ATOM     10  H13 UNL     1      19.013  44.375 -10.814  1.00  0.00     0.274 HD
ATOM     11  H12 UNL     1      18.872  42.878 -10.498  1.00  0.00     0.274 HD
ATOM     12  H11 UNL     1      18.530  43.965  -9.238  1.00  0.00     0.274 HD
ENDBRANCH   1   9
TORSDOF 1
ENDMDL
MODEL 2
REMARK VINA RESULT: -4.061623863      1.563      3.144
REMARK  1 active torsions:
REMARK  status: ('A' for Active; 'I' for Inactive)
REMARK    1  A    between atoms: N1_1  and  C1_5 
ROOT
HETATM    1  C1  UNL     1      22.076  43.525 -10.290  1.00  0.00     0.212 C 
HETATM    2  C2  UNL     1      20.777  42.827  -9.869  1.00  0.00     0.041 C 
HETATM    3  C3  UNL     1      19.726  43.821  -9.496  1.00  0.00     0.018 C 
HETATM    4  C4  UNL     1      19.709  44.070  -7.981  1.00  0.00     0.036 C 
HETATM    5  C5  UNL     1      20.633  45.261  -7.799  1.00  0.00     0.273 C 
HETATM    6  N2  UNL     1      21.225  45.512  -9.110  1.00  0.00     0.090 N 
HETATM    7  C6  UNL     1      22.357  44.663  -9.343  1.00  0.00     0.305 C 
HETATM    8  C7  UNL     1      20.103  45.226  -9.984  1.00  0.00     0.277 C 
ENDROOT
BRANCH   1   9
HETATM    9  N1  UNL     1      23.098  42.562 -10.311  1.00  0.00    -0.073 N 
ATOM     10  H13 UNL     1      23.767  42.679  -9.549  1.00  0.00     0.274 HD
ATOM     11  H12 UNL     1      22.768  41.630 -10.059  1.00  0.00     0.274 HD
ATOM     12  H11 UNL     1      23.538  42.590 -11.230  1.00  0.00     0.274 HD
ENDBRANCH   1   9
TORSDOF 1
ENDMDL
MODEL 3
REMARK VINA RESULT: -3.938417254      1.129      2.120
REMARK  1 active torsions:
REMARK  status: ('A' for Active; 'I' for Inactive)
REMARK    1  A    between atoms: N1_1  and  C1_5 
ROOT
HETATM    1  C1  UNL     1      20.075  43.680  -9.766  1.00  0.00     0.212 C 
HETATM    2  C2  UNL     1      20.793  44.537  -8.717  1.00  0.00     0.041 C 
HETATM    3  C3  UNL     1      22.173  44.893  -9.162  1.00  0.00     0.018 C 
HETATM    4  C4  UNL     1      23.210  43.909  -8.604  1.00  0.00     0.036 C 
HETATM    5  C5  UNL     1      23.334  42.856  -9.692  1.00  0.00     0.273 C 
HETATM    6  N2  UNL     1      22.307  43.179 -10.679  1.00  0.00     0.090 N 
HETATM    7  C6  UNL     1      21.032  42.644 -10.300  1.00  0.00     0.305 C 
HETATM    8  C7  UNL     1      22.349  44.629 -10.664  1.00  0.00     0.277 C 
ENDROOT
BRANCH   1   9
HETATM    9  N1  UNL     1      18.938  43.118  -9.163  1.00  0.00    -0.073 N 
ATOM     10  H13 UNL     1      18.692  43.573  -8.283  1.00  0.00     0.274 HD
ATOM     11  H12 UNL     1      18.077  43.329  -9.669  1.00  0.00     0.274 HD
ATOM     12  H11 UNL     1      19.100  42.117  -9.058  1.00  0.00     0.274 HD
ENDBRANCH   1   9
TORSDOF 1
ENDMDL
MODEL 4
REMARK VINA RESULT: -3.908015528      2.411      3.567
REMARK  1 active torsions:
REMARK  status: ('A' for Active; 'I' for Inactive)
REMARK    1  A    between atoms: N1_1  and  C1_5 
ROOT
HETATM    1  C1  UNL     1      23.789  43.943 -10.683  1.00  0.00     0.212 C 
HETATM    2  C2  UNL     1      24.280  43.966 -12.135  1.00  0.00     0.041 C 
HETATM    3  C3  UNL     1      25.691  44.449 -12.221  1.00  0.00     0.018 C 
HETATM    4  C4  UNL     1      25.746  45.954 -12.514  1.00  0.00     0.036 C 
HETATM    5  C5  UNL     1      25.812  46.590 -11.136  1.00  0.00     0.273 C 
HETATM    6  N2  UNL     1      25.632  45.499 -10.184  1.00  0.00     0.090 N 
HETATM    7  C6  UNL     1      24.244  45.201  -9.986  1.00  0.00     0.305 C 
HETATM    8  C7  UNL     1      26.361  44.430 -10.841  1.00  0.00     0.277 C 
ENDROOT
BRANCH   1   9
HETATM    9  N1  UNL     1      22.391  43.800 -10.700  1.00  0.00    -0.073 N 
ATOM     10  H13 UNL     1      21.913  44.526 -10.166  1.00  0.00     0.274 HD
ATOM     11  H12 UNL     1      21.984  44.011 -11.611  1.00  0.00     0.274 HD
ATOM     12  H11 UNL     1      22.168  42.859 -10.375  1.00  0.00     0.274 HD
ENDBRANCH   1   9
TORSDOF 1
ENDMDL
MODEL 5
REMARK VINA RESULT: -3.719340078      1.439      3.285
REMARK  1 active torsions:
REMARK  status: ('A' for Active; 'I' for Inactive)
REMARK    1  A    between atoms: N1_1  and  C1_5 
ROOT
HETATM    1  C1  UNL     1      22.171  42.999  -9.932  1.00  0.00     0.212 C 
HETATM    2  C2  UNL     1      22.279  44.522  -9.797  1.00  0.00     0.041 C 
HETATM    3  C3  UNL     1      21.122  45.080  -9.034  1.00  0.00     0.018 C 
HETATM    4  C4  UNL     1      20.013  45.562  -9.978  1.00  0.00     0.036 C 
HETATM    5  C5  UNL     1      19.100  44.355 -10.112  1.00  0.00     0.273 C 
HETATM    6  N2  UNL     1      19.778  43.263  -9.418  1.00  0.00     0.090 N 
HETATM    7  C6  UNL     1      20.747  42.630 -10.262  1.00  0.00     0.305 C 
HETATM    8  C7  UNL     1      20.366  43.968  -8.294  1.00  0.00     0.277 C 
ENDROOT
BRANCH   1   9
HETATM    9  N1  UNL     1      23.088  42.585 -10.913  1.00  0.00    -0.073 N 
ATOM     10  H13 UNL     1      23.845  43.254 -11.054  1.00  0.00     0.274 HD
ATOM     11  H12 UNL     1      23.658  41.795 -10.612  1.00  0.00     0.274 HD
ATOM     12  H11 UNL     1      22.567  42.393 -11.769  1.00  0.00     0.274 HD
ENDBRANCH   1   9
TORSDOF 1
ENDMDL
