MODEL 1
REMARK VINA RESULT: -5.513341157      0.000      0.000
REMARK  1 active torsions:
REMARK  status: ('A' for Active; 'I' for Inactive)
REMARK    1  A    between atoms: C3_3  and  N1_4 
ROOT
HETATM    1  C1  UNL     1      19.316  46.734 -10.402  1.00  0.00     0.015 C 
HETATM    2  C2  UNL     1      19.766  45.816  -9.768  1.00  0.00    -0.078 C 
HETATM    3  C3  UNL     1      20.310  44.688  -8.988  1.00  0.00     0.189 C 
HETATM    4  C4  UNL     1      19.852  43.397  -9.572  1.00  0.00     0.078 C 
HETATM    5  C5  UNL     1      20.933  42.571 -10.181  1.00  0.00     0.171 C 
HETATM    6  O1  UNL     1      21.796  43.418 -10.870  1.00  0.00    -0.391 OA
HETATM    7  C6  UNL     1      22.555  44.142  -9.979  1.00  0.00     0.171 C 
HETATM    8  C7  UNL     1      21.801  44.839  -8.916  1.00  0.00     0.078 C 
ENDROOT
BRANCH   3   9
HETATM    9  N1  UNL     1      19.796  44.798  -7.629  1.00  0.00    -0.059 N 
ATOM     10  H13 UNL     1      18.932  45.338  -7.576  1.00  0.00     0.276 HD
ATOM     11  H12 UNL     1      19.426  43.917  -7.272  1.00  0.00     0.276 HD
ATOM     12  H11 UNL     1      20.539  45.182  -7.045  1.00  0.00     0.276 HD
ENDBRANCH   3   9
TORSDOF 1
ENDMDL
MODEL 2
REMARK VINA RESULT: -4.296994720      1.923      3.204
REMARK  1 active torsions:
REMARK  status: ('A' for Active; 'I' for Inactive)
REMARK    1  A    between atoms: C3_3  and  N1_4 
ROOT
HETATM    1  C1  UNL     1      22.293  42.908 -10.467  1.00  0.00     0.015 C 
HETATM    2  C2  UNL     1      21.275  43.367 -10.018  1.00  0.00    -0.078 C 
HETATM    3  C3  UNL     1      20.025  43.922  -9.464  1.00  0.00     0.189 C 
HETATM    4  C4  UNL     1      20.141  44.063  -7.987  1.00  0.00     0.078 C 
HETATM    5  C5  UNL     1      20.148  45.470  -7.494  1.00  0.00     0.171 C 
HETATM    6  O1  UNL     1      20.921  46.234  -8.363  1.00  0.00    -0.391 OA
HETATM    7  C6  UNL     1      20.248  46.424  -9.548  1.00  0.00     0.171 C 
HETATM    8  C7  UNL     1      19.717  45.201 -10.184  1.00  0.00     0.078 C 
ENDROOT
BRANCH   3   9
HETATM    9  N1  UNL     1      18.951  42.984  -9.764  1.00  0.00    -0.059 N 
ATOM     10  H13 UNL     1      19.121  42.447 -10.615  1.00  0.00     0.276 HD
ATOM     11  H12 UNL     1      18.918  42.198  -9.114  1.00  0.00     0.276 HD
ATOM     12  H11 UNL     1      18.078  43.510  -9.796  1.00  0.00     0.276 HD
ENDBRANCH   3   9
TORSDOF 1
ENDMDL
MODEL 3
REMARK VINA RESULT: -4.156371156      1.384      2.803
REMARK  1 active torsions:
REMARK  status: ('A' for Active; 'I' for Inactive)
REMARK    1  A    between atoms: C3_3  and  N1_4 
ROOT
HETATM    1  C1  UNL     1      23.373  44.648  -9.325  1.00  0.00     0.015 C 
HETATM    2  C2  UNL     1      22.239  44.927  -9.033  1.00  0.00    -0.078 C 
HETATM    3  C3  UNL     1      20.851  45.277  -8.675  1.00  0.00     0.189 C 
HETATM    4  C4  UNL     1      20.173  45.920  -9.835  1.00  0.00     0.078 C 
HETATM    5  C5  UNL     1      19.065  45.121 -10.431  1.00  0.00     0.171 C 
HETATM    6  O1  UNL     1      19.458  43.786 -10.464  1.00  0.00    -0.391 OA
HETATM    7  C6  UNL     1      19.443  43.260  -9.193  1.00  0.00     0.171 C 
HETATM    8  C7  UNL     1      20.168  44.041  -8.169  1.00  0.00     0.078 C 
ENDROOT
BRANCH   3   9
HETATM    9  N1  UNL     1      20.903  46.228  -7.573  1.00  0.00    -0.059 N 
ATOM     10  H13 UNL     1      21.374  45.854  -6.749  1.00  0.00     0.276 HD
ATOM     11  H12 UNL     1      21.540  47.005  -7.750  1.00  0.00     0.276 HD
ATOM     12  H11 UNL     1      19.949  46.533  -7.380  1.00  0.00     0.276 HD
ENDBRANCH   3   9
TORSDOF 1
ENDMDL
MODEL 4
REMARK VINA RESULT: -4.087936184      1.797      3.190
REMARK  1 active torsions:
REMARK  status: ('A' for Active; 'I' for Inactive)
REMARK    1  A    between atoms: C3_3  and  N1_4 
ROOT
HETATM    1  C1  UNL     1      24.082  44.707 -11.659  1.00  0.00     0.015 C 
HETATM    2  C2  UNL     1      23.455  44.415 -10.675  1.00  0.00    -0.078 C 
HETATM    3  C3  UNL     1      22.689  44.063  -9.464  1.00  0.00     0.189 C 
HETATM    4  C4  UNL     1      21.623  45.075  -9.224  1.00  0.00     0.078 C 
HETATM    5  C5  UNL     1      20.232  44.566  -9.389  1.00  0.00     0.171 C 
HETATM    6  O1  UNL     1      20.203  43.724 -10.496  1.00  0.00    -0.391 OA
HETATM    7  C6  UNL     1      20.834  42.537 -10.202  1.00  0.00     0.171 C 
HETATM    8  C7  UNL     1      22.184  42.659  -9.616  1.00  0.00     0.078 C 
ENDROOT
BRANCH   3   9
HETATM    9  N1  UNL     1      23.611  44.075  -8.336  1.00  0.00    -0.059 N 
ATOM     10  H13 UNL     1      23.550  44.929  -7.783  1.00  0.00     0.276 HD
ATOM     11  H12 UNL     1      23.347  43.419  -7.601  1.00  0.00     0.276 HD
ATOM     12  H11 UNL     1      24.549  43.905  -8.700  1.00  0.00     0.276 HD
ENDBRANCH   3   9
TORSDOF 1
ENDMDL
MODEL 5
REMARK VINA RESULT: -4.076217218      1.717      3.256
REMARK  1 active torsions:
REMARK  status: ('A' for Active; 'I' for Inactive)
REMARK    1  A    between atoms: C3_3  and  N1_4 
ROOT
HETATM    1  C1  UNL     1      23.238  43.274 -11.760  1.00  0.00     0.015 C 
HETATM    2  C2  UNL     1      22.687  43.623 -10.750  1.00  0.00    -0.078 C 
HETATM    3  C3  UNL     1      22.017  44.057  -9.508  1.00  0.00     0.189 C 
HETATM    4  C4  UNL     1      21.481  45.436  -9.675  1.00  0.00     0.078 C 
HETATM    5  C5  UNL     1      19.993  45.532  -9.670  1.00  0.00     0.171 C 
HETATM    6  O1  UNL     1      19.484  44.458 -10.394  1.00  0.00    -0.391 OA
HETATM    7  C6  UNL     1      19.628  43.294  -9.674  1.00  0.00     0.171 C 
HETATM    8  C7  UNL     1      20.983  43.032  -9.147  1.00  0.00     0.078 C 
ENDROOT
BRANCH   3   9
HETATM    9  N1  UNL     1      23.013  44.064  -8.445  1.00  0.00    -0.059 N 
ATOM     10  H13 UNL     1      23.864  43.561  -8.696  1.00  0.00     0.276 HD
ATOM     11  H12 UNL     1      23.436  44.982  -8.304  1.00  0.00     0.276 HD
ATOM     12  H11 UNL     1      22.571  43.698  -7.602  1.00  0.00     0.276 HD
ENDBRANCH   3   9
TORSDOF 1
ENDMDL
