MODEL 1
REMARK VINA RESULT: -3.902061620      0.000      0.000
REMARK  1 active torsions:
REMARK  status: ('A' for Active; 'I' for Inactive)
REMARK    1  A    between atoms: O1_1  and  C1_3 
ROOT
HETATM    1  C1  UNL     1      24.272  49.362  -4.635  1.00  0.00     0.063 C 
HETATM    2  C2  UNL     1      24.028  50.026  -5.979  1.00  0.00     0.068 C 
HETATM    3  C3  UNL     1      25.181  50.916  -6.354  1.00  0.00     0.275 C 
HETATM    4  N1  UNL     1      26.181  50.883  -5.281  1.00  0.00     0.088 N 
HETATM    5  C4  UNL     1      26.646  49.528  -5.145  1.00  0.00     0.275 C 
HETATM    6  C5  UNL     1      25.561  48.548  -4.803  1.00  0.00     0.068 C 
HETATM    7  C6  UNL     1      25.542  51.400  -4.106  1.00  0.00     0.275 C 
HETATM    8  C7  UNL     1      24.578  50.381  -3.553  1.00  0.00     0.068 C 
ENDROOT
BRANCH   1   9
HETATM    9  O1  UNL     1      23.205  48.548  -4.315  1.00  0.00    -0.390 OA
ATOM     10  H1  UNL     1      23.451  47.955  -3.615  1.00  0.00     0.210 HD
ENDBRANCH   1   9
TORSDOF 1
ENDMDL
MODEL 2
REMARK VINA RESULT: -3.843546131      0.177      2.001
REMARK  1 active torsions:
REMARK  status: ('A' for Active; 'I' for Inactive)
REMARK    1  A    between atoms: O1_1  and  C1_3 
ROOT
HETATM    1  C1  UNL     1      24.305  49.336  -4.640  1.00  0.00     0.063 C 
HETATM    2  C2  UNL     1      24.545  50.370  -3.553  1.00  0.00     0.068 C 
HETATM    3  C3  UNL     1      25.731  51.233  -3.887  1.00  0.00     0.275 C 
HETATM    4  N1  UNL     1      26.306  50.785  -5.160  1.00  0.00     0.088 N 
HETATM    5  C4  UNL     1      25.303  50.935  -6.181  1.00  0.00     0.275 C 
HETATM    6  C5  UNL     1      24.057  50.136  -5.925  1.00  0.00     0.068 C 
HETATM    7  C6  UNL     1      26.741  49.433  -4.963  1.00  0.00     0.275 C 
HETATM    8  C7  UNL     1      25.548  48.511  -4.913  1.00  0.00     0.068 C 
ENDROOT
BRANCH   1   9
HETATM    9  O1  UNL     1      23.210  48.562  -4.315  1.00  0.00    -0.390 OA
ATOM     10  H1  UNL     1      22.602  49.069  -3.791  1.00  0.00     0.210 HD
ENDBRANCH   1   9
TORSDOF 1
ENDMDL
MODEL 3
REMARK VINA RESULT: -3.831844050      1.617      2.008
REMARK  1 active torsions:
REMARK  status: ('A' for Active; 'I' for Inactive)
REMARK    1  A    between atoms: O1_1  and  C1_3 
ROOT
HETATM    1  C1  UNL     1      24.335  49.300  -6.079  1.00  0.00     0.063 C 
HETATM    2  C2  UNL     1      24.154  48.868  -7.524  1.00  0.00     0.068 C 
HETATM    3  C3  UNL     1      25.255  49.418  -8.389  1.00  0.00     0.275 C 
HETATM    4  N1  UNL     1      26.157  50.227  -7.562  1.00  0.00     0.088 N 
HETATM    5  C4  UNL     1      26.722  49.373  -6.551  1.00  0.00     0.275 C 
HETATM    6  C5  UNL     1      25.699  48.744  -5.649  1.00  0.00     0.068 C 
HETATM    7  C6  UNL     1      25.376  51.310  -7.039  1.00  0.00     0.275 C 
HETATM    8  C7  UNL     1      24.457  50.806  -5.954  1.00  0.00     0.068 C 
ENDROOT
BRANCH   1   9
HETATM    9  O1  UNL     1      23.318  48.780  -5.305  1.00  0.00    -0.390 OA
ATOM     10  H1  UNL     1      23.676  48.174  -4.668  1.00  0.00     0.210 HD
ENDBRANCH   1   9
TORSDOF 1
ENDMDL
MODEL 4
REMARK VINA RESULT: -3.793204808      0.178      1.995
REMARK  1 active torsions:
REMARK  status: ('A' for Active; 'I' for Inactive)
REMARK    1  A    between atoms: O1_1  and  C1_3 
ROOT
HETATM    1  C1  UNL     1      24.359  49.384  -4.593  1.00  0.00     0.063 C 
HETATM    2  C2  UNL     1      25.648  48.585  -4.666  1.00  0.00     0.068 C 
HETATM    3  C3  UNL     1      26.791  49.452  -5.119  1.00  0.00     0.275 C 
HETATM    4  N1  UNL     1      26.292  50.808  -5.373  1.00  0.00     0.088 N 
HETATM    5  C4  UNL     1      25.756  51.326  -4.142  1.00  0.00     0.275 C 
HETATM    6  C5  UNL     1      24.626  50.509  -3.584  1.00  0.00     0.068 C 
HETATM    7  C6  UNL     1      25.328  50.701  -6.429  1.00  0.00     0.275 C 
HETATM    8  C7  UNL     1      24.056  50.083  -5.905  1.00  0.00     0.068 C 
ENDROOT
BRANCH   1   9
HETATM    9  O1  UNL     1      23.328  48.570  -4.171  1.00  0.00    -0.390 OA
ATOM     10  H1  UNL     1      22.683  48.483  -4.862  1.00  0.00     0.210 HD
ENDBRANCH   1   9
TORSDOF 1
ENDMDL
MODEL 5
REMARK VINA RESULT: -3.789388531      1.605      2.367
REMARK  1 active torsions:
REMARK  status: ('A' for Active; 'I' for Inactive)
REMARK    1  A    between atoms: O1_1  and  C1_3 
ROOT
HETATM    1  C1  UNL     1      24.375  49.267  -6.042  1.00  0.00     0.063 C 
HETATM    2  C2  UNL     1      24.421  50.784  -5.983  1.00  0.00     0.068 C 
HETATM    3  C3  UNL     1      25.523  51.320  -6.854  1.00  0.00     0.275 C 
HETATM    4  N1  UNL     1      26.233  50.197  -7.476  1.00  0.00     0.088 N 
HETATM    5  C4  UNL     1      25.292  49.469  -8.287  1.00  0.00     0.275 C 
HETATM    6  C5  UNL     1      24.129  48.917  -7.515  1.00  0.00     0.068 C 
HETATM    7  C6  UNL     1      26.801  49.426  -6.409  1.00  0.00     0.275 C 
HETATM    8  C7  UNL     1      25.718  48.651  -5.700  1.00  0.00     0.068 C 
ENDROOT
BRANCH   1   9
HETATM    9  O1  UNL     1      23.353  48.799  -5.240  1.00  0.00    -0.390 OA
ATOM     10  H1  UNL     1      23.716  48.335  -4.496  1.00  0.00     0.210 HD
ENDBRANCH   1   9
TORSDOF 1
ENDMDL
