MODEL 1
REMARK VINA RESULT: -5.346334075      0.000      0.000
REMARK  1 active torsions:
REMARK  status: ('A' for Active; 'I' for Inactive)
REMARK    1  A    between atoms: C3_3  and  O1_4 
ROOT
HETATM    1  C1  UNL     1      19.288  46.726 -10.370  1.00  0.00     0.015 C 
HETATM    2  C2  UNL     1      19.907  45.901  -9.743  1.00  0.00    -0.077 C 
HETATM    3  C3  UNL     1      20.669  44.889  -8.977  1.00  0.00     0.141 C 
HETATM    4  C4  UNL     1      19.980  43.559  -9.014  1.00  0.00     0.056 C 
HETATM    5  C5  UNL     1      20.480  42.644 -10.091  1.00  0.00     0.030 C 
HETATM    6  C6  UNL     1      21.960  42.795 -10.353  1.00  0.00     0.168 C 
HETATM    7  O2  UNL     1      22.154  44.145 -10.731  1.00  0.00    -0.387 OA
HETATM    8  C7  UNL     1      22.060  44.859  -9.550  1.00  0.00     0.218 C 
ENDROOT
BRANCH   3   9
HETATM    9  O1  UNL     1      20.776  45.348  -7.661  1.00  0.00    -0.375 OA
ATOM     10  H1  UNL     1      20.634  44.606  -7.085  1.00  0.00     0.211 HD
ENDBRANCH   3   9
TORSDOF 1
ENDMDL
MODEL 2
REMARK VINA RESULT: -4.483395304      1.675      3.022
REMARK  1 active torsions:
REMARK  status: ('A' for Active; 'I' for Inactive)
REMARK    1  A    between atoms: C3_3  and  O1_4 
ROOT
HETATM    1  C1  UNL     1      24.151  44.783 -11.497  1.00  0.00     0.015 C 
HETATM    2  C2  UNL     1      23.463  44.470 -10.555  1.00  0.00    -0.077 C 
HETATM    3  C3  UNL     1      22.617  44.085  -9.403  1.00  0.00     0.141 C 
HETATM    4  C4  UNL     1      21.632  45.166  -9.078  1.00  0.00     0.056 C 
HETATM    5  C5  UNL     1      20.286  44.975  -9.711  1.00  0.00     0.030 C 
HETATM    6  C6  UNL     1      19.886  43.523  -9.819  1.00  0.00     0.168 C 
HETATM    7  O2  UNL     1      20.887  42.899 -10.601  1.00  0.00    -0.387 OA
HETATM    8  C7  UNL     1      21.970  42.772  -9.752  1.00  0.00     0.218 C 
ENDROOT
BRANCH   3   9
HETATM    9  O1  UNL     1      23.464  43.851  -8.317  1.00  0.00    -0.375 OA
ATOM     10  H1  UNL     1      22.918  43.697  -7.555  1.00  0.00     0.211 HD
ENDBRANCH   3   9
TORSDOF 1
ENDMDL
MODEL 3
REMARK VINA RESULT: -4.482913396      1.709      3.327
REMARK  1 active torsions:
REMARK  status: ('A' for Active; 'I' for Inactive)
REMARK    1  A    between atoms: C3_3  and  O1_4 
ROOT
HETATM    1  C1  UNL     1      22.318  43.008 -10.454  1.00  0.00     0.015 C 
HETATM    2  C2  UNL     1      21.322  43.443  -9.928  1.00  0.00    -0.077 C 
HETATM    3  C3  UNL     1      20.101  43.980  -9.285  1.00  0.00     0.141 C 
HETATM    4  C4  UNL     1      20.437  44.698  -8.014  1.00  0.00     0.056 C 
HETATM    5  C5  UNL     1      20.608  46.178  -8.176  1.00  0.00     0.030 C 
HETATM    6  C6  UNL     1      19.685  46.767  -9.216  1.00  0.00     0.168 C 
HETATM    7  O2  UNL     1      19.991  46.105 -10.429  1.00  0.00    -0.387 OA
HETATM    8  C7  UNL     1      19.417  44.854 -10.302  1.00  0.00     0.218 C 
ENDROOT
BRANCH   3   9
HETATM    9  O1  UNL     1      19.250  42.902  -9.029  1.00  0.00    -0.375 OA
ATOM     10  H1  UNL     1      18.832  42.666  -9.849  1.00  0.00     0.211 HD
ENDBRANCH   3   9
TORSDOF 1
ENDMDL
MODEL 4
REMARK VINA RESULT: -4.215405312      1.747      2.404
REMARK  1 active torsions:
REMARK  status: ('A' for Active; 'I' for Inactive)
REMARK    1  A    between atoms: C3_3  and  O1_4 
ROOT
HETATM    1  C1  UNL     1      20.449  45.527  -9.619  1.00  0.00     0.015 C 
HETATM    2  C2  UNL     1      21.480  44.908  -9.514  1.00  0.00    -0.077 C 
HETATM    3  C3  UNL     1      22.746  44.149  -9.391  1.00  0.00     0.141 C 
HETATM    4  C4  UNL     1      22.633  42.808 -10.049  1.00  0.00     0.056 C 
HETATM    5  C5  UNL     1      23.135  42.778 -11.461  1.00  0.00     0.030 C 
HETATM    6  C6  UNL     1      24.316  43.692 -11.687  1.00  0.00     0.168 C 
HETATM    7  O2  UNL     1      23.871  44.994 -11.354  1.00  0.00    -0.387 OA
HETATM    8  C7  UNL     1      23.833  45.012  -9.972  1.00  0.00     0.218 C 
ENDROOT
BRANCH   3   9
HETATM    9  O1  UNL     1      23.020  44.005  -8.028  1.00  0.00    -0.375 OA
ATOM     10  H1  UNL     1      22.687  43.158  -7.756  1.00  0.00     0.211 HD
ENDBRANCH   3   9
TORSDOF 1
ENDMDL
MODEL 5
REMARK VINA RESULT: -4.126797524      1.659      2.442
REMARK  1 active torsions:
REMARK  status: ('A' for Active; 'I' for Inactive)
REMARK    1  A    between atoms: C3_3  and  O1_4 
ROOT
HETATM    1  C1  UNL     1      19.440  44.414  -7.209  1.00  0.00     0.015 C 
HETATM    2  C2  UNL     1      20.026  44.514  -8.260  1.00  0.00    -0.077 C 
HETATM    3  C3  UNL     1      20.745  44.633  -9.549  1.00  0.00     0.141 C 
HETATM    4  C4  UNL     1      22.183  44.989  -9.328  1.00  0.00     0.056 C 
HETATM    5  C5  UNL     1      23.106  43.808  -9.297  1.00  0.00     0.030 C 
HETATM    6  C6  UNL     1      22.682  42.704 -10.236  1.00  0.00     0.168 C 
HETATM    7  O2  UNL     1      21.383  42.320  -9.826  1.00  0.00    -0.387 OA
HETATM    8  C7  UNL     1      20.556  43.331 -10.279  1.00  0.00     0.218 C 
ENDROOT
BRANCH   3   9
HETATM    9  O1  UNL     1      20.105  45.623 -10.300  1.00  0.00    -0.375 OA
ATOM     10  H1  UNL     1      20.741  46.308 -10.474  1.00  0.00     0.211 HD
ENDBRANCH   3   9
TORSDOF 1
ENDMDL
