MODEL 1
REMARK VINA RESULT: -6.783709175      0.000      0.000
REMARK  2 active torsions:
REMARK  status: ('A' for Active; 'I' for Inactive)
REMARK    1  A    between atoms: C3_4  and  N2_5 
REMARK    2  A    between atoms: C9_16  and  N5_17 
REMARK       I    between atoms: N5_17  and  C10_19 
REMARK       I    between atoms: C10_19  and  N6_20 
REMARK       I    between atoms: C10_19  and  N7_24 
ROOT
HETATM    1  N1  UNL     1      24.827  47.184  -9.076  1.00  0.00    -0.191 NA
HETATM    2  C1  UNL     1      24.335  46.263  -9.519  1.00  0.00     0.107 C 
HETATM    3  C2  UNL     1      23.695  45.096 -10.044  1.00  0.00     0.132 A 
HETATM    4  C3  UNL     1      24.282  44.366 -11.042  1.00  0.00     0.129 A 
HETATM    5  N3  UNL     1      23.559  43.258 -11.428  1.00  0.00    -0.337 N 
ATOM      6  H3  UNL     1      23.935  42.666 -12.168  1.00  0.00     0.168 HD
HETATM    7  C8  UNL     1      22.392  42.922 -10.882  1.00  0.00     0.183 A 
HETATM    8  N4  UNL     1      21.812  43.640  -9.901  1.00  0.00    -0.337 N 
ATOM      9  H4  UNL     1      20.916  43.363  -9.499  1.00  0.00     0.168 HD
HETATM   10  C9  UNL     1      22.457  44.727  -9.476  1.00  0.00     0.129 A 
ENDROOT
BRANCH   4  11
HETATM   11  N2  UNL     1      25.490  44.663 -11.689  1.00  0.00    -0.362 N 
HETATM   12  C4  UNL     1      25.417  45.625 -12.806  1.00  0.00     0.150 C 
HETATM   13  C5  UNL     1      26.280  46.805 -12.341  1.00  0.00     0.187 C 
HETATM   14  O1  UNL     1      27.574  46.408 -12.090  1.00  0.00    -0.388 OA
HETATM   15  C6  UNL     1      27.816  45.073 -12.256  1.00  0.00     0.187 C 
HETATM   16  C7  UNL     1      26.818  44.209 -11.433  1.00  0.00     0.150 C 
ENDBRANCH   4  11
BRANCH  10  17
HETATM   17  N5  UNL     1      21.963  45.461  -8.543  1.00  0.00    -0.326 N 
HETATM   18  C10 UNL     1      20.591  45.769  -8.301  1.00  0.00     0.481 C 
HETATM   19  N6  UNL     1      19.772  44.621  -7.975  1.00  0.00    -0.033 N 
HETATM   20  N7  UNL     1      19.951  46.515  -9.360  1.00  0.00    -0.033 N 
ATOM     21  H63 UNL     1      19.855  43.907  -8.699  1.00  0.00     0.278 HD
ATOM     22  H62 UNL     1      20.168  44.113  -7.184  1.00  0.00     0.278 HD
ATOM     23  H61 UNL     1      18.791  44.841  -7.802  1.00  0.00     0.278 HD
ATOM     24  H73 UNL     1      20.476  47.365  -9.563  1.00  0.00     0.278 HD
ATOM     25  H72 UNL     1      20.055  46.029 -10.251  1.00  0.00     0.278 HD
ATOM     26  H71 UNL     1      18.970  46.735  -9.187  1.00  0.00     0.278 HD
ATOM     27  H5  UNL     1      22.635  45.873  -7.896  1.00  0.00     0.164 HD
ENDBRANCH  10  17
TORSDOF 2
ENDMDL
MODEL 2
REMARK VINA RESULT: -6.558660602      1.020      2.473
REMARK  2 active torsions:
REMARK  status: ('A' for Active; 'I' for Inactive)
REMARK    1  A    between atoms: C3_4  and  N2_5 
REMARK    2  A    between atoms: C9_16  and  N5_17 
REMARK       I    between atoms: N5_17  and  C10_19 
REMARK       I    between atoms: C10_19  and  N6_20 
REMARK       I    between atoms: C10_19  and  N7_24 
ROOT
HETATM    1  N1  UNL     1      23.198  42.455 -12.370  1.00  0.00    -0.191 NA
HETATM    2  C1  UNL     1      23.391  43.308 -11.647  1.00  0.00     0.107 C 
HETATM    3  C2  UNL     1      23.597  44.385 -10.728  1.00  0.00     0.132 A 
HETATM    4  C3  UNL     1      24.698  45.192 -10.832  1.00  0.00     0.129 A 
HETATM    5  N3  UNL     1      24.747  46.199  -9.893  1.00  0.00    -0.337 N 
ATOM      6  H3  UNL     1      25.540  46.840  -9.910  1.00  0.00     0.168 HD
HETATM    7  C8  UNL     1      23.810  46.377  -8.964  1.00  0.00     0.183 A 
HETATM    8  N4  UNL     1      22.727  45.583  -8.859  1.00  0.00    -0.337 N 
ATOM      9  H4  UNL     1      22.023  45.739  -8.138  1.00  0.00     0.168 HD
HETATM   10  C9  UNL     1      22.613  44.586  -9.737  1.00  0.00     0.129 A 
ENDROOT
BRANCH   4  11
HETATM   11  N2  UNL     1      25.741  45.060 -11.759  1.00  0.00    -0.362 N 
HETATM   12  C4  UNL     1      25.702  45.967 -12.924  1.00  0.00     0.150 C 
HETATM   13  C5  UNL     1      26.977  46.808 -12.786  1.00  0.00     0.187 C 
HETATM   14  O1  UNL     1      28.102  46.013 -12.793  1.00  0.00    -0.388 OA
HETATM   15  C6  UNL     1      27.865  44.669 -12.872  1.00  0.00     0.187 C 
HETATM   16  C7  UNL     1      26.880  44.201 -11.763  1.00  0.00     0.150 C 
ENDBRANCH   4  11
BRANCH  10  17
HETATM   17  N5  UNL     1      21.606  43.789  -9.697  1.00  0.00    -0.326 N 
HETATM   18  C10 UNL     1      20.237  44.113  -9.454  1.00  0.00     0.481 C 
HETATM   19  N6  UNL     1      19.645  44.977 -10.453  1.00  0.00    -0.033 N 
HETATM   20  N7  UNL     1      19.977  44.663  -8.145  1.00  0.00    -0.033 N 
ATOM     21  H63 UNL     1      20.200  45.827 -10.563  1.00  0.00     0.278 HD
ATOM     22  H62 UNL     1      19.757  44.576 -11.384  1.00  0.00     0.278 HD
ATOM     23  H61 UNL     1      18.667  45.209 -10.280  1.00  0.00     0.278 HD
ATOM     24  H73 UNL     1      20.328  44.038  -7.420  1.00  0.00     0.278 HD
ATOM     25  H72 UNL     1      20.570  45.476  -7.976  1.00  0.00     0.278 HD
ATOM     26  H71 UNL     1      18.998  44.895  -7.972  1.00  0.00     0.278 HD
ATOM     27  H5  UNL     1      21.810  42.803  -9.859  1.00  0.00     0.164 HD
ENDBRANCH  10  17
TORSDOF 2
ENDMDL
MODEL 3
REMARK VINA RESULT: -6.283779940      1.446      3.024
REMARK  2 active torsions:
REMARK  status: ('A' for Active; 'I' for Inactive)
REMARK    1  A    between atoms: C3_4  and  N2_5 
REMARK    2  A    between atoms: C9_16  and  N5_17 
REMARK       I    between atoms: N5_17  and  C10_19 
REMARK       I    between atoms: C10_19  and  N6_20 
REMARK       I    between atoms: C10_19  and  N7_24 
ROOT
HETATM    1  N1  UNL     1      24.378  43.375 -11.594  1.00  0.00    -0.191 NA
HETATM    2  C1  UNL     1      24.516  44.355 -11.040  1.00  0.00     0.107 C 
HETATM    3  C2  UNL     1      24.652  45.590 -10.330  1.00  0.00     0.132 A 
HETATM    4  C3  UNL     1      25.653  46.469 -10.644  1.00  0.00     0.129 A 
HETATM    5  N3  UNL     1      25.642  47.624  -9.892  1.00  0.00    -0.337 N 
ATOM      6  H3  UNL     1      26.360  48.326 -10.070  1.00  0.00     0.168 HD
HETATM    7  C8  UNL     1      24.740  47.869  -8.943  1.00  0.00     0.183 A 
HETATM    8  N4  UNL     1      23.756  47.004  -8.632  1.00  0.00    -0.337 N 
ATOM      9  H4  UNL     1      23.077  47.213  -7.900  1.00  0.00     0.168 HD
HETATM   10  C9  UNL     1      23.704  45.864  -9.321  1.00  0.00     0.129 A 
ENDROOT
BRANCH   4  11
HETATM   11  N2  UNL     1      26.655  46.280 -11.606  1.00  0.00    -0.362 N 
HETATM   12  C4  UNL     1      27.963  45.809 -11.106  1.00  0.00     0.150 C 
HETATM   13  C5  UNL     1      28.150  44.442 -11.776  1.00  0.00     0.187 C 
HETATM   14  O1  UNL     1      28.135  44.554 -13.149  1.00  0.00    -0.388 OA
HETATM   15  C6  UNL     1      27.917  45.816 -13.629  1.00  0.00     0.187 C 
HETATM   16  C7  UNL     1      26.627  46.438 -13.023  1.00  0.00     0.150 C 
ENDBRANCH   4  11
BRANCH  10  17
HETATM   17  N5  UNL     1      22.792  44.991  -9.078  1.00  0.00    -0.326 N 
HETATM   18  C10 UNL     1      21.377  45.179  -9.065  1.00  0.00     0.481 C 
HETATM   19  N6  UNL     1      20.817  45.563 -10.343  1.00  0.00    -0.033 N 
HETATM   20  N7  UNL     1      20.906  46.096  -8.053  1.00  0.00    -0.033 N 
ATOM     21  H63 UNL     1      21.285  46.396 -10.702  1.00  0.00     0.278 HD
ATOM     22  H62 UNL     1      21.081  44.892 -11.065  1.00  0.00     0.278 HD
ATOM     23  H61 UNL     1      19.805  45.698 -10.334  1.00  0.00     0.278 HD
ATOM     24  H73 UNL     1      21.235  45.808  -7.131  1.00  0.00     0.278 HD
ATOM     25  H72 UNL     1      21.384  46.994  -8.136  1.00  0.00     0.278 HD
ATOM     26  H71 UNL     1      19.895  46.230  -8.044  1.00  0.00     0.278 HD
ATOM     27  H5  UNL     1      23.120  44.048  -8.870  1.00  0.00     0.164 HD
ENDBRANCH  10  17
TORSDOF 2
ENDMDL
MODEL 4
REMARK VINA RESULT: -5.857083370      2.519      5.981
REMARK  2 active torsions:
REMARK  status: ('A' for Active; 'I' for Inactive)
REMARK    1  A    between atoms: C3_4  and  N2_5 
REMARK    2  A    between atoms: C9_16  and  N5_17 
REMARK       I    between atoms: N5_17  and  C10_19 
REMARK       I    between atoms: C10_19  and  N6_20 
REMARK       I    between atoms: C10_19  and  N7_24 
ROOT
HETATM    1  N1  UNL     1      23.865  42.982 -12.609  1.00  0.00    -0.191 NA
HETATM    2  C1  UNL     1      24.115  43.844 -11.914  1.00  0.00     0.107 C 
HETATM    3  C2  UNL     1      24.467  44.927 -11.048  1.00  0.00     0.132 A 
HETATM    4  C3  UNL     1      23.663  45.269  -9.994  1.00  0.00     0.129 A 
HETATM    5  N3  UNL     1      24.144  46.315  -9.237  1.00  0.00    -0.337 N 
ATOM      6  H3  UNL     1      23.597  46.624  -8.434  1.00  0.00     0.168 HD
HETATM    7  C8  UNL     1      25.289  46.941  -9.501  1.00  0.00     0.183 A 
HETATM    8  N4  UNL     1      26.080  46.607 -10.538  1.00  0.00    -0.337 N 
ATOM      9  H4  UNL     1      26.953  47.103 -10.722  1.00  0.00     0.168 HD
HETATM   10  C9  UNL     1      25.677  45.601 -11.316  1.00  0.00     0.129 A 
ENDROOT
BRANCH   4  11
HETATM   11  N2  UNL     1      22.434  44.682  -9.662  1.00  0.00    -0.362 N 
HETATM   12  C4  UNL     1      21.445  45.560  -9.004  1.00  0.00     0.150 C 
HETATM   13  C5  UNL     1      20.269  45.604  -9.988  1.00  0.00     0.187 C 
HETATM   14  O1  UNL     1      19.764  44.343 -10.217  1.00  0.00    -0.388 OA
HETATM   15  C6  UNL     1      20.419  43.327  -9.578  1.00  0.00     0.187 C 
HETATM   16  C7  UNL     1      21.945  43.359  -9.877  1.00  0.00     0.150 C 
ENDBRANCH   4  11
BRANCH  10  17
HETATM   17  N5  UNL     1      26.382  45.228 -12.324  1.00  0.00    -0.326 N 
HETATM   18  C10 UNL     1      27.738  44.783 -12.332  1.00  0.00     0.481 C 
HETATM   19  N6  UNL     1      27.968  43.564 -11.587  1.00  0.00    -0.033 N 
HETATM   20  N7  UNL     1      28.695  45.779 -11.909  1.00  0.00    -0.033 N 
ATOM     21  H63 UNL     1      27.630  43.663 -10.629  1.00  0.00     0.278 HD
ATOM     22  H62 UNL     1      27.348  42.823 -11.915  1.00  0.00     0.278 HD
ATOM     23  H61 UNL     1      28.938  43.246 -11.593  1.00  0.00     0.278 HD
ATOM     24  H73 UNL     1      28.596  46.628 -12.466  1.00  0.00     0.278 HD
ATOM     25  H72 UNL     1      28.446  46.144 -10.989  1.00  0.00     0.278 HD
ATOM     26  H71 UNL     1      29.664  45.461 -11.914  1.00  0.00     0.278 HD
ATOM     27  H5  UNL     1      25.914  45.252 -13.230  1.00  0.00     0.164 HD
ENDBRANCH  10  17
TORSDOF 2
ENDMDL
MODEL 5
REMARK VINA RESULT: -5.631523899      4.317      6.327
REMARK  2 active torsions:
REMARK  status: ('A' for Active; 'I' for Inactive)
REMARK    1  A    between atoms: C3_4  and  N2_5 
REMARK    2  A    between atoms: C9_16  and  N5_17 
REMARK       I    between atoms: N5_17  and  C10_19 
REMARK       I    between atoms: C10_19  and  N6_20 
REMARK       I    between atoms: C10_19  and  N7_24 
ROOT
HETATM    1  N1  UNL     1      26.797  51.027 -10.846  1.00  0.00    -0.191 NA
HETATM    2  C1  UNL     1      26.315  50.586  -9.918  1.00  0.00     0.107 C 
HETATM    3  C2  UNL     1      25.705  50.065  -8.733  1.00  0.00     0.132 A 
HETATM    4  C3  UNL     1      25.876  48.755  -8.378  1.00  0.00     0.129 A 
HETATM    5  N3  UNL     1      25.248  48.406  -7.201  1.00  0.00    -0.337 N 
ATOM      6  H3  UNL     1      25.332  47.444  -6.874  1.00  0.00     0.168 HD
HETATM    7  C8  UNL     1      24.538  49.263  -6.472  1.00  0.00     0.183 A 
HETATM    8  N4  UNL     1      24.367  50.552  -6.820  1.00  0.00    -0.337 N 
ATOM      9  H4  UNL     1      23.817  51.190  -6.245  1.00  0.00     0.168 HD
HETATM   10  C9  UNL     1      24.948  50.961  -7.949  1.00  0.00     0.129 A 
ENDROOT
BRANCH   4  11
HETATM   11  N2  UNL     1      26.583  47.783  -9.099  1.00  0.00    -0.362 N 
HETATM   12  C4  UNL     1      25.791  46.952 -10.029  1.00  0.00     0.150 C 
HETATM   13  C5  UNL     1      26.374  47.277 -11.411  1.00  0.00     0.187 C 
HETATM   14  O1  UNL     1      27.716  46.976 -11.469  1.00  0.00    -0.388 OA
HETATM   15  C6  UNL     1      28.259  46.505 -10.307  1.00  0.00     0.187 C 
HETATM   16  C7  UNL     1      27.973  47.464  -9.117  1.00  0.00     0.150 C 
ENDBRANCH   4  11
BRANCH  10  17
HETATM   17  N5  UNL     1      24.828  52.178  -8.345  1.00  0.00    -0.326 N 
HETATM   18  C10 UNL     1      25.294  53.363  -7.699  1.00  0.00     0.481 C 
HETATM   19  N6  UNL     1      26.733  53.438  -7.564  1.00  0.00    -0.033 N 
HETATM   20  N7  UNL     1      24.689  53.619  -6.413  1.00  0.00    -0.033 N 
ATOM     21  H63 UNL     1      27.091  52.609  -7.091  1.00  0.00     0.278 HD
ATOM     22  H62 UNL     1      27.183  53.327  -8.473  1.00  0.00     0.278 HD
ATOM     23  H61 UNL     1      27.067  54.285  -7.103  1.00  0.00     0.278 HD
ATOM     24  H73 UNL     1      23.672  53.636  -6.495  1.00  0.00     0.278 HD
ATOM     25  H72 UNL     1      24.801  52.811  -5.800  1.00  0.00     0.278 HD
ATOM     26  H71 UNL     1      25.023  54.465  -5.951  1.00  0.00     0.278 HD
ATOM     27  H5  UNL     1      24.339  52.314  -9.230  1.00  0.00     0.164 HD
ENDBRANCH  10  17
TORSDOF 2
ENDMDL
