MODEL 1
REMARK VINA RESULT: -7.081477814      0.000      0.000
REMARK  3 active torsions:
REMARK  status: ('A' for Active; 'I' for Inactive)
REMARK    1  A    between atoms: C1_2  and  C2_4 
REMARK    2  A    between atoms: C4_7  and  C5_8 
REMARK       I    between atoms: C5_8  and  N2_10 
REMARK    3  A    between atoms: N2_10  and  C6_12 
ROOT
HETATM    1  C5  UNL     1      21.065  43.678  -9.628  1.00  0.00     0.276 C 
HETATM    2  O2  UNL     1      20.616  42.528  -9.664  1.00  0.00    -0.266 OA
HETATM    3  N2  UNL     1      20.395  44.738  -9.008  1.00  0.00    -0.153 N 
ATOM      4  H2  UNL     1      20.318  44.736  -7.990  1.00  0.00     0.187 HD
ENDROOT
BRANCH   1   5
HETATM    5  C4  UNL     1      22.376  43.934 -10.276  1.00  0.00     0.074 A 
HETATM    6  S1  UNL     1      23.111  43.074 -11.545  1.00  0.00    -0.096 SA
HETATM    7  C3  UNL     1      24.543  43.974 -11.692  1.00  0.00     0.067 A 
HETATM    8  C2  UNL     1      24.414  44.944 -10.729  1.00  0.00     0.037 A 
HETATM    9  C7  UNL     1      23.276  44.914  -9.993  1.00  0.00     0.041 A 
BRANCH   8  10
HETATM   10  C1  UNL     1      25.475  45.974 -10.509  1.00  0.00     0.265 C 
HETATM   11  N1  UNL     1      26.705  45.891 -11.207  1.00  0.00    -0.057 NA
HETATM   12  O1  UNL     1      25.327  46.934  -9.717  1.00  0.00    -0.271 OA
ENDBRANCH   8  10
ENDBRANCH   1   5
BRANCH   3  13
HETATM   13  C6  UNL     1      19.861  45.732  -9.672  1.00  0.00     0.710 A 
HETATM   14  N3  UNL     1      19.903  47.024  -9.300  1.00  0.00    -0.117 N 
HETATM   15  N4  UNL     1      19.247  47.695 -10.245  1.00  0.00     0.006 NA
ATOM     16  H3  UNL     1      20.346  47.410  -8.466  1.00  0.00     0.202 HD
HETATM   17  N5  UNL     1      18.806  46.861 -11.176  1.00  0.00     0.006 NA
HETATM   18  N6  UNL     1      19.188  45.637 -10.820  1.00  0.00    -0.117 N 
ATOM     19  H6  UNL     1      18.999  44.777 -11.335  1.00  0.00     0.202 HD
ENDBRANCH   3  13
TORSDOF 3
ENDMDL
MODEL 2
REMARK VINA RESULT: -7.027646646      0.806      1.209
REMARK  3 active torsions:
REMARK  status: ('A' for Active; 'I' for Inactive)
REMARK    1  A    between atoms: C1_2  and  C2_4 
REMARK    2  A    between atoms: C4_7  and  C5_8 
REMARK       I    between atoms: C5_8  and  N2_10 
REMARK    3  A    between atoms: N2_10  and  C6_12 
ROOT
HETATM    1  C5  UNL     1      21.090  43.666  -9.610  1.00  0.00     0.276 C 
HETATM    2  O2  UNL     1      20.642  42.516  -9.642  1.00  0.00    -0.266 OA
HETATM    3  N2  UNL     1      20.421  44.727  -8.991  1.00  0.00    -0.153 N 
ATOM      4  H2  UNL     1      20.348  44.728  -7.973  1.00  0.00     0.187 HD
ENDROOT
BRANCH   1   5
HETATM    5  C4  UNL     1      22.399  43.920 -10.263  1.00  0.00     0.074 A 
HETATM    6  S1  UNL     1      23.101  43.099 -11.576  1.00  0.00    -0.096 SA
HETATM    7  C3  UNL     1      24.551  43.974 -11.702  1.00  0.00     0.067 A 
HETATM    8  C2  UNL     1      24.454  44.905 -10.697  1.00  0.00     0.037 A 
HETATM    9  C7  UNL     1      23.324  44.869  -9.950  1.00  0.00     0.041 A 
BRANCH   8  10
HETATM   10  C1  UNL     1      25.540  45.902 -10.448  1.00  0.00     0.265 C 
HETATM   11  N1  UNL     1      25.267  47.087  -9.722  1.00  0.00    -0.057 NA
HETATM   12  O1  UNL     1      26.712  45.736 -10.859  1.00  0.00    -0.271 OA
ENDBRANCH   8  10
ENDBRANCH   1   5
BRANCH   3  13
HETATM   13  C6  UNL     1      19.885  45.719  -9.657  1.00  0.00     0.710 A 
HETATM   14  N3  UNL     1      19.193  45.598 -10.804  1.00  0.00    -0.117 N 
HETATM   15  N4  UNL     1      18.828  46.834 -11.139  1.00  0.00     0.006 NA
ATOM     16  H3  UNL     1      18.989  44.737 -11.312  1.00  0.00     0.202 HD
HETATM   17  N5  UNL     1      19.273  47.702 -10.241  1.00  0.00     0.006 NA
HETATM   18  N6  UNL     1      19.932  47.008  -9.317  1.00  0.00    -0.117 N 
ATOM     19  H6  UNL     1      20.393  47.394  -8.493  1.00  0.00     0.202 HD
ENDBRANCH   3  13
TORSDOF 3
ENDMDL
MODEL 3
REMARK VINA RESULT: -6.719794355      1.610      1.747
REMARK  3 active torsions:
REMARK  status: ('A' for Active; 'I' for Inactive)
REMARK    1  A    between atoms: C1_2  and  C2_4 
REMARK    2  A    between atoms: C4_7  and  C5_8 
REMARK       I    between atoms: C5_8  and  N2_10 
REMARK    3  A    between atoms: N2_10  and  C6_12 
ROOT
HETATM    1  C5  UNL     1      21.151  43.725 -10.327  1.00  0.00     0.276 C 
HETATM    2  O2  UNL     1      20.909  42.686 -10.951  1.00  0.00    -0.266 OA
HETATM    3  N2  UNL     1      20.188  44.401  -9.571  1.00  0.00    -0.153 N 
ATOM      4  H2  UNL     1      19.850  43.965  -8.713  1.00  0.00     0.187 HD
ENDROOT
BRANCH   1   5
HETATM    5  C4  UNL     1      22.530  44.269 -10.392  1.00  0.00     0.074 A 
HETATM    6  S1  UNL     1      23.405  45.075  -9.178  1.00  0.00    -0.096 SA
HETATM    7  C3  UNL     1      24.851  45.359 -10.023  1.00  0.00     0.067 A 
HETATM    8  C2  UNL     1      24.614  44.808 -11.259  1.00  0.00     0.037 A 
HETATM    9  C7  UNL     1      23.397  44.240 -11.441  1.00  0.00     0.041 A 
BRANCH   8  10
HETATM   10  C1  UNL     1      25.648  44.837 -12.338  1.00  0.00     0.265 C 
HETATM   11  N1  UNL     1      25.809  45.993 -13.141  1.00  0.00    -0.057 NA
HETATM   12  O1  UNL     1      26.399  43.863 -12.575  1.00  0.00    -0.271 OA
ENDBRANCH   8  10
ENDBRANCH   1   5
BRANCH   3  13
HETATM   13  C6  UNL     1      19.701  45.567  -9.913  1.00  0.00     0.710 A 
HETATM   14  N3  UNL     1      19.872  46.711  -9.226  1.00  0.00    -0.117 N 
HETATM   15  N4  UNL     1      19.220  47.647  -9.912  1.00  0.00     0.006 NA
ATOM     16  H3  UNL     1      20.394  46.835  -8.358  1.00  0.00     0.202 HD
HETATM   17  N5  UNL     1      18.658  47.117 -10.989  1.00  0.00     0.006 NA
HETATM   18  N6  UNL     1      18.956  45.821 -10.991  1.00  0.00    -0.117 N 
ATOM     19  H6  UNL     1      18.666  45.140 -11.693  1.00  0.00     0.202 HD
ENDBRANCH   3  13
TORSDOF 3
ENDMDL
MODEL 4
REMARK VINA RESULT: -6.668404648      1.671      2.028
REMARK  3 active torsions:
REMARK  status: ('A' for Active; 'I' for Inactive)
REMARK    1  A    between atoms: C1_2  and  C2_4 
REMARK    2  A    between atoms: C4_7  and  C5_8 
REMARK       I    between atoms: C5_8  and  N2_10 
REMARK    3  A    between atoms: N2_10  and  C6_12 
ROOT
HETATM    1  C5  UNL     1      20.567  44.993  -8.474  1.00  0.00     0.276 C 
HETATM    2  O2  UNL     1      20.116  44.302  -7.555  1.00  0.00    -0.266 OA
HETATM    3  N2  UNL     1      20.252  46.345  -8.636  1.00  0.00    -0.153 N 
ATOM      4  H2  UNL     1      20.615  47.014  -7.957  1.00  0.00     0.187 HD
ENDROOT
BRANCH   1   5
HETATM    5  C4  UNL     1      21.484  44.344  -9.445  1.00  0.00     0.074 A 
HETATM    6  S1  UNL     1      21.264  42.887 -10.294  1.00  0.00    -0.096 SA
HETATM    7  C3  UNL     1      22.721  42.855 -11.166  1.00  0.00     0.067 A 
HETATM    8  C2  UNL     1      23.360  44.004 -10.767  1.00  0.00     0.037 A 
HETATM    9  C7  UNL     1      22.704  44.776  -9.867  1.00  0.00     0.041 A 
BRANCH   8  10
HETATM   10  C1  UNL     1      24.705  44.376 -11.302  1.00  0.00     0.265 C 
HETATM   11  N1  UNL     1      25.344  45.561 -10.863  1.00  0.00    -0.057 NA
HETATM   12  O1  UNL     1      25.312  43.672 -12.143  1.00  0.00    -0.271 OA
ENDBRANCH   8  10
ENDBRANCH   1   5
BRANCH   3  13
HETATM   13  C6  UNL     1      19.512  46.794  -9.619  1.00  0.00     0.710 A 
HETATM   14  N3  UNL     1      19.427  46.238 -10.842  1.00  0.00    -0.117 N 
HETATM   15  N4  UNL     1      18.575  46.998 -11.526  1.00  0.00     0.006 NA
ATOM     16  H3  UNL     1      19.915  45.407 -11.175  1.00  0.00     0.202 HD
HETATM   17  N5  UNL     1      18.139  47.994 -10.769  1.00  0.00     0.006 NA
HETATM   18  N6  UNL     1      18.722  47.868  -9.580  1.00  0.00    -0.117 N 
ATOM     19  H6  UNL     1      18.589  48.486  -8.778  1.00  0.00     0.202 HD
ENDBRANCH   3  13
TORSDOF 3
ENDMDL
MODEL 5
REMARK VINA RESULT: -6.637253857      1.492      1.836
REMARK  3 active torsions:
REMARK  status: ('A' for Active; 'I' for Inactive)
REMARK    1  A    between atoms: C1_2  and  C2_4 
REMARK    2  A    between atoms: C4_7  and  C5_8 
REMARK       I    between atoms: C5_8  and  N2_10 
REMARK    3  A    between atoms: N2_10  and  C6_12 
ROOT
HETATM    1  C5  UNL     1      21.212  43.643 -10.387  1.00  0.00     0.276 C 
HETATM    2  O2  UNL     1      20.962  42.635 -11.055  1.00  0.00    -0.266 OA
HETATM    3  N2  UNL     1      20.252  44.298  -9.609  1.00  0.00    -0.153 N 
ATOM      4  H2  UNL     1      19.902  43.831  -8.773  1.00  0.00     0.187 HD
ENDROOT
BRANCH   1   5
HETATM    5  C4  UNL     1      22.599  44.171 -10.419  1.00  0.00     0.074 A 
HETATM    6  S1  UNL     1      23.574  44.658  -9.114  1.00  0.00    -0.096 SA
HETATM    7  C3  UNL     1      24.967  45.118  -9.969  1.00  0.00     0.067 A 
HETATM    8  C2  UNL     1      24.635  44.878 -11.279  1.00  0.00     0.037 A 
HETATM    9  C7  UNL     1      23.393  44.382 -11.504  1.00  0.00     0.041 A 
BRANCH   8  10
HETATM   10  C1  UNL     1      25.595  45.150 -12.392  1.00  0.00     0.265 C 
HETATM   11  N1  UNL     1      26.744  44.338 -12.557  1.00  0.00    -0.057 NA
HETATM   12  O1  UNL     1      25.430  46.085 -13.209  1.00  0.00    -0.271 OA
ENDBRANCH   8  10
ENDBRANCH   1   5
BRANCH   3  13
HETATM   13  C6  UNL     1      19.782  45.484  -9.906  1.00  0.00     0.710 A 
HETATM   14  N3  UNL     1      19.004  45.766 -10.967  1.00  0.00    -0.117 N 
HETATM   15  N4  UNL     1      18.753  47.072 -10.895  1.00  0.00     0.006 NA
ATOM     16  H3  UNL     1      18.674  45.115 -11.679  1.00  0.00     0.202 HD
HETATM   17  N5  UNL     1      19.349  47.595  -9.833  1.00  0.00     0.006 NA
HETATM   18  N6  UNL     1      19.991  46.606  -9.215  1.00  0.00    -0.117 N 
ATOM     19  H6  UNL     1      20.546  46.691  -8.364  1.00  0.00     0.202 HD
ENDBRANCH   3  13
TORSDOF 3
ENDMDL
