MODEL 1
REMARK VINA RESULT: -6.202442463      0.000      0.000
REMARK  3 active torsions:
REMARK  status: ('A' for Active; 'I' for Inactive)
REMARK    1  A    between atoms: C1_2  and  C2_4 
REMARK    2  A    between atoms: C5_11  and  N4_12 
REMARK    3  A    between atoms: N4_12  and  C6_14 
ROOT
HETATM    1  C2  UNL     1      20.562  44.294  -9.755  1.00  0.00     0.128 A 
HETATM    2  N2  UNL     1      19.915  45.010  -8.823  1.00  0.00    -0.346 N 
ATOM      3  H2  UNL     1      18.936  44.806  -8.618  1.00  0.00     0.167 HD
HETATM    4  C3  UNL     1      20.544  45.995  -8.155  1.00  0.00     0.181 A 
HETATM    5  N3  UNL     1      21.835  46.284  -8.402  1.00  0.00    -0.347 N 
ATOM      6  H3  UNL     1      22.297  47.033  -7.887  1.00  0.00     0.167 HD
HETATM    7  C4  UNL     1      22.509  45.593  -9.323  1.00  0.00     0.107 A 
HETATM    8  C5  UNL     1      23.829  45.926  -9.542  1.00  0.00     0.132 A 
HETATM    9  N6  UNL     1      24.490  45.216 -10.474  1.00  0.00    -0.337 N 
ATOM     10  H6  UNL     1      25.468  45.430 -10.667  1.00  0.00     0.168 HD
HETATM   11  C9  UNL     1      23.874  44.213 -11.166  1.00  0.00     0.182 A 
HETATM   12  N7  UNL     1      22.587  43.882 -10.956  1.00  0.00    -0.348 N 
ATOM     13  H7  UNL     1      22.151  43.127 -11.486  1.00  0.00     0.167 HD
HETATM   14  C10 UNL     1      21.876  44.575 -10.020  1.00  0.00     0.096 A 
ENDROOT
BRANCH   8  15
HETATM   15  N4  UNL     1      24.398  46.864  -8.894  1.00  0.00    -0.366 N 
ATOM     16  H4  UNL     1      24.283  46.851  -7.880  1.00  0.00     0.161 HD
BRANCH  15  17
HETATM   17  C6  UNL     1      25.175  47.923  -9.431  1.00  0.00     0.134 C 
HETATM   18  C7  UNL     1      24.899  49.216  -8.650  1.00  0.00     0.259 C 
HETATM   19  N5  UNL     1      26.306  49.548  -8.865  1.00  0.00    -0.071 N 
HETATM   20  C8  UNL     1      26.561  48.098  -8.863  1.00  0.00     0.259 C 
ATOM     21  H52 UNL     1      26.601  50.138  -9.643  1.00  0.00     0.277 HD
ATOM     22  H51 UNL     1      26.806  50.176  -8.237  1.00  0.00     0.277 HD
ENDBRANCH  15  17
ENDBRANCH   8  15
BRANCH   1  23
HETATM   23  C1  UNL     1      19.851  43.242 -10.454  1.00  0.00     0.283 C 
HETATM   24  N1  UNL     1      18.514  43.440 -10.849  1.00  0.00    -0.056 NA
HETATM   25  O1  UNL     1      20.457  42.169 -10.691  1.00  0.00    -0.269 OA
ENDBRANCH   1  23
TORSDOF 3
ENDMDL
MODEL 2
REMARK VINA RESULT: -6.091208240      3.151      6.512
REMARK  3 active torsions:
REMARK  status: ('A' for Active; 'I' for Inactive)
REMARK    1  A    between atoms: C1_2  and  C2_4 
REMARK    2  A    between atoms: C5_11  and  N4_12 
REMARK    3  A    between atoms: N4_12  and  C6_14 
ROOT
HETATM    1  C2  UNL     1      26.061  49.193  -9.666  1.00  0.00     0.128 A 
HETATM    2  N2  UNL     1      25.129  49.451  -8.736  1.00  0.00    -0.346 N 
ATOM      3  H2  UNL     1      25.101  50.367  -8.288  1.00  0.00     0.167 HD
HETATM    4  C3  UNL     1      24.230  48.512  -8.387  1.00  0.00     0.181 A 
HETATM    5  N3  UNL     1      24.241  47.295  -8.961  1.00  0.00    -0.347 N 
ATOM      6  H3  UNL     1      23.552  46.595  -8.687  1.00  0.00     0.167 HD
HETATM    7  C4  UNL     1      25.154  47.004  -9.890  1.00  0.00     0.107 A 
HETATM    8  C5  UNL     1      25.126  45.744 -10.449  1.00  0.00     0.132 A 
HETATM    9  N6  UNL     1      26.054  45.472 -11.384  1.00  0.00    -0.337 N 
ATOM     10  H6  UNL     1      26.069  44.551 -11.823  1.00  0.00     0.168 HD
HETATM   11  C9  UNL     1      26.978  46.407 -11.755  1.00  0.00     0.182 A 
HETATM   12  N7  UNL     1      27.010  47.638 -11.213  1.00  0.00    -0.348 N 
ATOM     13  H7  UNL     1      27.710  48.318 -11.510  1.00  0.00     0.167 HD
HETATM   14  C10 UNL     1      26.087  47.959 -10.261  1.00  0.00     0.096 A 
ENDROOT
BRANCH   8  15
HETATM   15  N4  UNL     1      24.262  44.876 -10.099  1.00  0.00    -0.366 N 
ATOM     16  H4  UNL     1      24.401  44.437  -9.189  1.00  0.00     0.161 HD
BRANCH  15  17
HETATM   17  C6  UNL     1      23.127  44.453 -10.840  1.00  0.00     0.134 C 
HETATM   18  C7  UNL     1      23.164  42.929 -11.021  1.00  0.00     0.259 C 
HETATM   19  N5  UNL     1      21.707  42.965 -10.915  1.00  0.00    -0.071 N 
HETATM   20  C8  UNL     1      21.883  44.141 -10.048  1.00  0.00     0.259 C 
ATOM     21  H52 UNL     1      21.114  43.000 -11.745  1.00  0.00     0.277 HD
ATOM     22  H51 UNL     1      21.177  42.151 -10.607  1.00  0.00     0.277 HD
ENDBRANCH  15  17
ENDBRANCH   8  15
BRANCH   1  23
HETATM   23  C1  UNL     1      27.013  50.228 -10.016  1.00  0.00     0.283 C 
HETATM   24  N1  UNL     1      28.348  50.129  -9.581  1.00  0.00    -0.056 NA
HETATM   25  O1  UNL     1      26.613  51.197 -10.704  1.00  0.00    -0.269 OA
ENDBRANCH   1  23
TORSDOF 3
ENDMDL
MODEL 3
REMARK VINA RESULT: -5.980854359      1.653      1.994
REMARK  3 active torsions:
REMARK  status: ('A' for Active; 'I' for Inactive)
REMARK    1  A    between atoms: C1_2  and  C2_4 
REMARK    2  A    between atoms: C5_11  and  N4_12 
REMARK    3  A    between atoms: N4_12  and  C6_14 
ROOT
HETATM    1  C2  UNL     1      22.008  44.321  -9.750  1.00  0.00     0.128 A 
HETATM    2  N2  UNL     1      20.873  44.660  -9.120  1.00  0.00    -0.346 N 
ATOM      3  H2  UNL     1      20.075  44.025  -9.141  1.00  0.00     0.167 HD
HETATM    4  C3  UNL     1      20.778  45.828  -8.459  1.00  0.00     0.181 A 
HETATM    5  N3  UNL     1      21.815  46.685  -8.413  1.00  0.00    -0.347 N 
ATOM      6  H3  UNL     1      21.727  47.566  -7.908  1.00  0.00     0.167 HD
HETATM    7  C4  UNL     1      22.959  46.380  -9.030  1.00  0.00     0.107 A 
HETATM    8  C5  UNL     1      23.993  47.289  -8.954  1.00  0.00     0.132 A 
HETATM    9  N6  UNL     1      25.137  46.962  -9.582  1.00  0.00    -0.337 N 
ATOM     10  H6  UNL     1      25.928  47.607  -9.551  1.00  0.00     0.168 HD
HETATM   11  C9  UNL     1      25.259  45.783 -10.259  1.00  0.00     0.182 A 
HETATM   12  N7  UNL     1      24.254  44.892 -10.335  1.00  0.00    -0.348 N 
ATOM     13  H7  UNL     1      24.373  44.017 -10.847  1.00  0.00     0.167 HD
HETATM   14  C10 UNL     1      23.074  45.181  -9.714  1.00  0.00     0.096 A 
ENDROOT
BRANCH   8  15
HETATM   15  N4  UNL     1      23.874  48.388  -8.322  1.00  0.00    -0.366 N 
ATOM     16  H4  UNL     1      22.963  48.844  -8.370  1.00  0.00     0.161 HD
BRANCH  15  17
HETATM   17  C6  UNL     1      24.872  49.046  -7.556  1.00  0.00     0.134 C 
HETATM   18  C7  UNL     1      25.209  50.399  -8.197  1.00  0.00     0.259 C 
HETATM   19  N5  UNL     1      25.399  50.901  -6.838  1.00  0.00    -0.071 N 
HETATM   20  C8  UNL     1      24.390  49.914  -6.422  1.00  0.00     0.259 C 
ATOM     21  H52 UNL     1      26.324  50.931  -6.406  1.00  0.00     0.277 HD
ATOM     22  H51 UNL     1      25.297  51.891  -6.618  1.00  0.00     0.277 HD
ENDBRANCH  15  17
ENDBRANCH   8  15
BRANCH   1  23
HETATM   23  C1  UNL     1      22.074  43.055 -10.452  1.00  0.00     0.283 C 
HETATM   24  N1  UNL     1      20.985  42.629 -11.236  1.00  0.00    -0.056 NA
HETATM   25  O1  UNL     1      23.114  42.363 -10.337  1.00  0.00    -0.269 OA
ENDBRANCH   1  23
TORSDOF 3
ENDMDL
MODEL 4
REMARK VINA RESULT: -5.892580571      2.583      5.320
REMARK  3 active torsions:
REMARK  status: ('A' for Active; 'I' for Inactive)
REMARK    1  A    between atoms: C1_2  and  C2_4 
REMARK    2  A    between atoms: C5_11  and  N4_12 
REMARK    3  A    between atoms: N4_12  and  C6_14 
ROOT
HETATM    1  C2  UNL     1      25.819  45.794 -11.267  1.00  0.00     0.128 A 
HETATM    2  N2  UNL     1      25.968  46.883 -10.497  1.00  0.00    -0.346 N 
ATOM      3  H2  UNL     1      26.735  47.531 -10.680  1.00  0.00     0.167 HD
HETATM    4  C3  UNL     1      25.116  47.128  -9.484  1.00  0.00     0.181 A 
HETATM    5  N3  UNL     1      24.095  46.292  -9.220  1.00  0.00    -0.347 N 
ATOM      6  H3  UNL     1      23.458  46.493  -8.449  1.00  0.00     0.167 HD
HETATM    7  C4  UNL     1      23.917  45.200  -9.965  1.00  0.00     0.107 A 
HETATM    8  C5  UNL     1      22.858  44.373  -9.656  1.00  0.00     0.132 A 
HETATM    9  N6  UNL     1      22.696  43.278 -10.421  1.00  0.00    -0.337 N 
ATOM     10  H6  UNL     1      21.925  42.640 -10.226  1.00  0.00     0.168 HD
HETATM   11  C9  UNL     1      23.547  43.007 -11.453  1.00  0.00     0.182 A 
HETATM   12  N7  UNL     1      24.582  43.810 -11.761  1.00  0.00    -0.348 N 
ATOM     13  H7  UNL     1      25.202  43.584 -12.539  1.00  0.00     0.167 HD
HETATM   14  C10 UNL     1      24.785  44.932 -11.012  1.00  0.00     0.096 A 
ENDROOT
BRANCH   8  15
HETATM   15  N4  UNL     1      22.068  44.632  -8.691  1.00  0.00    -0.366 N 
ATOM     16  H4  UNL     1      22.458  44.559  -7.751  1.00  0.00     0.161 HD
BRANCH  15  17
HETATM   17  C6  UNL     1      20.702  45.011  -8.783  1.00  0.00     0.134 C 
HETATM   18  C7  UNL     1      20.520  46.430  -8.228  1.00  0.00     0.259 C 
HETATM   19  N5  UNL     1      19.496  46.610  -9.256  1.00  0.00    -0.071 N 
HETATM   20  C8  UNL     1      20.269  45.660 -10.072  1.00  0.00     0.259 C 
ATOM     21  H52 UNL     1      18.508  46.457  -9.055  1.00  0.00     0.277 HD
ATOM     22  H51 UNL     1      19.251  47.536  -9.606  1.00  0.00     0.277 HD
ENDBRANCH  15  17
ENDBRANCH   8  15
BRANCH   1  23
HETATM   23  C1  UNL     1      26.756  45.563 -12.348  1.00  0.00     0.283 C 
HETATM   24  N1  UNL     1      27.664  44.489 -12.272  1.00  0.00    -0.056 NA
HETATM   25  O1  UNL     1      26.731  46.337 -13.335  1.00  0.00    -0.269 OA
ENDBRANCH   1  23
TORSDOF 3
ENDMDL
MODEL 5
REMARK VINA RESULT: -5.867891244      2.545      5.672
REMARK  3 active torsions:
REMARK  status: ('A' for Active; 'I' for Inactive)
REMARK    1  A    between atoms: C1_2  and  C2_4 
REMARK    2  A    between atoms: C5_11  and  N4_12 
REMARK    3  A    between atoms: N4_12  and  C6_14 
ROOT
HETATM    1  C2  UNL     1      26.009  46.728 -10.859  1.00  0.00     0.128 A 
HETATM    2  N2  UNL     1      25.929  47.765 -10.010  1.00  0.00    -0.346 N 
ATOM      3  H2  UNL     1      26.589  48.539 -10.095  1.00  0.00     0.167 HD
HETATM    4  C3  UNL     1      24.987  47.795  -9.050  1.00  0.00     0.181 A 
HETATM    5  N3  UNL     1      24.103  46.789  -8.916  1.00  0.00    -0.347 N 
ATOM      6  H3  UNL     1      23.394  46.827  -8.184  1.00  0.00     0.167 HD
HETATM    7  C4  UNL     1      24.153  45.742  -9.742  1.00  0.00     0.107 A 
HETATM    8  C5  UNL     1      23.227  44.737  -9.566  1.00  0.00     0.132 A 
HETATM    9  N6  UNL     1      23.295  43.691 -10.409  1.00  0.00    -0.337 N 
ATOM     10  H6  UNL     1      22.628  42.925 -10.313  1.00  0.00     0.168 HD
HETATM   11  C9  UNL     1      24.242  43.637 -11.392  1.00  0.00     0.182 A 
HETATM   12  N7  UNL     1      25.148  44.615 -11.569  1.00  0.00    -0.348 N 
ATOM     13  H7  UNL     1      25.844  44.550 -12.312  1.00  0.00     0.167 HD
HETATM   14  C10 UNL     1      25.117  45.696 -10.737  1.00  0.00     0.096 A 
ENDROOT
BRANCH   8  15
HETATM   15  N4  UNL     1      22.346  44.792  -8.647  1.00  0.00    -0.366 N 
ATOM     16  H4  UNL     1      22.691  44.840  -7.688  1.00  0.00     0.161 HD
BRANCH  15  17
HETATM   17  C6  UNL     1      20.936  44.794  -8.815  1.00  0.00     0.134 C 
HETATM   18  C7  UNL     1      20.556  45.700  -9.994  1.00  0.00     0.259 C 
HETATM   19  N5  UNL     1      19.480  44.750 -10.269  1.00  0.00    -0.071 N 
HETATM   20  C8  UNL     1      20.360  43.718  -9.699  1.00  0.00     0.259 C 
ATOM     21  H52 UNL     1      18.535  44.899  -9.914  1.00  0.00     0.277 HD
ATOM     22  H51 UNL     1      19.083  44.653 -11.203  1.00  0.00     0.277 HD
ENDBRANCH  15  17
ENDBRANCH   8  15
BRANCH   1  23
HETATM   23  C1  UNL     1      27.037  46.731 -11.880  1.00  0.00     0.283 C 
HETATM   24  N1  UNL     1      28.360  47.078 -11.544  1.00  0.00    -0.056 NA
HETATM   25  O1  UNL     1      26.714  46.421 -13.052  1.00  0.00    -0.269 OA
ENDBRANCH   1  23
TORSDOF 3
ENDMDL
