MODEL 1
REMARK VINA RESULT: -5.451705414      0.000      0.000
REMARK  5 active torsions:
REMARK  status: ('A' for Active; 'I' for Inactive)
REMARK    1  A    between atoms: N1_1  and  S1_4 
REMARK    2  A    between atoms: S1_4  and  N2_5 
REMARK    3  A    between atoms: S1_4  and  C1_9 
REMARK    4  A    between atoms: C3_12  and  S3_13 
REMARK    5  A    between atoms: S3_13  and  N3_14 
ROOT
HETATM    1  C1  UNL     1      22.008  44.477 -10.106  1.00  0.00     0.135 A 
HETATM    2  C2  UNL     1      21.889  43.169 -10.501  1.00  0.00     0.094 A 
HETATM    3  S2  UNL     1      23.383  42.923 -11.324  1.00  0.00    -0.068 SA
HETATM    4  C3  UNL     1      24.041  44.484 -11.107  1.00  0.00     0.192 A 
HETATM    5  N4  UNL     1      23.105  45.097 -10.433  1.00  0.00    -0.330 N 
ATOM      6  H4  UNL     1      23.236  46.071 -10.160  1.00  0.00     0.168 HD
ENDROOT
BRANCH   1   7
HETATM    7  S1  UNL     1      20.755  45.311  -9.198  1.00  0.00     0.147 S 
HETATM    8  O1  UNL     1      20.161  44.369  -8.206  1.00  0.00    -0.222 OA
BRANCH   7   9
HETATM    9  N1  UNL     1      21.351  46.508  -8.398  1.00  0.00    -0.340 N 
ATOM     10  H12 UNL     1      21.571  47.417  -8.803  1.00  0.00     0.167 HD
ATOM     11  H11 UNL     1      21.483  46.239  -7.423  1.00  0.00     0.167 HD
ENDBRANCH   7   9
BRANCH   7  12
HETATM   12  N2  UNL     1      19.561  45.894 -10.329  1.00  0.00    -0.340 N 
ATOM     13  H22 UNL     1      19.028  46.756 -10.209  1.00  0.00     0.167 HD
ATOM     14  H21 UNL     1      19.484  45.246 -11.113  1.00  0.00     0.167 HD
ENDBRANCH   7  12
ENDBRANCH   1   7
BRANCH   4  15
HETATM   15  S3  UNL     1      25.585  45.125 -11.647  1.00  0.00     0.279 S 
HETATM   16  O2  UNL     1      26.238  45.938 -10.547  1.00  0.00    -0.199 OA
HETATM   17  O3  UNL     1      25.276  46.042 -12.819  1.00  0.00    -0.199 OA
BRANCH  15  18
HETATM   18  N3  UNL     1      26.603  43.853 -12.145  1.00  0.00    -0.323 N 
ATOM     19  H32 UNL     1      26.608  42.925 -11.723  1.00  0.00     0.169 HD
ATOM     20  H31 UNL     1      27.195  44.161 -12.916  1.00  0.00     0.169 HD
ENDBRANCH  15  18
ENDBRANCH   4  15
TORSDOF 5
ENDMDL
MODEL 2
REMARK VINA RESULT: -5.421811591      1.015      1.330
REMARK  5 active torsions:
REMARK  status: ('A' for Active; 'I' for Inactive)
REMARK    1  A    between atoms: N1_1  and  S1_4 
REMARK    2  A    between atoms: S1_4  and  N2_5 
REMARK    3  A    between atoms: S1_4  and  C1_9 
REMARK    4  A    between atoms: C3_12  and  S3_13 
REMARK    5  A    between atoms: S3_13  and  N3_14 
ROOT
HETATM    1  C1  UNL     1      22.002  44.383 -10.267  1.00  0.00     0.135 A 
HETATM    2  C2  UNL     1      21.943  43.062 -10.628  1.00  0.00     0.094 A 
HETATM    3  S2  UNL     1      23.476  42.847 -11.388  1.00  0.00    -0.068 SA
HETATM    4  C3  UNL     1      24.070  44.436 -11.191  1.00  0.00     0.192 A 
HETATM    5  N4  UNL     1      23.089  45.033 -10.570  1.00  0.00    -0.330 N 
ATOM      6  H4  UNL     1      23.175  46.019 -10.320  1.00  0.00     0.168 HD
ENDROOT
BRANCH   1   7
HETATM    7  S1  UNL     1      20.687  45.196  -9.431  1.00  0.00     0.147 S 
HETATM    8  O1  UNL     1      19.809  45.865 -10.434  1.00  0.00    -0.222 OA
BRANCH   7   9
HETATM    9  N1  UNL     1      19.804  44.174  -8.655  1.00  0.00    -0.340 N 
ATOM     10  H12 UNL     1      19.042  43.639  -9.071  1.00  0.00     0.167 HD
ATOM     11  H11 UNL     1      20.107  44.127  -7.682  1.00  0.00     0.167 HD
ENDBRANCH   7   9
BRANCH   7  12
HETATM   12  N2  UNL     1      21.380  46.344  -8.313  1.00  0.00    -0.340 N 
ATOM     13  H22 UNL     1      21.112  46.427  -7.333  1.00  0.00     0.167 HD
ATOM     14  H21 UNL     1      22.084  46.907  -8.791  1.00  0.00     0.167 HD
ENDBRANCH   7  12
ENDBRANCH   1   7
BRANCH   4  15
HETATM   15  S3  UNL     1      25.610  45.118 -11.691  1.00  0.00     0.279 S 
HETATM   16  O2  UNL     1      26.209  45.953 -10.576  1.00  0.00    -0.199 OA
HETATM   17  O3  UNL     1      25.310  46.021 -12.875  1.00  0.00    -0.199 OA
BRANCH  15  18
HETATM   18  N3  UNL     1      26.676  43.872 -12.154  1.00  0.00    -0.323 N 
ATOM     19  H32 UNL     1      26.955  43.685 -13.117  1.00  0.00     0.169 HD
ATOM     20  H31 UNL     1      26.986  43.354 -11.332  1.00  0.00     0.169 HD
ENDBRANCH  15  18
ENDBRANCH   4  15
TORSDOF 5
ENDMDL
MODEL 3
REMARK VINA RESULT: -5.393063455      1.002      1.223
REMARK  5 active torsions:
REMARK  status: ('A' for Active; 'I' for Inactive)
REMARK    1  A    between atoms: N1_1  and  S1_4 
REMARK    2  A    between atoms: S1_4  and  N2_5 
REMARK    3  A    between atoms: S1_4  and  C1_9 
REMARK    4  A    between atoms: C3_12  and  S3_13 
REMARK    5  A    between atoms: S3_13  and  N3_14 
ROOT
HETATM    1  C1  UNL     1      21.919  44.504 -10.058  1.00  0.00     0.135 A 
HETATM    2  C2  UNL     1      21.753  43.180 -10.368  1.00  0.00     0.094 A 
HETATM    3  S2  UNL     1      23.216  42.841 -11.214  1.00  0.00    -0.068 SA
HETATM    4  C3  UNL     1      23.921  44.393 -11.111  1.00  0.00     0.192 A 
HETATM    5  N4  UNL     1      23.022  45.072 -10.451  1.00  0.00    -0.330 N 
ATOM      6  H4  UNL     1      23.187  46.057 -10.242  1.00  0.00     0.168 HD
ENDROOT
BRANCH   1   7
HETATM    7  S1  UNL     1      20.715  45.428  -9.169  1.00  0.00     0.147 S 
HETATM    8  O1  UNL     1      20.126  44.565  -8.104  1.00  0.00    -0.222 OA
BRANCH   7   9
HETATM    9  N1  UNL     1      21.365  46.654  -8.462  1.00  0.00    -0.340 N 
ATOM     10  H12 UNL     1      22.138  46.593  -7.800  1.00  0.00     0.167 HD
ATOM     11  H11 UNL     1      20.901  47.511  -8.764  1.00  0.00     0.167 HD
ENDBRANCH   7   9
BRANCH   7  12
HETATM   12  N2  UNL     1      19.503  45.973 -10.301  1.00  0.00    -0.340 N 
ATOM     13  H22 UNL     1      18.860  45.356 -10.797  1.00  0.00     0.167 HD
ATOM     14  H21 UNL     1      19.543  46.989 -10.385  1.00  0.00     0.167 HD
ENDBRANCH   7  12
ENDBRANCH   1   7
BRANCH   4  15
HETATM   15  S3  UNL     1      25.466  44.956 -11.731  1.00  0.00     0.279 S 
HETATM   16  O2  UNL     1      25.259  45.919 -12.883  1.00  0.00    -0.199 OA
HETATM   17  O3  UNL     1      26.192  43.724 -12.244  1.00  0.00    -0.199 OA
BRANCH  15  18
HETATM   18  N3  UNL     1      26.362  45.691 -10.482  1.00  0.00    -0.323 N 
ATOM     19  H32 UNL     1      26.357  45.377  -9.512  1.00  0.00     0.169 HD
ATOM     20  H31 UNL     1      26.893  46.480 -10.851  1.00  0.00     0.169 HD
ENDBRANCH  15  18
ENDBRANCH   4  15
TORSDOF 5
ENDMDL
MODEL 4
REMARK VINA RESULT: -5.341996883      1.054      1.287
REMARK  5 active torsions:
REMARK  status: ('A' for Active; 'I' for Inactive)
REMARK    1  A    between atoms: N1_1  and  S1_4 
REMARK    2  A    between atoms: S1_4  and  N2_5 
REMARK    3  A    between atoms: S1_4  and  C1_9 
REMARK    4  A    between atoms: C3_12  and  S3_13 
REMARK    5  A    between atoms: S3_13  and  N3_14 
ROOT
HETATM    1  C1  UNL     1      21.948  44.490 -10.069  1.00  0.00     0.135 A 
HETATM    2  C2  UNL     1      21.749  43.182 -10.429  1.00  0.00     0.094 A 
HETATM    3  S2  UNL     1      23.222  42.826 -11.250  1.00  0.00    -0.068 SA
HETATM    4  C3  UNL     1      23.972  44.349 -11.077  1.00  0.00     0.192 A 
HETATM    5  N4  UNL     1      23.079  45.035 -10.416  1.00  0.00    -0.330 N 
ATOM      6  H4  UNL     1      23.269  46.006 -10.169  1.00  0.00     0.168 HD
ENDROOT
BRANCH   1   7
HETATM    7  S1  UNL     1      20.752  45.421  -9.179  1.00  0.00     0.147 S 
HETATM    8  O1  UNL     1      20.162  44.564  -8.110  1.00  0.00    -0.222 OA
BRANCH   7   9
HETATM    9  N1  UNL     1      21.410  46.646  -8.477  1.00  0.00    -0.340 N 
ATOM     10  H12 UNL     1      22.412  46.834  -8.469  1.00  0.00     0.167 HD
ATOM     11  H11 UNL     1      20.690  47.219  -8.037  1.00  0.00     0.167 HD
ENDBRANCH   7   9
BRANCH   7  12
HETATM   12  N2  UNL     1      19.539  45.970 -10.308  1.00  0.00    -0.340 N 
ATOM     13  H22 UNL     1      19.152  46.913 -10.324  1.00  0.00     0.167 HD
ATOM     14  H21 UNL     1      19.285  45.208 -10.937  1.00  0.00     0.167 HD
ENDBRANCH   7  12
ENDBRANCH   1   7
BRANCH   4  15
HETATM   15  S3  UNL     1      25.550  44.883 -11.639  1.00  0.00     0.279 S 
HETATM   16  O2  UNL     1      26.368  43.705 -12.128  1.00  0.00    -0.199 OA
HETATM   17  O3  UNL     1      26.243  45.497 -10.434  1.00  0.00    -0.199 OA
BRANCH  15  18
HETATM   18  N3  UNL     1      25.367  46.047 -12.870  1.00  0.00    -0.323 N 
ATOM     19  H32 UNL     1      25.344  45.828 -13.866  1.00  0.00     0.169 HD
ATOM     20  H31 UNL     1      25.286  46.978 -12.461  1.00  0.00     0.169 HD
ENDBRANCH  15  18
ENDBRANCH   4  15
TORSDOF 5
ENDMDL
MODEL 5
REMARK VINA RESULT: -5.128997909      1.205      5.112
REMARK  5 active torsions:
REMARK  status: ('A' for Active; 'I' for Inactive)
REMARK    1  A    between atoms: N1_1  and  S1_4 
REMARK    2  A    between atoms: S1_4  and  N2_5 
REMARK    3  A    between atoms: S1_4  and  C1_9 
REMARK    4  A    between atoms: C3_12  and  S3_13 
REMARK    5  A    between atoms: S3_13  and  N3_14 
ROOT
HETATM    1  C1  UNL     1      24.219  44.338 -11.280  1.00  0.00     0.135 A 
HETATM    2  C2  UNL     1      23.837  43.070 -11.632  1.00  0.00     0.094 A 
HETATM    3  S2  UNL     1      22.257  42.986 -10.947  1.00  0.00    -0.068 SA
HETATM    4  C3  UNL     1      22.201  44.553 -10.272  1.00  0.00     0.192 A 
HETATM    5  N4  UNL     1      23.365  45.047 -10.598  1.00  0.00    -0.330 N 
ATOM      6  H4  UNL     1      23.608  45.996 -10.315  1.00  0.00     0.168 HD
ENDROOT
BRANCH   1   7
HETATM    7  S1  UNL     1      25.784  45.013 -11.713  1.00  0.00     0.147 S 
HETATM    8  O1  UNL     1      26.397  45.641 -10.507  1.00  0.00    -0.222 OA
BRANCH   7   9
HETATM    9  N1  UNL     1      26.756  43.896 -12.196  1.00  0.00    -0.340 N 
ATOM     10  H12 UNL     1      27.151  43.843 -13.135  1.00  0.00     0.167 HD
ATOM     11  H11 UNL     1      26.931  43.239 -11.436  1.00  0.00     0.167 HD
ENDBRANCH   7   9
BRANCH   7  12
HETATM   12  N2  UNL     1      25.540  46.175 -12.992  1.00  0.00    -0.340 N 
ATOM     13  H22 UNL     1      26.233  46.864 -13.284  1.00  0.00     0.167 HD
ATOM     14  H21 UNL     1      24.609  46.056 -13.392  1.00  0.00     0.167 HD
ENDBRANCH   7  12
ENDBRANCH   1   7
BRANCH   4  15
HETATM   15  S3  UNL     1      20.911  45.328  -9.365  1.00  0.00     0.279 S 
HETATM   16  O2  UNL     1      20.203  44.321  -8.481  1.00  0.00    -0.199 OA
HETATM   17  O3  UNL     1      19.927  45.857 -10.395  1.00  0.00    -0.199 OA
BRANCH  15  18
HETATM   18  N3  UNL     1      21.540  46.611  -8.437  1.00  0.00    -0.323 N 
ATOM     19  H32 UNL     1      22.227  46.496  -7.692  1.00  0.00     0.169 HD
ATOM     20  H31 UNL     1      21.129  47.494  -8.738  1.00  0.00     0.169 HD
ENDBRANCH  15  18
ENDBRANCH   4  15
TORSDOF 5
ENDMDL
