MODEL 1
REMARK VINA RESULT: -5.631331502      0.000      0.000
REMARK  3 active torsions:
REMARK  status: ('A' for Active; 'I' for Inactive)
REMARK    1  A    between atoms: S1_2  and  N1_5 
REMARK       I    between atoms: N1_5  and  C2_7 
REMARK       I    between atoms: C2_7  and  N2_9 
REMARK    2  A    between atoms: C6_13  and  C7_14 
REMARK       I    between atoms: C7_14  and  N3_16 
REMARK    3  A    between atoms: N3_16  and  N4_18 
ROOT
HETATM    1  N1  UNL     1      24.299  47.465  -8.487  1.00  0.00    -0.236 N 
ATOM      2  H1  UNL     1      23.483  47.082  -8.009  1.00  0.00     0.183 HD
HETATM    3  C2  UNL     1      24.847  46.783  -9.614  1.00  0.00     0.340 C 
HETATM    4  O3  UNL     1      25.838  47.316 -10.144  1.00  0.00    -0.245 OA
HETATM    5  N2  UNL     1      24.242  45.558 -10.058  1.00  0.00    -0.269 N 
HETATM    6  C3  UNL     1      23.164  44.994  -9.464  1.00  0.00     0.102 A 
HETATM    7  C4  UNL     1      22.812  43.827 -10.078  1.00  0.00     0.020 A 
HETATM    8  C5  UNL     1      23.711  43.658 -11.099  1.00  0.00     0.037 A 
HETATM    9  C6  UNL     1      24.591  44.759 -11.059  1.00  0.00     0.112 A 
ENDROOT
BRANCH   9  10
HETATM   10  C7  UNL     1      25.651  44.871 -12.062  1.00  0.00     0.286 C 
HETATM   11  O4  UNL     1      25.635  45.691 -13.004  1.00  0.00    -0.264 OA
HETATM   12  N3  UNL     1      26.801  44.026 -12.017  1.00  0.00    -0.271 N 
ATOM     13  H3  UNL     1      26.897  43.331 -11.277  1.00  0.00     0.189 HD
BRANCH  12  14
HETATM   14  N4  UNL     1      27.793  44.156 -12.986  1.00  0.00    -0.342 N 
ATOM     15  H42 UNL     1      28.342  45.015 -13.023  1.00  0.00     0.176 HD
ATOM     16  H41 UNL     1      27.961  43.395 -13.644  1.00  0.00     0.176 HD
ENDBRANCH  12  14
ENDBRANCH   9  10
BRANCH   1  17
HETATM   17  S1  UNL     1      25.004  48.918  -7.937  1.00  0.00     0.230 S 
HETATM   18  C1  UNL     1      26.612  48.685  -7.204  1.00  0.00     0.186 C 
HETATM   19  O1  UNL     1      25.169  49.925  -9.063  1.00  0.00    -0.206 OA
HETATM   20  O2  UNL     1      24.132  49.565  -6.874  1.00  0.00    -0.206 OA
ENDBRANCH   1  17
TORSDOF 3
ENDMDL
MODEL 2
REMARK VINA RESULT: -5.574218672      0.889      1.073
REMARK  3 active torsions:
REMARK  status: ('A' for Active; 'I' for Inactive)
REMARK    1  A    between atoms: S1_2  and  N1_5 
REMARK       I    between atoms: N1_5  and  C2_7 
REMARK       I    between atoms: C2_7  and  N2_9 
REMARK    2  A    between atoms: C6_13  and  C7_14 
REMARK       I    between atoms: C7_14  and  N3_16 
REMARK    3  A    between atoms: N3_16  and  N4_18 
ROOT
HETATM    1  N1  UNL     1      24.434  47.468  -8.501  1.00  0.00    -0.236 N 
ATOM      2  H1  UNL     1      23.610  47.096  -8.027  1.00  0.00     0.183 HD
HETATM    3  C2  UNL     1      24.967  46.790  -9.637  1.00  0.00     0.340 C 
HETATM    4  O3  UNL     1      25.969  47.308 -10.161  1.00  0.00    -0.245 OA
HETATM    5  N2  UNL     1      24.335  45.584 -10.097  1.00  0.00    -0.269 N 
HETATM    6  C3  UNL     1      23.245  45.036  -9.510  1.00  0.00     0.102 A 
HETATM    7  C4  UNL     1      22.868  43.884 -10.139  1.00  0.00     0.020 A 
HETATM    8  C5  UNL     1      23.763  43.709 -11.163  1.00  0.00     0.037 A 
HETATM    9  C6  UNL     1      24.667  44.791 -11.109  1.00  0.00     0.112 A 
ENDROOT
BRANCH   9  10
HETATM   10  C7  UNL     1      25.729  44.894 -12.111  1.00  0.00     0.286 C 
HETATM   11  O4  UNL     1      25.722  45.714 -13.052  1.00  0.00    -0.264 OA
HETATM   12  N3  UNL     1      26.871  44.037 -12.066  1.00  0.00    -0.271 N 
ATOM     13  H3  UNL     1      26.959  43.340 -11.327  1.00  0.00     0.189 HD
BRANCH  12  14
HETATM   14  N4  UNL     1      27.864  44.158 -13.034  1.00  0.00    -0.342 N 
ATOM     15  H42 UNL     1      28.170  45.089 -13.319  1.00  0.00     0.176 HD
ATOM     16  H41 UNL     1      28.275  43.320 -13.446  1.00  0.00     0.176 HD
ENDBRANCH  12  14
ENDBRANCH   9  10
BRANCH   1  17
HETATM   17  S1  UNL     1      25.170  48.898  -7.933  1.00  0.00     0.230 S 
HETATM   18  C1  UNL     1      24.344  49.598  -6.516  1.00  0.00     0.186 C 
HETATM   19  O1  UNL     1      26.618  48.667  -7.535  1.00  0.00    -0.206 OA
HETATM   20  O2  UNL     1      25.162  49.968  -9.012  1.00  0.00    -0.206 OA
ENDBRANCH   1  17
TORSDOF 3
ENDMDL
MODEL 3
REMARK VINA RESULT: -5.540384660      2.613      4.104
REMARK  3 active torsions:
REMARK  status: ('A' for Active; 'I' for Inactive)
REMARK    1  A    between atoms: S1_2  and  N1_5 
REMARK       I    between atoms: N1_5  and  C2_7 
REMARK       I    between atoms: C2_7  and  N2_9 
REMARK    2  A    between atoms: C6_13  and  C7_14 
REMARK       I    between atoms: C7_14  and  N3_16 
REMARK    3  A    between atoms: N3_16  and  N4_18 
ROOT
HETATM    1  N1  UNL     1      26.072  45.743 -10.724  1.00  0.00    -0.236 N 
ATOM      2  H1  UNL     1      26.465  44.988 -11.286  1.00  0.00     0.183 HD
HETATM    3  C2  UNL     1      24.697  45.706 -10.344  1.00  0.00     0.340 C 
HETATM    4  O3  UNL     1      24.296  46.661  -9.656  1.00  0.00    -0.245 OA
HETATM    5  N2  UNL     1      23.881  44.601 -10.765  1.00  0.00    -0.269 N 
HETATM    6  C3  UNL     1      24.339  43.571 -11.515  1.00  0.00     0.102 A 
HETATM    7  C4  UNL     1      23.347  42.673 -11.786  1.00  0.00     0.020 A 
HETATM    8  C5  UNL     1      22.223  43.166 -11.175  1.00  0.00     0.037 A 
HETATM    9  C6  UNL     1      22.592  44.372 -10.545  1.00  0.00     0.112 A 
ENDROOT
BRANCH   9  10
HETATM   10  C7  UNL     1      21.595  45.118  -9.774  1.00  0.00     0.286 C 
HETATM   11  O4  UNL     1      20.505  45.510 -10.240  1.00  0.00    -0.264 OA
HETATM   12  N3  UNL     1      21.818  45.446  -8.403  1.00  0.00    -0.271 N 
ATOM     13  H3  UNL     1      22.682  45.160  -7.942  1.00  0.00     0.189 HD
BRANCH  12  14
HETATM   14  N4  UNL     1      20.852  46.157  -7.695  1.00  0.00    -0.342 N 
ATOM     15  H42 UNL     1      20.456  45.749  -6.848  1.00  0.00     0.176 HD
ATOM     16  H41 UNL     1      20.552  47.073  -8.029  1.00  0.00     0.176 HD
ENDBRANCH  12  14
ENDBRANCH   9  10
BRANCH   1  17
HETATM   17  S1  UNL     1      27.060  47.048 -10.241  1.00  0.00     0.230 S 
HETATM   18  C1  UNL     1      28.798  46.747 -10.501  1.00  0.00     0.186 C 
HETATM   19  O1  UNL     1      26.712  48.324 -10.989  1.00  0.00    -0.206 OA
HETATM   20  O2  UNL     1      26.885  47.329  -8.758  1.00  0.00    -0.206 OA
ENDBRANCH   1  17
TORSDOF 3
ENDMDL
MODEL 4
REMARK VINA RESULT: -5.536145571      2.144      3.324
REMARK  3 active torsions:
REMARK  status: ('A' for Active; 'I' for Inactive)
REMARK    1  A    between atoms: S1_2  and  N1_5 
REMARK       I    between atoms: N1_5  and  C2_7 
REMARK       I    between atoms: C2_7  and  N2_9 
REMARK    2  A    between atoms: C6_13  and  C7_14 
REMARK       I    between atoms: C7_14  and  N3_16 
REMARK    3  A    between atoms: N3_16  and  N4_18 
ROOT
HETATM    1  N1  UNL     1      26.704  48.024  -9.972  1.00  0.00    -0.236 N 
ATOM      2  H1  UNL     1      27.524  47.789 -10.533  1.00  0.00     0.183 HD
HETATM    3  C2  UNL     1      25.572  47.156  -9.969  1.00  0.00     0.340 C 
HETATM    4  O3  UNL     1      24.615  47.511  -9.258  1.00  0.00    -0.245 OA
HETATM    5  N2  UNL     1      25.601  45.960 -10.765  1.00  0.00    -0.269 N 
HETATM    6  C3  UNL     1      26.653  45.594 -11.534  1.00  0.00     0.102 A 
HETATM    7  C4  UNL     1      26.403  44.427 -12.197  1.00  0.00     0.020 A 
HETATM    8  C5  UNL     1      25.140  44.050 -11.821  1.00  0.00     0.037 A 
HETATM    9  C6  UNL     1      24.667  45.030 -10.924  1.00  0.00     0.112 A 
ENDROOT
BRANCH   9  10
HETATM   10  C7  UNL     1      23.342  44.877 -10.322  1.00  0.00     0.286 C 
HETATM   11  O4  UNL     1      22.327  44.516 -10.953  1.00  0.00    -0.264 OA
HETATM   12  N3  UNL     1      23.128  45.137  -8.934  1.00  0.00    -0.271 N 
ATOM     13  H3  UNL     1      23.905  45.433  -8.343  1.00  0.00     0.189 HD
BRANCH  12  14
HETATM   14  N4  UNL     1      21.856  44.984  -8.389  1.00  0.00    -0.342 N 
ATOM     15  H42 UNL     1      21.232  45.791  -8.352  1.00  0.00     0.176 HD
ATOM     16  H41 UNL     1      21.562  44.074  -8.036  1.00  0.00     0.176 HD
ENDBRANCH  12  14
ENDBRANCH   9  10
BRANCH   1  17
HETATM   17  S1  UNL     1      26.691  49.454  -9.041  1.00  0.00     0.230 S 
HETATM   18  C1  UNL     1      28.264  50.293  -9.021  1.00  0.00     0.186 C 
HETATM   19  O1  UNL     1      25.662  50.448  -9.550  1.00  0.00    -0.206 OA
HETATM   20  O2  UNL     1      26.347  49.145  -7.594  1.00  0.00    -0.206 OA
ENDBRANCH   1  17
TORSDOF 3
ENDMDL
MODEL 5
REMARK VINA RESULT: -5.495415686      0.922      1.109
REMARK  3 active torsions:
REMARK  status: ('A' for Active; 'I' for Inactive)
REMARK    1  A    between atoms: S1_2  and  N1_5 
REMARK       I    between atoms: N1_5  and  C2_7 
REMARK       I    between atoms: C2_7  and  N2_9 
REMARK    2  A    between atoms: C6_13  and  C7_14 
REMARK       I    between atoms: C7_14  and  N3_16 
REMARK    3  A    between atoms: N3_16  and  N4_18 
ROOT
HETATM    1  N1  UNL     1      24.356  47.427  -8.459  1.00  0.00    -0.236 N 
ATOM      2  H1  UNL     1      23.525  47.053  -8.000  1.00  0.00     0.183 HD
HETATM    3  C2  UNL     1      24.903  46.758  -9.594  1.00  0.00     0.340 C 
HETATM    4  O3  UNL     1      25.914  47.278 -10.099  1.00  0.00    -0.245 OA
HETATM    5  N2  UNL     1      24.275  45.558 -10.074  1.00  0.00    -0.269 N 
HETATM    6  C3  UNL     1      23.175  45.007  -9.507  1.00  0.00     0.102 A 
HETATM    7  C4  UNL     1      22.804  43.863 -10.152  1.00  0.00     0.020 A 
HETATM    8  C5  UNL     1      23.712  43.695 -11.165  1.00  0.00     0.037 A 
HETATM    9  C6  UNL     1      24.618  44.773 -11.088  1.00  0.00     0.112 A 
ENDROOT
BRANCH   9  10
HETATM   10  C7  UNL     1      25.694  44.882 -12.074  1.00  0.00     0.286 C 
HETATM   11  O4  UNL     1      25.704  45.714 -13.005  1.00  0.00    -0.264 OA
HETATM   12  N3  UNL     1      26.830  44.019 -12.024  1.00  0.00    -0.271 N 
ATOM     13  H3  UNL     1      26.905  43.313 -11.292  1.00  0.00     0.189 HD
BRANCH  12  14
HETATM   14  N4  UNL     1      27.838  44.146 -12.977  1.00  0.00    -0.342 N 
ATOM     15  H42 UNL     1      28.127  45.078 -13.273  1.00  0.00     0.176 HD
ATOM     16  H41 UNL     1      28.274  43.310 -13.367  1.00  0.00     0.176 HD
ENDBRANCH  12  14
ENDBRANCH   9  10
BRANCH   1  17
HETATM   17  S1  UNL     1      25.089  48.850  -7.867  1.00  0.00     0.230 S 
HETATM   18  C1  UNL     1      25.411  50.056  -9.140  1.00  0.00     0.186 C 
HETATM   19  O1  UNL     1      24.229  49.530  -6.816  1.00  0.00    -0.206 OA
HETATM   20  O2  UNL     1      26.428  48.532  -7.223  1.00  0.00    -0.206 OA
ENDBRANCH   1  17
TORSDOF 3
ENDMDL
