MODEL 1
REMARK VINA RESULT: -5.537157143      0.000      0.000
REMARK  4 active torsions:
REMARK  status: ('A' for Active; 'I' for Inactive)
REMARK    1  A    between atoms: S1_2  and  N1_5 
REMARK    2  A    between atoms: N1_5  and  C2_7 
REMARK    3  A    between atoms: C3_10  and  C4_11 
REMARK       I    between atoms: C4_11  and  N3_13 
REMARK    4  A    between atoms: N3_13  and  N4_15 
ROOT
HETATM    1  C2  UNL     1      23.592  44.945  -9.707  1.00  0.00     0.176 A 
HETATM    2  N2  UNL     1      23.627  46.122  -9.134  1.00  0.00    -0.316 N 
ATOM      3  H2  UNL     1      22.891  46.400  -8.485  1.00  0.00     0.169 HD
HETATM    4  C3  UNL     1      24.618  46.940  -9.403  1.00  0.00     0.184 A 
HETATM    5  N5  UNL     1      25.549  46.511 -10.263  1.00  0.00    -0.305 N 
ATOM      6  H5  UNL     1      26.383  46.997 -10.592  1.00  0.00     0.176 HD
HETATM    7  S2  UNL     1      25.002  44.972 -10.667  1.00  0.00     0.025 SA
ENDROOT
BRANCH   4   8
HETATM    8  C4  UNL     1      24.691  48.287  -8.771  1.00  0.00     0.304 C 
HETATM    9  O3  UNL     1      25.462  49.187  -9.186  1.00  0.00    -0.263 OA
HETATM   10  N3  UNL     1      23.876  48.607  -7.658  1.00  0.00    -0.270 N 
ATOM     11  H3  UNL     1      23.240  47.893  -7.302  1.00  0.00     0.189 HD
BRANCH  10  12
HETATM   12  N4  UNL     1      23.900  49.841  -7.031  1.00  0.00    -0.342 N 
ATOM     13  H42 UNL     1      24.578  49.972  -6.281  1.00  0.00     0.176 HD
ATOM     14  H41 UNL     1      23.277  50.609  -7.284  1.00  0.00     0.176 HD
ENDBRANCH  10  12
ENDBRANCH   4   8
BRANCH   1  15
HETATM   15  N1  UNL     1      22.675  44.016  -9.545  1.00  0.00    -0.263 N 
ATOM     16  H1  UNL     1      22.922  43.027  -9.507  1.00  0.00     0.180 HD
BRANCH  15  17
HETATM   17  S1  UNL     1      21.039  44.539  -9.398  1.00  0.00     0.228 S 
HETATM   18  C1  UNL     1      19.911  43.172  -9.535  1.00  0.00     0.186 C 
HETATM   19  O1  UNL     1      20.810  45.231  -8.091  1.00  0.00    -0.206 OA
HETATM   20  O2  UNL     1      20.684  45.513 -10.484  1.00  0.00    -0.206 OA
ENDBRANCH  15  17
ENDBRANCH   1  15
TORSDOF 4
ENDMDL
MODEL 2
REMARK VINA RESULT: -5.430994848      3.071      5.096
REMARK  4 active torsions:
REMARK  status: ('A' for Active; 'I' for Inactive)
REMARK    1  A    between atoms: S1_2  and  N1_5 
REMARK    2  A    between atoms: N1_5  and  C2_7 
REMARK    3  A    between atoms: C3_10  and  C4_11 
REMARK       I    between atoms: C4_11  and  N3_13 
REMARK    4  A    between atoms: N3_13  and  N4_15 
ROOT
HETATM    1  C2  UNL     1      24.336  43.912 -11.587  1.00  0.00     0.176 A 
HETATM    2  N2  UNL     1      23.545  44.675 -10.877  1.00  0.00    -0.316 N 
ATOM      3  H2  UNL     1      23.894  45.547 -10.476  1.00  0.00     0.169 HD
HETATM    4  C3  UNL     1      22.298  44.310 -10.685  1.00  0.00     0.184 A 
HETATM    5  N5  UNL     1      21.907  43.157 -11.238  1.00  0.00    -0.305 N 
ATOM      6  H5  UNL     1      20.990  42.712 -11.202  1.00  0.00     0.176 HD
HETATM    7  S2  UNL     1      23.303  42.622 -12.011  1.00  0.00     0.025 SA
ENDROOT
BRANCH   4   8
HETATM    8  C4  UNL     1      21.369  45.154  -9.882  1.00  0.00     0.304 C 
HETATM    9  O3  UNL     1      20.276  45.574 -10.336  1.00  0.00    -0.263 OA
HETATM   10  N3  UNL     1      21.691  45.516  -8.552  1.00  0.00    -0.270 N 
ATOM     11  H3  UNL     1      22.573  45.187  -8.159  1.00  0.00     0.189 HD
BRANCH  10  12
HETATM   12  N4  UNL     1      20.867  46.297  -7.758  1.00  0.00    -0.342 N 
ATOM     13  H42 UNL     1      20.417  47.100  -8.197  1.00  0.00     0.176 HD
ATOM     14  H41 UNL     1      20.695  46.103  -6.771  1.00  0.00     0.176 HD
ENDBRANCH  10  12
ENDBRANCH   4   8
BRANCH   1  15
HETATM   15  N1  UNL     1      25.601  44.134 -11.870  1.00  0.00    -0.263 N 
ATOM     16  H1  UNL     1      26.274  43.369 -11.931  1.00  0.00     0.180 HD
BRANCH  15  17
HETATM   17  S1  UNL     1      26.076  45.770 -12.133  1.00  0.00     0.228 S 
HETATM   18  C1  UNL     1      27.815  45.888 -12.483  1.00  0.00     0.186 C 
HETATM   19  O1  UNL     1      25.308  46.377 -13.265  1.00  0.00    -0.206 OA
HETATM   20  O2  UNL     1      25.813  46.611 -10.917  1.00  0.00    -0.206 OA
ENDBRANCH  15  17
ENDBRANCH   1  15
TORSDOF 4
ENDMDL
MODEL 3
REMARK VINA RESULT: -5.286171579      1.031      1.205
REMARK  4 active torsions:
REMARK  status: ('A' for Active; 'I' for Inactive)
REMARK    1  A    between atoms: S1_2  and  N1_5 
REMARK    2  A    between atoms: N1_5  and  C2_7 
REMARK    3  A    between atoms: C3_10  and  C4_11 
REMARK       I    between atoms: C4_11  and  N3_13 
REMARK    4  A    between atoms: N3_13  and  N4_15 
ROOT
HETATM    1  C2  UNL     1      23.248  44.612  -9.882  1.00  0.00     0.176 A 
HETATM    2  N2  UNL     1      23.448  45.723  -9.219  1.00  0.00    -0.316 N 
ATOM      3  H2  UNL     1      22.803  46.006  -8.481  1.00  0.00     0.169 HD
HETATM    4  C3  UNL     1      24.488  46.471  -9.514  1.00  0.00     0.184 A 
HETATM    5  N5  UNL     1      25.292  46.041 -10.492  1.00  0.00    -0.305 N 
ATOM      6  H5  UNL     1      26.138  46.478 -10.858  1.00  0.00     0.176 HD
HETATM    7  S2  UNL     1      24.564  44.601 -10.968  1.00  0.00     0.025 SA
ENDROOT
BRANCH   4   8
HETATM    8  C4  UNL     1      24.747  47.742  -8.781  1.00  0.00     0.304 C 
HETATM    9  O3  UNL     1      25.882  48.279  -8.743  1.00  0.00    -0.263 OA
HETATM   10  N3  UNL     1      23.703  48.403  -8.090  1.00  0.00    -0.270 N 
ATOM     11  H3  UNL     1      22.772  47.987  -8.106  1.00  0.00     0.189 HD
BRANCH  10  12
HETATM   12  N4  UNL     1      23.885  49.586  -7.393  1.00  0.00    -0.342 N 
ATOM     13  H42 UNL     1      24.811  49.764  -7.007  1.00  0.00     0.176 HD
ATOM     14  H41 UNL     1      23.142  50.272  -7.255  1.00  0.00     0.176 HD
ENDBRANCH  10  12
ENDBRANCH   4   8
BRANCH   1  15
HETATM   15  N1  UNL     1      22.262  43.758  -9.710  1.00  0.00    -0.263 N 
ATOM     16  H1  UNL     1      22.438  42.760  -9.594  1.00  0.00     0.180 HD
BRANCH  15  17
HETATM   17  S1  UNL     1      20.660  44.396  -9.689  1.00  0.00     0.228 S 
HETATM   18  C1  UNL     1      20.133  44.757  -8.031  1.00  0.00     0.186 C 
HETATM   19  O1  UNL     1      20.566  45.641 -10.514  1.00  0.00    -0.206 OA
HETATM   20  O2  UNL     1      19.680  43.411 -10.259  1.00  0.00    -0.206 OA
ENDBRANCH  15  17
ENDBRANCH   1  15
TORSDOF 4
ENDMDL
MODEL 4
REMARK VINA RESULT: -5.181599800      3.456      4.999
REMARK  4 active torsions:
REMARK  status: ('A' for Active; 'I' for Inactive)
REMARK    1  A    between atoms: S1_2  and  N1_5 
REMARK    2  A    between atoms: N1_5  and  C2_7 
REMARK    3  A    between atoms: C3_10  and  C4_11 
REMARK       I    between atoms: C4_11  and  N3_13 
REMARK    4  A    between atoms: N3_13  and  N4_15 
ROOT
HETATM    1  C2  UNL     1      22.892  43.682 -10.984  1.00  0.00     0.176 A 
HETATM    2  N2  UNL     1      22.255  44.805 -10.761  1.00  0.00    -0.316 N 
ATOM      3  H2  UNL     1      22.655  45.693 -11.066  1.00  0.00     0.169 HD
HETATM    4  C3  UNL     1      21.098  44.777 -10.140  1.00  0.00     0.184 A 
HETATM    5  N5  UNL     1      20.633  43.580  -9.768  1.00  0.00    -0.305 N 
ATOM      6  H5  UNL     1      19.764  43.358  -9.281  1.00  0.00     0.176 HD
HETATM    7  S2  UNL     1      21.836  42.531 -10.300  1.00  0.00     0.025 SA
ENDROOT
BRANCH   4   8
HETATM    8  C4  UNL     1      20.346  46.034  -9.869  1.00  0.00     0.304 C 
HETATM    9  O3  UNL     1      20.661  46.824  -8.945  1.00  0.00    -0.263 OA
HETATM   10  N3  UNL     1      19.227  46.391 -10.661  1.00  0.00    -0.270 N 
ATOM     11  H3  UNL     1      18.950  45.766 -11.418  1.00  0.00     0.189 HD
BRANCH  10  12
HETATM   12  N4  UNL     1      18.491  47.546 -10.456  1.00  0.00    -0.342 N 
ATOM     13  H42 UNL     1      17.490  47.503 -10.645  1.00  0.00     0.176 HD
ATOM     14  H41 UNL     1      18.903  48.420 -10.129  1.00  0.00     0.176 HD
ENDBRANCH  10  12
ENDBRANCH   4   8
BRANCH   1  15
HETATM   15  N1  UNL     1      24.051  43.541 -11.588  1.00  0.00    -0.263 N 
ATOM     16  H1  UNL     1      24.287  42.685 -12.091  1.00  0.00     0.180 HD
BRANCH  15  17
HETATM   17  S1  UNL     1      25.157  44.860 -11.496  1.00  0.00     0.228 S 
HETATM   18  C1  UNL     1      26.839  44.302 -11.633  1.00  0.00     0.186 C 
HETATM   19  O1  UNL     1      24.887  45.864 -12.572  1.00  0.00    -0.206 OA
HETATM   20  O2  UNL     1      25.036  45.575 -10.180  1.00  0.00    -0.206 OA
ENDBRANCH  15  17
ENDBRANCH   1  15
TORSDOF 4
ENDMDL
MODEL 5
REMARK VINA RESULT: -5.132496041      2.950      4.086
REMARK  4 active torsions:
REMARK  status: ('A' for Active; 'I' for Inactive)
REMARK    1  A    between atoms: S1_2  and  N1_5 
REMARK    2  A    between atoms: N1_5  and  C2_7 
REMARK    3  A    between atoms: C3_10  and  C4_11 
REMARK       I    between atoms: C4_11  and  N3_13 
REMARK    4  A    between atoms: N3_13  and  N4_15 
ROOT
HETATM    1  C2  UNL     1      23.131  44.337 -10.085  1.00  0.00     0.176 A 
HETATM    2  N2  UNL     1      24.204  44.850 -10.633  1.00  0.00    -0.316 N 
ATOM      3  H2  UNL     1      24.654  45.666 -10.218  1.00  0.00     0.169 HD
HETATM    4  C3  UNL     1      24.696  44.303 -11.721  1.00  0.00     0.184 A 
HETATM    5  N5  UNL     1      24.057  43.236 -12.211  1.00  0.00    -0.305 N 
ATOM      6  H5  UNL     1      24.285  42.682 -13.037  1.00  0.00     0.176 HD
HETATM    7  S2  UNL     1      22.785  43.033 -11.130  1.00  0.00     0.025 SA
ENDROOT
BRANCH   4   8
HETATM    8  C4  UNL     1      25.916  44.860 -12.371  1.00  0.00     0.304 C 
HETATM    9  O3  UNL     1      25.982  46.046 -12.779  1.00  0.00    -0.263 OA
HETATM   10  N3  UNL     1      27.067  44.055 -12.555  1.00  0.00    -0.270 N 
ATOM     11  H3  UNL     1      27.039  43.088 -12.232  1.00  0.00     0.189 HD
BRANCH  10  12
HETATM   12  N4  UNL     1      28.228  44.518 -13.152  1.00  0.00    -0.342 N 
ATOM     13  H42 UNL     1      28.738  45.259 -12.672  1.00  0.00     0.176 HD
ATOM     14  H41 UNL     1      28.585  44.153 -14.035  1.00  0.00     0.176 HD
ENDBRANCH  10  12
ENDBRANCH   4   8
BRANCH   1  15
HETATM   15  N1  UNL     1      22.518  44.763  -9.003  1.00  0.00    -0.263 N 
ATOM     16  H1  UNL     1      23.032  44.958  -8.143  1.00  0.00     0.180 HD
BRANCH  15  17
HETATM   17  S1  UNL     1      20.810  44.979  -9.095  1.00  0.00     0.228 S 
HETATM   18  C1  UNL     1      19.963  43.416  -9.113  1.00  0.00     0.186 C 
HETATM   19  O1  UNL     1      20.308  45.793  -7.944  1.00  0.00    -0.206 OA
HETATM   20  O2  UNL     1      20.425  45.703 -10.353  1.00  0.00    -0.206 OA
ENDBRANCH  15  17
ENDBRANCH   1  15
TORSDOF 4
ENDMDL
