MODEL 1
REMARK VINA RESULT: -7.333530387      0.000      0.000
REMARK  11 active torsions:
REMARK  status: ('A' for Active; 'I' for Inactive)
REMARK    1  A    between atoms: C2_2  and  N1_3 
REMARK    2  A    between atoms: C2_2  and  C6_11 
REMARK    3  A    between atoms: N1_3  and  C3_5 
REMARK    4  A    between atoms: C3_5  and  C5_7 
REMARK       I    between atoms: C6_11  and  N2_13 
REMARK    5  A    between atoms: N2_13  and  C7_15 
REMARK    6  A    between atoms: C7_15  and  C8_16 
REMARK    7  A    between atoms: C7_15  and  C15_28 
REMARK    8  A    between atoms: C8_16  and  S1_17 
REMARK    9  A    between atoms: S1_17  and  C9_18 
REMARK   10  A    between atoms: C9_18  and  O2_19 
REMARK   11  A    between atoms: C9_18  and  N3_21 
ROOT
HETATM    1  C7  UNL     1      -3.161   1.387  11.461  1.00  0.00     0.195 C 
ENDROOT
BRANCH   1   2
HETATM    2  N2  UNL     1      -3.156   2.087  12.702  1.00  0.00    -0.344 N 
HETATM    3  C6  UNL     1      -4.099   3.043  13.141  1.00  0.00     0.240 C 
HETATM    4  O1  UNL     1      -5.062   3.359  12.426  1.00  0.00    -0.271 OA
ATOM      5  H2  UNL     1      -2.390   1.875  13.342  1.00  0.00     0.163 HD
BRANCH   3   6
HETATM    6  C2  UNL     1      -3.964   3.697  14.468  1.00  0.00     0.166 C 
HETATM    7  C1  UNL     1      -2.667   4.501  14.384  1.00  0.00     0.042 C 
BRANCH   6   8
HETATM    8  N1  UNL     1      -3.947   2.719  15.465  1.00  0.00    -0.398 N 
ATOM      9  H1  UNL     1      -3.134   2.671  16.078  1.00  0.00     0.154 HD
BRANCH   8  10
HETATM   10  C3  UNL     1      -4.974   1.810  15.668  1.00  0.00     0.181 C 
HETATM   11  C4  UNL     1      -4.587   0.396  16.020  1.00  0.00     0.041 C 
BRANCH  10  12
HETATM   12  C5  UNL     1      -6.019   2.224  16.686  1.00  0.00     0.406 C 
HETATM   13  F1  UNL     1      -7.051   1.311  16.575  1.00  0.00    -0.169 F 
HETATM   14  F2  UNL     1      -6.524   3.469  16.493  1.00  0.00    -0.169 F 
HETATM   15  F3  UNL     1      -5.526   2.037  17.987  1.00  0.00    -0.169 F 
ENDBRANCH  10  12
ENDBRANCH   8  10
ENDBRANCH   6   8
ENDBRANCH   3   6
ENDBRANCH   1   2
BRANCH   1  16
HETATM   16  C8  UNL     1      -1.799   0.860  11.048  1.00  0.00     0.119 C 
BRANCH  16  17
HETATM   17  S1  UNL     1      -0.722   2.043  10.320  1.00  0.00    -0.084 SA
BRANCH  17  18
HETATM   18  C9  UNL     1       0.022   3.304  11.210  1.00  0.00     0.178 C 
BRANCH  18  19
HETATM   19  O2  UNL     1      -0.315   3.342  12.500  1.00  0.00    -0.341 OA
ATOM     20  H2  UNL     1       0.292   3.821  13.051  1.00  0.00     0.220 HD
ENDBRANCH  18  19
BRANCH  18  21
HETATM   21  N3  UNL     1       0.917   4.307  10.841  1.00  0.00    -0.353 N 
HETATM   22  C10 UNL     1       2.127   3.906  10.055  1.00  0.00     0.155 C 
HETATM   23  C11 UNL     1       2.997   5.096   9.890  1.00  0.00     0.291 C 
HETATM   24  N4  UNL     1       3.241   5.869  11.066  1.00  0.00     0.087 N 
HETATM   25  C12 UNL     1       4.275   5.325  11.897  1.00  0.00     0.310 C 
HETATM   26  C13 UNL     1       2.073   6.119  11.876  1.00  0.00     0.291 C 
HETATM   27  C14 UNL     1       0.839   5.707  11.082  1.00  0.00     0.155 C 
ENDBRANCH  18  21
ENDBRANCH  17  18
ENDBRANCH  16  17
ENDBRANCH   1  16
BRANCH   1  28
HETATM   28  C15 UNL     1      -4.086   0.233  11.545  1.00  0.00     0.197 C 
HETATM   29  O3  UNL     1      -4.769  -0.091  10.553  1.00  0.00    -0.646 OA
HETATM   30  O4  UNL     1      -4.183  -0.487  12.751  1.00  0.00    -0.646 OA
ENDBRANCH   1  28
TORSDOF 11
ENDMDL
MODEL 2
REMARK VINA RESULT: -7.275689103      2.964      5.206
REMARK  11 active torsions:
REMARK  status: ('A' for Active; 'I' for Inactive)
REMARK    1  A    between atoms: C2_2  and  N1_3 
REMARK    2  A    between atoms: C2_2  and  C6_11 
REMARK    3  A    between atoms: N1_3  and  C3_5 
REMARK    4  A    between atoms: C3_5  and  C5_7 
REMARK       I    between atoms: C6_11  and  N2_13 
REMARK    5  A    between atoms: N2_13  and  C7_15 
REMARK    6  A    between atoms: C7_15  and  C8_16 
REMARK    7  A    between atoms: C7_15  and  C15_28 
REMARK    8  A    between atoms: C8_16  and  S1_17 
REMARK    9  A    between atoms: S1_17  and  C9_18 
REMARK   10  A    between atoms: C9_18  and  O2_19 
REMARK   11  A    between atoms: C9_18  and  N3_21 
ROOT
HETATM    1  C7  UNL     1      -1.905   6.359  13.345  1.00  0.00     0.195 C 
ENDROOT
BRANCH   1   2
HETATM    2  N2  UNL     1      -3.119   5.677  13.647  1.00  0.00    -0.344 N 
HETATM    3  C6  UNL     1      -3.258   4.470  14.367  1.00  0.00     0.240 C 
HETATM    4  O1  UNL     1      -2.263   3.882  14.818  1.00  0.00    -0.271 OA
ATOM      5  H2  UNL     1      -3.979   6.107  13.307  1.00  0.00     0.163 HD
BRANCH   3   6
HETATM    6  C2  UNL     1      -4.596   3.870  14.605  1.00  0.00     0.166 C 
HETATM    7  C1  UNL     1      -5.535   5.061  14.793  1.00  0.00     0.042 C 
BRANCH   6   8
HETATM    8  N1  UNL     1      -4.534   3.032  15.720  1.00  0.00    -0.398 N 
ATOM      9  H1  UNL     1      -3.825   3.224  16.428  1.00  0.00     0.154 HD
BRANCH   8  10
HETATM   10  C3  UNL     1      -5.380   1.953  15.919  1.00  0.00     0.181 C 
HETATM   11  C4  UNL     1      -4.745   0.597  16.097  1.00  0.00     0.041 C 
BRANCH  10  12
HETATM   12  C5  UNL     1      -6.370   2.102  17.058  1.00  0.00     0.406 C 
HETATM   13  F1  UNL     1      -7.337   1.134  16.862  1.00  0.00    -0.169 F 
HETATM   14  F2  UNL     1      -6.981   3.314  17.112  1.00  0.00    -0.169 F 
HETATM   15  F3  UNL     1      -5.765   1.749  18.274  1.00  0.00    -0.169 F 
ENDBRANCH  10  12
ENDBRANCH   8  10
ENDBRANCH   6   8
ENDBRANCH   3   6
ENDBRANCH   1   2
BRANCH   1  16
HETATM   16  C8  UNL     1      -1.643   6.517  11.858  1.00  0.00     0.119 C 
BRANCH  16  17
HETATM   17  S1  UNL     1      -0.827   5.164  11.088  1.00  0.00    -0.084 SA
BRANCH  17  18
HETATM   18  C9  UNL     1      -1.086   3.533  11.542  1.00  0.00     0.178 C 
BRANCH  18  19
HETATM   19  O2  UNL     1      -0.344   3.123  12.572  1.00  0.00    -0.341 OA
ATOM     20  H2  UNL     1      -0.710   2.389  13.052  1.00  0.00     0.220 HD
ENDBRANCH  18  19
BRANCH  18  21
HETATM   21  N3  UNL     1      -1.929   2.544  11.036  1.00  0.00    -0.353 N 
HETATM   22  C10 UNL     1      -3.405   2.730  11.211  1.00  0.00     0.155 C 
HETATM   23  C11 UNL     1      -4.094   1.510  10.725  1.00  0.00     0.291 C 
HETATM   24  N4  UNL     1      -3.562   0.263  11.172  1.00  0.00     0.087 N 
HETATM   25  C12 UNL     1      -4.006  -0.105  12.485  1.00  0.00     0.310 C 
HETATM   26  C13 UNL     1      -2.123   0.168  11.121  1.00  0.00     0.291 C 
HETATM   27  C14 UNL     1      -1.589   1.357  10.331  1.00  0.00     0.155 C 
ENDBRANCH  18  21
ENDBRANCH  17  18
ENDBRANCH  16  17
ENDBRANCH   1  16
BRANCH   1  28
HETATM   28  C15 UNL     1      -1.932   7.713  13.946  1.00  0.00     0.197 C 
HETATM   29  O3  UNL     1      -2.143   7.848  15.168  1.00  0.00    -0.646 OA
HETATM   30  O4  UNL     1      -1.717   8.837  13.125  1.00  0.00    -0.646 OA
ENDBRANCH   1  28
TORSDOF 11
ENDMDL
MODEL 3
REMARK VINA RESULT: -7.274902127      2.438      3.123
REMARK  11 active torsions:
REMARK  status: ('A' for Active; 'I' for Inactive)
REMARK    1  A    between atoms: C2_2  and  N1_3 
REMARK    2  A    between atoms: C2_2  and  C6_11 
REMARK    3  A    between atoms: N1_3  and  C3_5 
REMARK    4  A    between atoms: C3_5  and  C5_7 
REMARK       I    between atoms: C6_11  and  N2_13 
REMARK    5  A    between atoms: N2_13  and  C7_15 
REMARK    6  A    between atoms: C7_15  and  C8_16 
REMARK    7  A    between atoms: C7_15  and  C15_28 
REMARK    8  A    between atoms: C8_16  and  S1_17 
REMARK    9  A    between atoms: S1_17  and  C9_18 
REMARK   10  A    between atoms: C9_18  and  O2_19 
REMARK   11  A    between atoms: C9_18  and  N3_21 
ROOT
HETATM    1  C7  UNL     1      -3.218   0.572  11.544  1.00  0.00     0.195 C 
ENDROOT
BRANCH   1   2
HETATM    2  N2  UNL     1      -3.550   1.295  12.726  1.00  0.00    -0.344 N 
HETATM    3  C6  UNL     1      -4.638   2.179  12.902  1.00  0.00     0.240 C 
HETATM    4  O1  UNL     1      -5.432   2.400  11.975  1.00  0.00    -0.271 OA
ATOM      5  H2  UNL     1      -2.938   1.159  13.530  1.00  0.00     0.163 HD
BRANCH   3   6
HETATM    6  C2  UNL     1      -4.861   2.869  14.198  1.00  0.00     0.166 C 
HETATM    7  C1  UNL     1      -3.589   3.682  14.438  1.00  0.00     0.042 C 
BRANCH   6   8
HETATM    8  N1  UNL     1      -5.108   1.919  15.190  1.00  0.00    -0.398 N 
ATOM      9  H1  UNL     1      -4.901   0.942  14.983  1.00  0.00     0.154 HD
BRANCH   8  10
HETATM   10  C3  UNL     1      -5.619   2.227  16.441  1.00  0.00     0.181 C 
HETATM   11  C4  UNL     1      -6.554   3.406  16.536  1.00  0.00     0.041 C 
BRANCH  10  12
HETATM   12  C5  UNL     1      -6.311   1.086  17.162  1.00  0.00     0.406 C 
HETATM   13  F1  UNL     1      -6.537   1.523  18.453  1.00  0.00    -0.169 F 
HETATM   14  F2  UNL     1      -5.588  -0.061  17.216  1.00  0.00    -0.169 F 
HETATM   15  F3  UNL     1      -7.596   0.888  16.632  1.00  0.00    -0.169 F 
ENDBRANCH  10  12
ENDBRANCH   8  10
ENDBRANCH   6   8
ENDBRANCH   3   6
ENDBRANCH   1   2
BRANCH   1  16
HETATM   16  C8  UNL     1      -1.784   0.769  11.087  1.00  0.00     0.119 C 
BRANCH  16  17
HETATM   17  S1  UNL     1      -1.201   2.427  11.131  1.00  0.00    -0.084 SA
BRANCH  17  18
HETATM   18  C9  UNL     1      -2.178   3.775  10.725  1.00  0.00     0.178 C 
BRANCH  18  19
HETATM   19  O2  UNL     1      -3.215   3.487   9.938  1.00  0.00    -0.341 OA
ATOM     20  H2  UNL     1      -3.709   4.243   9.647  1.00  0.00     0.220 HD
ENDBRANCH  18  19
BRANCH  18  21
HETATM   21  N3  UNL     1      -2.094   5.125  11.061  1.00  0.00    -0.353 N 
HETATM   22  C10 UNL     1      -0.812   5.615  11.662  1.00  0.00     0.155 C 
HETATM   23  C11 UNL     1      -0.991   7.032  12.061  1.00  0.00     0.291 C 
HETATM   24  N4  UNL     1      -2.181   7.339  12.788  1.00  0.00     0.087 N 
HETATM   25  C12 UNL     1      -2.084   7.038  14.187  1.00  0.00     0.310 C 
HETATM   26  C13 UNL     1      -3.381   6.735  12.262  1.00  0.00     0.291 C 
HETATM   27  C14 UNL     1      -3.066   6.150  10.891  1.00  0.00     0.155 C 
ENDBRANCH  18  21
ENDBRANCH  17  18
ENDBRANCH  16  17
ENDBRANCH   1  16
BRANCH   1  28
HETATM   28  C15 UNL     1      -3.423  -0.878  11.774  1.00  0.00     0.197 C 
HETATM   29  O3  UNL     1      -4.242  -1.262  12.632  1.00  0.00    -0.646 OA
HETATM   30  O4  UNL     1      -2.688  -1.808  11.014  1.00  0.00    -0.646 OA
ENDBRANCH   1  28
TORSDOF 11
ENDMDL
MODEL 4
REMARK VINA RESULT: -7.223800578      1.991      3.013
REMARK  11 active torsions:
REMARK  status: ('A' for Active; 'I' for Inactive)
REMARK    1  A    between atoms: C2_2  and  N1_3 
REMARK    2  A    between atoms: C2_2  and  C6_11 
REMARK    3  A    between atoms: N1_3  and  C3_5 
REMARK    4  A    between atoms: C3_5  and  C5_7 
REMARK       I    between atoms: C6_11  and  N2_13 
REMARK    5  A    between atoms: N2_13  and  C7_15 
REMARK    6  A    between atoms: C7_15  and  C8_16 
REMARK    7  A    between atoms: C7_15  and  C15_28 
REMARK    8  A    between atoms: C8_16  and  S1_17 
REMARK    9  A    between atoms: S1_17  and  C9_18 
REMARK   10  A    between atoms: C9_18  and  O2_19 
REMARK   11  A    between atoms: C9_18  and  N3_21 
ROOT
HETATM    1  C7  UNL     1      -3.159   1.381  11.502  1.00  0.00     0.195 C 
ENDROOT
BRANCH   1   2
HETATM    2  N2  UNL     1      -3.154   2.096  12.735  1.00  0.00    -0.344 N 
HETATM    3  C6  UNL     1      -4.154   2.974  13.210  1.00  0.00     0.240 C 
HETATM    4  O1  UNL     1      -5.174   3.196  12.541  1.00  0.00    -0.271 OA
ATOM      5  H2  UNL     1      -2.343   1.959  13.337  1.00  0.00     0.163 HD
BRANCH   3   6
HETATM    6  C2  UNL     1      -4.012   3.656  14.523  1.00  0.00     0.166 C 
HETATM    7  C1  UNL     1      -2.695   4.426  14.428  1.00  0.00     0.042 C 
BRANCH   6   8
HETATM    8  N1  UNL     1      -4.025   2.701  15.542  1.00  0.00    -0.398 N 
ATOM      9  H1  UNL     1      -3.219   2.651  16.164  1.00  0.00     0.154 HD
BRANCH   8  10
HETATM   10  C3  UNL     1      -5.072   1.819  15.755  1.00  0.00     0.181 C 
HETATM   11  C4  UNL     1      -4.719   0.412  16.166  1.00  0.00     0.041 C 
BRANCH  10  12
HETATM   12  C5  UNL     1      -6.130   2.287  16.736  1.00  0.00     0.406 C 
HETATM   13  F1  UNL     1      -7.193   1.413  16.607  1.00  0.00    -0.169 F 
HETATM   14  F2  UNL     1      -6.580   3.548  16.512  1.00  0.00    -0.169 F 
HETATM   15  F3  UNL     1      -5.684   2.101  18.054  1.00  0.00    -0.169 F 
ENDBRANCH  10  12
ENDBRANCH   8  10
ENDBRANCH   6   8
ENDBRANCH   3   6
ENDBRANCH   1   2
BRANCH   1  16
HETATM   16  C8  UNL     1      -1.793   0.873  11.082  1.00  0.00     0.119 C 
BRANCH  16  17
HETATM   17  S1  UNL     1      -0.649   2.110  10.580  1.00  0.00    -0.084 SA
BRANCH  17  18
HETATM   18  C9  UNL     1      -0.780   3.752  11.052  1.00  0.00     0.178 C 
BRANCH  18  19
HETATM   19  O2  UNL     1       0.036   4.107  12.045  1.00  0.00    -0.341 OA
ATOM     20  H2  UNL     1       0.486   4.932  11.908  1.00  0.00     0.220 HD
ENDBRANCH  18  19
BRANCH  18  21
HETATM   21  N3  UNL     1      -1.583   4.795  10.593  1.00  0.00    -0.353 N 
HETATM   22  C10 UNL     1      -1.437   6.130  11.256  1.00  0.00     0.155 C 
HETATM   23  C11 UNL     1      -2.470   7.043  10.708  1.00  0.00     0.291 C 
HETATM   24  N4  UNL     1      -3.797   6.522  10.633  1.00  0.00     0.087 N 
HETATM   25  C12 UNL     1      -4.505   6.594  11.878  1.00  0.00     0.310 C 
HETATM   26  C13 UNL     1      -3.890   5.178  10.120  1.00  0.00     0.291 C 
HETATM   27  C14 UNL     1      -2.536   4.790   9.537  1.00  0.00     0.155 C 
ENDBRANCH  18  21
ENDBRANCH  17  18
ENDBRANCH  16  17
ENDBRANCH   1  16
BRANCH   1  28
HETATM   28  C15 UNL     1      -4.064   0.213  11.609  1.00  0.00     0.197 C 
HETATM   29  O3  UNL     1      -4.734  -0.149  10.622  1.00  0.00    -0.646 OA
HETATM   30  O4  UNL     1      -4.153  -0.481  12.832  1.00  0.00    -0.646 OA
ENDBRANCH   1  28
TORSDOF 11
ENDMDL
MODEL 5
REMARK VINA RESULT: -7.196864451      2.779      3.512
REMARK  11 active torsions:
REMARK  status: ('A' for Active; 'I' for Inactive)
REMARK    1  A    between atoms: C2_2  and  N1_3 
REMARK    2  A    between atoms: C2_2  and  C6_11 
REMARK    3  A    between atoms: N1_3  and  C3_5 
REMARK    4  A    between atoms: C3_5  and  C5_7 
REMARK       I    between atoms: C6_11  and  N2_13 
REMARK    5  A    between atoms: N2_13  and  C7_15 
REMARK    6  A    between atoms: C7_15  and  C8_16 
REMARK    7  A    between atoms: C7_15  and  C15_28 
REMARK    8  A    between atoms: C8_16  and  S1_17 
REMARK    9  A    between atoms: S1_17  and  C9_18 
REMARK   10  A    between atoms: C9_18  and  O2_19 
REMARK   11  A    between atoms: C9_18  and  N3_21 
ROOT
HETATM    1  C7  UNL     1      -3.225   0.605  11.545  1.00  0.00     0.195 C 
ENDROOT
BRANCH   1   2
HETATM    2  N2  UNL     1      -3.560   1.318  12.733  1.00  0.00    -0.344 N 
HETATM    3  C6  UNL     1      -4.663   2.181  12.922  1.00  0.00     0.240 C 
HETATM    4  O1  UNL     1      -5.470   2.388  12.003  1.00  0.00    -0.271 OA
ATOM      5  H2  UNL     1      -2.937   1.192  13.530  1.00  0.00     0.163 HD
BRANCH   3   6
HETATM    6  C2  UNL     1      -4.887   2.863  14.222  1.00  0.00     0.166 C 
HETATM    7  C1  UNL     1      -3.602   3.649  14.483  1.00  0.00     0.042 C 
BRANCH   6   8
HETATM    8  N1  UNL     1      -5.161   1.907  15.203  1.00  0.00    -0.398 N 
ATOM      9  H1  UNL     1      -4.996   0.927  14.978  1.00  0.00     0.154 HD
BRANCH   8  10
HETATM   10  C3  UNL     1      -5.645   2.217  16.464  1.00  0.00     0.181 C 
HETATM   11  C4  UNL     1      -6.543   3.422  16.586  1.00  0.00     0.041 C 
BRANCH  10  12
HETATM   12  C5  UNL     1      -6.361   1.089  17.182  1.00  0.00     0.406 C 
HETATM   13  F1  UNL     1      -6.591   1.533  18.470  1.00  0.00    -0.169 F 
HETATM   14  F2  UNL     1      -5.656  -0.070  17.245  1.00  0.00    -0.169 F 
HETATM   15  F3  UNL     1      -7.645   0.910  16.642  1.00  0.00    -0.169 F 
ENDBRANCH  10  12
ENDBRANCH   8  10
ENDBRANCH   6   8
ENDBRANCH   3   6
ENDBRANCH   1   2
BRANCH   1  16
HETATM   16  C8  UNL     1      -1.799   0.829  11.076  1.00  0.00     0.119 C 
BRANCH  16  17
HETATM   17  S1  UNL     1      -1.409   2.479  10.613  1.00  0.00    -0.084 SA
BRANCH  17  18
HETATM   18  C9  UNL     1      -2.576   3.731  10.534  1.00  0.00     0.178 C 
BRANCH  18  19
HETATM   19  O2  UNL     1      -3.592   3.486   9.706  1.00  0.00    -0.341 OA
ATOM     20  H2  UNL     1      -4.304   4.112   9.762  1.00  0.00     0.220 HD
ENDBRANCH  18  19
BRANCH  18  21
HETATM   21  N3  UNL     1      -2.666   4.967  11.174  1.00  0.00    -0.353 N 
HETATM   22  C10 UNL     1      -4.020   5.599  11.280  1.00  0.00     0.155 C 
HETATM   23  C11 UNL     1      -3.862   6.952  11.867  1.00  0.00     0.291 C 
HETATM   24  N4  UNL     1      -2.830   7.767  11.310  1.00  0.00     0.087 N 
HETATM   25  C12 UNL     1      -3.221   8.425  10.097  1.00  0.00     0.310 C 
HETATM   26  C13 UNL     1      -1.577   7.088  11.090  1.00  0.00     0.291 C 
HETATM   27  C14 UNL     1      -1.635   5.733  11.785  1.00  0.00     0.155 C 
ENDBRANCH  18  21
ENDBRANCH  17  18
ENDBRANCH  16  17
ENDBRANCH   1  16
BRANCH   1  28
HETATM   28  C15 UNL     1      -3.404  -0.848  11.771  1.00  0.00     0.197 C 
HETATM   29  O3  UNL     1      -4.206  -1.250  12.638  1.00  0.00    -0.646 OA
HETATM   30  O4  UNL     1      -2.661  -1.763  11.000  1.00  0.00    -0.646 OA
ENDBRANCH   1  28
TORSDOF 11
ENDMDL
