MODEL 1
REMARK VINA RESULT: -6.541129080      0.000      0.000
REMARK  14 active torsions:
REMARK  status: ('A' for Active; 'I' for Inactive)
REMARK    1  A    between atoms: C2_2  and  C3_3 
REMARK    2  A    between atoms: C3_3  and  N1_4 
REMARK    3  A    between atoms: N1_4  and  C4_6 
REMARK    4  A    between atoms: C6_10  and  C7_11 
REMARK    5  A    between atoms: C7_11  and  O1_12 
REMARK    6  A    between atoms: C7_11  and  N3_14 
REMARK    7  A    between atoms: C8_15  and  C9_16 
REMARK    8  A    between atoms: C9_16  and  O2_17 
REMARK    9  A    between atoms: C12_20  and  N4_21 
REMARK   10  A    between atoms: N4_21  and  N5_23 
REMARK   11  A    between atoms: N5_23  and  N6_24 
REMARK   12  A    between atoms: C13_27  and  O3_28 
REMARK   13  A    between atoms: O3_28  and  C14_29 
REMARK   14  A    between atoms: C15_33  and  N7_34 
ROOT
HETATM    1  N3  UNL     1      -3.795   6.029  11.612  1.00  0.00    -0.325 N 
HETATM    2  C8  UNL     1      -3.332   5.054  10.639  1.00  0.00     0.115 C 
HETATM    3  C11 UNL     1      -4.012   5.457   9.357  1.00  0.00     0.059 C 
HETATM    4  C12 UNL     1      -3.965   6.976   9.483  1.00  0.00     0.165 C 
HETATM    5  C13 UNL     1      -4.579   7.056  10.928  1.00  0.00     0.260 C 
ENDROOT
BRANCH   1   6
HETATM    6  C7  UNL     1      -3.503   5.982  12.970  1.00  0.00     0.156 C 
BRANCH   6   7
HETATM    7  C6  UNL     1      -3.742   4.922  13.926  1.00  0.00     0.075 A 
HETATM    8  C5  UNL     1      -5.051   4.576  14.247  1.00  0.00     0.125 A 
HETATM    9  N2  UNL     1      -5.312   3.568  15.100  1.00  0.00    -0.201 N 
HETATM   10  C4  UNL     1      -4.329   2.855  15.676  1.00  0.00     0.679 A 
ATOM     11  H2  UNL     1      -6.282   3.339  15.315  1.00  0.00     0.183 HD
HETATM   12  N8  UNL     1      -3.061   3.183  15.371  1.00  0.00    -0.176 N 
HETATM   13  C15 UNL     1      -2.749   4.179  14.527  1.00  0.00     0.130 A 
ATOM     14  H8  UNL     1      -2.303   2.652  15.799  1.00  0.00     0.186 HD
BRANCH  10  15
HETATM   15  N1  UNL     1      -4.560   1.880  16.500  1.00  0.00    -0.223 N 
ATOM     16  H1  UNL     1      -3.897   1.662  17.243  1.00  0.00     0.178 HD
BRANCH  15  17
HETATM   17  C3  UNL     1      -5.783   1.102  16.349  1.00  0.00     0.164 C 
BRANCH  17  18
HETATM   18  C2  UNL     1      -6.613   1.275  17.558  1.00  0.00    -0.017 C 
HETATM   19  C1  UNL     1      -6.212   2.034  18.558  1.00  0.00     0.008 C 
ENDBRANCH  17  18
ENDBRANCH  15  17
ENDBRANCH  10  15
BRANCH  13  20
HETATM   20  N7  UNL     1      -1.534   4.494  14.234  1.00  0.00    -0.384 N 
ATOM     21  H72 UNL     1      -1.286   5.358  13.752  1.00  0.00     0.157 HD
ATOM     22  H71 UNL     1      -0.811   3.830  14.509  1.00  0.00     0.157 HD
ENDBRANCH  13  20
ENDBRANCH   6   7
BRANCH   6  23
HETATM   23  O1  UNL     1      -2.933   7.043  13.465  1.00  0.00    -0.345 OA
ATOM     24  H1  UNL     1      -3.103   7.192  14.387  1.00  0.00     0.219 HD
ENDBRANCH   6  23
ENDBRANCH   1   6
BRANCH   2  25
HETATM   25  C9  UNL     1      -1.827   5.053  10.471  1.00  0.00     0.192 C 
BRANCH  25  26
HETATM   26  O2  UNL     1      -1.222   4.008  11.134  1.00  0.00    -0.394 OA
HETATM   27  C10 UNL     1      -1.859   2.795  11.043  1.00  0.00     0.201 C 
ENDBRANCH  25  26
ENDBRANCH   2  25
BRANCH   5  28
HETATM   28  O3  UNL     1      -5.900   6.787  10.805  1.00  0.00    -0.270 OA
BRANCH  28  29
HETATM   29  C14 UNL     1      -6.837   7.726  11.023  1.00  0.00     0.526 C 
HETATM   30  F1  UNL     1      -7.739   7.846   9.991  1.00  0.00    -0.144 F 
HETATM   31  F2  UNL     1      -6.256   9.011  11.121  1.00  0.00    -0.144 F 
HETATM   32  F3  UNL     1      -7.594   7.614  12.172  1.00  0.00    -0.144 F 
ENDBRANCH  28  29
ENDBRANCH   5  28
BRANCH   4  33
HETATM   33  N4  UNL     1      -4.792   7.552   8.498  1.00  0.00    -0.243 N 
ATOM     34  H4  UNL     1      -4.998   8.548   8.580  1.00  0.00     0.197 HD
BRANCH  33  35
HETATM   35  N5  UNL     1      -5.281   6.952   7.555  1.00  0.00    -0.248 NA
BRANCH  35  36
HETATM   36  N6  UNL     1      -5.862   6.506   6.565  1.00  0.00    -0.261 N 
ATOM     37  H62 UNL     1      -6.362   5.889   7.205  1.00  0.00     0.193 HD
ATOM     38  H61 UNL     1      -6.258   6.236   5.664  1.00  0.00     0.193 HD
ENDBRANCH  35  36
ENDBRANCH  33  35
ENDBRANCH   4  33
TORSDOF 14
ENDMDL
MODEL 2
REMARK VINA RESULT: -6.448938488      2.329      3.063
REMARK  14 active torsions:
REMARK  status: ('A' for Active; 'I' for Inactive)
REMARK    1  A    between atoms: C2_2  and  C3_3 
REMARK    2  A    between atoms: C3_3  and  N1_4 
REMARK    3  A    between atoms: N1_4  and  C4_6 
REMARK    4  A    between atoms: C6_10  and  C7_11 
REMARK    5  A    between atoms: C7_11  and  O1_12 
REMARK    6  A    between atoms: C7_11  and  N3_14 
REMARK    7  A    between atoms: C8_15  and  C9_16 
REMARK    8  A    between atoms: C9_16  and  O2_17 
REMARK    9  A    between atoms: C12_20  and  N4_21 
REMARK   10  A    between atoms: N4_21  and  N5_23 
REMARK   11  A    between atoms: N5_23  and  N6_24 
REMARK   12  A    between atoms: C13_27  and  O3_28 
REMARK   13  A    between atoms: O3_28  and  C14_29 
REMARK   14  A    between atoms: C15_33  and  N7_34 
ROOT
HETATM    1  N3  UNL     1      -3.467   3.874  11.109  1.00  0.00    -0.325 N 
HETATM    2  C8  UNL     1      -2.168   3.603  10.516  1.00  0.00     0.115 C 
HETATM    3  C11 UNL     1      -1.713   4.940   9.991  1.00  0.00     0.059 C 
HETATM    4  C12 UNL     1      -2.239   5.862  11.087  1.00  0.00     0.165 C 
HETATM    5  C13 UNL     1      -3.713   5.315  11.090  1.00  0.00     0.260 C 
ENDROOT
BRANCH   1   6
HETATM    6  C7  UNL     1      -4.311   2.899  11.628  1.00  0.00     0.156 C 
BRANCH   6   7
HETATM    7  C6  UNL     1      -4.339   2.318  12.952  1.00  0.00     0.075 A 
HETATM    8  C5  UNL     1      -4.624   3.129  14.047  1.00  0.00     0.125 A 
HETATM    9  N2  UNL     1      -4.699   2.616  15.289  1.00  0.00    -0.201 N 
HETATM   10  C4  UNL     1      -4.505   1.307  15.528  1.00  0.00     0.679 A 
ATOM     11  H2  UNL     1      -4.909   3.237  16.070  1.00  0.00     0.183 HD
HETATM   12  N8  UNL     1      -4.230   0.517  14.475  1.00  0.00    -0.176 N 
HETATM   13  C15 UNL     1      -4.144   0.980  13.219  1.00  0.00     0.130 A 
ATOM     14  H8  UNL     1      -4.080  -0.479  14.639  1.00  0.00     0.186 HD
BRANCH  10  15
HETATM   15  N1  UNL     1      -4.574   0.794  16.717  1.00  0.00    -0.223 N 
ATOM     16  H1  UNL     1      -3.741   0.728  17.301  1.00  0.00     0.178 HD
BRANCH  15  17
HETATM   17  C3  UNL     1      -5.859   0.313  17.206  1.00  0.00     0.164 C 
BRANCH  17  18
HETATM   18  C2  UNL     1      -6.641   1.462  17.707  1.00  0.00    -0.017 C 
HETATM   19  C1  UNL     1      -6.215   2.186  18.722  1.00  0.00     0.008 C 
ENDBRANCH  17  18
ENDBRANCH  15  17
ENDBRANCH  10  15
BRANCH  13  20
HETATM   20  N7  UNL     1      -3.881   0.223  12.209  1.00  0.00    -0.384 N 
ATOM     21  H72 UNL     1      -2.937  -0.088  11.981  1.00  0.00     0.157 HD
ATOM     22  H71 UNL     1      -4.672  -0.061  11.633  1.00  0.00     0.157 HD
ENDBRANCH  13  20
ENDBRANCH   6   7
BRANCH   6  23
HETATM   23  O1  UNL     1      -5.211   2.434  10.810  1.00  0.00    -0.345 OA
ATOM     24  H1  UNL     1      -5.680   3.097  10.316  1.00  0.00     0.219 HD
ENDBRANCH   6  23
ENDBRANCH   1   6
BRANCH   2  25
HETATM   25  C9  UNL     1      -1.168   3.047  11.507  1.00  0.00     0.192 C 
BRANCH  25  26
HETATM   26  O2  UNL     1      -1.144   1.670  11.518  1.00  0.00    -0.394 OA
HETATM   27  C10 UNL     1      -1.063   1.065  10.287  1.00  0.00     0.201 C 
ENDBRANCH  25  26
ENDBRANCH   2  25
BRANCH   5  28
HETATM   28  O3  UNL     1      -4.305   5.784   9.967  1.00  0.00    -0.270 OA
BRANCH  28  29
HETATM   29  C14 UNL     1      -5.287   6.700  10.015  1.00  0.00     0.526 C 
HETATM   30  F1  UNL     1      -5.006   7.840   9.297  1.00  0.00    -0.144 F 
HETATM   31  F2  UNL     1      -5.483   7.168  11.336  1.00  0.00    -0.144 F 
HETATM   32  F3  UNL     1      -6.547   6.305   9.612  1.00  0.00    -0.144 F 
ENDBRANCH  28  29
ENDBRANCH   5  28
BRANCH   4  33
HETATM   33  N4  UNL     1      -2.147   7.200  10.655  1.00  0.00    -0.243 N 
ATOM     34  H4  UNL     1      -2.017   7.364   9.656  1.00  0.00     0.197 HD
BRANCH  33  35
HETATM   35  N5  UNL     1      -2.209   8.177  11.382  1.00  0.00    -0.248 NA
BRANCH  35  36
HETATM   36  N6  UNL     1      -2.137   9.234  12.011  1.00  0.00    -0.261 N 
ATOM     37  H62 UNL     1      -1.467   9.542  11.306  1.00  0.00     0.193 HD
ATOM     38  H61 UNL     1      -2.179  10.045  12.628  1.00  0.00     0.193 HD
ENDBRANCH  35  36
ENDBRANCH  33  35
ENDBRANCH   4  33
TORSDOF 14
ENDMDL
MODEL 3
REMARK VINA RESULT: -6.301189257      4.470      7.840
REMARK  14 active torsions:
REMARK  status: ('A' for Active; 'I' for Inactive)
REMARK    1  A    between atoms: C2_2  and  C3_3 
REMARK    2  A    between atoms: C3_3  and  N1_4 
REMARK    3  A    between atoms: N1_4  and  C4_6 
REMARK    4  A    between atoms: C6_10  and  C7_11 
REMARK    5  A    between atoms: C7_11  and  O1_12 
REMARK    6  A    between atoms: C7_11  and  N3_14 
REMARK    7  A    between atoms: C8_15  and  C9_16 
REMARK    8  A    between atoms: C9_16  and  O2_17 
REMARK    9  A    between atoms: C12_20  and  N4_21 
REMARK   10  A    between atoms: N4_21  and  N5_23 
REMARK   11  A    between atoms: N5_23  and  N6_24 
REMARK   12  A    between atoms: C13_27  and  O3_28 
REMARK   13  A    between atoms: O3_28  and  C14_29 
REMARK   14  A    between atoms: C15_33  and  N7_34 
ROOT
HETATM    1  N3  UNL     1      -3.759   2.348  12.511  1.00  0.00    -0.325 N 
HETATM    2  C8  UNL     1      -4.782   3.073  13.243  1.00  0.00     0.115 C 
HETATM    3  C11 UNL     1      -5.317   2.067  14.229  1.00  0.00     0.059 C 
HETATM    4  C12 UNL     1      -4.033   1.329  14.595  1.00  0.00     0.165 C 
HETATM    5  C13 UNL     1      -3.569   1.033  13.122  1.00  0.00     0.260 C 
ENDROOT
BRANCH   1   6
HETATM    6  C7  UNL     1      -3.066   2.857  11.418  1.00  0.00     0.156 C 
BRANCH   6   7
HETATM    7  C6  UNL     1      -1.673   3.230  11.306  1.00  0.00     0.075 A 
HETATM    8  C5  UNL     1      -1.210   4.351  11.988  1.00  0.00     0.125 A 
HETATM    9  N2  UNL     1       0.087   4.705  11.941  1.00  0.00    -0.201 N 
HETATM   10  C4  UNL     1       0.990   3.998  11.239  1.00  0.00     0.679 A 
ATOM     11  H2  UNL     1       0.394   5.533  12.451  1.00  0.00     0.183 HD
HETATM   12  N8  UNL     1       0.551   2.912  10.577  1.00  0.00    -0.176 N 
HETATM   13  C15 UNL     1      -0.732   2.519  10.593  1.00  0.00     0.130 A 
ATOM     14  H8  UNL     1       1.222   2.364  10.040  1.00  0.00     0.186 HD
BRANCH  10  15
HETATM   15  N1  UNL     1       2.244   4.322  11.181  1.00  0.00    -0.223 N 
ATOM     16  H1  UNL     1       2.910   3.729  10.686  1.00  0.00     0.178 HD
BRANCH  15  17
HETATM   17  C3  UNL     1       2.688   5.547  11.834  1.00  0.00     0.164 C 
BRANCH  17  18
HETATM   18  C2  UNL     1       3.930   5.267  12.584  1.00  0.00    -0.017 C 
HETATM   19  C1  UNL     1       4.497   6.190  13.334  1.00  0.00     0.008 C 
ENDBRANCH  17  18
ENDBRANCH  15  17
ENDBRANCH  10  15
BRANCH  13  20
HETATM   20  N7  UNL     1      -1.153   1.479   9.959  1.00  0.00    -0.384 N 
ATOM     21  H72 UNL     1      -2.143   1.265   9.840  1.00  0.00     0.157 HD
ATOM     22  H71 UNL     1      -0.441   0.861   9.571  1.00  0.00     0.157 HD
ENDBRANCH  13  20
ENDBRANCH   6   7
BRANCH   6  23
HETATM   23  O1  UNL     1      -3.765   3.029  10.333  1.00  0.00    -0.345 OA
ATOM     24  H1  UNL     1      -4.646   2.677  10.368  1.00  0.00     0.219 HD
ENDBRANCH   6  23
ENDBRANCH   1   6
BRANCH   2  25
HETATM   25  C9  UNL     1      -4.247   4.295  13.959  1.00  0.00     0.192 C 
BRANCH  25  26
HETATM   26  O2  UNL     1      -4.914   5.447  13.610  1.00  0.00    -0.394 OA
HETATM   27  C10 UNL     1      -4.413   6.120  12.522  1.00  0.00     0.201 C 
ENDBRANCH  25  26
ENDBRANCH   2  25
BRANCH   5  28
HETATM   28  O3  UNL     1      -4.376   0.055  12.649  1.00  0.00    -0.270 OA
BRANCH  28  29
HETATM   29  C14 UNL     1      -4.033  -0.693  11.586  1.00  0.00     0.526 C 
HETATM   30  F1  UNL     1      -2.680  -0.688  11.331  1.00  0.00    -0.144 F 
HETATM   31  F2  UNL     1      -4.607  -0.185  10.398  1.00  0.00    -0.144 F 
HETATM   32  F3  UNL     1      -4.407  -2.021  11.596  1.00  0.00    -0.144 F 
ENDBRANCH  28  29
ENDBRANCH   5  28
BRANCH   4  33
HETATM   33  N4  UNL     1      -4.355   0.163  15.318  1.00  0.00    -0.243 N 
ATOM     34  H4  UNL     1      -4.003  -0.725  14.959  1.00  0.00     0.197 HD
BRANCH  33  35
HETATM   35  N5  UNL     1      -5.022   0.133  16.338  1.00  0.00    -0.248 NA
BRANCH  35  36
HETATM   36  N6  UNL     1      -5.533   0.112  17.459  1.00  0.00    -0.261 N 
ATOM     37  H62 UNL     1      -4.618  -0.171  17.810  1.00  0.00     0.193 HD
ATOM     38  H61 UNL     1      -6.085   0.138  18.316  1.00  0.00     0.193 HD
ENDBRANCH  35  36
ENDBRANCH  33  35
ENDBRANCH   4  33
TORSDOF 14
ENDMDL
MODEL 4
REMARK VINA RESULT: -6.291488206      3.766      4.786
REMARK  14 active torsions:
REMARK  status: ('A' for Active; 'I' for Inactive)
REMARK    1  A    between atoms: C2_2  and  C3_3 
REMARK    2  A    between atoms: C3_3  and  N1_4 
REMARK    3  A    between atoms: N1_4  and  C4_6 
REMARK    4  A    between atoms: C6_10  and  C7_11 
REMARK    5  A    between atoms: C7_11  and  O1_12 
REMARK    6  A    between atoms: C7_11  and  N3_14 
REMARK    7  A    between atoms: C8_15  and  C9_16 
REMARK    8  A    between atoms: C9_16  and  O2_17 
REMARK    9  A    between atoms: C12_20  and  N4_21 
REMARK   10  A    between atoms: N4_21  and  N5_23 
REMARK   11  A    between atoms: N5_23  and  N6_24 
REMARK   12  A    between atoms: C13_27  and  O3_28 
REMARK   13  A    between atoms: O3_28  and  C14_29 
REMARK   14  A    between atoms: C15_33  and  N7_34 
ROOT
HETATM    1  N3  UNL     1      -3.568   4.071  11.040  1.00  0.00    -0.325 N 
HETATM    2  C8  UNL     1      -3.822   5.479  11.293  1.00  0.00     0.115 C 
HETATM    3  C11 UNL     1      -2.647   6.186  10.669  1.00  0.00     0.059 C 
HETATM    4  C12 UNL     1      -2.432   5.324   9.429  1.00  0.00     0.165 C 
HETATM    5  C13 UNL     1      -2.397   3.940  10.175  1.00  0.00     0.260 C 
ENDROOT
BRANCH   1   6
HETATM    6  C7  UNL     1      -4.348   3.031  11.535  1.00  0.00     0.156 C 
BRANCH   6   7
HETATM    7  C6  UNL     1      -4.352   2.430  12.851  1.00  0.00     0.075 A 
HETATM    8  C5  UNL     1      -4.650   3.218  13.959  1.00  0.00     0.125 A 
HETATM    9  N2  UNL     1      -4.703   2.685  15.193  1.00  0.00    -0.201 N 
HETATM   10  C4  UNL     1      -4.473   1.379  15.413  1.00  0.00     0.679 A 
ATOM     11  H2  UNL     1      -4.924   3.289  15.985  1.00  0.00     0.183 HD
HETATM   12  N8  UNL     1      -4.184   0.611  14.347  1.00  0.00    -0.176 N 
HETATM   13  C15 UNL     1      -4.119   1.094  13.096  1.00  0.00     0.130 A 
ATOM     14  H8  UNL     1      -4.006  -0.382  14.495  1.00  0.00     0.186 HD
BRANCH  10  15
HETATM   15  N1  UNL     1      -4.519   0.847  16.594  1.00  0.00    -0.223 N 
ATOM     16  H1  UNL     1      -3.682   0.799  17.173  1.00  0.00     0.178 HD
BRANCH  15  17
HETATM   17  C3  UNL     1      -5.787   0.321  17.083  1.00  0.00     0.164 C 
BRANCH  17  18
HETATM   18  C2  UNL     1      -6.602   1.439  17.602  1.00  0.00    -0.017 C 
HETATM   19  C1  UNL     1      -6.201   2.153  18.634  1.00  0.00     0.008 C 
ENDBRANCH  17  18
ENDBRANCH  15  17
ENDBRANCH  10  15
BRANCH  13  20
HETATM   20  N7  UNL     1      -3.842   0.359  12.075  1.00  0.00    -0.384 N 
ATOM     21  H72 UNL     1      -4.442  -0.403  11.761  1.00  0.00     0.157 HD
ATOM     22  H71 UNL     1      -2.978   0.574  11.578  1.00  0.00     0.157 HD
ENDBRANCH  13  20
ENDBRANCH   6   7
BRANCH   6  23
HETATM   23  O1  UNL     1      -5.202   2.515  10.698  1.00  0.00    -0.345 OA
ATOM     24  H1  UNL     1      -5.824   3.134  10.333  1.00  0.00     0.219 HD
ENDBRANCH   6  23
ENDBRANCH   1   6
BRANCH   2  25
HETATM   25  C9  UNL     1      -5.123   5.965  10.691  1.00  0.00     0.192 C 
BRANCH  25  26
HETATM   26  O2  UNL     1      -5.911   6.632  11.602  1.00  0.00    -0.394 OA
HETATM   27  C10 UNL     1      -6.580   7.730  11.120  1.00  0.00     0.201 C 
ENDBRANCH  25  26
ENDBRANCH   2  25
BRANCH   5  28
HETATM   28  O3  UNL     1      -1.209   3.875  10.819  1.00  0.00    -0.270 OA
BRANCH  28  29
HETATM   29  C14 UNL     1      -0.404   2.804  10.712  1.00  0.00     0.526 C 
HETATM   30  F1  UNL     1      -0.712   1.799  11.601  1.00  0.00    -0.144 F 
HETATM   31  F2  UNL     1       0.934   3.139  11.025  1.00  0.00    -0.144 F 
HETATM   32  F3  UNL     1      -0.314   2.197   9.476  1.00  0.00    -0.144 F 
ENDBRANCH  28  29
ENDBRANCH   5  28
BRANCH   4  33
HETATM   33  N4  UNL     1      -1.200   5.662   8.834  1.00  0.00    -0.243 N 
ATOM     34  H4  UNL     1      -0.663   6.418   9.260  1.00  0.00     0.197 HD
BRANCH  33  35
HETATM   35  N5  UNL     1      -0.725   5.121   7.849  1.00  0.00    -0.248 NA
BRANCH  35  36
HETATM   36  N6  UNL     1      -0.206   4.434   6.969  1.00  0.00    -0.261 N 
ATOM     37  H62 UNL     1      -0.321   3.640   7.598  1.00  0.00     0.193 HD
ATOM     38  H61 UNL     1       0.233   3.995   6.159  1.00  0.00     0.193 HD
ENDBRANCH  35  36
ENDBRANCH  33  35
ENDBRANCH   4  33
TORSDOF 14
ENDMDL
MODEL 5
REMARK VINA RESULT: -6.267295176      3.074      4.469
REMARK  14 active torsions:
REMARK  status: ('A' for Active; 'I' for Inactive)
REMARK    1  A    between atoms: C2_2  and  C3_3 
REMARK    2  A    between atoms: C3_3  and  N1_4 
REMARK    3  A    between atoms: N1_4  and  C4_6 
REMARK    4  A    between atoms: C6_10  and  C7_11 
REMARK    5  A    between atoms: C7_11  and  O1_12 
REMARK    6  A    between atoms: C7_11  and  N3_14 
REMARK    7  A    between atoms: C8_15  and  C9_16 
REMARK    8  A    between atoms: C9_16  and  O2_17 
REMARK    9  A    between atoms: C12_20  and  N4_21 
REMARK   10  A    between atoms: N4_21  and  N5_23 
REMARK   11  A    between atoms: N5_23  and  N6_24 
REMARK   12  A    between atoms: C13_27  and  O3_28 
REMARK   13  A    between atoms: O3_28  and  C14_29 
REMARK   14  A    between atoms: C15_33  and  N7_34 
ROOT
HETATM    1  N3  UNL     1      -2.812   5.076  11.074  1.00  0.00    -0.325 N 
HETATM    2  C8  UNL     1      -2.656   5.762   9.803  1.00  0.00     0.115 C 
HETATM    3  C11 UNL     1      -1.411   6.591   9.978  1.00  0.00     0.059 C 
HETATM    4  C12 UNL     1      -0.560   5.640  10.814  1.00  0.00     0.165 C 
HETATM    5  C13 UNL     1      -1.645   5.346  11.913  1.00  0.00     0.260 C 
ENDROOT
BRANCH   1   6
HETATM    6  C7  UNL     1      -3.899   4.275  11.406  1.00  0.00     0.156 C 
BRANCH   6   7
HETATM    7  C6  UNL     1      -4.023   3.281  12.450  1.00  0.00     0.075 A 
HETATM    8  C5  UNL     1      -4.462   3.670  13.713  1.00  0.00     0.125 A 
HETATM    9  N2  UNL     1      -4.629   2.767  14.696  1.00  0.00    -0.201 N 
HETATM   10  C4  UNL     1      -4.383   1.459  14.508  1.00  0.00     0.679 A 
ATOM     11  H2  UNL     1      -4.951   3.084  15.611  1.00  0.00     0.183 HD
HETATM   12  N8  UNL     1      -3.959   1.076  13.290  1.00  0.00    -0.176 N 
HETATM   13  C15 UNL     1      -3.776   1.936  12.277  1.00  0.00     0.130 A 
ATOM     14  H8  UNL     1      -3.767   0.087  13.130  1.00  0.00     0.186 HD
BRANCH  10  15
HETATM   15  N1  UNL     1      -4.538   0.574  15.443  1.00  0.00    -0.223 N 
ATOM     16  H1  UNL     1      -4.481  -0.421  15.228  1.00  0.00     0.178 HD
BRANCH  15  17
HETATM   17  C3  UNL     1      -4.795   1.023  16.805  1.00  0.00     0.164 C 
BRANCH  17  18
HETATM   18  C2  UNL     1      -6.108   0.503  17.240  1.00  0.00    -0.017 C 
HETATM   19  C1  UNL     1      -7.215   1.190  17.038  1.00  0.00     0.008 C 
ENDBRANCH  17  18
ENDBRANCH  15  17
ENDBRANCH  10  15
BRANCH  13  20
HETATM   20  N7  UNL     1      -3.370   1.570  11.111  1.00  0.00    -0.384 N 
ATOM     21  H72 UNL     1      -4.005   1.382  10.335  1.00  0.00     0.157 HD
ATOM     22  H71 UNL     1      -2.363   1.471  10.988  1.00  0.00     0.157 HD
ENDBRANCH  13  20
ENDBRANCH   6   7
BRANCH   6  23
HETATM   23  O1  UNL     1      -4.965   4.434  10.676  1.00  0.00    -0.345 OA
ATOM     24  H1  UNL     1      -5.485   5.198  10.893  1.00  0.00     0.219 HD
ENDBRANCH   6  23
ENDBRANCH   1   6
BRANCH   2  25
HETATM   25  C9  UNL     1      -2.510   4.815   8.632  1.00  0.00     0.192 C 
BRANCH  25  26
HETATM   26  O2  UNL     1      -3.692   4.632   7.948  1.00  0.00    -0.394 OA
HETATM   27  C10 UNL     1      -3.834   5.370   6.798  1.00  0.00     0.201 C 
ENDBRANCH  25  26
ENDBRANCH   2  25
BRANCH   5  28
HETATM   28  O3  UNL     1      -1.731   6.456  12.682  1.00  0.00    -0.270 OA
BRANCH  28  29
HETATM   29  C14 UNL     1      -1.890   6.382  14.015  1.00  0.00     0.526 C 
HETATM   30  F1  UNL     1      -1.525   5.164  14.541  1.00  0.00    -0.144 F 
HETATM   31  F2  UNL     1      -3.251   6.516  14.374  1.00  0.00    -0.144 F 
HETATM   32  F3  UNL     1      -1.248   7.331  14.785  1.00  0.00    -0.144 F 
ENDBRANCH  28  29
ENDBRANCH   5  28
BRANCH   4  33
HETATM   33  N4  UNL     1       0.560   6.334  11.314  1.00  0.00    -0.243 N 
ATOM     34  H4  UNL     1       0.543   7.353  11.265  1.00  0.00     0.197 HD
BRANCH  33  35
HETATM   35  N5  UNL     1       1.548   5.810  11.802  1.00  0.00    -0.248 NA
BRANCH  35  36
HETATM   36  N6  UNL     1       2.584   5.225  12.121  1.00  0.00    -0.261 N 
ATOM     37  H62 UNL     1       2.933   5.453  11.190  1.00  0.00     0.193 HD
ATOM     38  H61 UNL     1       3.372   4.716  12.520  1.00  0.00     0.193 HD
ENDBRANCH  35  36
ENDBRANCH  33  35
ENDBRANCH   4  33
TORSDOF 14
ENDMDL
