MODEL 1
REMARK VINA RESULT: -6.986508268      0.000      0.000
REMARK  9 active torsions:
REMARK  status: ('A' for Active; 'I' for Inactive)
REMARK    1  A    between atoms: N1_1  and  C1_5 
REMARK    2  A    between atoms: C3_7  and  C4_8 
REMARK       I    between atoms: C4_8  and  N2_10 
REMARK    3  A    between atoms: N2_10  and  C5_12 
REMARK    4  A    between atoms: C5_12  and  C6_13 
REMARK    5  A    between atoms: C5_12  and  C13_25 
REMARK    6  A    between atoms: C6_13  and  C7_14 
REMARK    7  A    between atoms: C9_16  and  C10_17 
REMARK    8  A    between atoms: C10_17  and  S1_18 
REMARK    9  A    between atoms: S1_18  and  C11_19 
ROOT
HETATM    1  C4  UNL     1      -0.914   5.609  11.601  1.00  0.00     0.223 C 
HETATM    2  O1  UNL     1      -1.183   6.845  11.828  1.00  0.00    -0.273 OA
HETATM    3  N2  UNL     1      -2.034   4.770  11.437  1.00  0.00    -0.346 N 
ATOM      4  H2  UNL     1      -1.896   3.776  11.253  1.00  0.00     0.163 HD
ENDROOT
BRANCH   3   5
HETATM    5  C5  UNL     1      -3.394   5.305  11.528  1.00  0.00     0.188 C 
BRANCH   5   6
HETATM    6  C6  UNL     1      -4.030   4.813  12.801  1.00  0.00     0.068 C 
BRANCH   6   7
HETATM    7  C7  UNL     1      -3.342   3.656  13.428  1.00  0.00     0.124 C 
HETATM    8  C8  UNL     1      -4.027   3.212  14.713  1.00  0.00     0.039 C 
HETATM    9  C9  UNL     1      -4.771   1.976  14.264  1.00  0.00     0.021 C 
HETATM   10  C12 UNL     1      -4.153   1.617  12.954  1.00  0.00     0.173 C 
HETATM   11  O2  UNL     1      -3.196   2.549  12.634  1.00  0.00    -0.385 OA
BRANCH   9  12
HETATM   12  C10 UNL     1      -4.628   0.856  15.287  1.00  0.00     0.089 C 
BRANCH  12  13
HETATM   13  S1  UNL     1      -4.826   1.442  16.978  1.00  0.00    -0.055 SA
BRANCH  13  14
HETATM   14  C11 UNL     1      -6.537   1.879  17.339  1.00  0.00     0.443 C 
HETATM   15  F1  UNL     1      -6.873   3.107  16.756  1.00  0.00    -0.160 F 
HETATM   16  F2  UNL     1      -7.421   0.913  16.950  1.00  0.00    -0.160 F 
HETATM   17  F3  UNL     1      -6.699   2.090  18.716  1.00  0.00    -0.160 F 
ENDBRANCH  13  14
ENDBRANCH  12  13
ENDBRANCH   9  12
ENDBRANCH   6   7
ENDBRANCH   5   6
BRANCH   5  18
HETATM   18  C13 UNL     1      -4.151   5.010  10.305  1.00  0.00     0.196 C 
HETATM   19  O3  UNL     1      -5.354   5.436  10.259  1.00  0.00    -0.646 OA
HETATM   20  O4  UNL     1      -3.682   4.315   9.209  1.00  0.00    -0.646 OA
ENDBRANCH   5  18
ENDBRANCH   3   5
BRANCH   1  21
HETATM   21  C3  UNL     1       0.473   5.174  11.530  1.00  0.00     0.086 C 
HETATM   22  C2  UNL     1       1.489   6.249  11.262  1.00  0.00     0.050 C 
HETATM   23  C1  UNL     1       2.763   5.433  11.141  1.00  0.00     0.213 C 
HETATM   24  C17 UNL     1       2.327   4.024  10.767  1.00  0.00     0.156 C 
HETATM   25  C14 UNL     1       0.823   4.124  10.548  1.00  0.00     0.032 C 
HETATM   26  O5  UNL     1       2.891   3.658   9.584  1.00  0.00    -0.383 OA
HETATM   27  C15 UNL     1       0.773   4.505   9.104  1.00  0.00     0.034 C 
HETATM   28  C16 UNL     1       1.977   3.770   8.555  1.00  0.00     0.168 C 
BRANCH  23  29
HETATM   29  N1  UNL     1       3.373   5.412  12.472  1.00  0.00    -0.073 N 
ATOM     30  H13 UNL     1       3.786   6.305  12.741  1.00  0.00     0.274 HD
ATOM     31  H12 UNL     1       2.691   5.353  13.228  1.00  0.00     0.274 HD
ATOM     32  H11 UNL     1       4.042   4.642  12.473  1.00  0.00     0.274 HD
ENDBRANCH  23  29
ENDBRANCH   1  21
TORSDOF 9
ENDMDL
MODEL 2
REMARK VINA RESULT: -6.985588122      3.738      4.865
REMARK  9 active torsions:
REMARK  status: ('A' for Active; 'I' for Inactive)
REMARK    1  A    between atoms: N1_1  and  C1_5 
REMARK    2  A    between atoms: C3_7  and  C4_8 
REMARK       I    between atoms: C4_8  and  N2_10 
REMARK    3  A    between atoms: N2_10  and  C5_12 
REMARK    4  A    between atoms: C5_12  and  C6_13 
REMARK    5  A    between atoms: C5_12  and  C13_25 
REMARK    6  A    between atoms: C6_13  and  C7_14 
REMARK    7  A    between atoms: C9_16  and  C10_17 
REMARK    8  A    between atoms: C10_17  and  S1_18 
REMARK    9  A    between atoms: S1_18  and  C11_19 
ROOT
HETATM    1  C4  UNL     1      -1.759   2.836  10.778  1.00  0.00     0.223 C 
HETATM    2  O1  UNL     1      -2.635   3.268   9.943  1.00  0.00    -0.273 OA
HETATM    3  N2  UNL     1      -2.273   2.083  11.852  1.00  0.00    -0.346 N 
ATOM      4  H2  UNL     1      -1.634   1.707  12.554  1.00  0.00     0.163 HD
ENDROOT
BRANCH   3   5
HETATM    5  C5  UNL     1      -3.710   1.833  11.976  1.00  0.00     0.188 C 
BRANCH   5   6
HETATM    6  C6  UNL     1      -4.130   2.086  13.399  1.00  0.00     0.068 C 
BRANCH   6   7
HETATM    7  C7  UNL     1      -4.640   3.457  13.658  1.00  0.00     0.124 C 
HETATM    8  C8  UNL     1      -3.837   4.172  14.736  1.00  0.00     0.039 C 
HETATM    9  C9  UNL     1      -2.978   5.109  13.921  1.00  0.00     0.021 C 
HETATM   10  C12 UNL     1      -3.621   5.138  12.575  1.00  0.00     0.173 C 
HETATM   11  O2  UNL     1      -4.697   4.286  12.569  1.00  0.00    -0.385 OA
BRANCH   9  12
HETATM   12  C10 UNL     1      -2.930   6.492  14.560  1.00  0.00     0.089 C 
BRANCH  12  13
HETATM   13  S1  UNL     1      -1.654   7.538  13.839  1.00  0.00    -0.055 SA
BRANCH  13  14
HETATM   14  C11 UNL     1      -1.210   8.900  14.933  1.00  0.00     0.443 C 
HETATM   15  F1  UNL     1      -1.902  10.066  14.586  1.00  0.00    -0.160 F 
HETATM   16  F2  UNL     1      -1.410   8.604  16.251  1.00  0.00    -0.160 F 
HETATM   17  F3  UNL     1       0.143   9.233  14.760  1.00  0.00    -0.160 F 
ENDBRANCH  13  14
ENDBRANCH  12  13
ENDBRANCH   9  12
ENDBRANCH   6   7
ENDBRANCH   5   6
BRANCH   5  18
HETATM   18  C13 UNL     1      -4.052   0.502  11.459  1.00  0.00     0.196 C 
HETATM   19  O3  UNL     1      -4.297  -0.404  12.325  1.00  0.00    -0.646 OA
HETATM   20  O4  UNL     1      -4.129   0.145  10.128  1.00  0.00    -0.646 OA
ENDBRANCH   5  18
ENDBRANCH   3   5
BRANCH   1  21
HETATM   21  C3  UNL     1      -0.351   3.140  10.568  1.00  0.00     0.086 C 
HETATM   22  C2  UNL     1       0.048   4.578  10.751  1.00  0.00     0.050 C 
HETATM   23  C1  UNL     1       1.510   4.536  10.348  1.00  0.00     0.213 C 
HETATM   24  C17 UNL     1       1.665   3.315   9.453  1.00  0.00     0.156 C 
HETATM   25  C14 UNL     1       0.250   2.785   9.264  1.00  0.00     0.032 C 
HETATM   26  O5  UNL     1       2.131   3.686   8.230  1.00  0.00    -0.383 OA
HETATM   27  C15 UNL     1      -0.192   3.577   8.077  1.00  0.00     0.034 C 
HETATM   28  C16 UNL     1       1.104   3.719   7.307  1.00  0.00     0.168 C 
BRANCH  23  29
HETATM   29  N1  UNL     1       2.278   4.333  11.578  1.00  0.00    -0.073 N 
ATOM     30  H13 UNL     1       2.704   5.189  11.933  1.00  0.00     0.274 HD
ATOM     31  H12 UNL     1       1.694   4.135  12.390  1.00  0.00     0.274 HD
ATOM     32  H11 UNL     1       2.956   3.597  11.379  1.00  0.00     0.274 HD
ENDBRANCH  23  29
ENDBRANCH   1  21
TORSDOF 9
ENDMDL
MODEL 3
REMARK VINA RESULT: -6.963511159      3.519      6.023
REMARK  9 active torsions:
REMARK  status: ('A' for Active; 'I' for Inactive)
REMARK    1  A    between atoms: N1_1  and  C1_5 
REMARK    2  A    between atoms: C3_7  and  C4_8 
REMARK       I    between atoms: C4_8  and  N2_10 
REMARK    3  A    between atoms: N2_10  and  C5_12 
REMARK    4  A    between atoms: C5_12  and  C6_13 
REMARK    5  A    between atoms: C5_12  and  C13_25 
REMARK    6  A    between atoms: C6_13  and  C7_14 
REMARK    7  A    between atoms: C9_16  and  C10_17 
REMARK    8  A    between atoms: C10_17  and  S1_18 
REMARK    9  A    between atoms: S1_18  and  C11_19 
ROOT
HETATM    1  C4  UNL     1      -5.302   7.171  10.630  1.00  0.00     0.223 C 
HETATM    2  O1  UNL     1      -6.143   6.919  11.569  1.00  0.00    -0.273 OA
HETATM    3  N2  UNL     1      -4.222   6.273  10.534  1.00  0.00    -0.346 N 
ATOM      4  H2  UNL     1      -3.516   6.411   9.810  1.00  0.00     0.163 HD
ENDROOT
BRANCH   3   5
HETATM    5  C5  UNL     1      -4.097   5.143  11.456  1.00  0.00     0.188 C 
BRANCH   5   6
HETATM    6  C6  UNL     1      -2.940   5.394  12.385  1.00  0.00     0.068 C 
BRANCH   6   7
HETATM    7  C7  UNL     1      -3.208   5.070  13.808  1.00  0.00     0.124 C 
HETATM    8  C8  UNL     1      -4.699   5.042  14.118  1.00  0.00     0.039 C 
HETATM    9  C9  UNL     1      -4.982   3.559  14.173  1.00  0.00     0.021 C 
HETATM   10  C12 UNL     1      -3.639   2.922  14.296  1.00  0.00     0.173 C 
HETATM   11  O2  UNL     1      -2.670   3.895  14.263  1.00  0.00    -0.385 OA
BRANCH   9  12
HETATM   12  C10 UNL     1      -5.881   3.225  15.357  1.00  0.00     0.089 C 
BRANCH  12  13
HETATM   13  S1  UNL     1      -5.174   1.955  16.420  1.00  0.00    -0.055 SA
BRANCH  13  14
HETATM   14  C11 UNL     1      -6.439   1.112  17.389  1.00  0.00     0.443 C 
HETATM   15  F1  UNL     1      -6.609   1.730  18.634  1.00  0.00    -0.160 F 
HETATM   16  F2  UNL     1      -7.635   1.028  16.735  1.00  0.00    -0.160 F 
HETATM   17  F3  UNL     1      -6.018  -0.190  17.700  1.00  0.00    -0.160 F 
ENDBRANCH  13  14
ENDBRANCH  12  13
ENDBRANCH   9  12
ENDBRANCH   6   7
ENDBRANCH   5   6
BRANCH   5  18
HETATM   18  C13 UNL     1      -4.035   3.875  10.719  1.00  0.00     0.196 C 
HETATM   19  O3  UNL     1      -3.006   3.688   9.986  1.00  0.00    -0.646 OA
HETATM   20  O4  UNL     1      -4.985   2.874  10.745  1.00  0.00    -0.646 OA
ENDBRANCH   5  18
ENDBRANCH   3   5
BRANCH   1  21
HETATM   21  C3  UNL     1      -5.513   8.322   9.763  1.00  0.00     0.086 C 
HETATM   22  C2  UNL     1      -6.039   9.563  10.429  1.00  0.00     0.050 C 
HETATM   23  C1  UNL     1      -6.239  10.480   9.238  1.00  0.00     0.213 C 
HETATM   24  C17 UNL     1      -6.387   9.571   8.027  1.00  0.00     0.156 C 
HETATM   25  C14 UNL     1      -6.407   8.158   8.596  1.00  0.00     0.032 C 
HETATM   26  O5  UNL     1      -7.586   9.786   7.421  1.00  0.00    -0.383 OA
HETATM   27  C15 UNL     1      -7.865   7.989   8.879  1.00  0.00     0.034 C 
HETATM   28  C16 UNL     1      -8.487   8.795   7.759  1.00  0.00     0.168 C 
BRANCH  23  29
HETATM   29  N1  UNL     1      -5.011  11.266   9.104  1.00  0.00    -0.073 N 
ATOM     30  H13 UNL     1      -5.013  11.882   8.291  1.00  0.00     0.274 HD
ATOM     31  H12 UNL     1      -4.917  11.992   9.814  1.00  0.00     0.274 HD
ATOM     32  H11 UNL     1      -4.238  10.600   9.104  1.00  0.00     0.274 HD
ENDBRANCH  23  29
ENDBRANCH   1  21
TORSDOF 9
ENDMDL
MODEL 4
REMARK VINA RESULT: -6.949100696      3.710      6.048
REMARK  9 active torsions:
REMARK  status: ('A' for Active; 'I' for Inactive)
REMARK    1  A    between atoms: N1_1  and  C1_5 
REMARK    2  A    between atoms: C3_7  and  C4_8 
REMARK       I    between atoms: C4_8  and  N2_10 
REMARK    3  A    between atoms: N2_10  and  C5_12 
REMARK    4  A    between atoms: C5_12  and  C6_13 
REMARK    5  A    between atoms: C5_12  and  C13_25 
REMARK    6  A    between atoms: C6_13  and  C7_14 
REMARK    7  A    between atoms: C9_16  and  C10_17 
REMARK    8  A    between atoms: C10_17  and  S1_18 
REMARK    9  A    between atoms: S1_18  and  C11_19 
ROOT
HETATM    1  C4  UNL     1      -5.805   7.124  10.449  1.00  0.00     0.223 C 
HETATM    2  O1  UNL     1      -6.488   6.970  11.527  1.00  0.00    -0.273 OA
HETATM    3  N2  UNL     1      -4.716   6.243  10.295  1.00  0.00    -0.346 N 
ATOM      4  H2  UNL     1      -4.130   6.308   9.462  1.00  0.00     0.163 HD
ENDROOT
BRANCH   3   5
HETATM    5  C5  UNL     1      -4.413   5.237  11.314  1.00  0.00     0.188 C 
BRANCH   5   6
HETATM    6  C6  UNL     1      -3.382   5.792  12.260  1.00  0.00     0.068 C 
BRANCH   6   7
HETATM    7  C7  UNL     1      -3.749   5.703  13.695  1.00  0.00     0.124 C 
HETATM    8  C8  UNL     1      -5.122   5.076  13.897  1.00  0.00     0.039 C 
HETATM    9  C9  UNL     1      -4.767   3.677  14.345  1.00  0.00     0.021 C 
HETATM   10  C12 UNL     1      -3.329   3.757  14.732  1.00  0.00     0.173 C 
HETATM   11  O2  UNL     1      -2.865   5.028  14.496  1.00  0.00    -0.385 OA
BRANCH   9  12
HETATM   12  C10 UNL     1      -5.647   3.244  15.510  1.00  0.00     0.089 C 
BRANCH  12  13
HETATM   13  S1  UNL     1      -5.042   1.748  16.309  1.00  0.00    -0.055 SA
BRANCH  13  14
HETATM   14  C11 UNL     1      -6.292   1.005  17.375  1.00  0.00     0.443 C 
HETATM   15  F1  UNL     1      -7.541   0.988  16.743  1.00  0.00    -0.160 F 
HETATM   16  F2  UNL     1      -5.952  -0.252  17.787  1.00  0.00    -0.160 F 
HETATM   17  F3  UNL     1      -6.486   1.801  18.514  1.00  0.00    -0.160 F 
ENDBRANCH  13  14
ENDBRANCH  12  13
ENDBRANCH   9  12
ENDBRANCH   6   7
ENDBRANCH   5   6
BRANCH   5  18
HETATM   18  C13 UNL     1      -4.054   3.957  10.689  1.00  0.00     0.196 C 
HETATM   19  O3  UNL     1      -4.884   2.997  10.834  1.00  0.00    -0.646 OA
HETATM   20  O4  UNL     1      -2.907   3.701   9.967  1.00  0.00    -0.646 OA
ENDBRANCH   5  18
ENDBRANCH   3   5
BRANCH   1  21
HETATM   21  C3  UNL     1      -6.186   8.156   9.495  1.00  0.00     0.086 C 
HETATM   22  C2  UNL     1      -5.386   8.207   8.223  1.00  0.00     0.050 C 
HETATM   23  C1  UNL     1      -5.967   9.437   7.553  1.00  0.00     0.213 C 
HETATM   24  C17 UNL     1      -6.570  10.279   8.668  1.00  0.00     0.156 C 
HETATM   25  C14 UNL     1      -6.182   9.563   9.955  1.00  0.00     0.032 C 
HETATM   26  O5  UNL     1      -5.990  11.510   8.693  1.00  0.00    -0.383 OA
HETATM   27  C15 UNL     1      -4.850  10.181  10.231  1.00  0.00     0.034 C 
HETATM   28  C16 UNL     1      -5.051  11.585   9.703  1.00  0.00     0.168 C 
BRANCH  23  29
HETATM   29  N1  UNL     1      -7.038   8.966   6.672  1.00  0.00    -0.073 N 
ATOM     30  H13 UNL     1      -6.796   9.013   5.683  1.00  0.00     0.274 HD
ATOM     31  H12 UNL     1      -7.187   7.958   6.721  1.00  0.00     0.274 HD
ATOM     32  H11 UNL     1      -7.869   9.508   6.909  1.00  0.00     0.274 HD
ENDBRANCH  23  29
ENDBRANCH   1  21
TORSDOF 9
ENDMDL
MODEL 5
REMARK VINA RESULT: -6.888984683      2.056      3.046
REMARK  9 active torsions:
REMARK  status: ('A' for Active; 'I' for Inactive)
REMARK    1  A    between atoms: N1_1  and  C1_5 
REMARK    2  A    between atoms: C3_7  and  C4_8 
REMARK       I    between atoms: C4_8  and  N2_10 
REMARK    3  A    between atoms: N2_10  and  C5_12 
REMARK    4  A    between atoms: C5_12  and  C6_13 
REMARK    5  A    between atoms: C5_12  and  C13_25 
REMARK    6  A    between atoms: C6_13  and  C7_14 
REMARK    7  A    between atoms: C9_16  and  C10_17 
REMARK    8  A    between atoms: C10_17  and  S1_18 
REMARK    9  A    between atoms: S1_18  and  C11_19 
ROOT
HETATM    1  C4  UNL     1      -1.472   2.651  10.634  1.00  0.00     0.223 C 
HETATM    2  O1  UNL     1      -2.434   3.199   9.981  1.00  0.00    -0.273 OA
HETATM    3  N2  UNL     1      -1.818   1.490  11.353  1.00  0.00    -0.346 N 
ATOM      4  H2  UNL     1      -1.103   1.002  11.894  1.00  0.00     0.163 HD
ENDROOT
BRANCH   3   5
HETATM    5  C5  UNL     1      -3.188   0.975  11.337  1.00  0.00     0.188 C 
BRANCH   5   6
HETATM    6  C6  UNL     1      -3.811   1.196  12.688  1.00  0.00     0.068 C 
BRANCH   6   7
HETATM    7  C7  UNL     1      -4.264   2.588  12.939  1.00  0.00     0.124 C 
HETATM    8  C8  UNL     1      -5.511   2.636  13.812  1.00  0.00     0.039 C 
HETATM    9  C9  UNL     1      -4.942   3.037  15.153  1.00  0.00     0.021 C 
HETATM   10  C12 UNL     1      -3.575   3.551  14.845  1.00  0.00     0.173 C 
HETATM   11  O2  UNL     1      -3.335   3.425  13.499  1.00  0.00    -0.385 OA
BRANCH   9  12
HETATM   12  C10 UNL     1      -5.814   4.097  15.815  1.00  0.00     0.089 C 
BRANCH  12  13
HETATM   13  S1  UNL     1      -6.919   3.401  17.054  1.00  0.00    -0.055 SA
BRANCH  13  14
HETATM   14  C11 UNL     1      -6.195   1.964  17.865  1.00  0.00     0.443 C 
HETATM   15  F1  UNL     1      -6.982   0.825  17.659  1.00  0.00    -0.160 F 
HETATM   16  F2  UNL     1      -4.908   1.728  17.470  1.00  0.00    -0.160 F 
HETATM   17  F3  UNL     1      -6.198   2.145  19.257  1.00  0.00    -0.160 F 
ENDBRANCH  13  14
ENDBRANCH  12  13
ENDBRANCH   9  12
ENDBRANCH   6   7
ENDBRANCH   5   6
BRANCH   5  18
HETATM   18  C13 UNL     1      -3.213  -0.415  10.864  1.00  0.00     0.196 C 
HETATM   19  O3  UNL     1      -2.884  -0.612   9.646  1.00  0.00    -0.646 OA
HETATM   20  O4  UNL     1      -3.562  -1.520  11.614  1.00  0.00    -0.646 OA
ENDBRANCH   5  18
ENDBRANCH   3   5
BRANCH   1  21
HETATM   21  C3  UNL     1      -0.142   3.241  10.589  1.00  0.00     0.086 C 
HETATM   22  C2  UNL     1      -0.083   4.742  10.647  1.00  0.00     0.050 C 
HETATM   23  C1  UNL     1       1.401   4.992  10.462  1.00  0.00     0.213 C 
HETATM   24  C17 UNL     1       1.950   3.761   9.755  1.00  0.00     0.156 C 
HETATM   25  C14 UNL     1       0.726   2.913   9.436  1.00  0.00     0.032 C 
HETATM   26  O5  UNL     1       2.524   4.115   8.574  1.00  0.00    -0.383 OA
HETATM   27  C15 UNL     1       0.331   3.477   8.110  1.00  0.00     0.034 C 
HETATM   28  C16 UNL     1       1.678   3.835   7.519  1.00  0.00     0.168 C 
BRANCH  23  29
HETATM   29  N1  UNL     1       1.982   5.077  11.803  1.00  0.00    -0.073 N 
ATOM     30  H13 UNL     1       1.947   6.016  12.199  1.00  0.00     0.274 HD
ATOM     31  H12 UNL     1       1.417   4.617  12.517  1.00  0.00     0.274 HD
ATOM     32  H11 UNL     1       2.928   4.702  11.735  1.00  0.00     0.274 HD
ENDBRANCH  23  29
ENDBRANCH   1  21
TORSDOF 9
ENDMDL
