MODEL 1
REMARK VINA RESULT: -7.010502466      0.000      0.000
REMARK  11 active torsions:
REMARK  status: ('A' for Active; 'I' for Inactive)
REMARK    1  A    between atoms: C2_2  and  C4_4 
REMARK    2  A    between atoms: C4_4  and  O1_5 
REMARK    3  A    between atoms: C4_4  and  C5_7 
REMARK    4  A    between atoms: C4_4  and  C18_29 
REMARK    5  A    between atoms: C5_7  and  N1_8 
REMARK    6  A    between atoms: C5_7  and  C11_17 
REMARK       I    between atoms: N1_8  and  C6_10 
REMARK    7  A    between atoms: C6_10  and  O3_12 
REMARK    8  A    between atoms: O3_12  and  C7_13 
REMARK       I    between atoms: C11_17  and  N2_19 
REMARK    9  A    between atoms: N2_19  and  C12_21 
REMARK   10  A    between atoms: C12_21  and  C13_22 
REMARK   11  A    between atoms: C13_22  and  N3_23 
ROOT
HETATM    1  C5  UNL     1      -3.636   4.976  11.328  1.00  0.00     0.126 C 
ENDROOT
BRANCH   1   2
HETATM    2  C4  UNL     1      -4.267   5.930  10.439  1.00  0.00     0.206 C 
BRANCH   2   3
HETATM    3  C2  UNL     1      -3.483   6.240   9.189  1.00  0.00     0.027 C 
HETATM    4  C1  UNL     1      -2.011   6.475   9.334  1.00  0.00     0.013 C 
HETATM    5  C3  UNL     1      -3.725   5.459   7.965  1.00  0.00     0.013 C 
ENDBRANCH   2   3
BRANCH   2   6
HETATM    6  O1  UNL     1      -5.527   5.493  10.036  1.00  0.00    -0.375 OA
ATOM      7  H1  UNL     1      -5.586   4.570  10.254  1.00  0.00     0.211 HD
ENDBRANCH   2   6
BRANCH   2   8
HETATM    8  C18 UNL     1      -4.655   7.262  11.105  1.00  0.00     0.424 C 
HETATM    9  F1  UNL     1      -5.145   8.084  10.090  1.00  0.00    -0.167 F 
HETATM   10  F2  UNL     1      -5.770   7.056  11.877  1.00  0.00    -0.167 F 
HETATM   11  F3  UNL     1      -3.698   7.872  11.812  1.00  0.00    -0.167 F 
ENDBRANCH   2   8
ENDBRANCH   1   2
BRANCH   1  12
HETATM   12  N1  UNL     1      -3.321   3.615  10.944  1.00  0.00    -0.298 N 
HETATM   13  C6  UNL     1      -4.225   2.541  10.809  1.00  0.00     0.365 C 
HETATM   14  O2  UNL     1      -5.401   2.610  11.087  1.00  0.00    -0.238 OA
ATOM     15  H1  UNL     1      -2.340   3.412  10.752  1.00  0.00     0.171 HD
BRANCH  13  16
HETATM   16  O3  UNL     1      -3.694   1.341  10.297  1.00  0.00    -0.294 OA
BRANCH  16  17
HETATM   17  C7  UNL     1      -2.911   0.420  10.915  1.00  0.00     0.061 C 
HETATM   18  C8  UNL     1      -3.474  -0.099  12.250  1.00  0.00     0.046 C 
HETATM   19  C9  UNL     1      -3.055  -0.865  10.016  1.00  0.00     0.046 C 
HETATM   20  C10 UNL     1      -1.453   0.609  11.067  1.00  0.00     0.046 C 
ENDBRANCH  16  17
ENDBRANCH  13  16
ENDBRANCH   1  12
BRANCH   1  21
HETATM   21  C11 UNL     1      -3.654   5.045  12.819  1.00  0.00     0.267 C 
HETATM   22  O4  UNL     1      -2.695   5.489  13.499  1.00  0.00    -0.266 OA
HETATM   23  N2  UNL     1      -4.758   4.578  13.554  1.00  0.00    -0.354 N 
ATOM     24  H2  UNL     1      -5.534   4.210  13.003  1.00  0.00     0.162 HD
BRANCH  23  25
HETATM   25  C12 UNL     1      -4.933   4.551  14.956  1.00  0.00     0.153 C 
BRANCH  25  26
HETATM   26  C13 UNL     1      -6.077   3.764  15.480  1.00  0.00     0.292 C 
BRANCH  26  27
HETATM   27  N3  UNL     1      -5.590   2.547  16.142  1.00  0.00     0.094 N 
HETATM   28  C14 UNL     1      -6.695   1.816  16.750  1.00  0.00     0.298 C 
HETATM   29  C15 UNL     1      -6.177   0.508  17.312  1.00  0.00     0.198 C 
HETATM   30  O5  UNL     1      -5.424  -0.194  16.388  1.00  0.00    -0.388 OA
HETATM   31  C16 UNL     1      -4.395   0.526  15.814  1.00  0.00     0.198 C 
HETATM   32  C17 UNL     1      -5.015   1.706  15.091  1.00  0.00     0.298 C 
ENDBRANCH  26  27
ENDBRANCH  25  26
ENDBRANCH  23  25
ENDBRANCH   1  21
TORSDOF 11
ENDMDL
MODEL 2
REMARK VINA RESULT: -6.948483649      3.143      6.642
REMARK  11 active torsions:
REMARK  status: ('A' for Active; 'I' for Inactive)
REMARK    1  A    between atoms: C2_2  and  C4_4 
REMARK    2  A    between atoms: C4_4  and  O1_5 
REMARK    3  A    between atoms: C4_4  and  C5_7 
REMARK    4  A    between atoms: C4_4  and  C18_29 
REMARK    5  A    between atoms: C5_7  and  N1_8 
REMARK    6  A    between atoms: C5_7  and  C11_17 
REMARK       I    between atoms: N1_8  and  C6_10 
REMARK    7  A    between atoms: C6_10  and  O3_12 
REMARK    8  A    between atoms: O3_12  and  C7_13 
REMARK       I    between atoms: C11_17  and  N2_19 
REMARK    9  A    between atoms: N2_19  and  C12_21 
REMARK   10  A    between atoms: C12_21  and  C13_22 
REMARK   11  A    between atoms: C13_22  and  N3_23 
ROOT
HETATM    1  C5  UNL     1      -3.864   1.979  13.382  1.00  0.00     0.126 C 
ENDROOT
BRANCH   1   2
HETATM    2  C4  UNL     1      -3.720   1.210  12.163  1.00  0.00     0.206 C 
BRANCH   2   3
HETATM    3  C2  UNL     1      -2.304   1.077  11.665  1.00  0.00     0.027 C 
HETATM    4  C1  UNL     1      -1.964  -0.135  10.854  1.00  0.00     0.013 C 
HETATM    5  C3  UNL     1      -1.623   2.247  11.084  1.00  0.00     0.013 C 
ENDBRANCH   2   3
BRANCH   2   6
HETATM    6  O1  UNL     1      -4.225  -0.080  12.313  1.00  0.00    -0.375 OA
ATOM      7  H1  UNL     1      -4.330  -0.233  13.245  1.00  0.00     0.211 HD
ENDBRANCH   2   6
BRANCH   2   8
HETATM    8  C18 UNL     1      -4.596   1.696  10.995  1.00  0.00     0.424 C 
HETATM    9  F1  UNL     1      -4.753   0.607  10.138  1.00  0.00    -0.167 F 
HETATM   10  F2  UNL     1      -5.873   1.889  11.458  1.00  0.00    -0.167 F 
HETATM   11  F3  UNL     1      -4.163   2.778  10.341  1.00  0.00    -0.167 F 
ENDBRANCH   2   8
ENDBRANCH   1   2
BRANCH   1  12
HETATM   12  N1  UNL     1      -4.551   1.488  14.559  1.00  0.00    -0.298 N 
HETATM   13  C6  UNL     1      -4.105   1.566  15.896  1.00  0.00     0.365 C 
HETATM   14  O2  UNL     1      -3.021   1.994  16.221  1.00  0.00    -0.238 OA
ATOM     15  H1  UNL     1      -5.453   1.037  14.406  1.00  0.00     0.171 HD
BRANCH  13  16
HETATM   16  O3  UNL     1      -5.012   1.132  16.881  1.00  0.00    -0.294 OA
BRANCH  16  17
HETATM   17  C7  UNL     1      -6.054   1.801  17.439  1.00  0.00     0.061 C 
HETATM   18  C8  UNL     1      -6.436   3.102  16.711  1.00  0.00     0.046 C 
HETATM   19  C9  UNL     1      -7.304   0.901  17.108  1.00  0.00     0.046 C 
HETATM   20  C10 UNL     1      -6.140   2.040  18.895  1.00  0.00     0.046 C 
ENDBRANCH  16  17
ENDBRANCH  13  16
ENDBRANCH   1  12
BRANCH   1  21
HETATM   21  C11 UNL     1      -3.788   3.467  13.476  1.00  0.00     0.267 C 
HETATM   22  O4  UNL     1      -4.744   4.225  13.177  1.00  0.00    -0.266 OA
HETATM   23  N2  UNL     1      -2.606   4.108  13.887  1.00  0.00    -0.354 N 
ATOM     24  H2  UNL     1      -1.827   3.494  14.123  1.00  0.00     0.162 HD
BRANCH  23  25
HETATM   25  C12 UNL     1      -2.357   5.494  14.014  1.00  0.00     0.153 C 
BRANCH  25  26
HETATM   26  C13 UNL     1      -1.551   6.136  12.945  1.00  0.00     0.292 C 
BRANCH  26  27
HETATM   27  N3  UNL     1      -1.084   7.456  13.392  1.00  0.00     0.094 N 
HETATM   28  C14 UNL     1      -1.491   8.490  12.448  1.00  0.00     0.298 C 
HETATM   29  C15 UNL     1      -1.106   9.847  13.000  1.00  0.00     0.198 C 
HETATM   30  O5  UNL     1      -1.531  10.018  14.305  1.00  0.00    -0.388 OA
HETATM   31  C16 UNL     1      -1.149   9.016  15.175  1.00  0.00     0.198 C 
HETATM   32  C17 UNL     1      -1.751   7.720  14.668  1.00  0.00     0.298 C 
ENDBRANCH  26  27
ENDBRANCH  25  26
ENDBRANCH  23  25
ENDBRANCH   1  21
TORSDOF 11
ENDMDL
MODEL 3
REMARK VINA RESULT: -6.854982578      2.402      4.833
REMARK  11 active torsions:
REMARK  status: ('A' for Active; 'I' for Inactive)
REMARK    1  A    between atoms: C2_2  and  C4_4 
REMARK    2  A    between atoms: C4_4  and  O1_5 
REMARK    3  A    between atoms: C4_4  and  C5_7 
REMARK    4  A    between atoms: C4_4  and  C18_29 
REMARK    5  A    between atoms: C5_7  and  N1_8 
REMARK    6  A    between atoms: C5_7  and  C11_17 
REMARK       I    between atoms: N1_8  and  C6_10 
REMARK    7  A    between atoms: C6_10  and  O3_12 
REMARK    8  A    between atoms: O3_12  and  C7_13 
REMARK       I    between atoms: C11_17  and  N2_19 
REMARK    9  A    between atoms: N2_19  and  C12_21 
REMARK   10  A    between atoms: C12_21  and  C13_22 
REMARK   11  A    between atoms: C13_22  and  N3_23 
ROOT
HETATM    1  C5  UNL     1      -2.752   4.248  11.593  1.00  0.00     0.126 C 
ENDROOT
BRANCH   1   2
HETATM    2  C4  UNL     1      -1.799   3.383  10.929  1.00  0.00     0.206 C 
BRANCH   2   3
HETATM    3  C2  UNL     1      -1.996   1.911  11.189  1.00  0.00     0.027 C 
HETATM    4  C1  UNL     1      -3.390   1.435  11.456  1.00  0.00     0.013 C 
HETATM    5  C3  UNL     1      -1.306   0.923  10.343  1.00  0.00     0.013 C 
ENDBRANCH   2   3
BRANCH   2   6
HETATM    6  O1  UNL     1      -1.825   3.563   9.547  1.00  0.00    -0.375 OA
ATOM      7  H1  UNL     1      -0.941   3.781   9.276  1.00  0.00     0.211 HD
ENDBRANCH   2   6
BRANCH   2   8
HETATM    8  C18 UNL     1      -0.325   3.727  11.206  1.00  0.00     0.424 C 
HETATM    9  F1  UNL     1       0.148   2.755  12.089  1.00  0.00    -0.167 F 
HETATM   10  F2  UNL     1       0.404   3.471  10.073  1.00  0.00    -0.167 F 
HETATM   11  F3  UNL     1      -0.079   4.961  11.657  1.00  0.00    -0.167 F 
ENDBRANCH   2   8
ENDBRANCH   1   2
BRANCH   1  12
HETATM   12  N1  UNL     1      -3.203   5.510  11.042  1.00  0.00    -0.298 N 
HETATM   13  C6  UNL     1      -4.475   5.793  10.499  1.00  0.00     0.365 C 
HETATM   14  O2  UNL     1      -5.343   4.963  10.348  1.00  0.00    -0.238 OA
ATOM     15  H1  UNL     1      -2.530   6.276  11.047  1.00  0.00     0.171 HD
BRANCH  13  16
HETATM   16  O3  UNL     1      -4.716   7.134  10.145  1.00  0.00    -0.294 OA
BRANCH  16  17
HETATM   17  C7  UNL     1      -5.886   7.824  10.153  1.00  0.00     0.061 C 
HETATM   18  C8  UNL     1      -6.712   7.656  11.441  1.00  0.00     0.046 C 
HETATM   19  C9  UNL     1      -5.438   9.328  10.285  1.00  0.00     0.046 C 
HETATM   20  C10 UNL     1      -6.812   7.809   9.001  1.00  0.00     0.046 C 
ENDBRANCH  16  17
ENDBRANCH  13  16
ENDBRANCH   1  12
BRANCH   1  21
HETATM   21  C11 UNL     1      -3.035   4.255  13.058  1.00  0.00     0.267 C 
HETATM   22  O4  UNL     1      -2.168   3.989  13.928  1.00  0.00    -0.266 OA
HETATM   23  N2  UNL     1      -4.324   4.536  13.547  1.00  0.00    -0.354 N 
ATOM     24  H2  UNL     1      -5.030   4.745  12.841  1.00  0.00     0.162 HD
BRANCH  23  25
HETATM   25  C12 UNL     1      -4.767   4.567  14.889  1.00  0.00     0.153 C 
BRANCH  25  26
HETATM   26  C13 UNL     1      -5.929   3.711  15.237  1.00  0.00     0.292 C 
BRANCH  26  27
HETATM   27  N3  UNL     1      -5.476   2.524  15.974  1.00  0.00     0.094 N 
HETATM   28  C14 UNL     1      -6.598   1.878  16.644  1.00  0.00     0.298 C 
HETATM   29  C15 UNL     1      -6.120   0.592  17.287  1.00  0.00     0.198 C 
HETATM   30  O5  UNL     1      -5.407  -0.198  16.403  1.00  0.00    -0.388 OA
HETATM   31  C16 UNL     1      -4.362   0.442  15.769  1.00  0.00     0.198 C 
HETATM   32  C17 UNL     1      -4.949   1.593  14.975  1.00  0.00     0.298 C 
ENDBRANCH  26  27
ENDBRANCH  25  26
ENDBRANCH  23  25
ENDBRANCH   1  21
TORSDOF 11
ENDMDL
MODEL 4
REMARK VINA RESULT: -6.841001870      2.632      4.700
REMARK  11 active torsions:
REMARK  status: ('A' for Active; 'I' for Inactive)
REMARK    1  A    between atoms: C2_2  and  C4_4 
REMARK    2  A    between atoms: C4_4  and  O1_5 
REMARK    3  A    between atoms: C4_4  and  C5_7 
REMARK    4  A    between atoms: C4_4  and  C18_29 
REMARK    5  A    between atoms: C5_7  and  N1_8 
REMARK    6  A    between atoms: C5_7  and  C11_17 
REMARK       I    between atoms: N1_8  and  C6_10 
REMARK    7  A    between atoms: C6_10  and  O3_12 
REMARK    8  A    between atoms: O3_12  and  C7_13 
REMARK       I    between atoms: C11_17  and  N2_19 
REMARK    9  A    between atoms: N2_19  and  C12_21 
REMARK   10  A    between atoms: C12_21  and  C13_22 
REMARK   11  A    between atoms: C13_22  and  N3_23 
ROOT
HETATM    1  C5  UNL     1      -2.509   4.722  12.115  1.00  0.00     0.126 C 
ENDROOT
BRANCH   1   2
HETATM    2  C4  UNL     1      -1.287   4.109  11.636  1.00  0.00     0.206 C 
BRANCH   2   3
HETATM    3  C2  UNL     1      -0.171   5.079  11.336  1.00  0.00     0.027 C 
HETATM    4  C1  UNL     1      -0.006   6.250  12.254  1.00  0.00     0.013 C 
HETATM    5  C3  UNL     1       1.159   4.567  10.968  1.00  0.00     0.013 C 
ENDBRANCH   2   3
BRANCH   2   6
HETATM    6  O1  UNL     1      -0.790   3.182  12.551  1.00  0.00    -0.375 OA
ATOM      7  H1  UNL     1      -1.458   2.516  12.664  1.00  0.00     0.211 HD
ENDBRANCH   2   6
BRANCH   2   8
HETATM    8  C18 UNL     1      -1.469   3.194  10.413  1.00  0.00     0.424 C 
HETATM    9  F1  UNL     1      -2.773   2.703  10.477  1.00  0.00    -0.167 F 
HETATM   10  F2  UNL     1      -1.506   3.975   9.285  1.00  0.00    -0.167 F 
HETATM   11  F3  UNL     1      -0.578   2.207  10.274  1.00  0.00    -0.167 F 
ENDBRANCH   2   8
ENDBRANCH   1   2
BRANCH   1  12
HETATM   12  N1  UNL     1      -3.104   5.895  11.508  1.00  0.00    -0.298 N 
HETATM   13  C6  UNL     1      -4.305   5.950  10.767  1.00  0.00     0.365 C 
HETATM   14  O2  UNL     1      -4.959   4.977  10.471  1.00  0.00    -0.238 OA
ATOM     15  H1  UNL     1      -2.602   6.775  11.628  1.00  0.00     0.171 HD
BRANCH  13  16
HETATM   16  O3  UNL     1      -4.743   7.233  10.389  1.00  0.00    -0.294 OA
BRANCH  16  17
HETATM   17  C7  UNL     1      -6.011   7.711  10.296  1.00  0.00     0.061 C 
HETATM   18  C8  UNL     1      -6.838   7.571  11.586  1.00  0.00     0.046 C 
HETATM   19  C9  UNL     1      -5.824   9.274  10.236  1.00  0.00     0.046 C 
HETATM   20  C10 UNL     1      -6.885   7.394   9.147  1.00  0.00     0.046 C 
ENDBRANCH  16  17
ENDBRANCH  13  16
ENDBRANCH   1  12
BRANCH   1  21
HETATM   21  C11 UNL     1      -3.058   4.586  13.496  1.00  0.00     0.267 C 
HETATM   22  O4  UNL     1      -2.371   4.201  14.475  1.00  0.00    -0.266 OA
HETATM   23  N2  UNL     1      -4.410   4.860  13.770  1.00  0.00    -0.354 N 
ATOM     24  H2  UNL     1      -4.970   5.166  12.974  1.00  0.00     0.162 HD
BRANCH  23  25
HETATM   25  C12 UNL     1      -5.093   4.767  15.004  1.00  0.00     0.153 C 
BRANCH  25  26
HETATM   26  C13 UNL     1      -6.088   3.675  15.144  1.00  0.00     0.292 C 
BRANCH  26  27
HETATM   27  N3  UNL     1      -5.530   2.587  15.959  1.00  0.00     0.094 N 
HETATM   28  C14 UNL     1      -6.590   1.880  16.667  1.00  0.00     0.298 C 
HETATM   29  C15 UNL     1      -5.997   0.691  17.394  1.00  0.00     0.198 C 
HETATM   30  O5  UNL     1      -5.202  -0.081  16.565  1.00  0.00    -0.388 OA
HETATM   31  C16 UNL     1      -4.218   0.614  15.893  1.00  0.00     0.198 C 
HETATM   32  C17 UNL     1      -4.906   1.650  15.024  1.00  0.00     0.298 C 
ENDBRANCH  26  27
ENDBRANCH  25  26
ENDBRANCH  23  25
ENDBRANCH   1  21
TORSDOF 11
ENDMDL
MODEL 5
REMARK VINA RESULT: -6.807820366      2.587      4.661
REMARK  11 active torsions:
REMARK  status: ('A' for Active; 'I' for Inactive)
REMARK    1  A    between atoms: C2_2  and  C4_4 
REMARK    2  A    between atoms: C4_4  and  O1_5 
REMARK    3  A    between atoms: C4_4  and  C5_7 
REMARK    4  A    between atoms: C4_4  and  C18_29 
REMARK    5  A    between atoms: C5_7  and  N1_8 
REMARK    6  A    between atoms: C5_7  and  C11_17 
REMARK       I    between atoms: N1_8  and  C6_10 
REMARK    7  A    between atoms: C6_10  and  O3_12 
REMARK    8  A    between atoms: O3_12  and  C7_13 
REMARK       I    between atoms: C11_17  and  N2_19 
REMARK    9  A    between atoms: N2_19  and  C12_21 
REMARK   10  A    between atoms: C12_21  and  C13_22 
REMARK   11  A    between atoms: C13_22  and  N3_23 
ROOT
HETATM    1  C5  UNL     1      -2.807   4.543  12.137  1.00  0.00     0.126 C 
ENDROOT
BRANCH   1   2
HETATM    2  C4  UNL     1      -1.705   3.819  11.538  1.00  0.00     0.206 C 
BRANCH   2   3
HETATM    3  C2  UNL     1      -0.964   4.576  10.465  1.00  0.00     0.027 C 
HETATM    4  C1  UNL     1       0.532   4.504  10.473  1.00  0.00     0.013 C 
HETATM    5  C3  UNL     1      -1.438   4.517   9.072  1.00  0.00     0.013 C 
ENDBRANCH   2   3
BRANCH   2   6
HETATM    6  O1  UNL     1      -0.767   3.437  12.494  1.00  0.00    -0.375 OA
ATOM      7  H1  UNL     1      -0.896   3.996  13.252  1.00  0.00     0.211 HD
ENDBRANCH   2   6
BRANCH   2   8
HETATM    8  C18 UNL     1      -2.081   2.437  10.977  1.00  0.00     0.424 C 
HETATM    9  F1  UNL     1      -2.335   1.619  12.079  1.00  0.00    -0.167 F 
HETATM   10  F2  UNL     1      -3.317   2.525  10.389  1.00  0.00    -0.167 F 
HETATM   11  F3  UNL     1      -1.200   1.876  10.142  1.00  0.00    -0.167 F 
ENDBRANCH   2   8
ENDBRANCH   1   2
BRANCH   1  12
HETATM   12  N1  UNL     1      -3.325   5.789  11.609  1.00  0.00    -0.298 N 
HETATM   13  C6  UNL     1      -4.449   5.953  10.771  1.00  0.00     0.365 C 
HETATM   14  O2  UNL     1      -5.087   5.033  10.311  1.00  0.00    -0.238 OA
ATOM     15  H1  UNL     1      -2.824   6.638  11.870  1.00  0.00     0.171 HD
BRANCH  13  16
HETATM   16  O3  UNL     1      -4.831   7.279  10.496  1.00  0.00    -0.294 OA
BRANCH  16  17
HETATM   17  C7  UNL     1      -6.078   7.804  10.378  1.00  0.00     0.061 C 
HETATM   18  C8  UNL     1      -6.954   7.646  11.634  1.00  0.00     0.046 C 
HETATM   19  C9  UNL     1      -5.837   9.360  10.381  1.00  0.00     0.046 C 
HETATM   20  C10 UNL     1      -6.922   7.558   9.189  1.00  0.00     0.046 C 
ENDBRANCH  16  17
ENDBRANCH  13  16
ENDBRANCH   1  12
BRANCH   1  21
HETATM   21  C11 UNL     1      -3.242   4.427  13.561  1.00  0.00     0.267 C 
HETATM   22  O4  UNL     1      -2.491   4.011  14.478  1.00  0.00    -0.266 OA
HETATM   23  N2  UNL     1      -4.553   4.759  13.948  1.00  0.00    -0.354 N 
ATOM     24  H2  UNL     1      -5.165   5.090  13.203  1.00  0.00     0.162 HD
BRANCH  23  25
HETATM   25  C12 UNL     1      -5.132   4.692  15.236  1.00  0.00     0.153 C 
BRANCH  25  26
HETATM   26  C13 UNL     1      -6.194   3.676  15.447  1.00  0.00     0.292 C 
BRANCH  26  27
HETATM   27  N3  UNL     1      -5.632   2.490  16.106  1.00  0.00     0.094 N 
HETATM   28  C14 UNL     1      -6.676   1.745  16.799  1.00  0.00     0.298 C 
HETATM   29  C15 UNL     1      -6.087   0.466  17.357  1.00  0.00     0.198 C 
HETATM   30  O5  UNL     1      -5.372  -0.238  16.405  1.00  0.00    -0.388 OA
HETATM   31  C16 UNL     1      -4.403   0.494  15.751  1.00  0.00     0.198 C 
HETATM   32  C17 UNL     1      -5.100   1.639  15.040  1.00  0.00     0.298 C 
ENDBRANCH  26  27
ENDBRANCH  25  26
ENDBRANCH  23  25
ENDBRANCH   1  21
TORSDOF 11
ENDMDL
