MODEL 1
REMARK VINA RESULT: -8.936972998      0.000      0.000
REMARK  10 active torsions:
REMARK  status: ('A' for Active; 'I' for Inactive)
REMARK    1  A    between atoms: N2_6  and  C5_7 
REMARK    2  A    between atoms: N3_10  and  C8_11 
REMARK    3  A    between atoms: C8_11  and  C9_12 
REMARK    4  A    between atoms: C9_12  and  C10_13 
REMARK    5  A    between atoms: C9_12  and  C13_22 
REMARK       I    between atoms: C10_13  and  N4_15 
REMARK    6  A    between atoms: N4_15  and  C11_17 
REMARK    7  A    between atoms: C11_17  and  C12_18 
REMARK    8  A    between atoms: C18_27  and  C19_28 
REMARK    9  A    between atoms: C19_28  and  O2_29 
REMARK   10  A    between atoms: N5_31  and  O3_33 
ROOT
HETATM    1  N1  UNL     1      -0.591   2.820   8.900  1.00  0.00    -0.197 NA
HETATM    2  C1  UNL     1      -0.721   3.205   9.982  1.00  0.00     0.067 C 
HETATM    3  C2  UNL     1      -0.857   3.694  11.338  1.00  0.00     0.128 C 
HETATM    4  C3  UNL     1      -0.050   4.961  11.542  1.00  0.00     0.066 C 
HETATM    5  C4  UNL     1      -1.063   6.006  11.973  1.00  0.00     0.061 C 
HETATM    6  N2  UNL     1      -2.302   5.381  12.118  1.00  0.00    -0.375 N 
HETATM    7  C18 UNL     1      -2.295   4.073  11.601  1.00  0.00     0.178 C 
ENDROOT
BRANCH   7   8
HETATM    8  C19 UNL     1      -3.166   3.986  10.411  1.00  0.00     0.160 C 
HETATM    9  N5  UNL     1      -2.959   4.789   9.434  1.00  0.00    -0.249 N 
ATOM     10  H5  UNL     1      -2.190   5.450   9.543  1.00  0.00     0.196 HD
BRANCH   8  11
HETATM   11  O2  UNL     1      -4.197   3.076  10.303  1.00  0.00    -0.347 OA
ATOM     12  H2  UNL     1      -4.060   2.137  10.331  1.00  0.00     0.219 HD
ENDBRANCH   8  11
BRANCH   9  13
HETATM   13  O3  UNL     1      -3.652   4.855   8.271  1.00  0.00    -0.288 OA
ATOM     14  H3  UNL     1      -4.266   5.532   8.008  1.00  0.00     0.244 HD
ENDBRANCH   9  13
ENDBRANCH   7   8
BRANCH   6  15
HETATM   15  C5  UNL     1      -3.173   5.725  13.164  1.00  0.00     0.087 C 
HETATM   16  C6  UNL     1      -2.765   5.038  14.442  1.00  0.00     0.055 C 
HETATM   17  C7  UNL     1      -3.406   3.750  14.729  1.00  0.00     0.274 C 
HETATM   18  N3  UNL     1      -4.857   3.701  14.320  1.00  0.00     0.089 N 
HETATM   19  C16 UNL     1      -5.293   5.023  14.171  1.00  0.00     0.274 C 
HETATM   20  C17 UNL     1      -4.623   5.557  12.875  1.00  0.00     0.055 C 
BRANCH  18  21
HETATM   21  C8  UNL     1      -5.494   2.745  15.117  1.00  0.00     0.286 C 
BRANCH  21  22
HETATM   22  C9  UNL     1      -4.708   1.702  15.781  1.00  0.00     0.110 C 
BRANCH  22  23
HETATM   23  C10 UNL     1      -4.468   0.484  15.012  1.00  0.00     0.224 C 
HETATM   24  O1  UNL     1      -4.606  -0.631  15.557  1.00  0.00    -0.273 OA
HETATM   25  N4  UNL     1      -4.091   0.593  13.655  1.00  0.00    -0.352 N 
ATOM     26  H4  UNL     1      -3.997   1.531  13.266  1.00  0.00     0.162 HD
BRANCH  25  27
HETATM   27  C11 UNL     1      -3.834  -0.498  12.796  1.00  0.00     0.239 C 
BRANCH  27  28
HETATM   28  C12 UNL     1      -3.474  -0.253  11.376  1.00  0.00     0.403 C 
HETATM   29  F1  UNL     1      -4.624   0.025  10.619  1.00  0.00    -0.169 F 
HETATM   30  F2  UNL     1      -2.983  -1.453  10.794  1.00  0.00    -0.169 F 
HETATM   31  F3  UNL     1      -2.492   0.667  11.196  1.00  0.00    -0.169 F 
ENDBRANCH  27  28
ENDBRANCH  25  27
ENDBRANCH  22  23
BRANCH  22  32
HETATM   32  C13 UNL     1      -5.411   1.276  17.089  1.00  0.00     0.000 A 
HETATM   33  C14 UNL     1      -6.895   1.291  17.080  1.00  0.00     0.006 A 
HETATM   34  C15 UNL     1      -6.155   2.335  17.834  1.00  0.00     0.006 A 
ENDBRANCH  22  32
ENDBRANCH  21  22
ENDBRANCH  18  21
ENDBRANCH   6  15
TORSDOF 10
ENDMDL
MODEL 2
REMARK VINA RESULT: -8.574797910      2.168      2.677
REMARK  10 active torsions:
REMARK  status: ('A' for Active; 'I' for Inactive)
REMARK    1  A    between atoms: N2_6  and  C5_7 
REMARK    2  A    between atoms: N3_10  and  C8_11 
REMARK    3  A    between atoms: C8_11  and  C9_12 
REMARK    4  A    between atoms: C9_12  and  C10_13 
REMARK    5  A    between atoms: C9_12  and  C13_22 
REMARK       I    between atoms: C10_13  and  N4_15 
REMARK    6  A    between atoms: N4_15  and  C11_17 
REMARK    7  A    between atoms: C11_17  and  C12_18 
REMARK    8  A    between atoms: C18_27  and  C19_28 
REMARK    9  A    between atoms: C19_28  and  O2_29 
REMARK   10  A    between atoms: N5_31  and  O3_33 
ROOT
HETATM    1  N1  UNL     1       2.307   3.178   8.984  1.00  0.00    -0.197 NA
HETATM    2  C1  UNL     1       1.195   3.284   9.282  1.00  0.00     0.067 C 
HETATM    3  C2  UNL     1      -0.201   3.389   9.650  1.00  0.00     0.128 C 
HETATM    4  C3  UNL     1      -0.649   2.175  10.438  1.00  0.00     0.066 C 
HETATM    5  C4  UNL     1      -1.141   2.725  11.764  1.00  0.00     0.061 C 
HETATM    6  N2  UNL     1      -1.094   4.119  11.702  1.00  0.00    -0.375 N 
HETATM    7  C18 UNL     1      -0.398   4.572  10.567  1.00  0.00     0.178 C 
ENDROOT
BRANCH   7   8
HETATM    8  C19 UNL     1       0.859   5.238  10.968  1.00  0.00     0.160 C 
HETATM    9  N5  UNL     1       1.608   4.670  11.839  1.00  0.00    -0.249 N 
ATOM     10  H5  UNL     1       1.281   3.777  12.208  1.00  0.00     0.196 HD
BRANCH   8  11
HETATM   11  O2  UNL     1       1.265   6.447  10.444  1.00  0.00    -0.347 OA
ATOM     12  H2  UNL     1       1.673   7.125  10.969  1.00  0.00     0.219 HD
ENDBRANCH   8  11
BRANCH   9  13
HETATM   13  O3  UNL     1       2.788   5.129  12.324  1.00  0.00    -0.288 OA
ATOM     14  H3  UNL     1       3.250   4.817  13.093  1.00  0.00     0.244 HD
ENDBRANCH   9  13
ENDBRANCH   7   8
BRANCH   6  15
HETATM   15  C5  UNL     1      -2.104   4.907  12.277  1.00  0.00     0.087 C 
HETATM   16  C6  UNL     1      -2.000   4.891  13.780  1.00  0.00     0.055 C 
HETATM   17  C7  UNL     1      -2.798   3.882  14.483  1.00  0.00     0.274 C 
HETATM   18  N3  UNL     1      -4.150   3.646  13.856  1.00  0.00     0.089 N 
HETATM   19  C16 UNL     1      -4.427   4.748  13.038  1.00  0.00     0.274 C 
HETATM   20  C17 UNL     1      -3.488   4.623  11.808  1.00  0.00     0.055 C 
BRANCH  18  21
HETATM   21  C8  UNL     1      -5.007   3.167  14.852  1.00  0.00     0.286 C 
BRANCH  21  22
HETATM   22  C9  UNL     1      -4.705   1.906  15.534  1.00  0.00     0.110 C 
BRANCH  22  23
HETATM   23  C10 UNL     1      -4.418   0.759  14.678  1.00  0.00     0.224 C 
HETATM   24  O1  UNL     1      -4.461  -0.395  15.152  1.00  0.00    -0.273 OA
HETATM   25  N4  UNL     1      -4.105   0.980  13.318  1.00  0.00    -0.352 N 
ATOM     26  H4  UNL     1      -4.088   1.945  12.989  1.00  0.00     0.162 HD
BRANCH  25  27
HETATM   27  C11 UNL     1      -3.813  -0.035  12.380  1.00  0.00     0.239 C 
BRANCH  27  28
HETATM   28  C12 UNL     1      -3.902   0.256  10.926  1.00  0.00     0.403 C 
HETATM   29  F1  UNL     1      -4.056   1.635  10.708  1.00  0.00    -0.169 F 
HETATM   30  F2  UNL     1      -5.105  -0.292  10.402  1.00  0.00    -0.169 F 
HETATM   31  F3  UNL     1      -2.903  -0.286  10.182  1.00  0.00    -0.169 F 
ENDBRANCH  27  28
ENDBRANCH  25  27
ENDBRANCH  22  23
BRANCH  22  32
HETATM   32  C13 UNL     1      -5.894   1.507  16.437  1.00  0.00     0.000 A 
HETATM   33  C14 UNL     1      -6.600   2.613  17.130  1.00  0.00     0.006 A 
HETATM   34  C15 UNL     1      -5.723   1.701  17.907  1.00  0.00     0.006 A 
ENDBRANCH  22  32
ENDBRANCH  21  22
ENDBRANCH  18  21
ENDBRANCH   6  15
TORSDOF 10
ENDMDL
MODEL 3
REMARK VINA RESULT: -8.518905201      0.891      1.041
REMARK  10 active torsions:
REMARK  status: ('A' for Active; 'I' for Inactive)
REMARK    1  A    between atoms: N2_6  and  C5_7 
REMARK    2  A    between atoms: N3_10  and  C8_11 
REMARK    3  A    between atoms: C8_11  and  C9_12 
REMARK    4  A    between atoms: C9_12  and  C10_13 
REMARK    5  A    between atoms: C9_12  and  C13_22 
REMARK       I    between atoms: C10_13  and  N4_15 
REMARK    6  A    between atoms: N4_15  and  C11_17 
REMARK    7  A    between atoms: C11_17  and  C12_18 
REMARK    8  A    between atoms: C18_27  and  C19_28 
REMARK    9  A    between atoms: C19_28  and  O2_29 
REMARK   10  A    between atoms: N5_31  and  O3_33 
ROOT
HETATM    1  N1  UNL     1      -0.725   3.582   8.399  1.00  0.00    -0.197 NA
HETATM    2  C1  UNL     1      -1.028   3.586   9.514  1.00  0.00     0.067 C 
HETATM    3  C2  UNL     1      -1.380   3.584  10.918  1.00  0.00     0.128 C 
HETATM    4  C3  UNL     1      -0.229   4.080  11.769  1.00  0.00     0.066 C 
HETATM    5  C4  UNL     1      -0.779   5.284  12.511  1.00  0.00     0.061 C 
HETATM    6  N2  UNL     1      -2.138   5.399  12.212  1.00  0.00    -0.375 N 
HETATM    7  C18 UNL     1      -2.518   4.547  11.159  1.00  0.00     0.178 C 
ENDROOT
BRANCH   7   8
HETATM    8  C19 UNL     1      -2.897   5.339   9.970  1.00  0.00     0.160 C 
HETATM    9  N5  UNL     1      -3.693   4.819   9.111  1.00  0.00    -0.249 N 
ATOM     10  H5  UNL     1      -4.020   3.872   9.307  1.00  0.00     0.196 HD
BRANCH   8  11
HETATM   11  O2  UNL     1      -2.433   6.617   9.743  1.00  0.00    -0.347 OA
ATOM     12  H2  UNL     1      -2.856   7.219   9.142  1.00  0.00     0.219 HD
ENDBRANCH   8  11
BRANCH   9  13
HETATM   13  O3  UNL     1      -4.148   5.391   7.969  1.00  0.00    -0.288 OA
ATOM     14  H3  UNL     1      -4.582   4.955   7.245  1.00  0.00     0.244 HD
ENDBRANCH   9  13
ENDBRANCH   7   8
BRANCH   6  15
HETATM   15  C5  UNL     1      -3.070   5.774  13.193  1.00  0.00     0.087 C 
HETATM   16  C6  UNL     1      -2.707   5.176  14.527  1.00  0.00     0.055 C 
HETATM   17  C7  UNL     1      -3.322   3.887  14.859  1.00  0.00     0.274 C 
HETATM   18  N3  UNL     1      -4.749   3.766  14.383  1.00  0.00     0.089 N 
HETATM   19  C16 UNL     1      -5.216   5.063  14.135  1.00  0.00     0.274 C 
HETATM   20  C17 UNL     1      -4.498   5.543  12.845  1.00  0.00     0.055 C 
BRANCH  18  21
HETATM   21  C8  UNL     1      -5.397   2.838  15.204  1.00  0.00     0.286 C 
BRANCH  21  22
HETATM   22  C9  UNL     1      -4.665   1.677  15.718  1.00  0.00     0.110 C 
BRANCH  22  23
HETATM   23  C10 UNL     1      -4.400   0.604  14.764  1.00  0.00     0.224 C 
HETATM   24  O1  UNL     1      -4.425  -0.585  15.145  1.00  0.00    -0.273 OA
HETATM   25  N4  UNL     1      -4.130   0.935  13.417  1.00  0.00    -0.352 N 
ATOM     26  H4  UNL     1      -4.126   1.923  13.166  1.00  0.00     0.162 HD
BRANCH  25  27
HETATM   27  C11 UNL     1      -3.864   0.000  12.392  1.00  0.00     0.239 C 
BRANCH  27  28
HETATM   28  C12 UNL     1      -3.977   0.412  10.969  1.00  0.00     0.403 C 
HETATM   29  F1  UNL     1      -4.965  -0.343  10.316  1.00  0.00    -0.169 F 
HETATM   30  F2  UNL     1      -2.788   0.061  10.274  1.00  0.00    -0.169 F 
HETATM   31  F3  UNL     1      -4.127   1.748  10.781  1.00  0.00    -0.169 F 
ENDBRANCH  27  28
ENDBRANCH  25  27
ENDBRANCH  22  23
BRANCH  22  32
HETATM   32  C13 UNL     1      -5.446   1.050  16.894  1.00  0.00     0.000 A 
HETATM   33  C14 UNL     1      -6.894   1.364  16.971  1.00  0.00     0.006 A 
HETATM   34  C15 UNL     1      -5.958   1.983  17.942  1.00  0.00     0.006 A 
ENDBRANCH  22  32
ENDBRANCH  21  22
ENDBRANCH  18  21
ENDBRANCH   6  15
TORSDOF 10
ENDMDL
MODEL 4
REMARK VINA RESULT: -8.453009118      2.834      3.838
REMARK  10 active torsions:
REMARK  status: ('A' for Active; 'I' for Inactive)
REMARK    1  A    between atoms: N2_6  and  C5_7 
REMARK    2  A    between atoms: N3_10  and  C8_11 
REMARK    3  A    between atoms: C8_11  and  C9_12 
REMARK    4  A    between atoms: C9_12  and  C10_13 
REMARK    5  A    between atoms: C9_12  and  C13_22 
REMARK       I    between atoms: C10_13  and  N4_15 
REMARK    6  A    between atoms: N4_15  and  C11_17 
REMARK    7  A    between atoms: C11_17  and  C12_18 
REMARK    8  A    between atoms: C18_27  and  C19_28 
REMARK    9  A    between atoms: C19_28  and  O2_29 
REMARK   10  A    between atoms: N5_31  and  O3_33 
ROOT
HETATM    1  N1  UNL     1       3.837   3.078   8.789  1.00  0.00    -0.197 NA
HETATM    2  C1  UNL     1       2.749   3.469   8.805  1.00  0.00     0.067 C 
HETATM    3  C2  UNL     1       1.378   3.933   8.813  1.00  0.00     0.128 C 
HETATM    4  C3  UNL     1       0.426   2.813   9.179  1.00  0.00     0.066 C 
HETATM    5  C4  UNL     1      -0.299   3.302  10.419  1.00  0.00     0.061 C 
HETATM    6  N2  UNL     1       0.104   4.613  10.672  1.00  0.00    -0.375 N 
HETATM    7  C18 UNL     1       1.205   4.987   9.881  1.00  0.00     0.178 C 
ENDROOT
BRANCH   7   8
HETATM    8  C19 UNL     1       2.400   5.190  10.725  1.00  0.00     0.160 C 
HETATM    9  N5  UNL     1       2.625   4.369  11.684  1.00  0.00    -0.249 N 
ATOM     10  H5  UNL     1       1.949   3.614  11.805  1.00  0.00     0.196 HD
BRANCH   8  11
HETATM   11  O2  UNL     1       3.290   6.225  10.528  1.00  0.00    -0.347 OA
ATOM     12  H2  UNL     1       4.138   6.264  10.954  1.00  0.00     0.219 HD
ENDBRANCH   8  11
BRANCH   9  13
HETATM   13  O3  UNL     1       3.663   4.397  12.555  1.00  0.00    -0.288 OA
ATOM     14  H3  UNL     1       3.752   3.892  13.355  1.00  0.00     0.244 HD
ENDBRANCH   9  13
ENDBRANCH   7   8
BRANCH   6  15
HETATM   15  C5  UNL     1      -0.808   5.582  11.122  1.00  0.00     0.087 C 
HETATM   16  C6  UNL     1      -0.922   5.546  12.624  1.00  0.00     0.055 C 
HETATM   17  C7  UNL     1      -1.990   4.710  13.182  1.00  0.00     0.274 C 
HETATM   18  N3  UNL     1      -3.259   4.739  12.367  1.00  0.00     0.089 N 
HETATM   19  C16 UNL     1      -3.202   5.874  11.548  1.00  0.00     0.274 C 
HETATM   20  C17 UNL     1      -2.140   5.569  10.458  1.00  0.00     0.055 C 
BRANCH  18  21
HETATM   21  C8  UNL     1      -4.324   4.434  13.221  1.00  0.00     0.286 C 
BRANCH  21  22
HETATM   22  C9  UNL     1      -4.535   3.054  13.666  1.00  0.00     0.110 C 
BRANCH  22  23
HETATM   23  C10 UNL     1      -4.687   2.051  12.615  1.00  0.00     0.224 C 
HETATM   24  O1  UNL     1      -5.493   2.248  11.682  1.00  0.00    -0.273 OA
HETATM   25  N4  UNL     1      -3.907   0.875  12.672  1.00  0.00    -0.352 N 
ATOM     26  H4  UNL     1      -3.266   0.772  13.458  1.00  0.00     0.162 HD
BRANCH  25  27
HETATM   27  C11 UNL     1      -3.950  -0.170  11.723  1.00  0.00     0.239 C 
BRANCH  27  28
HETATM   28  C12 UNL     1      -2.702  -0.600  11.041  1.00  0.00     0.403 C 
HETATM   29  F1  UNL     1      -1.671   0.326  11.272  1.00  0.00    -0.169 F 
HETATM   30  F2  UNL     1      -2.883  -0.540   9.632  1.00  0.00    -0.169 F 
HETATM   31  F3  UNL     1      -2.328  -1.878  11.305  1.00  0.00    -0.169 F 
ENDBRANCH  27  28
ENDBRANCH  25  27
ENDBRANCH  22  23
BRANCH  22  32
HETATM   32  C13 UNL     1      -5.804   2.980  14.544  1.00  0.00     0.000 A 
HETATM   33  C14 UNL     1      -5.940   4.014  15.600  1.00  0.00     0.006 A 
HETATM   34  C15 UNL     1      -5.613   2.617  15.980  1.00  0.00     0.006 A 
ENDBRANCH  22  32
ENDBRANCH  21  22
ENDBRANCH  18  21
ENDBRANCH   6  15
TORSDOF 10
ENDMDL
MODEL 5
REMARK VINA RESULT: -8.294395221      1.364      1.805
REMARK  10 active torsions:
REMARK  status: ('A' for Active; 'I' for Inactive)
REMARK    1  A    between atoms: N2_6  and  C5_7 
REMARK    2  A    between atoms: N3_10  and  C8_11 
REMARK    3  A    between atoms: C8_11  and  C9_12 
REMARK    4  A    between atoms: C9_12  and  C10_13 
REMARK    5  A    between atoms: C9_12  and  C13_22 
REMARK       I    between atoms: C10_13  and  N4_15 
REMARK    6  A    between atoms: N4_15  and  C11_17 
REMARK    7  A    between atoms: C11_17  and  C12_18 
REMARK    8  A    between atoms: C18_27  and  C19_28 
REMARK    9  A    between atoms: C19_28  and  O2_29 
REMARK   10  A    between atoms: N5_31  and  O3_33 
ROOT
HETATM    1  N1  UNL     1      -0.640   3.701   8.049  1.00  0.00    -0.197 NA
HETATM    2  C1  UNL     1      -0.553   4.215   9.082  1.00  0.00     0.067 C 
HETATM    3  C2  UNL     1      -0.421   4.872  10.365  1.00  0.00     0.128 C 
HETATM    4  C3  UNL     1      -0.020   6.323  10.193  1.00  0.00     0.066 C 
HETATM    5  C4  UNL     1      -1.127   7.118  10.860  1.00  0.00     0.061 C 
HETATM    6  N2  UNL     1      -2.012   6.220  11.458  1.00  0.00    -0.375 N 
HETATM    7  C18 UNL     1      -1.758   4.893  11.065  1.00  0.00     0.178 C 
ENDROOT
BRANCH   7   8
HETATM    8  C19 UNL     1      -2.874   4.377  10.246  1.00  0.00     0.160 C 
HETATM    9  N5  UNL     1      -3.426   3.270  10.581  1.00  0.00    -0.249 N 
ATOM     10  H5  UNL     1      -3.050   2.806  11.409  1.00  0.00     0.196 HD
BRANCH   8  11
HETATM   11  O2  UNL     1      -3.353   5.036   9.133  1.00  0.00    -0.347 OA
ATOM     12  H2  UNL     1      -3.996   4.656   8.546  1.00  0.00     0.219 HD
ENDBRANCH   8  11
BRANCH   9  13
HETATM   13  O3  UNL     1      -4.454   2.648   9.954  1.00  0.00    -0.288 OA
ATOM     14  H3  UNL     1      -4.475   1.751   9.642  1.00  0.00     0.244 HD
ENDBRANCH   9  13
ENDBRANCH   7   8
BRANCH   6  15
HETATM   15  C5  UNL     1      -2.593   6.491  12.707  1.00  0.00     0.087 C 
HETATM   16  C6  UNL     1      -1.714   5.986  13.822  1.00  0.00     0.055 C 
HETATM   17  C7  UNL     1      -1.993   4.634  14.318  1.00  0.00     0.274 C 
HETATM   18  N3  UNL     1      -3.465   4.306  14.360  1.00  0.00     0.089 N 
HETATM   19  C16 UNL     1      -4.164   5.519  14.315  1.00  0.00     0.274 C 
HETATM   20  C17 UNL     1      -4.007   6.056  12.867  1.00  0.00     0.055 C 
BRANCH  18  21
HETATM   21  C8  UNL     1      -3.656   3.321  15.334  1.00  0.00     0.286 C 
BRANCH  21  22
HETATM   22  C9  UNL     1      -4.493   2.154  15.042  1.00  0.00     0.110 C 
BRANCH  22  23
HETATM   23  C10 UNL     1      -4.600   1.769  13.638  1.00  0.00     0.224 C 
HETATM   24  O1  UNL     1      -5.175   2.526  12.829  1.00  0.00    -0.273 OA
HETATM   25  N4  UNL     1      -4.038   0.542  13.219  1.00  0.00    -0.352 N 
ATOM     26  H4  UNL     1      -3.579  -0.032  13.925  1.00  0.00     0.162 HD
BRANCH  25  27
HETATM   27  C11 UNL     1      -4.064   0.051  11.895  1.00  0.00     0.239 C 
BRANCH  27  28
HETATM   28  C12 UNL     1      -2.797  -0.347  11.229  1.00  0.00     0.403 C 
HETATM   29  F1  UNL     1      -1.789   0.597  11.486  1.00  0.00    -0.169 F 
HETATM   30  F2  UNL     1      -2.956  -0.277   9.818  1.00  0.00    -0.169 F 
HETATM   31  F3  UNL     1      -2.402  -1.620  11.487  1.00  0.00    -0.169 F 
ENDBRANCH  27  28
ENDBRANCH  25  27
ENDBRANCH  22  23
BRANCH  22  32
HETATM   32  C13 UNL     1      -5.931   2.406  15.550  1.00  0.00     0.000 A 
HETATM   33  C14 UNL     1      -6.064   2.930  16.932  1.00  0.00     0.006 A 
HETATM   34  C15 UNL     1      -6.428   1.520  16.644  1.00  0.00     0.006 A 
ENDBRANCH  22  32
ENDBRANCH  21  22
ENDBRANCH  18  21
ENDBRANCH   6  15
TORSDOF 10
ENDMDL
