MODEL 1
REMARK VINA RESULT: -5.986238516      0.000      0.000
REMARK  9 active torsions:
REMARK  status: ('A' for Active; 'I' for Inactive)
REMARK    1  A    between atoms: C2_2  and  O2_4 
REMARK    2  A    between atoms: O2_4  and  C3_5 
REMARK    3  A    between atoms: C3_5  and  C4_6 
REMARK    4  A    between atoms: C4_6  and  C5_7 
REMARK    5  A    between atoms: C5_7  and  C6_8 
REMARK    6  A    between atoms: C6_8  and  C9_11 
REMARK    7  A    between atoms: C11_17  and  C12_18 
REMARK    8  A    between atoms: C11_17  and  C13_21 
REMARK    9  A    between atoms: C15_25  and  O6_26 
ROOT
HETATM    1  C4  UNL     1      -3.609   3.503  11.775  1.00  0.00     0.092 C 
HETATM    2  C10 UNL     1      -4.017   4.881  11.398  1.00  0.00     0.232 C 
HETATM    3  O3  UNL     1      -5.149   5.400  11.228  1.00  0.00    -0.272 OA
HETATM    4  N1  UNL     1      -2.785   5.611  11.238  1.00  0.00    -0.336 N 
ATOM      5  H1  UNL     1      -2.607   6.572  11.530  1.00  0.00     0.164 HD
HETATM    6  C11 UNL     1      -1.844   4.716  10.579  1.00  0.00     0.183 C 
HETATM    7  C15 UNL     1      -2.211   3.392  11.141  1.00  0.00     0.180 C 
ENDROOT
BRANCH   1   8
HETATM    8  C3  UNL     1      -4.473   2.466  11.106  1.00  0.00     0.200 C 
BRANCH   8   9
HETATM    9  O2  UNL     1      -4.397   1.216  11.821  1.00  0.00    -0.320 OA
BRANCH   9  10
HETATM   10  C2  UNL     1      -4.140   0.056  11.107  1.00  0.00     0.254 C 
HETATM   11  C1  UNL     1      -3.878  -1.260  11.754  1.00  0.00     0.126 C 
HETATM   12  O1  UNL     1      -4.132   0.137   9.851  1.00  0.00    -0.266 OA
ENDBRANCH   9  10
ENDBRANCH   8   9
ENDBRANCH   1   8
BRANCH   1  13
HETATM   13  C5  UNL     1      -3.461   3.269  13.201  1.00  0.00     0.034 C 
BRANCH  13  14
HETATM   14  C6  UNL     1      -4.275   3.805  14.270  1.00  0.00    -0.034 C 
HETATM   15  C7  UNL     1      -3.765   3.019  15.535  1.00  0.00     0.016 C 
HETATM   16  C8  UNL     1      -3.928   5.254  14.656  1.00  0.00     0.016 C 
BRANCH  14  17
HETATM   17  C9  UNL     1      -5.726   3.602  14.353  1.00  0.00     0.123 C 
HETATM   18 CL1  UNL     1      -6.257   3.086  15.993  1.00  0.00    -0.130 Cl
ENDBRANCH  14  17
ENDBRANCH  13  14
ENDBRANCH   1  13
BRANCH   7  19
HETATM   19  O6  UNL     1      -2.199   2.462  10.108  1.00  0.00    -0.391 OA
ATOM     20  H6  UNL     1      -1.626   2.739   9.403  1.00  0.00     0.210 HD
ENDBRANCH   7  19
BRANCH   6  21
HETATM   21  C12 UNL     1      -2.176   4.803   9.111  1.00  0.00     0.208 C 
HETATM   22  O4  UNL     1      -3.106   5.527   8.678  1.00  0.00    -0.646 OA
HETATM   23  O5  UNL     1      -1.455   4.073   8.174  1.00  0.00    -0.646 OA
ENDBRANCH   6  21
BRANCH   6  24
HETATM   24  C13 UNL     1      -0.403   5.108  10.805  1.00  0.00     0.147 C 
HETATM   25  C14 UNL     1      -0.183   5.659  12.197  1.00  0.00     0.053 C 
HETATM   26 CL2  UNL     1       0.062   6.385   9.657  1.00  0.00    -0.099 Cl
HETATM   27 CL3  UNL     1       0.699   3.740  10.610  1.00  0.00    -0.099 Cl
ENDBRANCH   6  24
TORSDOF 9
ENDMDL
MODEL 2
REMARK VINA RESULT: -5.846250828      1.377      1.928
REMARK  9 active torsions:
REMARK  status: ('A' for Active; 'I' for Inactive)
REMARK    1  A    between atoms: C2_2  and  O2_4 
REMARK    2  A    between atoms: O2_4  and  C3_5 
REMARK    3  A    between atoms: C3_5  and  C4_6 
REMARK    4  A    between atoms: C4_6  and  C5_7 
REMARK    5  A    between atoms: C5_7  and  C6_8 
REMARK    6  A    between atoms: C6_8  and  C9_11 
REMARK    7  A    between atoms: C11_17  and  C12_18 
REMARK    8  A    between atoms: C11_17  and  C13_21 
REMARK    9  A    between atoms: C15_25  and  O6_26 
ROOT
HETATM    1  C4  UNL     1      -3.105   3.990  11.554  1.00  0.00     0.092 C 
HETATM    2  C10 UNL     1      -3.147   4.324  10.108  1.00  0.00     0.232 C 
HETATM    3  O3  UNL     1      -4.035   4.147   9.235  1.00  0.00    -0.272 OA
HETATM    4  N1  UNL     1      -1.881   4.950   9.825  1.00  0.00    -0.336 N 
ATOM      5  H1  UNL     1      -1.723   5.754   9.218  1.00  0.00     0.164 HD
HETATM    6  C11 UNL     1      -0.869   4.215  10.571  1.00  0.00     0.183 C 
HETATM    7  C15 UNL     1      -1.595   3.832  11.808  1.00  0.00     0.180 C 
ENDROOT
BRANCH   1   8
HETATM    8  C3  UNL     1      -3.734   2.649  11.832  1.00  0.00     0.200 C 
BRANCH   8   9
HETATM    9  O2  UNL     1      -3.685   1.820  10.653  1.00  0.00    -0.320 OA
BRANCH   9  10
HETATM   10  C2  UNL     1      -3.571   0.447  10.810  1.00  0.00     0.254 C 
HETATM   11  C1  UNL     1      -3.984  -0.269  12.049  1.00  0.00     0.126 C 
HETATM   12  O1  UNL     1      -3.094  -0.210   9.849  1.00  0.00    -0.266 OA
ENDBRANCH   9  10
ENDBRANCH   8   9
ENDBRANCH   1   8
BRANCH   1  13
HETATM   13  C5  UNL     1      -3.590   5.029  12.446  1.00  0.00     0.034 C 
BRANCH  13  14
HETATM   14  C6  UNL     1      -3.752   4.952  13.881  1.00  0.00    -0.034 C 
HETATM   15  C7  UNL     1      -3.150   6.316  14.382  1.00  0.00     0.016 C 
HETATM   16  C8  UNL     1      -5.211   5.074  14.356  1.00  0.00     0.016 C 
BRANCH  14  17
HETATM   17  C9  UNL     1      -3.037   3.980  14.718  1.00  0.00     0.123 C 
HETATM   18 CL1  UNL     1      -4.142   2.779  15.474  1.00  0.00    -0.130 Cl
ENDBRANCH  14  17
ENDBRANCH  13  14
ENDBRANCH   1  13
BRANCH   7  19
HETATM   19  O6  UNL     1      -1.270   2.516  12.113  1.00  0.00    -0.391 OA
ATOM     20  H6  UNL     1      -0.525   2.473  12.700  1.00  0.00     0.210 HD
ENDBRANCH   7  19
BRANCH   6  21
HETATM   21  C12 UNL     1      -0.550   3.010   9.723  1.00  0.00     0.208 C 
HETATM   22  O4  UNL     1      -0.380   1.869  10.220  1.00  0.00    -0.646 OA
HETATM   23  O5  UNL     1      -0.429   3.122   8.343  1.00  0.00    -0.646 OA
ENDBRANCH   6  21
BRANCH   6  24
HETATM   24  C13 UNL     1       0.385   5.021  10.812  1.00  0.00     0.147 C 
HETATM   25  C14 UNL     1       0.280   5.861  12.065  1.00  0.00     0.053 C 
HETATM   26 CL2  UNL     1       0.656   6.137   9.453  1.00  0.00    -0.099 Cl
HETATM   27 CL3  UNL     1       1.813   3.994  10.996  1.00  0.00    -0.099 Cl
ENDBRANCH   6  24
TORSDOF 9
ENDMDL
MODEL 3
REMARK VINA RESULT: -5.844270290      0.959      1.096
REMARK  9 active torsions:
REMARK  status: ('A' for Active; 'I' for Inactive)
REMARK    1  A    between atoms: C2_2  and  O2_4 
REMARK    2  A    between atoms: O2_4  and  C3_5 
REMARK    3  A    between atoms: C3_5  and  C4_6 
REMARK    4  A    between atoms: C4_6  and  C5_7 
REMARK    5  A    between atoms: C5_7  and  C6_8 
REMARK    6  A    between atoms: C6_8  and  C9_11 
REMARK    7  A    between atoms: C11_17  and  C12_18 
REMARK    8  A    between atoms: C11_17  and  C13_21 
REMARK    9  A    between atoms: C15_25  and  O6_26 
ROOT
HETATM    1  C4  UNL     1      -3.033   3.574  11.655  1.00  0.00     0.092 C 
HETATM    2  C10 UNL     1      -3.787   4.647  10.959  1.00  0.00     0.232 C 
HETATM    3  O3  UNL     1      -5.009   4.769  10.688  1.00  0.00    -0.272 OA
HETATM    4  N1  UNL     1      -2.800   5.633  10.600  1.00  0.00    -0.336 N 
ATOM      5  H1  UNL     1      -2.910   6.647  10.644  1.00  0.00     0.164 HD
HETATM    6  C11 UNL     1      -1.614   4.908  10.165  1.00  0.00     0.183 C 
HETATM    7  C15 UNL     1      -1.628   3.711  11.041  1.00  0.00     0.180 C 
ENDROOT
BRANCH   1   8
HETATM    8  C3  UNL     1      -3.539   2.206  11.278  1.00  0.00     0.200 C 
BRANCH   8   9
HETATM    9  O2  UNL     1      -2.972   1.206  12.150  1.00  0.00    -0.320 OA
BRANCH   9  10
HETATM   10  C2  UNL     1      -3.741   0.101  12.482  1.00  0.00     0.254 C 
HETATM   11  C1  UNL     1      -3.953  -1.052  11.564  1.00  0.00     0.126 C 
HETATM   12  O1  UNL     1      -4.279   0.089  13.620  1.00  0.00    -0.266 OA
ENDBRANCH   9  10
ENDBRANCH   8   9
ENDBRANCH   1   8
BRANCH   1  13
HETATM   13  C5  UNL     1      -2.899   3.742  13.092  1.00  0.00     0.034 C 
BRANCH  13  14
HETATM   14  C6  UNL     1      -3.954   3.985  14.052  1.00  0.00    -0.034 C 
HETATM   15  C7  UNL     1      -3.422   3.278  15.353  1.00  0.00     0.016 C 
HETATM   16  C8  UNL     1      -4.049   5.448  14.521  1.00  0.00     0.016 C 
BRANCH  14  17
HETATM   17  C9  UNL     1      -5.301   3.415  13.926  1.00  0.00     0.123 C 
HETATM   18 CL1  UNL     1      -6.067   3.103  15.523  1.00  0.00    -0.130 Cl
ENDBRANCH  14  17
ENDBRANCH  13  14
ENDBRANCH   1  13
BRANCH   7  19
HETATM   19  O6  UNL     1      -1.305   2.602  10.270  1.00  0.00    -0.391 OA
ATOM     20  H6  UNL     1      -0.490   2.735   9.800  1.00  0.00     0.210 HD
ENDBRANCH   7  19
BRANCH   6  21
HETATM   21  C12 UNL     1      -1.881   4.542   8.727  1.00  0.00     0.208 C 
HETATM   22  O4  UNL     1      -2.939   4.874   8.138  1.00  0.00    -0.646 OA
HETATM   23  O5  UNL     1      -0.953   3.811   7.995  1.00  0.00    -0.646 OA
ENDBRANCH   6  21
BRANCH   6  24
HETATM   24  C13 UNL     1      -0.353   5.733  10.259  1.00  0.00     0.147 C 
HETATM   25  C14 UNL     1      -0.303   6.538  11.539  1.00  0.00     0.053 C 
HETATM   26 CL2  UNL     1      -0.285   6.890   8.910  1.00  0.00    -0.099 Cl
HETATM   27 CL3  UNL     1       1.103   4.731  10.221  1.00  0.00    -0.099 Cl
ENDBRANCH   6  24
TORSDOF 9
ENDMDL
MODEL 4
REMARK VINA RESULT: -5.670514379      2.119      5.117
REMARK  9 active torsions:
REMARK  status: ('A' for Active; 'I' for Inactive)
REMARK    1  A    between atoms: C2_2  and  O2_4 
REMARK    2  A    between atoms: O2_4  and  C3_5 
REMARK    3  A    between atoms: C3_5  and  C4_6 
REMARK    4  A    between atoms: C4_6  and  C5_7 
REMARK    5  A    between atoms: C5_7  and  C6_8 
REMARK    6  A    between atoms: C6_8  and  C9_11 
REMARK    7  A    between atoms: C11_17  and  C12_18 
REMARK    8  A    between atoms: C11_17  and  C13_21 
REMARK    9  A    between atoms: C15_25  and  O6_26 
ROOT
HETATM    1  C4  UNL     1      -2.694   3.249  11.021  1.00  0.00     0.092 C 
HETATM    2  C10 UNL     1      -1.665   3.360  12.086  1.00  0.00     0.232 C 
HETATM    3  O3  UNL     1      -0.601   2.721  12.290  1.00  0.00    -0.272 OA
HETATM    4  N1  UNL     1      -2.118   4.426  12.943  1.00  0.00    -0.336 N 
ATOM      5  H1  UNL     1      -1.539   5.143  13.379  1.00  0.00     0.164 HD
HETATM    6  C11 UNL     1      -3.562   4.283  13.068  1.00  0.00     0.183 C 
HETATM    7  C15 UNL     1      -3.955   3.778  11.729  1.00  0.00     0.180 C 
ENDROOT
BRANCH   1   8
HETATM    8  C3  UNL     1      -2.968   1.812  10.662  1.00  0.00     0.200 C 
BRANCH   8   9
HETATM    9  O2  UNL     1      -2.692   0.955  11.789  1.00  0.00    -0.320 OA
BRANCH   9  10
HETATM   10  C2  UNL     1      -3.318  -0.281  11.853  1.00  0.00     0.254 C 
HETATM   11  C1  UNL     1      -2.867  -1.465  11.070  1.00  0.00     0.126 C 
HETATM   12  O1  UNL     1      -4.313  -0.389  12.616  1.00  0.00    -0.266 OA
ENDBRANCH   9  10
ENDBRANCH   8   9
ENDBRANCH   1   8
BRANCH   1  13
HETATM   13  C5  UNL     1      -2.470   4.082   9.852  1.00  0.00     0.034 C 
BRANCH  13  14
HETATM   14  C6  UNL     1      -1.211   4.348   9.189  1.00  0.00    -0.034 C 
HETATM   15  C7  UNL     1      -1.657   4.943   7.803  1.00  0.00     0.016 C 
HETATM   16  C8  UNL     1      -0.427   5.531   9.786  1.00  0.00     0.016 C 
BRANCH  14  17
HETATM   17  C9  UNL     1      -0.280   3.290   8.780  1.00  0.00     0.123 C 
HETATM   18 CL1  UNL     1       1.335   3.458   9.555  1.00  0.00    -0.130 Cl
ENDBRANCH  14  17
ENDBRANCH  13  14
ENDBRANCH   1  13
BRANCH   7  19
HETATM   19  O6  UNL     1      -4.895   2.770  11.902  1.00  0.00    -0.391 OA
ATOM     20  H6  UNL     1      -4.518   1.915  11.731  1.00  0.00     0.210 HD
ENDBRANCH   7  19
BRANCH   6  21
HETATM   21  C12 UNL     1      -3.765   3.236  14.134  1.00  0.00     0.208 C 
HETATM   22  O4  UNL     1      -4.627   2.329  14.024  1.00  0.00    -0.646 OA
HETATM   23  O5  UNL     1      -2.997   3.240  15.292  1.00  0.00    -0.646 OA
ENDBRANCH   6  21
BRANCH   6  24
HETATM   24  C13 UNL     1      -4.247   5.567  13.472  1.00  0.00     0.147 C 
HETATM   25  C14 UNL     1      -4.696   6.366  12.269  1.00  0.00     0.053 C 
HETATM   26 CL2  UNL     1      -3.119   6.591  14.390  1.00  0.00    -0.099 Cl
HETATM   27 CL3  UNL     1      -5.682   5.275  14.463  1.00  0.00    -0.099 Cl
ENDBRANCH   6  24
TORSDOF 9
ENDMDL
MODEL 5
REMARK VINA RESULT: -5.650435999      1.532      1.840
REMARK  9 active torsions:
REMARK  status: ('A' for Active; 'I' for Inactive)
REMARK    1  A    between atoms: C2_2  and  O2_4 
REMARK    2  A    between atoms: O2_4  and  C3_5 
REMARK    3  A    between atoms: C3_5  and  C4_6 
REMARK    4  A    between atoms: C4_6  and  C5_7 
REMARK    5  A    between atoms: C5_7  and  C6_8 
REMARK    6  A    between atoms: C6_8  and  C9_11 
REMARK    7  A    between atoms: C11_17  and  C12_18 
REMARK    8  A    between atoms: C11_17  and  C13_21 
REMARK    9  A    between atoms: C15_25  and  O6_26 
ROOT
HETATM    1  C4  UNL     1      -2.792   3.496  11.451  1.00  0.00     0.092 C 
HETATM    2  C10 UNL     1      -4.101   3.888  10.870  1.00  0.00     0.232 C 
HETATM    3  O3  UNL     1      -5.179   3.253  10.735  1.00  0.00    -0.272 OA
HETATM    4  N1  UNL     1      -3.932   5.251  10.438  1.00  0.00    -0.336 N 
ATOM      5  H1  UNL     1      -4.615   6.004  10.522  1.00  0.00     0.164 HD
HETATM    6  C11 UNL     1      -2.600   5.350   9.858  1.00  0.00     0.183 C 
HETATM    7  C15 UNL     1      -1.812   4.412  10.696  1.00  0.00     0.180 C 
ENDROOT
BRANCH   1   8
HETATM    8  C3  UNL     1      -2.427   2.079  11.091  1.00  0.00     0.200 C 
BRANCH   8   9
HETATM    9  O2  UNL     1      -2.695   1.197  12.200  1.00  0.00    -0.320 OA
BRANCH   9  10
HETATM   10  C2  UNL     1      -3.759   0.313  12.104  1.00  0.00     0.254 C 
HETATM   11  C1  UNL     1      -4.362  -0.100  10.806  1.00  0.00     0.126 C 
HETATM   12  O1  UNL     1      -4.225  -0.153  13.176  1.00  0.00    -0.266 OA
ENDBRANCH   9  10
ENDBRANCH   8   9
ENDBRANCH   1   8
BRANCH   1  13
HETATM   13  C5  UNL     1      -2.637   3.767  12.870  1.00  0.00     0.034 C 
BRANCH  13  14
HETATM   14  C6  UNL     1      -3.676   4.086  13.824  1.00  0.00    -0.034 C 
HETATM   15  C7  UNL     1      -2.991   3.794  15.210  1.00  0.00     0.016 C 
HETATM   16  C8  UNL     1      -3.974   5.591  13.947  1.00  0.00     0.016 C 
BRANCH  14  17
HETATM   17  C9  UNL     1      -4.924   3.321  13.937  1.00  0.00     0.123 C 
HETATM   18 CL1  UNL     1      -5.976   3.914  15.270  1.00  0.00    -0.130 Cl
ENDBRANCH  14  17
ENDBRANCH  13  14
ENDBRANCH   1  13
BRANCH   7  19
HETATM   19  O6  UNL     1      -0.978   3.679   9.862  1.00  0.00    -0.391 OA
ATOM     20  H6  UNL     1      -1.000   4.012   8.973  1.00  0.00     0.210 HD
ENDBRANCH   7  19
BRANCH   6  21
HETATM   21  C12 UNL     1      -2.744   4.840   8.447  1.00  0.00     0.208 C 
HETATM   22  O4  UNL     1      -3.866   4.625   7.925  1.00  0.00    -0.646 OA
HETATM   23  O5  UNL     1      -1.624   4.585   7.664  1.00  0.00    -0.646 OA
ENDBRANCH   6  21
BRANCH   6  24
HETATM   24  C13 UNL     1      -2.069   6.764   9.842  1.00  0.00     0.147 C 
HETATM   25  C14 UNL     1      -2.482   7.532  11.078  1.00  0.00     0.053 C 
HETATM   26 CL2  UNL     1      -2.723   7.639   8.438  1.00  0.00    -0.099 Cl
HETATM   27 CL3  UNL     1      -0.303   6.812   9.769  1.00  0.00    -0.099 Cl
ENDBRANCH   6  24
TORSDOF 9
ENDMDL
