MODEL 1
REMARK VINA RESULT: -7.913399187      0.000      0.000
REMARK  14 active torsions:
REMARK  status: ('A' for Active; 'I' for Inactive)
REMARK    1  A    between atoms: O1_2  and  C2_3 
REMARK    2  A    between atoms: C3_5  and  C4_6 
REMARK    3  A    between atoms: C11_13  and  O3_14 
REMARK    4  A    between atoms: C11_13  and  C12_16 
REMARK    5  A    between atoms: C12_16  and  O4_17 
REMARK    6  A    between atoms: C12_16  and  C13_19 
REMARK    7  A    between atoms: C13_19  and  C14_20 
REMARK    8  A    between atoms: C13_19  and  O8_40 
REMARK    9  A    between atoms: C14_20  and  C15_21 
REMARK   10  A    between atoms: C15_21  and  C16_22 
REMARK   11  A    between atoms: C16_22  and  O6_24 
REMARK   12  A    between atoms: O6_24  and  C17_25 
REMARK   13  A    between atoms: C17_25  and  C18_27 
REMARK   14  A    between atoms: O8_40  and  C31_41 
ROOT
HETATM    1  C13 UNL     1     -15.414   2.092  -1.994  1.00  0.00     0.161 C 
ENDROOT
BRANCH   1   2
HETATM    2  C12 UNL     1     -14.976   3.274  -1.249  1.00  0.00     0.183 C 
BRANCH   2   3
HETATM    3  C11 UNL     1     -14.727   3.295   0.189  1.00  0.00     0.102 C 
HETATM    4  C10 UNL     1     -14.999   2.007   0.916  1.00  0.00     0.046 C 
HETATM    5  C9  UNL     1     -16.451   2.134   1.317  1.00  0.00     0.038 C 
HETATM    6  C8  UNL     1     -16.299   3.484   1.989  1.00  0.00    -0.065 C 
HETATM    7  C7  UNL     1     -16.601   4.057   3.107  1.00  0.00     0.009 C 
HETATM    8  C36 UNL     1     -15.565   4.269   0.907  1.00  0.00     0.063 C 
HETATM    9  C3  UNL     1     -16.253   5.471   3.394  1.00  0.00     0.151 C 
HETATM   10  O2  UNL     1     -15.957   6.176   2.238  1.00  0.00    -0.351 OA
HETATM   11  C2  UNL     1     -14.928   5.478   1.509  1.00  0.00     0.275 C 
HETATM   12  C37 UNL     1     -16.734   4.818   0.089  1.00  0.00     0.028 C 
BRANCH   9  13
HETATM   13  C4  UNL     1     -17.336   6.146   4.153  1.00  0.00     0.010 C 
HETATM   14  C5  UNL     1     -17.379   7.629   4.039  1.00  0.00     0.012 C 
HETATM   15  C6  UNL     1     -18.720   5.633   3.768  1.00  0.00     0.012 C 
ENDBRANCH   9  13
BRANCH  11  16
HETATM   16  O1  UNL     1     -13.844   5.305   2.309  1.00  0.00    -0.365 OA
HETATM   17  C1  UNL     1     -12.927   6.318   2.353  1.00  0.00     0.204 C 
ENDBRANCH  11  16
BRANCH   3  18
HETATM   18  O3  UNL     1     -13.338   3.519   0.374  1.00  0.00    -0.386 OA
ATOM     19  H3  UNL     1     -12.949   3.301  -0.464  1.00  0.00     0.210 HD
ENDBRANCH   3  18
ENDBRANCH   2   3
BRANCH   2  20
HETATM   20  O4  UNL     1     -13.761   3.655  -1.885  1.00  0.00    -0.390 OA
ATOM     21  H4  UNL     1     -13.170   2.914  -1.818  1.00  0.00     0.210 HD
ENDBRANCH   2  20
ENDBRANCH   1   2
BRANCH   1  22
HETATM   22  C14 UNL     1     -16.757   2.203  -2.674  1.00  0.00     0.045 C 
BRANCH  22  23
HETATM   23  C15 UNL     1     -17.917   1.684  -1.896  1.00  0.00     0.114 C 
BRANCH  23  24
HETATM   24  C16 UNL     1     -18.216   0.262  -2.024  1.00  0.00     0.266 C 
HETATM   25  O5  UNL     1     -18.256  -0.333  -3.121  1.00  0.00    -0.265 OA
BRANCH  24  26
HETATM   26  O6  UNL     1     -18.484  -0.553  -0.904  1.00  0.00    -0.244 OA
BRANCH  26  27
HETATM   27  C17 UNL     1     -17.466  -1.129  -0.166  1.00  0.00     0.274 C 
HETATM   28  O7  UNL     1     -16.297  -1.026  -0.607  1.00  0.00    -0.264 OA
BRANCH  27  29
HETATM   29  C18 UNL     1     -17.697  -1.853   1.107  1.00  0.00     0.109 C 
HETATM   30  C19 UNL     1     -19.104  -2.332   1.101  1.00  0.00    -0.015 C 
HETATM   31  C20 UNL     1     -19.636  -2.685   2.258  1.00  0.00    -0.020 C 
HETATM   32  C21 UNL     1     -18.796  -2.582   3.474  1.00  0.00    -0.023 C 
HETATM   33  C22 UNL     1     -17.827  -3.771   3.455  1.00  0.00     0.020 C 
HETATM   34  C23 UNL     1     -19.708  -2.833   4.652  1.00  0.00     0.014 C 
HETATM   35  C29 UNL     1     -18.020  -1.336   3.556  1.00  0.00     0.002 C 
HETATM   36  C24 UNL     1     -20.550  -1.613   4.866  1.00  0.00     0.005 C 
HETATM   37  C25 UNL     1     -19.586  -0.523   5.349  1.00  0.00    -0.014 C 
HETATM   38  C26 UNL     1     -20.430   0.666   5.729  1.00  0.00     0.010 C 
HETATM   39  C27 UNL     1     -18.697  -0.174   4.207  1.00  0.00    -0.010 C 
HETATM   40  C28 UNL     1     -17.613   0.772   4.745  1.00  0.00     0.011 C 
HETATM   41  C30 UNL     1     -17.486  -0.869   2.225  1.00  0.00     0.024 C 
ENDBRANCH  27  29
ENDBRANCH  26  27
ENDBRANCH  24  26
ENDBRANCH  23  24
ENDBRANCH  22  23
ENDBRANCH   1  22
BRANCH   1  42
HETATM   42  O8  UNL     1     -14.520   1.519  -2.892  1.00  0.00    -0.340 OA
BRANCH  42  43
HETATM   43  C31 UNL     1     -14.224   0.220  -3.140  1.00  0.00     0.107 A 
HETATM   44  C32 UNL     1     -14.862  -0.597  -4.044  1.00  0.00     0.041 A 
HETATM   45  C33 UNL     1     -14.501  -1.934  -4.251  1.00  0.00     0.020 A 
HETATM   46  C34 UNL     1     -13.457  -2.432  -3.505  1.00  0.00     0.089 A 
HETATM   47  N1  UNL     1     -12.828  -1.639  -2.619  1.00  0.00    -0.354 N 
HETATM   48  C35 UNL     1     -13.168  -0.351  -2.413  1.00  0.00     0.137 A 
ATOM     49  H1  UNL     1     -12.058  -2.032  -2.078  1.00  0.00     0.166 HD
HETATM   50 CL1  UNL     1     -12.281   0.622  -1.238  1.00  0.00    -0.061 Cl
ENDBRANCH  42  43
ENDBRANCH   1  42
TORSDOF 14
ENDMDL
MODEL 2
REMARK VINA RESULT: -7.753867231      2.106      3.849
REMARK  14 active torsions:
REMARK  status: ('A' for Active; 'I' for Inactive)
REMARK    1  A    between atoms: O1_2  and  C2_3 
REMARK    2  A    between atoms: C3_5  and  C4_6 
REMARK    3  A    between atoms: C11_13  and  O3_14 
REMARK    4  A    between atoms: C11_13  and  C12_16 
REMARK    5  A    between atoms: C12_16  and  O4_17 
REMARK    6  A    between atoms: C12_16  and  C13_19 
REMARK    7  A    between atoms: C13_19  and  C14_20 
REMARK    8  A    between atoms: C13_19  and  O8_40 
REMARK    9  A    between atoms: C14_20  and  C15_21 
REMARK   10  A    between atoms: C15_21  and  C16_22 
REMARK   11  A    between atoms: C16_22  and  O6_24 
REMARK   12  A    between atoms: O6_24  and  C17_25 
REMARK   13  A    between atoms: C17_25  and  C18_27 
REMARK   14  A    between atoms: O8_40  and  C31_41 
ROOT
HETATM    1  C13 UNL     1     -14.925   3.219   1.474  1.00  0.00     0.161 C 
ENDROOT
BRANCH   1   2
HETATM    2  C12 UNL     1     -15.072   4.265   2.488  1.00  0.00     0.183 C 
BRANCH   2   3
HETATM    3  C11 UNL     1     -16.163   5.234   2.517  1.00  0.00     0.102 C 
HETATM    4  C10 UNL     1     -16.980   5.334   1.259  1.00  0.00     0.046 C 
HETATM    5  C9  UNL     1     -16.258   6.396   0.459  1.00  0.00     0.038 C 
HETATM    6  C8  UNL     1     -16.253   7.432   1.565  1.00  0.00    -0.065 C 
HETATM    7  C7  UNL     1     -16.560   8.676   1.739  1.00  0.00     0.009 C 
HETATM    8  C36 UNL     1     -15.703   6.616   2.730  1.00  0.00     0.063 C 
HETATM    9  C3  UNL     1     -16.403   9.357   3.048  1.00  0.00     0.151 C 
HETATM   10  O2  UNL     1     -15.556   8.661   3.896  1.00  0.00    -0.351 OA
HETATM   11  C2  UNL     1     -16.021   7.302   4.018  1.00  0.00     0.275 C 
HETATM   12  C37 UNL     1     -14.199   6.813   2.551  1.00  0.00     0.028 C 
BRANCH   9  13
HETATM   13  C4  UNL     1     -15.932  10.754   2.872  1.00  0.00     0.010 C 
HETATM   14  C5  UNL     1     -16.415  11.732   3.885  1.00  0.00     0.012 C 
HETATM   15  C6  UNL     1     -14.411  10.855   2.851  1.00  0.00     0.012 C 
ENDBRANCH   9  13
BRANCH  11  16
HETATM   16  O1  UNL     1     -17.309   7.301   4.449  1.00  0.00    -0.365 OA
HETATM   17  C1  UNL     1     -17.523   7.440   5.792  1.00  0.00     0.204 C 
ENDBRANCH  11  16
BRANCH   3  18
HETATM   18  O3  UNL     1     -17.087   4.802   3.504  1.00  0.00    -0.386 OA
ATOM     19  H3  UNL     1     -16.663   4.058   3.915  1.00  0.00     0.210 HD
ENDBRANCH   3  18
ENDBRANCH   2   3
BRANCH   2  20
HETATM   20  O4  UNL     1     -15.120   3.551   3.719  1.00  0.00    -0.390 OA
ATOM     21  H4  UNL     1     -14.735   4.113   4.380  1.00  0.00     0.210 HD
ENDBRANCH   2  20
ENDBRANCH   1   2
BRANCH   1  22
HETATM   22  C14 UNL     1     -16.076   2.249   1.357  1.00  0.00     0.045 C 
BRANCH  22  23
HETATM   23  C15 UNL     1     -16.692   2.142   0.004  1.00  0.00     0.114 C 
BRANCH  23  24
HETATM   24  C16 UNL     1     -16.439   0.914  -0.741  1.00  0.00     0.266 C 
HETATM   25  O5  UNL     1     -16.234   0.889  -1.972  1.00  0.00    -0.265 OA
BRANCH  24  26
HETATM   26  O6  UNL     1     -16.408  -0.351  -0.117  1.00  0.00    -0.244 OA
BRANCH  26  27
HETATM   27  C17 UNL     1     -17.561  -1.090   0.082  1.00  0.00     0.274 C 
HETATM   28  O7  UNL     1     -18.404  -1.113  -0.846  1.00  0.00    -0.264 OA
BRANCH  27  29
HETATM   29  C18 UNL     1     -17.836  -1.845   1.327  1.00  0.00     0.109 C 
HETATM   30  C19 UNL     1     -19.246  -2.310   1.265  1.00  0.00    -0.015 C 
HETATM   31  C20 UNL     1     -19.818  -2.689   2.396  1.00  0.00    -0.020 C 
HETATM   32  C21 UNL     1     -19.015  -2.624   3.639  1.00  0.00    -0.023 C 
HETATM   33  C22 UNL     1     -18.056  -3.822   3.619  1.00  0.00     0.020 C 
HETATM   34  C23 UNL     1     -19.965  -2.899   4.781  1.00  0.00     0.014 C 
HETATM   35  C29 UNL     1     -18.232  -1.388   3.778  1.00  0.00     0.002 C 
HETATM   36  C24 UNL     1     -20.804  -1.677   5.002  1.00  0.00     0.005 C 
HETATM   37  C25 UNL     1     -19.846  -0.608   5.543  1.00  0.00    -0.014 C 
HETATM   38  C26 UNL     1     -20.693   0.578   5.928  1.00  0.00     0.010 C 
HETATM   39  C27 UNL     1     -18.919  -0.237   4.438  1.00  0.00    -0.010 C 
HETATM   40  C28 UNL     1     -17.845   0.684   5.034  1.00  0.00     0.011 C 
HETATM   41  C30 UNL     1     -17.653  -0.892   2.477  1.00  0.00     0.024 C 
ENDBRANCH  27  29
ENDBRANCH  26  27
ENDBRANCH  24  26
ENDBRANCH  23  24
ENDBRANCH  22  23
ENDBRANCH   1  22
BRANCH   1  42
HETATM   42  O8  UNL     1     -14.553   3.603   0.190  1.00  0.00    -0.340 OA
BRANCH  42  43
HETATM   43  C31 UNL     1     -13.362   4.029  -0.297  1.00  0.00     0.107 A 
HETATM   44  C32 UNL     1     -12.929   5.332  -0.350  1.00  0.00     0.041 A 
HETATM   45  C33 UNL     1     -11.682   5.702  -0.867  1.00  0.00     0.020 A 
HETATM   46  C34 UNL     1     -10.868   4.697  -1.339  1.00  0.00     0.089 A 
HETATM   47  N1  UNL     1     -11.284   3.419  -1.290  1.00  0.00    -0.354 N 
HETATM   48  C35 UNL     1     -12.483   3.054  -0.794  1.00  0.00     0.137 A 
ATOM     49  H1  UNL     1     -10.663   2.692  -1.646  1.00  0.00     0.166 HD
HETATM   50 CL1  UNL     1     -12.946   1.351  -0.757  1.00  0.00    -0.061 Cl
ENDBRANCH  42  43
ENDBRANCH   1  42
TORSDOF 14
ENDMDL
MODEL 3
REMARK VINA RESULT: -7.685461213      2.930      4.482
REMARK  14 active torsions:
REMARK  status: ('A' for Active; 'I' for Inactive)
REMARK    1  A    between atoms: O1_2  and  C2_3 
REMARK    2  A    between atoms: C3_5  and  C4_6 
REMARK    3  A    between atoms: C11_13  and  O3_14 
REMARK    4  A    between atoms: C11_13  and  C12_16 
REMARK    5  A    between atoms: C12_16  and  O4_17 
REMARK    6  A    between atoms: C12_16  and  C13_19 
REMARK    7  A    between atoms: C13_19  and  C14_20 
REMARK    8  A    between atoms: C13_19  and  O8_40 
REMARK    9  A    between atoms: C14_20  and  C15_21 
REMARK   10  A    between atoms: C15_21  and  C16_22 
REMARK   11  A    between atoms: C16_22  and  O6_24 
REMARK   12  A    between atoms: O6_24  and  C17_25 
REMARK   13  A    between atoms: C17_25  and  C18_27 
REMARK   14  A    between atoms: O8_40  and  C31_41 
ROOT
HETATM    1  C13 UNL     1     -17.041   4.725  -1.309  1.00  0.00     0.161 C 
ENDROOT
BRANCH   1   2
HETATM    2  C12 UNL     1     -16.392   5.746  -0.483  1.00  0.00     0.183 C 
BRANCH   2   3
HETATM    3  C11 UNL     1     -16.197   5.635   0.959  1.00  0.00     0.102 C 
HETATM    4  C10 UNL     1     -17.249   4.859   1.701  1.00  0.00     0.046 C 
HETATM    5  C9  UNL     1     -18.265   5.916   2.071  1.00  0.00     0.038 C 
HETATM    6  C8  UNL     1     -17.268   6.853   2.724  1.00  0.00    -0.065 C 
HETATM    7  C7  UNL     1     -17.125   7.512   3.827  1.00  0.00     0.009 C 
HETATM    8  C36 UNL     1     -16.194   6.938   1.644  1.00  0.00     0.063 C 
HETATM    9  C3  UNL     1     -15.937   8.360   4.097  1.00  0.00     0.151 C 
HETATM   10  O2  UNL     1     -15.246   8.669   2.936  1.00  0.00    -0.351 OA
HETATM   11  C2  UNL     1     -14.924   7.449   2.239  1.00  0.00     0.275 C 
HETATM   12  C37 UNL     1     -16.714   8.097   0.795  1.00  0.00     0.028 C 
BRANCH   9  13
HETATM   13  C4  UNL     1     -16.316   9.598   4.823  1.00  0.00     0.010 C 
HETATM   14  C5  UNL     1     -16.651  10.771   3.970  1.00  0.00     0.012 C 
HETATM   15  C6  UNL     1     -17.499   9.381   5.760  1.00  0.00     0.012 C 
ENDBRANCH   9  13
BRANCH  11  16
HETATM   16  O1  UNL     1     -14.221   6.628   3.063  1.00  0.00    -0.365 OA
HETATM   17  C1  UNL     1     -12.900   6.430   2.775  1.00  0.00     0.204 C 
ENDBRANCH  11  16
BRANCH   3  18
HETATM   18  O3  UNL     1     -15.002   4.899   1.168  1.00  0.00    -0.386 OA
ATOM     19  H3  UNL     1     -14.630   4.800   0.300  1.00  0.00     0.210 HD
ENDBRANCH   3  18
ENDBRANCH   2   3
BRANCH   2  20
HETATM   20  O4  UNL     1     -15.102   5.895  -1.066  1.00  0.00    -0.390 OA
ATOM     21  H4  UNL     1     -15.086   5.354  -1.846  1.00  0.00     0.210 HD
ENDBRANCH   2  20
ENDBRANCH   1   2
BRANCH   1  22
HETATM   22  C14 UNL     1     -16.313   3.407  -1.417  1.00  0.00     0.045 C 
BRANCH  22  23
HETATM   23  C15 UNL     1     -17.005   2.238  -0.803  1.00  0.00     0.114 C 
BRANCH  23  24
HETATM   24  C16 UNL     1     -16.202   1.367   0.048  1.00  0.00     0.266 C 
HETATM   25  O5  UNL     1     -15.461   1.793   0.959  1.00  0.00    -0.265 OA
BRANCH  24  26
HETATM   26  O6  UNL     1     -16.204  -0.036  -0.098  1.00  0.00    -0.244 OA
BRANCH  26  27
HETATM   27  C17 UNL     1     -17.356  -0.782   0.079  1.00  0.00     0.274 C 
HETATM   28  O7  UNL     1     -18.218  -0.746  -0.831  1.00  0.00    -0.264 OA
BRANCH  27  29
HETATM   29  C18 UNL     1     -17.609  -1.610   1.283  1.00  0.00     0.109 C 
HETATM   30  C19 UNL     1     -18.982  -2.167   1.161  1.00  0.00    -0.015 C 
HETATM   31  C20 UNL     1     -19.553  -2.635   2.257  1.00  0.00    -0.020 C 
HETATM   32  C21 UNL     1     -18.788  -2.572   3.524  1.00  0.00    -0.023 C 
HETATM   33  C22 UNL     1     -17.748  -3.700   3.478  1.00  0.00     0.020 C 
HETATM   34  C23 UNL     1     -19.745  -2.963   4.626  1.00  0.00     0.014 C 
HETATM   35  C29 UNL     1     -18.096  -1.294   3.739  1.00  0.00     0.002 C 
HETATM   36  C24 UNL     1     -20.671  -1.812   4.877  1.00  0.00     0.005 C 
HETATM   37  C25 UNL     1     -19.803  -0.706   5.490  1.00  0.00    -0.014 C 
HETATM   38  C26 UNL     1     -20.739   0.401   5.903  1.00  0.00     0.010 C 
HETATM   39  C27 UNL     1     -18.877  -0.223   4.430  1.00  0.00    -0.010 C 
HETATM   40  C28 UNL     1     -17.885   0.741   5.095  1.00  0.00     0.011 C 
HETATM   41  C30 UNL     1     -17.521  -0.700   2.477  1.00  0.00     0.024 C 
ENDBRANCH  27  29
ENDBRANCH  26  27
ENDBRANCH  24  26
ENDBRANCH  23  24
ENDBRANCH  22  23
ENDBRANCH   1  22
BRANCH   1  42
HETATM   42  O8  UNL     1     -18.386   4.458  -1.078  1.00  0.00    -0.340 OA
BRANCH  42  43
HETATM   43  C31 UNL     1     -19.501   5.115  -1.478  1.00  0.00     0.107 A 
HETATM   44  C32 UNL     1     -19.729   6.466  -1.364  1.00  0.00     0.041 A 
HETATM   45  C33 UNL     1     -20.908   7.081  -1.801  1.00  0.00     0.020 A 
HETATM   46  C34 UNL     1     -21.870   6.277  -2.368  1.00  0.00     0.089 A 
HETATM   47  N1  UNL     1     -21.655   4.954  -2.483  1.00  0.00    -0.354 N 
HETATM   48  C35 UNL     1     -20.523   4.354  -2.066  1.00  0.00     0.137 A 
ATOM     49  H1  UNL     1     -22.383   4.379  -2.907  1.00  0.00     0.166 HD
HETATM   50 CL1  UNL     1     -20.318   2.612  -2.267  1.00  0.00    -0.061 Cl
ENDBRANCH  42  43
ENDBRANCH   1  42
TORSDOF 14
ENDMDL
MODEL 4
REMARK VINA RESULT: -7.646021052      7.789     12.544
REMARK  14 active torsions:
REMARK  status: ('A' for Active; 'I' for Inactive)
REMARK    1  A    between atoms: O1_2  and  C2_3 
REMARK    2  A    between atoms: C3_5  and  C4_6 
REMARK    3  A    between atoms: C11_13  and  O3_14 
REMARK    4  A    between atoms: C11_13  and  C12_16 
REMARK    5  A    between atoms: C12_16  and  O4_17 
REMARK    6  A    between atoms: C12_16  and  C13_19 
REMARK    7  A    between atoms: C13_19  and  C14_20 
REMARK    8  A    between atoms: C13_19  and  O8_40 
REMARK    9  A    between atoms: C14_20  and  C15_21 
REMARK   10  A    between atoms: C15_21  and  C16_22 
REMARK   11  A    between atoms: C16_22  and  O6_24 
REMARK   12  A    between atoms: O6_24  and  C17_25 
REMARK   13  A    between atoms: C17_25  and  C18_27 
REMARK   14  A    between atoms: O8_40  and  C31_41 
ROOT
HETATM    1  C13 UNL     1     -15.950  13.404   4.766  1.00  0.00     0.161 C 
ENDROOT
BRANCH   1   2
HETATM    2  C12 UNL     1     -16.293  14.750   5.230  1.00  0.00     0.183 C 
BRANCH   2   3
HETATM    3  C11 UNL     1     -15.926  15.288   6.536  1.00  0.00     0.102 C 
HETATM    4  C10 UNL     1     -15.848  14.288   7.655  1.00  0.00     0.046 C 
HETATM    5  C9  UNL     1     -17.252  14.285   8.217  1.00  0.00     0.038 C 
HETATM    6  C8  UNL     1     -17.333  15.786   8.412  1.00  0.00    -0.065 C 
HETATM    7  C7  UNL     1     -17.649  16.635   9.333  1.00  0.00     0.009 C 
HETATM    8  C36 UNL     1     -16.886  16.284   7.041  1.00  0.00     0.063 C 
HETATM    9  C3  UNL     1     -17.589  18.103   9.116  1.00  0.00     0.151 C 
HETATM   10  O2  UNL     1     -17.557  18.425   7.769  1.00  0.00    -0.351 OA
HETATM   11  C2  UNL     1     -16.472  17.715   7.138  1.00  0.00     0.275 C 
HETATM   12  C37 UNL     1     -18.214  16.318   6.286  1.00  0.00     0.028 C 
BRANCH   9  13
HETATM   13  C4  UNL     1     -18.719  18.791   9.789  1.00  0.00     0.010 C 
HETATM   14  C5  UNL     1     -19.730  17.903  10.425  1.00  0.00     0.012 C 
HETATM   15  C6  UNL     1     -18.248  19.764  10.864  1.00  0.00     0.012 C 
ENDBRANCH   9  13
BRANCH  11  16
HETATM   16  O1  UNL     1     -15.308  18.009   7.775  1.00  0.00    -0.365 OA
HETATM   17  C1  UNL     1     -14.618  19.108   7.347  1.00  0.00     0.204 C 
ENDBRANCH  11  16
BRANCH   3  18
HETATM   18  O3  UNL     1     -14.607  15.800   6.426  1.00  0.00    -0.386 OA
ATOM     19  H3  UNL     1     -14.236  15.341   5.681  1.00  0.00     0.210 HD
ENDBRANCH   3  18
ENDBRANCH   2   3
BRANCH   2  20
HETATM   20  O4  UNL     1     -15.721  15.610   4.251  1.00  0.00    -0.390 OA
ATOM     21  H4  UNL     1     -15.626  15.100   3.455  1.00  0.00     0.210 HD
ENDBRANCH   2  20
ENDBRANCH   1   2
BRANCH   1  22
HETATM   22  C14 UNL     1     -17.096  12.425   4.684  1.00  0.00     0.045 C 
BRANCH  22  23
HETATM   23  C15 UNL     1     -16.760  11.013   5.023  1.00  0.00     0.114 C 
BRANCH  23  24
HETATM   24  C16 UNL     1     -17.476  10.414   6.145  1.00  0.00     0.266 C 
HETATM   25  O5  UNL     1     -17.434  10.869   7.306  1.00  0.00    -0.265 OA
BRANCH  24  26
HETATM   26  O6  UNL     1     -18.278   9.263   5.995  1.00  0.00    -0.244 OA
BRANCH  26  27
HETATM   27  C17 UNL     1     -17.723   8.014   5.786  1.00  0.00     0.274 C 
HETATM   28  O7  UNL     1     -17.175   7.450   6.763  1.00  0.00    -0.264 OA
BRANCH  27  29
HETATM   29  C18 UNL     1     -17.747   7.324   4.474  1.00  0.00     0.109 C 
HETATM   30  C19 UNL     1     -17.608   5.867   4.732  1.00  0.00    -0.015 C 
HETATM   31  C20 UNL     1     -17.250   5.096   3.720  1.00  0.00    -0.020 C 
HETATM   32  C21 UNL     1     -17.015   5.736   2.404  1.00  0.00    -0.023 C 
HETATM   33  C22 UNL     1     -18.392   6.042   1.800  1.00  0.00     0.020 C 
HETATM   34  C23 UNL     1     -16.418   4.676   1.508  1.00  0.00     0.014 C 
HETATM   35  C29 UNL     1     -16.239   6.982   2.478  1.00  0.00     0.002 C 
HETATM   36  C24 UNL     1     -14.989   4.471   1.907  1.00  0.00     0.005 C 
HETATM   37  C25 UNL     1     -14.260   5.763   1.517  1.00  0.00    -0.014 C 
HETATM   38  C26 UNL     1     -12.791   5.521   1.757  1.00  0.00     0.010 C 
HETATM   39  C27 UNL     1     -14.753   6.843   2.415  1.00  0.00    -0.010 C 
HETATM   40  C28 UNL     1     -14.170   8.166   1.898  1.00  0.00     0.011 C 
HETATM   41  C30 UNL     1     -16.570   7.827   3.683  1.00  0.00     0.024 C 
ENDBRANCH  27  29
ENDBRANCH  26  27
ENDBRANCH  24  26
ENDBRANCH  23  24
ENDBRANCH  22  23
ENDBRANCH   1  22
BRANCH   1  42
HETATM   42  O8  UNL     1     -15.197  13.287   3.604  1.00  0.00    -0.340 OA
BRANCH  42  43
HETATM   43  C31 UNL     1     -13.949  12.798   3.401  1.00  0.00     0.107 A 
HETATM   44  C32 UNL     1     -12.837  13.079   4.159  1.00  0.00     0.041 A 
HETATM   45  C33 UNL     1     -11.575  12.536   3.892  1.00  0.00     0.020 A 
HETATM   46  C34 UNL     1     -11.465  11.685   2.817  1.00  0.00     0.089 A 
HETATM   47  N1  UNL     1     -12.548  11.405   2.070  1.00  0.00    -0.354 N 
HETATM   48  C35 UNL     1     -13.767  11.923   2.319  1.00  0.00     0.137 A 
ATOM     49  H1  UNL     1     -12.441  10.771   1.277  1.00  0.00     0.166 HD
HETATM   50 CL1  UNL     1     -15.139  11.493   1.295  1.00  0.00    -0.061 Cl
ENDBRANCH  42  43
ENDBRANCH   1  42
TORSDOF 14
ENDMDL
MODEL 5
REMARK VINA RESULT: -7.641725129      3.356      8.002
REMARK  14 active torsions:
REMARK  status: ('A' for Active; 'I' for Inactive)
REMARK    1  A    between atoms: O1_2  and  C2_3 
REMARK    2  A    between atoms: C3_5  and  C4_6 
REMARK    3  A    between atoms: C11_13  and  O3_14 
REMARK    4  A    between atoms: C11_13  and  C12_16 
REMARK    5  A    between atoms: C12_16  and  O4_17 
REMARK    6  A    between atoms: C12_16  and  C13_19 
REMARK    7  A    between atoms: C13_19  and  C14_20 
REMARK    8  A    between atoms: C13_19  and  O8_40 
REMARK    9  A    between atoms: C14_20  and  C15_21 
REMARK   10  A    between atoms: C15_21  and  C16_22 
REMARK   11  A    between atoms: C16_22  and  O6_24 
REMARK   12  A    between atoms: O6_24  and  C17_25 
REMARK   13  A    between atoms: C17_25  and  C18_27 
REMARK   14  A    between atoms: O8_40  and  C31_41 
ROOT
HETATM    1  C13 UNL     1     -16.986   2.551   2.620  1.00  0.00     0.161 C 
ENDROOT
BRANCH   1   2
HETATM    2  C12 UNL     1     -16.473   3.831   3.114  1.00  0.00     0.183 C 
BRANCH   2   3
HETATM    3  C11 UNL     1     -17.248   5.068   3.150  1.00  0.00     0.102 C 
HETATM    4  C10 UNL     1     -18.162   5.299   1.979  1.00  0.00     0.046 C 
HETATM    5  C9  UNL     1     -17.288   6.052   1.000  1.00  0.00     0.038 C 
HETATM    6  C8  UNL     1     -16.861   7.125   1.981  1.00  0.00    -0.065 C 
HETATM    7  C7  UNL     1     -16.795   8.413   2.051  1.00  0.00     0.009 C 
HETATM    8  C36 UNL     1     -16.408   6.276   3.165  1.00  0.00     0.063 C 
HETATM    9  C3  UNL     1     -16.294   9.120   3.257  1.00  0.00     0.151 C 
HETATM   10  O2  UNL     1     -15.565   8.279   4.083  1.00  0.00    -0.351 OA
HETATM   11  C2  UNL     1     -16.360   7.119   4.397  1.00  0.00     0.275 C 
HETATM   12  C37 UNL     1     -14.942   6.028   2.813  1.00  0.00     0.028 C 
BRANCH   9  13
HETATM   13  C4  UNL     1     -15.489  10.310   2.884  1.00  0.00     0.010 C 
HETATM   14  C5  UNL     1     -15.477  10.656   1.436  1.00  0.00     0.012 C 
HETATM   15  C6  UNL     1     -15.927  11.564   3.633  1.00  0.00     0.012 C 
ENDBRANCH   9  13
BRANCH  11  16
HETATM   16  O1  UNL     1     -17.535   7.512   4.955  1.00  0.00    -0.365 OA
HETATM   17  C1  UNL     1     -17.522   7.839   6.282  1.00  0.00     0.204 C 
ENDBRANCH  11  16
BRANCH   3  18
HETATM   18  O3  UNL     1     -18.120   4.988   4.267  1.00  0.00    -0.386 OA
ATOM     19  H3  UNL     1     -18.391   4.078   4.291  1.00  0.00     0.210 HD
ENDBRANCH   3  18
ENDBRANCH   2   3
BRANCH   2  20
HETATM   20  O4  UNL     1     -16.075   3.553   4.452  1.00  0.00    -0.390 OA
ATOM     21  H4  UNL     1     -15.337   2.957   4.402  1.00  0.00     0.210 HD
ENDBRANCH   2  20
ENDBRANCH   1   2
BRANCH   1  22
HETATM   22  C14 UNL     1     -16.397   2.066   1.318  1.00  0.00     0.045 C 
BRANCH  22  23
HETATM   23  C15 UNL     1     -15.527   3.042   0.603  1.00  0.00     0.114 C 
BRANCH  23  24
HETATM   24  C16 UNL     1     -14.198   2.582   0.214  1.00  0.00     0.266 C 
HETATM   25  O5  UNL     1     -13.701   1.509   0.613  1.00  0.00    -0.265 OA
BRANCH  24  26
HETATM   26  O6  UNL     1     -13.369   3.326  -0.651  1.00  0.00    -0.244 OA
BRANCH  26  27
HETATM   27  C17 UNL     1     -12.981   4.619  -0.350  1.00  0.00     0.274 C 
HETATM   28  O7  UNL     1     -12.267   4.790   0.667  1.00  0.00    -0.264 OA
BRANCH  27  29
HETATM   29  C18 UNL     1     -13.366   5.794  -1.167  1.00  0.00     0.109 C 
HETATM   30  C19 UNL     1     -13.650   6.915  -0.233  1.00  0.00    -0.015 C 
HETATM   31  C20 UNL     1     -14.343   7.940  -0.697  1.00  0.00    -0.020 C 
HETATM   32  C21 UNL     1     -14.787   7.900  -2.110  1.00  0.00    -0.023 C 
HETATM   33  C22 UNL     1     -13.561   8.223  -2.976  1.00  0.00     0.020 C 
HETATM   34  C23 UNL     1     -15.724   9.069  -2.302  1.00  0.00     0.014 C 
HETATM   35  C29 UNL     1     -15.335   6.601  -2.525  1.00  0.00     0.002 C 
HETATM   36  C24 UNL     1     -17.034   8.734  -1.655  1.00  0.00     0.005 C 
HETATM   37  C25 UNL     1     -17.640   7.609  -2.502  1.00  0.00    -0.014 C 
HETATM   38  C26 UNL     1     -19.030   7.366  -1.972  1.00  0.00     0.010 C 
HETATM   39  C27 UNL     1     -16.798   6.396  -2.304  1.00  0.00    -0.010 C 
HETATM   40  C28 UNL     1     -17.289   5.333  -3.296  1.00  0.00     0.011 C 
HETATM   41  C30 UNL     1     -14.611   5.421  -1.925  1.00  0.00     0.024 C 
ENDBRANCH  27  29
ENDBRANCH  26  27
ENDBRANCH  24  26
ENDBRANCH  23  24
ENDBRANCH  22  23
ENDBRANCH   1  22
BRANCH   1  42
HETATM   42  O8  UNL     1     -17.022   1.479   3.504  1.00  0.00    -0.340 OA
BRANCH  42  43
HETATM   43  C31 UNL     1     -18.065   0.875   4.124  1.00  0.00     0.107 A 
HETATM   44  C32 UNL     1     -18.995   1.492   4.928  1.00  0.00     0.041 A 
HETATM   45  C33 UNL     1     -20.051   0.805   5.538  1.00  0.00     0.020 A 
HETATM   46  C34 UNL     1     -20.143  -0.549   5.308  1.00  0.00     0.089 A 
HETATM   47  N1  UNL     1     -19.238  -1.160   4.524  1.00  0.00    -0.354 N 
HETATM   48  C35 UNL     1     -18.217  -0.507   3.933  1.00  0.00     0.137 A 
ATOM     49  H1  UNL     1     -19.327  -2.164   4.369  1.00  0.00     0.166 HD
HETATM   50 CL1  UNL     1     -17.079  -1.383   2.908  1.00  0.00    -0.061 Cl
ENDBRANCH  42  43
ENDBRANCH   1  42
TORSDOF 14
ENDMDL
