MODEL 1
REMARK VINA RESULT: -7.714988131      0.000      0.000
REMARK  13 active torsions:
REMARK  status: ('A' for Active; 'I' for Inactive)
REMARK    1  A    between atoms: O1_2  and  C2_3 
REMARK    2  A    between atoms: C2_3  and  C3_4 
REMARK    3  A    between atoms: C6_9  and  O4_10 
REMARK    4  A    between atoms: C9_14  and  O5_15 
REMARK    5  A    between atoms: C10_17  and  O6_18 
REMARK    6  A    between atoms: C19_27  and  C20_28 
REMARK    7  A    between atoms: C20_28  and  C21_29 
REMARK    8  A    between atoms: C22_30  and  C23_31 
REMARK    9  A    between atoms: C23_31  and  C24_32 
REMARK   10  A    between atoms: C24_32  and  C25_33 
REMARK   11  A    between atoms: C25_33  and  O7_35 
REMARK   12  A    between atoms: O7_35  and  C27_36 
REMARK   13  A    between atoms: C29_40  and  O10_41 
ROOT
HETATM    1  C3  UNL     1     -14.639   1.064  -1.976  1.00  0.00     0.178 C 
HETATM    2  O2  UNL     1     -13.925   1.225  -0.801  1.00  0.00    -0.312 OA
HETATM    3  C4  UNL     1     -12.627   1.463  -0.538  1.00  0.00     0.261 C 
HETATM    4  O3  UNL     1     -11.906   0.598   0.074  1.00  0.00    -0.265 OA
HETATM    5  C5  UNL     1     -11.876   2.721  -0.905  1.00  0.00     0.143 C 
HETATM    6  C6  UNL     1     -12.813   3.879  -0.752  1.00  0.00     0.133 C 
HETATM    7  C7  UNL     1     -12.127   5.225  -0.607  1.00  0.00     0.042 C 
HETATM    8  C8  UNL     1     -11.208   5.451  -1.818  1.00  0.00     0.015 C 
HETATM    9  C9  UNL     1     -13.217   6.249  -0.579  1.00  0.00     0.157 C 
HETATM   10  C10 UNL     1     -13.600   6.740   0.793  1.00  0.00     0.172 C 
HETATM   11  C12 UNL     1     -14.533   7.875   0.660  1.00  0.00     0.007 C 
HETATM   12  C13 UNL     1     -15.339   8.421   1.542  1.00  0.00    -0.001 C 
HETATM   13  C14 UNL     1     -15.660   8.194   2.901  1.00  0.00     0.006 C 
HETATM   14  C15 UNL     1     -16.659   7.574   3.553  1.00  0.00    -0.062 C 
HETATM   15  C16 UNL     1     -16.573   7.588   5.099  1.00  0.00     0.048 C 
HETATM   16  C17 UNL     1     -17.831   6.933   3.047  1.00  0.00     0.005 C 
HETATM   17  C18 UNL     1     -18.133   5.817   2.431  1.00  0.00     0.010 C 
HETATM   18  C19 UNL     1     -17.366   4.690   1.977  1.00  0.00     0.176 C 
HETATM   19  O9  UNL     1     -16.770   5.005   0.700  1.00  0.00    -0.317 OA
HETATM   20  C29 UNL     1     -17.436   5.165  -0.500  1.00  0.00     0.179 C 
HETATM   21  C30 UNL     1     -18.255   4.203  -1.207  1.00  0.00     0.066 C 
HETATM   22  C31 UNL     1     -17.890   3.118  -1.889  1.00  0.00    -0.077 C 
HETATM   23  C32 UNL     1     -19.051   2.351  -2.493  1.00  0.00     0.043 C 
HETATM   24  C33 UNL     1     -16.547   2.626  -2.159  1.00  0.00     0.062 C 
HETATM   25  C34 UNL     1     -16.145   1.274  -1.699  1.00  0.00     0.066 C 
HETATM   26  C35 UNL     1     -16.856   0.146  -2.443  1.00  0.00     0.036 C 
HETATM   27 CL1  UNL     1     -16.482   0.972   0.021  1.00  0.00    -0.116 Cl
ENDROOT
BRANCH  18  28
HETATM   28  C20 UNL     1     -16.410   3.966   2.787  1.00  0.00     0.009 C 
BRANCH  28  29
HETATM   29  C21 UNL     1     -16.582   3.465   4.141  1.00  0.00    -0.005 C 
HETATM   30  C22 UNL     1     -17.785   3.149   4.880  1.00  0.00    -0.027 C 
BRANCH  30  31
HETATM   31  C23 UNL     1     -18.699   2.054   4.551  1.00  0.00     0.029 C 
BRANCH  31  32
HETATM   32  C24 UNL     1     -17.847   0.894   3.979  1.00  0.00     0.036 C 
BRANCH  32  33
HETATM   33  C25 UNL     1     -18.342  -0.413   4.556  1.00  0.00     0.128 C 
HETATM   34  C26 UNL     1     -19.579  -0.086   5.387  1.00  0.00     0.040 C 
BRANCH  33  35
HETATM   35  O7  UNL     1     -18.782  -1.276   3.509  1.00  0.00    -0.317 OA
BRANCH  35  36
HETATM   36  C27 UNL     1     -17.867  -1.690   2.560  1.00  0.00     0.255 C 
HETATM   37  C28 UNL     1     -18.317  -1.909   1.146  1.00  0.00     0.126 C 
HETATM   38  O8  UNL     1     -16.652  -1.905   2.793  1.00  0.00    -0.266 OA
ENDBRANCH  35  36
ENDBRANCH  33  35
ENDBRANCH  32  33
ENDBRANCH  31  32
ENDBRANCH  30  31
ENDBRANCH  28  29
ENDBRANCH  18  28
BRANCH  20  39
HETATM   39  O10 UNL     1     -17.333   6.334  -1.100  1.00  0.00    -0.341 OA
ATOM     40  H10 UNL     1     -17.688   7.091  -0.649  1.00  0.00     0.220 HD
ENDBRANCH  20  39
BRANCH  10  41
HETATM   41  O6  UNL     1     -12.503   7.013   1.583  1.00  0.00    -0.384 OA
HETATM   42  C11 UNL     1     -12.390   6.310   2.746  1.00  0.00     0.202 C 
ENDBRANCH  10  41
BRANCH   1  43
HETATM   43  C2  UNL     1     -14.343  -0.223  -2.660  1.00  0.00     0.201 C 
BRANCH  43  44
HETATM   44  O1  UNL     1     -13.934  -1.241  -1.821  1.00  0.00    -0.393 OA
HETATM   45  C1  UNL     1     -12.825  -1.921  -2.260  1.00  0.00     0.201 C 
ENDBRANCH  43  44
ENDBRANCH   1  43
BRANCH   9  46
HETATM   46  O5  UNL     1     -12.759   7.341  -1.357  1.00  0.00    -0.392 OA
ATOM     47  H5  UNL     1     -13.515   7.896  -1.510  1.00  0.00     0.210 HD
ENDBRANCH   9  46
BRANCH   6  48
HETATM   48  O4  UNL     1     -13.562   3.719   0.415  1.00  0.00    -0.395 OA
ATOM     49  H4  UNL     1     -14.445   3.453   0.189  1.00  0.00     0.210 HD
ENDBRANCH   6  48
TORSDOF 13
ENDMDL
MODEL 2
REMARK VINA RESULT: -7.615932765      1.220      2.025
REMARK  13 active torsions:
REMARK  status: ('A' for Active; 'I' for Inactive)
REMARK    1  A    between atoms: O1_2  and  C2_3 
REMARK    2  A    between atoms: C2_3  and  C3_4 
REMARK    3  A    between atoms: C6_9  and  O4_10 
REMARK    4  A    between atoms: C9_14  and  O5_15 
REMARK    5  A    between atoms: C10_17  and  O6_18 
REMARK    6  A    between atoms: C19_27  and  C20_28 
REMARK    7  A    between atoms: C20_28  and  C21_29 
REMARK    8  A    between atoms: C22_30  and  C23_31 
REMARK    9  A    between atoms: C23_31  and  C24_32 
REMARK   10  A    between atoms: C24_32  and  C25_33 
REMARK   11  A    between atoms: C25_33  and  O7_35 
REMARK   12  A    between atoms: O7_35  and  C27_36 
REMARK   13  A    between atoms: C29_40  and  O10_41 
ROOT
HETATM    1  C3  UNL     1     -14.567   1.177  -1.983  1.00  0.00     0.178 C 
HETATM    2  O2  UNL     1     -13.882   1.314  -0.788  1.00  0.00    -0.312 OA
HETATM    3  C4  UNL     1     -12.593   1.558  -0.489  1.00  0.00     0.261 C 
HETATM    4  O3  UNL     1     -11.876   0.684   0.116  1.00  0.00    -0.265 OA
HETATM    5  C5  UNL     1     -11.848   2.834  -0.805  1.00  0.00     0.143 C 
HETATM    6  C6  UNL     1     -12.800   3.977  -0.642  1.00  0.00     0.133 C 
HETATM    7  C7  UNL     1     -12.133   5.325  -0.445  1.00  0.00     0.042 C 
HETATM    8  C8  UNL     1     -11.189   5.594  -1.628  1.00  0.00     0.015 C 
HETATM    9  C9  UNL     1     -13.234   6.337  -0.414  1.00  0.00     0.157 C 
HETATM   10  C10 UNL     1     -13.653   6.787   0.961  1.00  0.00     0.172 C 
HETATM   11  C12 UNL     1     -14.595   7.914   0.838  1.00  0.00     0.007 C 
HETATM   12  C13 UNL     1     -15.428   8.428   1.716  1.00  0.00    -0.001 C 
HETATM   13  C14 UNL     1     -15.777   8.160   3.061  1.00  0.00     0.006 C 
HETATM   14  C15 UNL     1     -16.784   7.513   3.672  1.00  0.00    -0.062 C 
HETATM   15  C16 UNL     1     -16.733   7.485   5.220  1.00  0.00     0.048 C 
HETATM   16  C17 UNL     1     -17.936   6.874   3.123  1.00  0.00     0.005 C 
HETATM   17  C18 UNL     1     -18.212   5.772   2.470  1.00  0.00     0.010 C 
HETATM   18  C19 UNL     1     -17.423   4.666   2.003  1.00  0.00     0.176 C 
HETATM   19  O9  UNL     1     -16.801   5.022   0.749  1.00  0.00    -0.317 OA
HETATM   20  C29 UNL     1     -17.442   5.208  -0.461  1.00  0.00     0.179 C 
HETATM   21  C30 UNL     1     -18.234   4.257  -1.213  1.00  0.00     0.066 C 
HETATM   22  C31 UNL     1     -17.842   3.194  -1.916  1.00  0.00    -0.077 C 
HETATM   23  C32 UNL     1     -18.981   2.433  -2.567  1.00  0.00     0.043 C 
HETATM   24  C33 UNL     1     -16.488   2.725  -2.168  1.00  0.00     0.062 C 
HETATM   25  C34 UNL     1     -16.081   1.364  -1.735  1.00  0.00     0.066 C 
HETATM   26  C35 UNL     1     -16.763   0.250  -2.526  1.00  0.00     0.036 C 
HETATM   27 CL1  UNL     1     -16.454   1.012  -0.032  1.00  0.00    -0.116 Cl
ENDROOT
BRANCH  18  28
HETATM   28  C20 UNL     1     -16.477   3.930   2.815  1.00  0.00     0.009 C 
BRANCH  28  29
HETATM   29  C21 UNL     1     -16.646   3.461   4.181  1.00  0.00    -0.005 C 
HETATM   30  C22 UNL     1     -17.786   2.856   4.833  1.00  0.00    -0.027 C 
BRANCH  30  31
HETATM   31  C23 UNL     1     -18.326   1.536   4.505  1.00  0.00     0.029 C 
BRANCH  31  32
HETATM   32  C24 UNL     1     -19.687   1.397   5.231  1.00  0.00     0.036 C 
BRANCH  32  33
HETATM   33  C25 UNL     1     -20.045  -0.069   5.333  1.00  0.00     0.128 C 
HETATM   34  C26 UNL     1     -18.826  -0.853   4.856  1.00  0.00     0.040 C 
BRANCH  33  35
HETATM   35  O7  UNL     1     -20.244  -0.431   6.699  1.00  0.00    -0.317 OA
BRANCH  35  36
HETATM   36  C27 UNL     1     -21.437  -0.096   7.309  1.00  0.00     0.255 C 
HETATM   37  C28 UNL     1     -21.508  -0.025   8.805  1.00  0.00     0.126 C 
HETATM   38  O8  UNL     1     -22.501   0.161   6.692  1.00  0.00    -0.266 OA
ENDBRANCH  35  36
ENDBRANCH  33  35
ENDBRANCH  32  33
ENDBRANCH  31  32
ENDBRANCH  30  31
ENDBRANCH  28  29
ENDBRANCH  18  28
BRANCH  20  39
HETATM   39  O10 UNL     1     -17.338   6.393  -1.027  1.00  0.00    -0.341 OA
ATOM     40  H10 UNL     1     -17.555   6.459  -1.949  1.00  0.00     0.220 HD
ENDBRANCH  20  39
BRANCH  10  41
HETATM   41  O6  UNL     1     -12.578   7.049   1.784  1.00  0.00    -0.384 OA
HETATM   42  C11 UNL     1     -12.424   6.244   2.874  1.00  0.00     0.202 C 
ENDBRANCH  10  41
BRANCH   1  43
HETATM   43  C2  UNL     1     -14.241  -0.086  -2.695  1.00  0.00     0.201 C 
BRANCH  43  44
HETATM   44  O1  UNL     1     -13.717  -1.082  -1.893  1.00  0.00    -0.393 OA
HETATM   45  C1  UNL     1     -12.666  -1.763  -2.455  1.00  0.00     0.201 C 
ENDBRANCH  43  44
ENDBRANCH   1  43
BRANCH   9  46
HETATM   46  O5  UNL     1     -12.771   7.454  -1.151  1.00  0.00    -0.392 OA
ATOM     47  H5  UNL     1     -12.516   8.110  -0.512  1.00  0.00     0.210 HD
ENDBRANCH   9  46
BRANCH   6  48
HETATM   48  O4  UNL     1     -13.573   3.777   0.503  1.00  0.00    -0.395 OA
ATOM     49  H4  UNL     1     -14.429   4.171   0.379  1.00  0.00     0.210 HD
ENDBRANCH   6  48
TORSDOF 13
ENDMDL
MODEL 3
REMARK VINA RESULT: -7.546140120      0.959      1.308
REMARK  13 active torsions:
REMARK  status: ('A' for Active; 'I' for Inactive)
REMARK    1  A    between atoms: O1_2  and  C2_3 
REMARK    2  A    between atoms: C2_3  and  C3_4 
REMARK    3  A    between atoms: C6_9  and  O4_10 
REMARK    4  A    between atoms: C9_14  and  O5_15 
REMARK    5  A    between atoms: C10_17  and  O6_18 
REMARK    6  A    between atoms: C19_27  and  C20_28 
REMARK    7  A    between atoms: C20_28  and  C21_29 
REMARK    8  A    between atoms: C22_30  and  C23_31 
REMARK    9  A    between atoms: C23_31  and  C24_32 
REMARK   10  A    between atoms: C24_32  and  C25_33 
REMARK   11  A    between atoms: C25_33  and  O7_35 
REMARK   12  A    between atoms: O7_35  and  C27_36 
REMARK   13  A    between atoms: C29_40  and  O10_41 
ROOT
HETATM    1  C3  UNL     1     -14.804   1.360  -1.913  1.00  0.00     0.178 C 
HETATM    2  O2  UNL     1     -14.092   1.460  -0.731  1.00  0.00    -0.312 OA
HETATM    3  C4  UNL     1     -12.791   1.662  -0.454  1.00  0.00     0.261 C 
HETATM    4  O3  UNL     1     -12.089   0.760   0.125  1.00  0.00    -0.265 OA
HETATM    5  C5  UNL     1     -12.014   2.919  -0.769  1.00  0.00     0.143 C 
HETATM    6  C6  UNL     1     -12.929   4.088  -0.572  1.00  0.00     0.133 C 
HETATM    7  C7  UNL     1     -12.219   5.413  -0.371  1.00  0.00     0.042 C 
HETATM    8  C8  UNL     1     -11.290   5.670  -1.570  1.00  0.00     0.015 C 
HETATM    9  C9  UNL     1     -13.288   6.457  -0.305  1.00  0.00     0.157 C 
HETATM   10  C10 UNL     1     -13.667   6.900   1.083  1.00  0.00     0.172 C 
HETATM   11  C12 UNL     1     -14.577   8.057   0.993  1.00  0.00     0.007 C 
HETATM   12  C13 UNL     1     -15.377   8.583   1.894  1.00  0.00    -0.001 C 
HETATM   13  C14 UNL     1     -15.707   8.308   3.242  1.00  0.00     0.006 C 
HETATM   14  C15 UNL     1     -16.720   7.682   3.865  1.00  0.00    -0.062 C 
HETATM   15  C16 UNL     1     -16.640   7.632   5.411  1.00  0.00     0.048 C 
HETATM   16  C17 UNL     1     -17.902   7.085   3.331  1.00  0.00     0.005 C 
HETATM   17  C18 UNL     1     -18.223   6.000   2.669  1.00  0.00     0.010 C 
HETATM   18  C19 UNL     1     -17.476   4.877   2.173  1.00  0.00     0.176 C 
HETATM   19  O9  UNL     1     -16.869   5.232   0.912  1.00  0.00    -0.317 OA
HETATM   20  C29 UNL     1     -17.528   5.453  -0.283  1.00  0.00     0.179 C 
HETATM   21  C30 UNL     1     -18.362   4.535  -1.031  1.00  0.00     0.066 C 
HETATM   22  C31 UNL     1     -18.016   3.471  -1.755  1.00  0.00    -0.077 C 
HETATM   23  C32 UNL     1     -19.189   2.752  -2.392  1.00  0.00     0.043 C 
HETATM   24  C33 UNL     1     -16.682   2.965  -2.040  1.00  0.00     0.062 C 
HETATM   25  C34 UNL     1     -16.307   1.588  -1.633  1.00  0.00     0.066 C 
HETATM   26  C35 UNL     1     -17.037   0.504  -2.424  1.00  0.00     0.036 C 
HETATM   27 CL1  UNL     1     -16.656   1.224   0.073  1.00  0.00    -0.116 Cl
ENDROOT
BRANCH  18  28
HETATM   28  C20 UNL     1     -16.538   4.103   2.957  1.00  0.00     0.009 C 
BRANCH  28  29
HETATM   29  C21 UNL     1     -16.804   3.312   4.147  1.00  0.00    -0.005 C 
HETATM   30  C22 UNL     1     -17.705   2.200   4.354  1.00  0.00    -0.027 C 
BRANCH  30  31
HETATM   31  C23 UNL     1     -17.556   0.884   3.732  1.00  0.00     0.029 C 
BRANCH  31  32
HETATM   32  C24 UNL     1     -18.496  -0.092   4.481  1.00  0.00     0.036 C 
BRANCH  32  33
HETATM   33  C25 UNL     1     -18.653  -1.354   3.661  1.00  0.00     0.128 C 
HETATM   34  C26 UNL     1     -17.528  -1.350   2.631  1.00  0.00     0.040 C 
BRANCH  33  35
HETATM   35  O7  UNL     1     -18.439  -2.502   4.482  1.00  0.00    -0.317 OA
BRANCH  35  36
HETATM   36  C27 UNL     1     -19.399  -3.496   4.498  1.00  0.00     0.255 C 
HETATM   37  C28 UNL     1     -20.527  -3.417   5.482  1.00  0.00     0.126 C 
HETATM   38  O8  UNL     1     -19.402  -4.491   3.731  1.00  0.00    -0.266 OA
ENDBRANCH  35  36
ENDBRANCH  33  35
ENDBRANCH  32  33
ENDBRANCH  31  32
ENDBRANCH  30  31
ENDBRANCH  28  29
ENDBRANCH  18  28
BRANCH  20  39
HETATM   39  O10 UNL     1     -17.399   6.642  -0.836  1.00  0.00    -0.341 OA
ATOM     40  H10 UNL     1     -17.470   7.400  -0.267  1.00  0.00     0.220 HD
ENDBRANCH  20  39
BRANCH  10  41
HETATM   41  O6  UNL     1     -12.568   7.120   1.888  1.00  0.00    -0.384 OA
HETATM   42  C11 UNL     1     -12.434   6.317   2.982  1.00  0.00     0.202 C 
ENDBRANCH  10  41
BRANCH   1  43
HETATM   43  C2  UNL     1     -14.530   0.096  -2.647  1.00  0.00     0.201 C 
BRANCH  43  44
HETATM   44  O1  UNL     1     -14.156  -0.966  -1.848  1.00  0.00    -0.393 OA
HETATM   45  C1  UNL     1     -13.083  -1.679  -2.324  1.00  0.00     0.201 C 
ENDBRANCH  43  44
ENDBRANCH   1  43
BRANCH   9  46
HETATM   46  O5  UNL     1     -12.807   7.569  -1.037  1.00  0.00    -0.392 OA
ATOM     47  H5  UNL     1     -12.741   7.286  -1.942  1.00  0.00     0.210 HD
ENDBRANCH   9  46
BRANCH   6  48
HETATM   48  O4  UNL     1     -13.685   3.895   0.585  1.00  0.00    -0.395 OA
ATOM     49  H4  UNL     1     -14.561   3.614   0.347  1.00  0.00     0.210 HD
ENDBRANCH   6  48
TORSDOF 13
ENDMDL
MODEL 4
REMARK VINA RESULT: -6.730361429      2.461      7.597
REMARK  13 active torsions:
REMARK  status: ('A' for Active; 'I' for Inactive)
REMARK    1  A    between atoms: O1_2  and  C2_3 
REMARK    2  A    between atoms: C2_3  and  C3_4 
REMARK    3  A    between atoms: C6_9  and  O4_10 
REMARK    4  A    between atoms: C9_14  and  O5_15 
REMARK    5  A    between atoms: C10_17  and  O6_18 
REMARK    6  A    between atoms: C19_27  and  C20_28 
REMARK    7  A    between atoms: C20_28  and  C21_29 
REMARK    8  A    between atoms: C22_30  and  C23_31 
REMARK    9  A    between atoms: C23_31  and  C24_32 
REMARK   10  A    between atoms: C24_32  and  C25_33 
REMARK   11  A    between atoms: C25_33  and  O7_35 
REMARK   12  A    between atoms: O7_35  and  C27_36 
REMARK   13  A    between atoms: C29_40  and  O10_41 
ROOT
HETATM    1  C3  UNL     1     -16.578   7.368   3.097  1.00  0.00     0.178 C 
HETATM    2  O2  UNL     1     -16.543   7.692   1.752  1.00  0.00    -0.312 OA
HETATM    3  C4  UNL     1     -15.765   8.514   1.024  1.00  0.00     0.261 C 
HETATM    4  O3  UNL     1     -16.254   9.549   0.447  1.00  0.00    -0.265 OA
HETATM    5  C5  UNL     1     -14.283   8.339   0.792  1.00  0.00     0.143 C 
HETATM    6  C6  UNL     1     -14.005   6.873   0.671  1.00  0.00     0.133 C 
HETATM    7  C7  UNL     1     -12.700   6.539  -0.027  1.00  0.00     0.042 C 
HETATM    8  C8  UNL     1     -11.544   7.231   0.714  1.00  0.00     0.015 C 
HETATM    9  C9  UNL     1     -12.553   5.052   0.049  1.00  0.00     0.157 C 
HETATM   10  C10 UNL     1     -12.952   4.304  -1.196  1.00  0.00     0.172 C 
HETATM   11  C12 UNL     1     -12.574   2.885  -1.053  1.00  0.00     0.007 C 
HETATM   12  C13 UNL     1     -12.968   1.827  -1.726  1.00  0.00    -0.001 C 
HETATM   13  C14 UNL     1     -13.856   1.581  -2.799  1.00  0.00     0.006 C 
HETATM   14  C15 UNL     1     -15.119   1.133  -2.905  1.00  0.00    -0.062 C 
HETATM   15  C16 UNL     1     -15.684   1.027  -4.343  1.00  0.00     0.048 C 
HETATM   16  C17 UNL     1     -16.027   0.687  -1.896  1.00  0.00     0.005 C 
HETATM   17  C18 UNL     1     -16.764   1.222  -0.955  1.00  0.00     0.010 C 
HETATM   18  C19 UNL     1     -16.992   2.569  -0.511  1.00  0.00     0.176 C 
HETATM   19  O9  UNL     1     -15.921   2.965   0.374  1.00  0.00    -0.317 OA
HETATM   20  C29 UNL     1     -15.684   2.477   1.645  1.00  0.00     0.179 C 
HETATM   21  C30 UNL     1     -16.554   2.527   2.802  1.00  0.00     0.066 C 
HETATM   22  C31 UNL     1     -16.878   3.562   3.575  1.00  0.00    -0.077 C 
HETATM   23  C32 UNL     1     -17.833   3.214   4.702  1.00  0.00     0.043 C 
HETATM   24  C33 UNL     1     -16.398   4.934   3.501  1.00  0.00     0.062 C 
HETATM   25  C34 UNL     1     -17.357   6.047   3.290  1.00  0.00     0.066 C 
HETATM   26  C35 UNL     1     -18.275   6.288   4.487  1.00  0.00     0.036 C 
HETATM   27 CL1  UNL     1     -18.455   5.796   1.914  1.00  0.00    -0.116 Cl
ENDROOT
BRANCH  18  28
HETATM   28  C20 UNL     1     -17.328   3.676  -1.381  1.00  0.00     0.009 C 
BRANCH  28  29
HETATM   29  C21 UNL     1     -18.013   3.630  -2.663  1.00  0.00    -0.005 C 
HETATM   30  C22 UNL     1     -19.381   3.290  -2.985  1.00  0.00    -0.027 C 
BRANCH  30  31
HETATM   31  C23 UNL     1     -20.548   4.081  -2.594  1.00  0.00     0.029 C 
BRANCH  31  32
HETATM   32  C24 UNL     1     -20.264   5.552  -2.986  1.00  0.00     0.036 C 
BRANCH  32  33
HETATM   33  C25 UNL     1     -20.429   6.429  -1.764  1.00  0.00     0.128 C 
HETATM   34  C26 UNL     1     -21.277   5.642  -0.770  1.00  0.00     0.040 C 
BRANCH  33  35
HETATM   35  O7  UNL     1     -19.166   6.638  -1.135  1.00  0.00    -0.317 OA
BRANCH  35  36
HETATM   36  C27 UNL     1     -18.256   7.487  -1.735  1.00  0.00     0.255 C 
HETATM   37  C28 UNL     1     -18.673   8.882  -2.093  1.00  0.00     0.126 C 
HETATM   38  O8  UNL     1     -17.072   7.175  -2.012  1.00  0.00    -0.266 OA
ENDBRANCH  35  36
ENDBRANCH  33  35
ENDBRANCH  32  33
ENDBRANCH  31  32
ENDBRANCH  30  31
ENDBRANCH  28  29
ENDBRANCH  18  28
BRANCH  20  39
HETATM   39  O10 UNL     1     -14.527   1.885   1.862  1.00  0.00    -0.341 OA
ATOM     40  H10 UNL     1     -14.488   1.242   2.561  1.00  0.00     0.220 HD
ENDBRANCH  20  39
BRANCH  10  41
HETATM   41  O6  UNL     1     -12.471   4.893  -2.346  1.00  0.00    -0.384 OA
HETATM   42  C11 UNL     1     -13.387   5.217  -3.303  1.00  0.00     0.202 C 
ENDBRANCH  10  41
BRANCH   1  43
HETATM   43  C2  UNL     1     -17.087   8.477   3.946  1.00  0.00     0.201 C 
BRANCH  43  44
HETATM   44  O1  UNL     1     -16.131   9.399   4.325  1.00  0.00    -0.393 OA
HETATM   45  C1  UNL     1     -16.400  10.686   3.929  1.00  0.00     0.201 C 
ENDBRANCH  43  44
ENDBRANCH   1  43
BRANCH   9  46
HETATM   46  O5  UNL     1     -11.188   4.799   0.330  1.00  0.00    -0.392 OA
ATOM     47  H5  UNL     1     -10.908   5.479   0.931  1.00  0.00     0.210 HD
ENDBRANCH   9  46
BRANCH   6  48
HETATM   48  O4  UNL     1     -15.001   6.275  -0.102  1.00  0.00    -0.395 OA
ATOM     49  H4  UNL     1     -14.934   5.330  -0.026  1.00  0.00     0.210 HD
ENDBRANCH   6  48
TORSDOF 13
ENDMDL
MODEL 5
REMARK VINA RESULT: -6.605454437      2.019      2.844
REMARK  13 active torsions:
REMARK  status: ('A' for Active; 'I' for Inactive)
REMARK    1  A    between atoms: O1_2  and  C2_3 
REMARK    2  A    between atoms: C2_3  and  C3_4 
REMARK    3  A    between atoms: C6_9  and  O4_10 
REMARK    4  A    between atoms: C9_14  and  O5_15 
REMARK    5  A    between atoms: C10_17  and  O6_18 
REMARK    6  A    between atoms: C19_27  and  C20_28 
REMARK    7  A    between atoms: C20_28  and  C21_29 
REMARK    8  A    between atoms: C22_30  and  C23_31 
REMARK    9  A    between atoms: C23_31  and  C24_32 
REMARK   10  A    between atoms: C24_32  and  C25_33 
REMARK   11  A    between atoms: C25_33  and  O7_35 
REMARK   12  A    between atoms: O7_35  and  C27_36 
REMARK   13  A    between atoms: C29_40  and  O10_41 
ROOT
HETATM    1  C3  UNL     1     -11.728   2.834  -1.893  1.00  0.00     0.178 C 
HETATM    2  O2  UNL     1     -11.408   3.164  -0.587  1.00  0.00    -0.312 OA
HETATM    3  C4  UNL     1     -10.434   3.912  -0.039  1.00  0.00     0.261 C 
HETATM    4  O3  UNL     1      -9.539   3.386   0.713  1.00  0.00    -0.265 OA
HETATM    5  C5  UNL     1     -10.267   5.403  -0.222  1.00  0.00     0.143 C 
HETATM    6  C6  UNL     1     -11.631   6.016  -0.275  1.00  0.00     0.133 C 
HETATM    7  C7  UNL     1     -11.661   7.503   0.028  1.00  0.00     0.042 C 
HETATM    8  C8  UNL     1     -10.720   8.232  -0.945  1.00  0.00     0.015 C 
HETATM    9  C9  UNL     1     -13.075   7.945  -0.181  1.00  0.00     0.157 C 
HETATM   10  C10 UNL     1     -13.899   8.074   1.072  1.00  0.00     0.172 C 
HETATM   11  C12 UNL     1     -15.193   8.699   0.741  1.00  0.00     0.007 C 
HETATM   12  C13 UNL     1     -16.316   8.746   1.424  1.00  0.00    -0.001 C 
HETATM   13  C14 UNL     1     -16.762   8.261   2.675  1.00  0.00     0.006 C 
HETATM   14  C15 UNL     1     -17.487   7.204   3.083  1.00  0.00    -0.062 C 
HETATM   15  C16 UNL     1     -17.724   7.091   4.610  1.00  0.00     0.048 C 
HETATM   16  C17 UNL     1     -18.124   6.176   2.325  1.00  0.00     0.005 C 
HETATM   17  C18 UNL     1     -17.768   5.111   1.649  1.00  0.00     0.010 C 
HETATM   18  C19 UNL     1     -16.507   4.482   1.372  1.00  0.00     0.176 C 
HETATM   19  O9  UNL     1     -15.874   5.157   0.262  1.00  0.00    -0.317 OA
HETATM   20  C29 UNL     1     -16.290   5.138  -1.055  1.00  0.00     0.179 C 
HETATM   21  C30 UNL     1     -16.437   3.996  -1.934  1.00  0.00     0.066 C 
HETATM   22  C31 UNL     1     -15.499   3.254  -2.524  1.00  0.00    -0.077 C 
HETATM   23  C32 UNL     1     -16.052   2.128  -3.377  1.00  0.00     0.043 C 
HETATM   24  C33 UNL     1     -14.054   3.425  -2.490  1.00  0.00     0.062 C 
HETATM   25  C34 UNL     1     -13.191   2.341  -1.959  1.00  0.00     0.066 C 
HETATM   26  C35 UNL     1     -13.161   1.101  -2.850  1.00  0.00     0.036 C 
HETATM   27 CL1  UNL     1     -13.690   1.743  -0.360  1.00  0.00    -0.116 Cl
ENDROOT
BRANCH  18  28
HETATM   28  C20 UNL     1     -15.509   4.163   2.371  1.00  0.00     0.009 C 
BRANCH  28  29
HETATM   29  C21 UNL     1     -15.715   3.575   3.684  1.00  0.00    -0.005 C 
HETATM   30  C22 UNL     1     -16.918   3.077   4.313  1.00  0.00    -0.027 C 
BRANCH  30  31
HETATM   31  C23 UNL     1     -17.660   1.896   3.867  1.00  0.00     0.029 C 
BRANCH  31  32
HETATM   32  C24 UNL     1     -18.890   1.744   4.794  1.00  0.00     0.036 C 
BRANCH  32  33
HETATM   33  C25 UNL     1     -19.320   0.293   4.811  1.00  0.00     0.128 C 
HETATM   34  C26 UNL     1     -18.094  -0.531   4.431  1.00  0.00     0.040 C 
BRANCH  33  35
HETATM   35  O7  UNL     1     -19.671  -0.099   6.136  1.00  0.00    -0.317 OA
BRANCH  35  36
HETATM   36  C27 UNL     1     -20.963  -0.520   6.386  1.00  0.00     0.255 C 
HETATM   37  C28 UNL     1     -21.301  -1.976   6.270  1.00  0.00     0.126 C 
HETATM   38  O8  UNL     1     -21.906   0.243   6.711  1.00  0.00    -0.266 OA
ENDBRANCH  35  36
ENDBRANCH  33  35
ENDBRANCH  32  33
ENDBRANCH  31  32
ENDBRANCH  30  31
ENDBRANCH  28  29
ENDBRANCH  18  28
BRANCH  20  39
HETATM   39  O10 UNL     1     -16.602   6.292  -1.610  1.00  0.00    -0.341 OA
ATOM     40  H10 UNL     1     -16.953   6.969  -1.044  1.00  0.00     0.220 HD
ENDBRANCH  20  39
BRANCH  10  41
HETATM   41  O6  UNL     1     -13.219   8.711   2.090  1.00  0.00    -0.384 OA
HETATM   42  C11 UNL     1     -13.103  10.066   2.001  1.00  0.00     0.202 C 
ENDBRANCH  10  41
BRANCH   1  43
HETATM   43  C2  UNL     1     -10.760   1.883  -2.502  1.00  0.00     0.201 C 
BRANCH  43  44
HETATM   44  O1  UNL     1     -10.126   1.050  -1.601  1.00  0.00    -0.393 OA
HETATM   45  C1  UNL     1      -8.849   0.698  -1.962  1.00  0.00     0.201 C 
ENDBRANCH  43  44
ENDBRANCH   1  43
BRANCH   9  46
HETATM   46  O5  UNL     1     -13.008   9.202  -0.831  1.00  0.00    -0.392 OA
ATOM     47  H5  UNL     1     -13.615   9.772  -0.373  1.00  0.00     0.210 HD
ENDBRANCH   9  46
BRANCH   6  48
HETATM   48  O4  UNL     1     -12.443   5.426   0.694  1.00  0.00    -0.395 OA
ATOM     49  H4  UNL     1     -13.219   5.959   0.824  1.00  0.00     0.210 HD
ENDBRANCH   6  48
TORSDOF 13
ENDMDL
