MODEL 1
REMARK VINA RESULT: -9.556485736      0.000      0.000
REMARK  12 active torsions:
REMARK  status: ('A' for Active; 'I' for Inactive)
REMARK    1  A    between atoms: C2_2  and  C4_4 
REMARK    2  A    between atoms: C7_7  and  C8_8 
REMARK    3  A    between atoms: C8_8  and  N1_9 
REMARK    4  A    between atoms: C10_11  and  C11_12 
REMARK    5  A    between atoms: C13_17  and  O2_18 
REMARK    6  A    between atoms: O2_18  and  C14_19 
REMARK    7  A    between atoms: C14_19  and  O3_20 
REMARK    8  A    between atoms: C14_19  and  S1_33 
REMARK    9  A    between atoms: O3_20  and  C15_21 
REMARK   10  A    between atoms: C15_21  and  C16_23 
REMARK   11  A    between atoms: S1_33  and  C26_34 
REMARK   12  A    between atoms: C32_40  and  C33_41 
ROOT
HETATM    1  C11 UNL     1     -14.873   4.344   1.810  1.00  0.00     0.154 C 
HETATM    2  N2  UNL     1     -14.022   4.897   2.826  1.00  0.00    -0.348 N 
ATOM      3  H2  UNL     1     -13.586   4.365   3.579  1.00  0.00     0.163 HD
HETATM    4  C12 UNL     1     -13.880   6.296   2.624  1.00  0.00     0.248 C 
HETATM    5  O1  UNL     1     -12.905   7.022   2.923  1.00  0.00    -0.271 OA
HETATM    6  C13 UNL     1     -15.149   6.709   1.974  1.00  0.00     0.234 C 
HETATM    7  C32 UNL     1     -15.543   5.501   1.175  1.00  0.00     0.153 C 
ENDROOT
BRANCH   6   8
HETATM    8  O2  UNL     1     -14.953   7.830   1.163  1.00  0.00    -0.336 OA
BRANCH   8   9
HETATM    9  C14 UNL     1     -15.140   8.998   1.898  1.00  0.00     0.336 C 
BRANCH   9  10
HETATM   10  O3  UNL     1     -15.181  10.086   0.965  1.00  0.00    -0.280 OA
BRANCH  10  11
HETATM   11  C15 UNL     1     -14.235  11.096   0.984  1.00  0.00     0.270 C 
HETATM   12  O4  UNL     1     -13.291  11.021   0.156  1.00  0.00    -0.264 OA
BRANCH  11  13
HETATM   13  C16 UNL     1     -14.356  12.212   1.950  1.00  0.00     0.049 C 
HETATM   14  C17 UNL     1     -15.772  12.509   2.330  1.00  0.00     0.024 C 
HETATM   15  C18 UNL     1     -15.816  13.728   3.198  1.00  0.00    -0.013 C 
HETATM   16  C19 UNL     1     -15.236  14.913   2.456  1.00  0.00     0.009 C 
HETATM   17  C23 UNL     1     -15.027  13.454   4.465  1.00  0.00     0.009 C 
HETATM   18  C20 UNL     1     -13.786  14.622   2.176  1.00  0.00    -0.013 C 
HETATM   19  C21 UNL     1     -12.990  14.322   3.418  1.00  0.00     0.009 C 
HETATM   20  C25 UNL     1     -13.722  13.431   1.275  1.00  0.00     0.024 C 
HETATM   21  C22 UNL     1     -13.614  13.128   4.105  1.00  0.00    -0.013 C 
HETATM   22  C24 UNL     1     -13.541  11.943   3.188  1.00  0.00     0.024 C 
ENDBRANCH  11  13
ENDBRANCH  10  11
ENDBRANCH   9  10
BRANCH   9  23
HETATM   23  S1  UNL     1     -16.580   8.942   2.965  1.00  0.00    -0.104 SA
BRANCH  23  24
HETATM   24  C26 UNL     1     -16.192   9.444   4.664  1.00  0.00     0.052 C 
HETATM   25  C27 UNL     1     -16.410   8.217   5.548  1.00  0.00     0.015 C 
HETATM   26  C28 UNL     1     -17.892   7.991   5.753  1.00  0.00     0.001 C 
HETATM   27  C29 UNL     1     -18.393   9.024   6.738  1.00  0.00     0.000 C 
HETATM   28  C30 UNL     1     -17.538  10.257   6.601  1.00  0.00     0.001 C 
HETATM   29  C31 UNL     1     -17.150  10.498   5.161  1.00  0.00     0.015 C 
ENDBRANCH  23  24
ENDBRANCH   9  23
ENDBRANCH   8   9
ENDBRANCH   6   8
BRANCH   7  30
HETATM   30  C33 UNL     1     -17.013   5.353   1.081  1.00  0.00     0.182 C 
HETATM   31  O5  UNL     1     -17.506   4.699   0.148  1.00  0.00    -0.648 OA
HETATM   32  O6  UNL     1     -17.819   5.940   2.023  1.00  0.00    -0.648 OA
ENDBRANCH   7  30
BRANCH   1  33
HETATM   33  C10 UNL     1     -15.836   3.363   2.395  1.00  0.00     0.068 A 
HETATM   34  C9  UNL     1     -16.354   3.421   3.668  1.00  0.00     0.140 A 
HETATM   35  N1  UNL     1     -17.170   2.379   3.827  1.00  0.00    -0.283 N 
HETATM   36  N4  UNL     1     -17.165   1.693   2.700  1.00  0.00    -0.240 N 
HETATM   37  N3  UNL     1     -16.365   2.272   1.821  1.00  0.00    -0.287 N 
ATOM     38  H4  UNL     1     -17.701   0.842   2.532  1.00  0.00     0.208 HD
ATOM     39  H3  UNL     1     -16.181   1.945   0.872  1.00  0.00     0.188 HD
BRANCH  35  40
HETATM   40  C8  UNL     1     -17.934   2.093   5.060  1.00  0.00     0.188 C 
BRANCH  40  41
HETATM   41  C7  UNL     1     -18.513   0.725   4.877  1.00  0.00    -0.037 A 
HETATM   42  C6  UNL     1     -19.702   0.433   5.479  1.00  0.00     0.009 A 
HETATM   43  C5  UNL     1     -20.269  -0.810   5.360  1.00  0.00     0.010 A 
HETATM   44  C4  UNL     1     -19.652  -1.801   4.628  1.00  0.00    -0.033 A 
HETATM   45  C35 UNL     1     -18.448  -1.480   4.026  1.00  0.00     0.041 A 
HETATM   46  C34 UNL     1     -17.869  -0.235   4.139  1.00  0.00     0.033 A 
HETATM   47 CL1  UNL     1     -17.609  -2.706   3.076  1.00  0.00    -0.084 Cl
BRANCH  44  48
HETATM   48  C2  UNL     1     -20.247  -3.143   4.501  1.00  0.00     0.012 C 
HETATM   49  C1  UNL     1     -20.634  -3.663   5.886  1.00  0.00     0.015 C 
HETATM   50  C3  UNL     1     -21.382  -3.241   3.536  1.00  0.00     0.015 C 
ENDBRANCH  44  48
ENDBRANCH  40  41
ENDBRANCH  35  40
ENDBRANCH   1  33
TORSDOF 12
ENDMDL
MODEL 2
REMARK VINA RESULT: -9.506555604      1.128      1.654
REMARK  12 active torsions:
REMARK  status: ('A' for Active; 'I' for Inactive)
REMARK    1  A    between atoms: C2_2  and  C4_4 
REMARK    2  A    between atoms: C7_7  and  C8_8 
REMARK    3  A    between atoms: C8_8  and  N1_9 
REMARK    4  A    between atoms: C10_11  and  C11_12 
REMARK    5  A    between atoms: C13_17  and  O2_18 
REMARK    6  A    between atoms: O2_18  and  C14_19 
REMARK    7  A    between atoms: C14_19  and  O3_20 
REMARK    8  A    between atoms: C14_19  and  S1_33 
REMARK    9  A    between atoms: O3_20  and  C15_21 
REMARK   10  A    between atoms: C15_21  and  C16_23 
REMARK   11  A    between atoms: S1_33  and  C26_34 
REMARK   12  A    between atoms: C32_40  and  C33_41 
ROOT
HETATM    1  C11 UNL     1     -15.083   4.121   2.064  1.00  0.00     0.154 C 
HETATM    2  N2  UNL     1     -14.152   4.715   2.981  1.00  0.00    -0.348 N 
ATOM      3  H2  UNL     1     -13.639   4.211   3.705  1.00  0.00     0.163 HD
HETATM    4  C12 UNL     1     -14.052   6.109   2.730  1.00  0.00     0.248 C 
HETATM    5  O1  UNL     1     -13.066   6.857   2.917  1.00  0.00    -0.271 OA
HETATM    6  C13 UNL     1     -15.383   6.485   2.189  1.00  0.00     0.234 C 
HETATM    7  C32 UNL     1     -15.828   5.250   1.463  1.00  0.00     0.153 C 
ENDROOT
BRANCH   6   8
HETATM    8  O2  UNL     1     -15.281   7.585   1.333  1.00  0.00    -0.336 OA
BRANCH   8   9
HETATM    9  C14 UNL     1     -15.468   8.769   2.041  1.00  0.00     0.336 C 
BRANCH   9  10
HETATM   10  O3  UNL     1     -15.686   9.810   1.080  1.00  0.00    -0.280 OA
BRANCH  10  11
HETATM   11  C15 UNL     1     -14.766  10.827   0.888  1.00  0.00     0.270 C 
HETATM   12  O4  UNL     1     -14.016  10.747  -0.119  1.00  0.00    -0.264 OA
BRANCH  11  13
HETATM   13  C16 UNL     1     -14.691  11.954   1.846  1.00  0.00     0.049 C 
HETATM   14  C17 UNL     1     -16.027  12.355   2.387  1.00  0.00     0.024 C 
HETATM   15  C18 UNL     1     -15.880  13.580   3.236  1.00  0.00    -0.013 C 
HETATM   16  C19 UNL     1     -15.310  14.715   2.413  1.00  0.00     0.009 C 
HETATM   17  C23 UNL     1     -14.967  13.256   4.405  1.00  0.00     0.009 C 
HETATM   18  C20 UNL     1     -13.928  14.318   1.968  1.00  0.00    -0.013 C 
HETATM   19  C21 UNL     1     -13.012  13.969   3.110  1.00  0.00     0.009 C 
HETATM   20  C25 UNL     1     -14.057  13.121   1.082  1.00  0.00     0.024 C 
HETATM   21  C22 UNL     1     -13.633  12.827   3.884  1.00  0.00    -0.013 C 
HETATM   22  C24 UNL     1     -13.755  11.634   2.981  1.00  0.00     0.024 C 
ENDBRANCH  11  13
ENDBRANCH  10  11
ENDBRANCH   9  10
BRANCH   9  23
HETATM   23  S1  UNL     1     -16.777   8.665   3.263  1.00  0.00    -0.104 SA
BRANCH  23  24
HETATM   24  C26 UNL     1     -16.280   9.368   4.859  1.00  0.00     0.052 C 
HETATM   25  C27 UNL     1     -16.438   8.259   5.898  1.00  0.00     0.015 C 
HETATM   26  C28 UNL     1     -17.902   8.069   6.225  1.00  0.00     0.001 C 
HETATM   27  C29 UNL     1     -18.341   9.216   7.107  1.00  0.00     0.000 C 
HETATM   28  C30 UNL     1     -17.499  10.419   6.765  1.00  0.00     0.001 C 
HETATM   29  C31 UNL     1     -17.207  10.480   5.284  1.00  0.00     0.015 C 
ENDBRANCH  23  24
ENDBRANCH   9  23
ENDBRANCH   8   9
ENDBRANCH   6   8
BRANCH   7  30
HETATM   30  C33 UNL     1     -17.298   5.079   1.509  1.00  0.00     0.182 C 
HETATM   31  O5  UNL     1     -17.889   4.579   0.538  1.00  0.00    -0.648 OA
HETATM   32  O6  UNL     1     -17.995   5.473   2.621  1.00  0.00    -0.648 OA
ENDBRANCH   7  30
BRANCH   1  33
HETATM   33  C10 UNL     1     -15.971   3.144   2.762  1.00  0.00     0.068 A 
HETATM   34  C9  UNL     1     -16.199   1.848   2.360  1.00  0.00     0.140 A 
HETATM   35  N1  UNL     1     -17.045   1.291   3.227  1.00  0.00    -0.283 N 
HETATM   36  N4  UNL     1     -17.337   2.199   4.137  1.00  0.00    -0.240 N 
HETATM   37  N3  UNL     1     -16.699   3.327   3.875  1.00  0.00    -0.287 N 
ATOM     38  H4  UNL     1     -17.964   2.052   4.928  1.00  0.00     0.208 HD
ATOM     39  H3  UNL     1     -16.750   4.185   4.423  1.00  0.00     0.188 HD
BRANCH  35  40
HETATM   40  C8  UNL     1     -17.527  -0.104   3.148  1.00  0.00     0.188 C 
BRANCH  40  41
HETATM   41  C7  UNL     1     -18.622  -0.218   4.161  1.00  0.00    -0.037 A 
HETATM   42  C6  UNL     1     -19.114   0.924   4.723  1.00  0.00     0.009 A 
HETATM   43  C5  UNL     1     -20.106   0.879   5.669  1.00  0.00     0.010 A 
HETATM   44  C4  UNL     1     -20.634  -0.326   6.080  1.00  0.00    -0.033 A 
HETATM   45  C35 UNL     1     -20.120  -1.469   5.496  1.00  0.00     0.041 A 
HETATM   46  C34 UNL     1     -19.123  -1.435   4.545  1.00  0.00     0.033 A 
HETATM   47 CL1  UNL     1     -20.754  -3.042   5.982  1.00  0.00    -0.084 Cl
BRANCH  44  48
HETATM   48  C2  UNL     1     -21.692  -0.388   7.104  1.00  0.00     0.012 C 
HETATM   49  C1  UNL     1     -21.114   0.010   8.462  1.00  0.00     0.015 C 
HETATM   50  C3  UNL     1     -22.928   0.385   6.780  1.00  0.00     0.015 C 
ENDBRANCH  44  48
ENDBRANCH  40  41
ENDBRANCH  35  40
ENDBRANCH   1  33
TORSDOF 12
ENDMDL
MODEL 3
REMARK VINA RESULT: -9.210864164      1.099      1.699
REMARK  12 active torsions:
REMARK  status: ('A' for Active; 'I' for Inactive)
REMARK    1  A    between atoms: C2_2  and  C4_4 
REMARK    2  A    between atoms: C7_7  and  C8_8 
REMARK    3  A    between atoms: C8_8  and  N1_9 
REMARK    4  A    between atoms: C10_11  and  C11_12 
REMARK    5  A    between atoms: C13_17  and  O2_18 
REMARK    6  A    between atoms: O2_18  and  C14_19 
REMARK    7  A    between atoms: C14_19  and  O3_20 
REMARK    8  A    between atoms: C14_19  and  S1_33 
REMARK    9  A    between atoms: O3_20  and  C15_21 
REMARK   10  A    between atoms: C15_21  and  C16_23 
REMARK   11  A    between atoms: S1_33  and  C26_34 
REMARK   12  A    between atoms: C32_40  and  C33_41 
ROOT
HETATM    1  C11 UNL     1     -14.836   4.480   1.797  1.00  0.00     0.154 C 
HETATM    2  N2  UNL     1     -13.934   5.000   2.785  1.00  0.00    -0.348 N 
ATOM      3  H2  UNL     1     -13.487   4.450   3.519  1.00  0.00     0.163 HD
HETATM    4  C12 UNL     1     -13.756   6.395   2.587  1.00  0.00     0.248 C 
HETATM    5  O1  UNL     1     -12.749   7.090   2.855  1.00  0.00    -0.271 OA
HETATM    6  C13 UNL     1     -15.035   6.851   1.985  1.00  0.00     0.234 C 
HETATM    7  C32 UNL     1     -15.493   5.661   1.193  1.00  0.00     0.153 C 
ENDROOT
BRANCH   6   8
HETATM    8  O2  UNL     1     -14.834   7.971   1.174  1.00  0.00    -0.336 OA
BRANCH   8   9
HETATM    9  C14 UNL     1     -15.015   9.140   1.909  1.00  0.00     0.336 C 
BRANCH   9  10
HETATM   10  O3  UNL     1     -14.982  10.234   0.983  1.00  0.00    -0.280 OA
BRANCH  10  11
HETATM   11  C15 UNL     1     -15.226  11.536   1.387  1.00  0.00     0.270 C 
HETATM   12  O4  UNL     1     -16.390  11.985   1.220  1.00  0.00    -0.264 OA
BRANCH  11  13
HETATM   13  C16 UNL     1     -14.142  12.344   1.991  1.00  0.00     0.049 C 
HETATM   14  C17 UNL     1     -14.096  13.747   1.472  1.00  0.00     0.024 C 
HETATM   15  C18 UNL     1     -12.897  14.450   2.028  1.00  0.00    -0.013 C 
HETATM   16  C19 UNL     1     -11.634  13.722   1.619  1.00  0.00     0.009 C 
HETATM   17  C23 UNL     1     -13.018  14.502   3.540  1.00  0.00     0.009 C 
HETATM   18  C20 UNL     1     -11.667  12.351   2.238  1.00  0.00    -0.013 C 
HETATM   19  C21 UNL     1     -11.812  12.377   3.736  1.00  0.00     0.009 C 
HETATM   20  C25 UNL     1     -12.835  11.615   1.664  1.00  0.00     0.024 C 
HETATM   21  C22 UNL     1     -13.093  13.108   4.076  1.00  0.00    -0.013 C 
HETATM   22  C24 UNL     1     -14.253  12.358   3.492  1.00  0.00     0.024 C 
ENDBRANCH  11  13
ENDBRANCH  10  11
ENDBRANCH   9  10
BRANCH   9  23
HETATM   23  S1  UNL     1     -16.500   9.123   2.913  1.00  0.00    -0.104 SA
BRANCH  23  24
HETATM   24  C26 UNL     1     -16.158   9.525   4.648  1.00  0.00     0.052 C 
HETATM   25  C27 UNL     1     -16.386   8.245   5.451  1.00  0.00     0.015 C 
HETATM   26  C28 UNL     1     -17.869   7.996   5.606  1.00  0.00     0.001 C 
HETATM   27  C29 UNL     1     -18.404   8.963   6.638  1.00  0.00     0.000 C 
HETATM   28  C30 UNL     1     -17.557  10.209   6.596  1.00  0.00     0.001 C 
HETATM   29  C31 UNL     1     -17.138  10.539   5.183  1.00  0.00     0.015 C 
ENDBRANCH  23  24
ENDBRANCH   9  23
ENDBRANCH   8   9
ENDBRANCH   6   8
BRANCH   7  30
HETATM   30  C33 UNL     1     -16.969   5.558   1.150  1.00  0.00     0.182 C 
HETATM   31  O5  UNL     1     -17.514   4.908   0.243  1.00  0.00    -0.648 OA
HETATM   32  O6  UNL     1     -17.724   6.181   2.111  1.00  0.00    -0.648 OA
ENDBRANCH   7  30
BRANCH   1  33
HETATM   33  C10 UNL     1     -15.807   3.525   2.410  1.00  0.00     0.068 A 
HETATM   34  C9  UNL     1     -16.318   3.618   3.684  1.00  0.00     0.140 A 
HETATM   35  N1  UNL     1     -17.145   2.590   3.871  1.00  0.00    -0.283 N 
HETATM   36  N4  UNL     1     -17.154   1.878   2.761  1.00  0.00    -0.240 N 
HETATM   37  N3  UNL     1     -16.351   2.426   1.865  1.00  0.00    -0.287 N 
ATOM     38  H4  UNL     1     -17.699   1.029   2.616  1.00  0.00     0.208 HD
ATOM     39  H3  UNL     1     -16.177   2.075   0.923  1.00  0.00     0.188 HD
BRANCH  35  40
HETATM   40  C8  UNL     1     -17.905   2.343   5.115  1.00  0.00     0.188 C 
BRANCH  40  41
HETATM   41  C7  UNL     1     -18.499   0.977   4.968  1.00  0.00    -0.037 A 
HETATM   42  C6  UNL     1     -17.868   0.072   4.165  1.00  0.00     0.009 A 
HETATM   43  C5  UNL     1     -18.377  -1.187   3.980  1.00  0.00     0.010 A 
HETATM   44  C4  UNL     1     -19.544  -1.576   4.602  1.00  0.00    -0.033 A 
HETATM   45  C35 UNL     1     -20.165  -0.642   5.411  1.00  0.00     0.041 A 
HETATM   46  C34 UNL     1     -19.662   0.627   5.604  1.00  0.00     0.033 A 
HETATM   47 CL1  UNL     1     -21.663  -1.078   6.234  1.00  0.00    -0.084 Cl
BRANCH  44  48
HETATM   48  C2  UNL     1     -20.106  -2.924   4.402  1.00  0.00     0.012 C 
HETATM   49  C1  UNL     1     -21.249  -2.856   3.389  1.00  0.00     0.015 C 
HETATM   50  C3  UNL     1     -19.109  -3.975   4.043  1.00  0.00     0.015 C 
ENDBRANCH  44  48
ENDBRANCH  40  41
ENDBRANCH  35  40
ENDBRANCH   1  33
TORSDOF 12
ENDMDL
MODEL 4
REMARK VINA RESULT: -9.202844174      2.362      4.236
REMARK  12 active torsions:
REMARK  status: ('A' for Active; 'I' for Inactive)
REMARK    1  A    between atoms: C2_2  and  C4_4 
REMARK    2  A    between atoms: C7_7  and  C8_8 
REMARK    3  A    between atoms: C8_8  and  N1_9 
REMARK    4  A    between atoms: C10_11  and  C11_12 
REMARK    5  A    between atoms: C13_17  and  O2_18 
REMARK    6  A    between atoms: O2_18  and  C14_19 
REMARK    7  A    between atoms: C14_19  and  O3_20 
REMARK    8  A    between atoms: C14_19  and  S1_33 
REMARK    9  A    between atoms: O3_20  and  C15_21 
REMARK   10  A    between atoms: C15_21  and  C16_23 
REMARK   11  A    between atoms: S1_33  and  C26_34 
REMARK   12  A    between atoms: C32_40  and  C33_41 
ROOT
HETATM    1  C11 UNL     1     -17.492   6.768   2.000  1.00  0.00     0.154 C 
HETATM    2  N2  UNL     1     -16.878   6.785   0.703  1.00  0.00    -0.348 N 
ATOM      3  H2  UNL     1     -16.788   5.978   0.085  1.00  0.00     0.163 HD
HETATM    4  C12 UNL     1     -16.416   8.095   0.407  1.00  0.00     0.248 C 
HETATM    5  O1  UNL     1     -16.304   8.638  -0.715  1.00  0.00    -0.271 OA
HETATM    6  C13 UNL     1     -16.094   8.683   1.732  1.00  0.00     0.234 C 
HETATM    7  C32 UNL     1     -17.081   8.031   2.655  1.00  0.00     0.153 C 
ENDROOT
BRANCH   6   8
HETATM    8  O2  UNL     1     -16.239  10.072   1.710  1.00  0.00    -0.336 OA
BRANCH   8   9
HETATM    9  C14 UNL     1     -15.077  10.689   2.167  1.00  0.00     0.336 C 
BRANCH   9  10
HETATM   10  O3  UNL     1     -15.217  10.866   3.582  1.00  0.00    -0.280 OA
BRANCH  10  11
HETATM   11  C15 UNL     1     -16.156  11.731   4.118  1.00  0.00     0.270 C 
HETATM   12  O4  UNL     1     -17.294  11.262   4.379  1.00  0.00    -0.264 OA
BRANCH  11  13
HETATM   13  C16 UNL     1     -15.806  13.149   4.364  1.00  0.00     0.049 C 
HETATM   14  C17 UNL     1     -14.333  13.379   4.483  1.00  0.00     0.024 C 
HETATM   15  C18 UNL     1     -14.075  14.804   4.864  1.00  0.00    -0.013 C 
HETATM   16  C19 UNL     1     -14.740  15.114   6.188  1.00  0.00     0.009 C 
HETATM   17  C23 UNL     1     -14.614  15.707   3.771  1.00  0.00     0.009 C 
HETATM   18  C20 UNL     1     -16.226  14.969   6.007  1.00  0.00    -0.013 C 
HETATM   19  C21 UNL     1     -16.780  15.838   4.909  1.00  0.00     0.009 C 
HETATM   20  C25 UNL     1     -16.511  13.541   5.667  1.00  0.00     0.024 C 
HETATM   21  C22 UNL     1     -16.082  15.473   3.617  1.00  0.00    -0.013 C 
HETATM   22  C24 UNL     1     -16.377  14.039   3.291  1.00  0.00     0.024 C 
ENDBRANCH  11  13
ENDBRANCH  10  11
ENDBRANCH   9  10
BRANCH   9  23
HETATM   23  S1  UNL     1     -13.583   9.803   1.720  1.00  0.00    -0.104 SA
BRANCH  23  24
HETATM   24  C26 UNL     1     -12.145  10.902   1.604  1.00  0.00     0.052 C 
HETATM   25  C27 UNL     1     -10.958  10.034   1.194  1.00  0.00     0.015 C 
HETATM   26  C28 UNL     1     -10.480   9.227   2.381  1.00  0.00     0.001 C 
HETATM   27  C29 UNL     1      -9.725  10.152   3.308  1.00  0.00     0.000 C 
HETATM   28  C30 UNL     1     -10.297  11.538   3.155  1.00  0.00     0.001 C 
HETATM   29  C31 UNL     1     -11.793  11.493   2.947  1.00  0.00     0.015 C 
ENDBRANCH  23  24
ENDBRANCH   9  23
ENDBRANCH   8   9
ENDBRANCH   6   8
BRANCH   7  30
HETATM   30  C33 UNL     1     -16.528   7.838   4.014  1.00  0.00     0.182 C 
HETATM   31  O5  UNL     1     -15.309   7.654   4.161  1.00  0.00    -0.648 OA
HETATM   32  O6  UNL     1     -17.365   7.864   5.100  1.00  0.00    -0.648 OA
ENDBRANCH   7  30
BRANCH   1  33
HETATM   33  C10 UNL     1     -17.083   5.554   2.769  1.00  0.00     0.068 A 
HETATM   34  C9  UNL     1     -17.884   4.861   3.646  1.00  0.00     0.140 A 
HETATM   35  N1  UNL     1     -17.173   3.845   4.137  1.00  0.00    -0.283 N 
HETATM   36  N4  UNL     1     -15.974   3.898   3.592  1.00  0.00    -0.240 N 
HETATM   37  N3  UNL     1     -15.898   4.924   2.761  1.00  0.00    -0.287 N 
ATOM     38  H4  UNL     1     -15.216   3.243   3.783  1.00  0.00     0.208 HD
ATOM     39  H3  UNL     1     -15.081   5.190   2.211  1.00  0.00     0.188 HD
BRANCH  35  40
HETATM   40  C8  UNL     1     -17.687   2.855   5.107  1.00  0.00     0.188 C 
BRANCH  40  41
HETATM   41  C7  UNL     1     -17.763   1.557   4.366  1.00  0.00    -0.037 A 
HETATM   42  C6  UNL     1     -17.070   1.429   3.198  1.00  0.00     0.009 A 
HETATM   43  C5  UNL     1     -17.117   0.269   2.469  1.00  0.00     0.010 A 
HETATM   44  C4  UNL     1     -17.869  -0.804   2.897  1.00  0.00    -0.033 A 
HETATM   45  C35 UNL     1     -18.562  -0.651   4.084  1.00  0.00     0.041 A 
HETATM   46  C34 UNL     1     -18.521   0.511   4.825  1.00  0.00     0.033 A 
HETATM   47 CL1  UNL     1     -19.543  -1.988   4.686  1.00  0.00    -0.084 Cl
BRANCH  44  48
HETATM   48  C2  UNL     1     -17.935  -2.052   2.117  1.00  0.00     0.012 C 
HETATM   49  C1  UNL     1     -17.998  -1.721   0.626  1.00  0.00     0.015 C 
HETATM   50  C3  UNL     1     -16.860  -3.042   2.419  1.00  0.00     0.015 C 
ENDBRANCH  44  48
ENDBRANCH  40  41
ENDBRANCH  35  40
ENDBRANCH   1  33
TORSDOF 12
ENDMDL
MODEL 5
REMARK VINA RESULT: -9.128291480      2.282      4.067
REMARK  12 active torsions:
REMARK  status: ('A' for Active; 'I' for Inactive)
REMARK    1  A    between atoms: C2_2  and  C4_4 
REMARK    2  A    between atoms: C7_7  and  C8_8 
REMARK    3  A    between atoms: C8_8  and  N1_9 
REMARK    4  A    between atoms: C10_11  and  C11_12 
REMARK    5  A    between atoms: C13_17  and  O2_18 
REMARK    6  A    between atoms: O2_18  and  C14_19 
REMARK    7  A    between atoms: C14_19  and  O3_20 
REMARK    8  A    between atoms: C14_19  and  S1_33 
REMARK    9  A    between atoms: O3_20  and  C15_21 
REMARK   10  A    between atoms: C15_21  and  C16_23 
REMARK   11  A    between atoms: S1_33  and  C26_34 
REMARK   12  A    between atoms: C32_40  and  C33_41 
ROOT
HETATM    1  C11 UNL     1     -17.518   6.652   1.964  1.00  0.00     0.154 C 
HETATM    2  N2  UNL     1     -16.896   6.680   0.671  1.00  0.00    -0.348 N 
ATOM      3  H2  UNL     1     -16.776   5.872   0.060  1.00  0.00     0.163 HD
HETATM    4  C12 UNL     1     -16.473   8.002   0.371  1.00  0.00     0.248 C 
HETATM    5  O1  UNL     1     -16.371   8.541  -0.755  1.00  0.00    -0.271 OA
HETATM    6  C13 UNL     1     -16.180   8.609   1.694  1.00  0.00     0.234 C 
HETATM    7  C32 UNL     1     -17.153   7.931   2.614  1.00  0.00     0.153 C 
ENDROOT
BRANCH   6   8
HETATM    8  O2  UNL     1     -16.370   9.993   1.662  1.00  0.00    -0.336 OA
BRANCH   8   9
HETATM    9  C14 UNL     1     -15.202  10.651   2.040  1.00  0.00     0.336 C 
BRANCH   9  10
HETATM   10  O3  UNL     1     -15.243  10.805   3.465  1.00  0.00    -0.280 OA
BRANCH  10  11
HETATM   11  C15 UNL     1     -16.167  11.631   4.081  1.00  0.00     0.270 C 
HETATM   12  O4  UNL     1     -17.248  11.109   4.460  1.00  0.00    -0.264 OA
BRANCH  11  13
HETATM   13  C16 UNL     1     -15.869  13.069   4.275  1.00  0.00     0.049 C 
HETATM   14  C17 UNL     1     -16.356  13.927   3.150  1.00  0.00     0.024 C 
HETATM   15  C18 UNL     1     -15.898  15.337   3.358  1.00  0.00    -0.013 C 
HETATM   16  C19 UNL     1     -14.386  15.388   3.409  1.00  0.00     0.009 C 
HETATM   17  C23 UNL     1     -16.494  15.859   4.652  1.00  0.00     0.009 C 
HETATM   18  C20 UNL     1     -13.935  14.597   4.607  1.00  0.00    -0.013 C 
HETATM   19  C21 UNL     1     -14.534  15.081   5.900  1.00  0.00     0.009 C 
HETATM   20  C25 UNL     1     -14.346  13.174   4.400  1.00  0.00     0.024 C 
HETATM   21  C22 UNL     1     -16.040  14.997   5.786  1.00  0.00    -0.013 C 
HETATM   22  C24 UNL     1     -16.435  13.565   5.579  1.00  0.00     0.024 C 
ENDBRANCH  11  13
ENDBRANCH  10  11
ENDBRANCH   9  10
BRANCH   9  23
HETATM   23  S1  UNL     1     -13.711   9.833   1.470  1.00  0.00    -0.104 SA
BRANCH  23  24
HETATM   24  C26 UNL     1     -12.487  11.009   0.833  1.00  0.00     0.052 C 
HETATM   25  C27 UNL     1     -11.181  10.732   1.575  1.00  0.00     0.015 C 
HETATM   26  C28 UNL     1     -11.261  11.289   2.978  1.00  0.00     0.001 C 
HETATM   27  C29 UNL     1     -11.117  12.792   2.898  1.00  0.00     0.000 C 
HETATM   28  C30 UNL     1     -11.659  13.245   1.567  1.00  0.00     0.001 C 
HETATM   29  C31 UNL     1     -12.866  12.432   1.162  1.00  0.00     0.015 C 
ENDBRANCH  23  24
ENDBRANCH   9  23
ENDBRANCH   8   9
ENDBRANCH   6   8
BRANCH   7  30
HETATM   30  C33 UNL     1     -16.604   7.765   3.978  1.00  0.00     0.182 C 
HETATM   31  O5  UNL     1     -15.378   7.642   4.136  1.00  0.00    -0.648 OA
HETATM   32  O6  UNL     1     -17.451   7.748   5.056  1.00  0.00    -0.648 OA
ENDBRANCH   7  30
BRANCH   1  33
HETATM   33  C10 UNL     1     -17.076   5.457   2.744  1.00  0.00     0.068 A 
HETATM   34  C9  UNL     1     -17.861   4.743   3.620  1.00  0.00     0.140 A 
HETATM   35  N1  UNL     1     -17.122   3.754   4.122  1.00  0.00    -0.283 N 
HETATM   36  N4  UNL     1     -15.921   3.842   3.586  1.00  0.00    -0.240 N 
HETATM   37  N3  UNL     1     -15.871   4.865   2.749  1.00  0.00    -0.287 N 
ATOM     38  H4  UNL     1     -15.144   3.213   3.787  1.00  0.00     0.208 HD
ATOM     39  H3  UNL     1     -15.060   5.153   2.203  1.00  0.00     0.188 HD
BRANCH  35  40
HETATM   40  C8  UNL     1     -17.611   2.754   5.094  1.00  0.00     0.188 C 
BRANCH  40  41
HETATM   41  C7  UNL     1     -17.706   1.463   4.343  1.00  0.00    -0.037 A 
HETATM   42  C6  UNL     1     -17.056   1.354   3.148  1.00  0.00     0.009 A 
HETATM   43  C5  UNL     1     -17.122   0.201   2.408  1.00  0.00     0.010 A 
HETATM   44  C4  UNL     1     -17.850  -0.882   2.852  1.00  0.00    -0.033 A 
HETATM   45  C35 UNL     1     -18.499  -0.747   4.066  1.00  0.00     0.041 A 
HETATM   46  C34 UNL     1     -18.439   0.407   4.818  1.00  0.00     0.033 A 
HETATM   47 CL1  UNL     1     -19.448  -2.097   4.688  1.00  0.00    -0.084 Cl
BRANCH  44  48
HETATM   48  C2  UNL     1     -17.937  -2.122   2.061  1.00  0.00     0.012 C 
HETATM   49  C1  UNL     1     -18.052  -1.775   0.576  1.00  0.00     0.015 C 
HETATM   50  C3  UNL     1     -16.848  -3.110   2.316  1.00  0.00     0.015 C 
ENDBRANCH  44  48
ENDBRANCH  40  41
ENDBRANCH  35  40
ENDBRANCH   1  33
TORSDOF 12
ENDMDL
