MODEL 1
REMARK VINA RESULT: -7.574862453      0.000      0.000
REMARK  2 active torsions:
REMARK  status: ('A' for Active; 'I' for Inactive)
REMARK    1  A    between atoms: N1_6  and  C6_7 
REMARK    2  A    between atoms: C6_7  and  C7_8 
ROOT
HETATM    1  C1  UNL     1     -17.468  51.804  -0.875  1.00  0.00     0.061 C 
HETATM    2  C2  UNL     1     -18.254  53.015  -0.321  1.00  0.00     0.134 C 
HETATM    3  C3  UNL     1     -18.135  54.172  -1.266  1.00  0.00     0.054 C 
HETATM    4  C4  UNL     1     -19.433  54.720  -1.771  1.00  0.00     0.030 C 
HETATM    5  C5  UNL     1     -20.485  54.997  -0.761  1.00  0.00     0.104 C 
HETATM    6  N1  UNL     1     -19.981  55.693   0.454  1.00  0.00    -0.350 N 
HETATM    7  C10 UNL     1     -18.799  55.561   1.201  1.00  0.00     0.194 C 
HETATM    8  S1  UNL     1     -18.091  56.866   1.820  1.00  0.00    -0.039 SA
HETATM    9  N2  UNL     1     -18.022  54.385   1.516  1.00  0.00    -0.239 N 
ATOM     10  H2  UNL     1     -17.575  54.469   2.429  1.00  0.00     0.197 HD
HETATM   11  O1  UNL     1     -17.730  53.212   0.935  1.00  0.00    -0.256 OA
HETATM   12  C11 UNL     1     -21.171  53.715  -0.432  1.00  0.00     0.024 C 
HETATM   13  C12 UNL     1     -21.998  53.309  -1.659  1.00  0.00     0.029 C 
HETATM   14  C13 UNL     1     -22.105  53.747   0.737  1.00  0.00     0.029 C 
HETATM   15  S2  UNL     1     -19.944  52.438  -0.117  1.00  0.00    -0.118 SA
ENDROOT
BRANCH   6  16
HETATM   16  C6  UNL     1     -20.926  56.670   0.886  1.00  0.00     0.130 C 
BRANCH  16  17
HETATM   17  C7  UNL     1     -21.647  57.472  -0.128  1.00  0.00     0.004 A 
HETATM   18  C8  UNL     1     -22.717  58.442   0.494  1.00  0.00     0.007 A 
HETATM   19  C9  UNL     1     -23.140  57.355  -0.382  1.00  0.00     0.007 A 
ENDBRANCH  16  17
ENDBRANCH   6  16
TORSDOF 2
ENDMDL
MODEL 2
REMARK VINA RESULT: -7.532964016      2.143      4.300
REMARK  2 active torsions:
REMARK  status: ('A' for Active; 'I' for Inactive)
REMARK    1  A    between atoms: N1_6  and  C6_7 
REMARK    2  A    between atoms: C6_7  and  C7_8 
ROOT
HETATM    1  C1  UNL     1     -17.554  57.185   0.818  1.00  0.00     0.061 C 
HETATM    2  C2  UNL     1     -18.331  55.964   0.274  1.00  0.00     0.134 C 
HETATM    3  C3  UNL     1     -18.182  54.808   1.216  1.00  0.00     0.054 C 
HETATM    4  C4  UNL     1     -19.466  54.242   1.739  1.00  0.00     0.030 C 
HETATM    5  C5  UNL     1     -20.528  53.951   0.744  1.00  0.00     0.104 C 
HETATM    6  N1  UNL     1     -20.032  53.263  -0.479  1.00  0.00    -0.350 N 
HETATM    7  C10 UNL     1     -18.863  53.412  -1.243  1.00  0.00     0.194 C 
HETATM    8  S1  UNL     1     -18.146  52.118  -1.874  1.00  0.00    -0.039 SA
HETATM    9  N2  UNL     1     -18.107  54.599  -1.568  1.00  0.00    -0.239 N 
ATOM     10  H2  UNL     1     -17.672  54.522  -2.487  1.00  0.00     0.197 HD
HETATM   11  O1  UNL     1     -17.823  55.775  -0.990  1.00  0.00    -0.256 OA
HETATM   12  C11 UNL     1     -21.236  55.223   0.426  1.00  0.00     0.024 C 
HETATM   13  C12 UNL     1     -22.050  55.617   1.666  1.00  0.00     0.029 C 
HETATM   14  C13 UNL     1     -22.187  55.180  -0.728  1.00  0.00     0.029 C 
HETATM   15  S2  UNL     1     -20.032  56.518   0.096  1.00  0.00    -0.118 SA
ENDROOT
BRANCH   6  16
HETATM   16  C6  UNL     1     -20.969  52.274  -0.898  1.00  0.00     0.130 C 
BRANCH  16  17
HETATM   17  C7  UNL     1     -21.683  51.478   0.126  1.00  0.00     0.004 A 
HETATM   18  C8  UNL     1     -22.776  50.522  -0.481  1.00  0.00     0.007 A 
HETATM   19  C9  UNL     1     -23.170  51.613   0.405  1.00  0.00     0.007 A 
ENDBRANCH  16  17
ENDBRANCH   6  16
TORSDOF 2
ENDMDL
MODEL 3
REMARK VINA RESULT: -7.358888486      1.638      1.897
REMARK  2 active torsions:
REMARK  status: ('A' for Active; 'I' for Inactive)
REMARK    1  A    between atoms: N1_6  and  C6_7 
REMARK    2  A    between atoms: C6_7  and  C7_8 
ROOT
HETATM    1  C1  UNL     1     -17.222  52.058  -2.621  1.00  0.00     0.061 C 
HETATM    2  C2  UNL     1     -17.808  52.894  -1.460  1.00  0.00     0.134 C 
HETATM    3  C3  UNL     1     -18.731  53.941  -2.005  1.00  0.00     0.054 C 
HETATM    4  C4  UNL     1     -20.130  53.899  -1.472  1.00  0.00     0.030 C 
HETATM    5  C5  UNL     1     -20.286  53.803   0.001  1.00  0.00     0.104 C 
HETATM    6  N1  UNL     1     -19.390  54.717   0.760  1.00  0.00    -0.350 N 
HETATM    7  C10 UNL     1     -18.055  55.110   0.571  1.00  0.00     0.194 C 
HETATM    8  S1  UNL     1     -17.613  56.625   0.881  1.00  0.00    -0.039 SA
HETATM    9  N2  UNL     1     -16.923  54.358   0.082  1.00  0.00    -0.239 N 
ATOM     10  H2  UNL     1     -16.054  54.670   0.516  1.00  0.00     0.197 HD
HETATM   11  O1  UNL     1     -16.703  53.361  -0.788  1.00  0.00    -0.256 OA
HETATM   12  C11 UNL     1     -20.106  52.378   0.402  1.00  0.00     0.024 C 
HETATM   13  C12 UNL     1     -21.328  51.602  -0.106  1.00  0.00     0.029 C 
HETATM   14  C13 UNL     1     -19.997  52.114   1.870  1.00  0.00     0.029 C 
HETATM   15  S2  UNL     1     -18.633  51.711  -0.387  1.00  0.00    -0.118 SA
ENDROOT
BRANCH   6  16
HETATM   16  C6  UNL     1     -20.085  55.268   1.877  1.00  0.00     0.130 C 
BRANCH  16  17
HETATM   17  C7  UNL     1     -21.534  55.550   1.756  1.00  0.00     0.004 A 
HETATM   18  C8  UNL     1     -21.843  57.022   1.294  1.00  0.00     0.007 A 
HETATM   19  C9  UNL     1     -22.262  56.568   2.616  1.00  0.00     0.007 A 
ENDBRANCH  16  17
ENDBRANCH   6  16
TORSDOF 2
ENDMDL
MODEL 4
REMARK VINA RESULT: -7.357042269      1.630      4.172
REMARK  2 active torsions:
REMARK  status: ('A' for Active; 'I' for Inactive)
REMARK    1  A    between atoms: N1_6  and  C6_7 
REMARK    2  A    between atoms: C6_7  and  C7_8 
ROOT
HETATM    1  C1  UNL     1     -17.378  56.932   2.741  1.00  0.00     0.061 C 
HETATM    2  C2  UNL     1     -17.911  56.096   1.554  1.00  0.00     0.134 C 
HETATM    3  C3  UNL     1     -18.844  55.037   2.058  1.00  0.00     0.054 C 
HETATM    4  C4  UNL     1     -20.221  55.068   1.473  1.00  0.00     0.030 C 
HETATM    5  C5  UNL     1     -20.322  55.171  -0.005  1.00  0.00     0.104 C 
HETATM    6  N1  UNL     1     -19.388  54.270  -0.734  1.00  0.00    -0.350 N 
HETATM    7  C10 UNL     1     -18.058  53.889  -0.496  1.00  0.00     0.194 C 
HETATM    8  S1  UNL     1     -17.588  52.381  -0.797  1.00  0.00    -0.039 SA
HETATM    9  N2  UNL     1     -16.953  54.650   0.039  1.00  0.00    -0.239 N 
ATOM     10  H2  UNL     1     -16.065  54.349  -0.363  1.00  0.00     0.197 HD
HETATM   11  O1  UNL     1     -16.776  55.644   0.922  1.00  0.00    -0.256 OA
HETATM   12  C11 UNL     1     -20.142  56.599  -0.391  1.00  0.00     0.024 C 
HETATM   13  C12 UNL     1     -21.390  57.360   0.075  1.00  0.00     0.029 C 
HETATM   14  C13 UNL     1     -19.980  56.873  -1.852  1.00  0.00     0.029 C 
HETATM   15  S2  UNL     1     -18.707  57.277   0.457  1.00  0.00    -0.118 SA
ENDROOT
BRANCH   6  16
HETATM   16  C6  UNL     1     -20.034  53.719  -1.879  1.00  0.00     0.130 C 
BRANCH  16  17
HETATM   17  C7  UNL     1     -21.485  53.425  -1.817  1.00  0.00     0.004 A 
HETATM   18  C8  UNL     1     -21.802  51.955  -1.356  1.00  0.00     0.007 A 
HETATM   19  C9  UNL     1     -22.169  52.395  -2.698  1.00  0.00     0.007 A 
ENDBRANCH  16  17
ENDBRANCH   6  16
TORSDOF 2
ENDMDL
MODEL 5
REMARK VINA RESULT: -7.311738462      2.051      4.740
REMARK  2 active torsions:
REMARK  status: ('A' for Active; 'I' for Inactive)
REMARK    1  A    between atoms: N1_6  and  C6_7 
REMARK    2  A    between atoms: C6_7  and  C7_8 
ROOT
HETATM    1  C1  UNL     1     -22.782  58.095   0.796  1.00  0.00     0.061 C 
HETATM    2  C2  UNL     1     -21.532  57.212   0.576  1.00  0.00     0.134 C 
HETATM    3  C3  UNL     1     -21.161  56.529   1.858  1.00  0.00     0.054 C 
HETATM    4  C4  UNL     1     -21.105  55.035   1.792  1.00  0.00     0.030 C 
HETATM    5  C5  UNL     1     -20.347  54.439   0.663  1.00  0.00     0.104 C 
HETATM    6  N1  UNL     1     -19.034  55.093   0.410  1.00  0.00    -0.350 N 
HETATM    7  C10 UNL     1     -18.620  56.434   0.445  1.00  0.00     0.194 C 
HETATM    8  S1  UNL     1     -17.162  56.810   1.011  1.00  0.00    -0.039 SA
HETATM    9  N2  UNL     1     -19.325  57.637   0.068  1.00  0.00    -0.239 N 
ATOM     10  H2  UNL     1     -18.687  58.344  -0.296  1.00  0.00     0.197 HD
HETATM   11  O1  UNL     1     -20.592  58.077   0.066  1.00  0.00    -0.256 OA
HETATM   12  C11 UNL     1     -21.220  54.445  -0.545  1.00  0.00     0.024 C 
HETATM   13  C12 UNL     1     -22.329  53.409  -0.315  1.00  0.00     0.029 C 
HETATM   14  C13 UNL     1     -20.558  54.098  -1.841  1.00  0.00     0.029 C 
HETATM   15  S2  UNL     1     -21.979  56.065  -0.734  1.00  0.00    -0.118 SA
ENDROOT
BRANCH   6  16
HETATM   16  C6  UNL     1     -18.054  54.112   0.079  1.00  0.00     0.130 C 
BRANCH  16  17
HETATM   17  C7  UNL     1     -18.116  52.783   0.731  1.00  0.00     0.004 A 
HETATM   18  C8  UNL     1     -17.149  51.727   0.080  1.00  0.00     0.007 A 
HETATM   19  C9  UNL     1     -18.593  51.526   0.025  1.00  0.00     0.007 A 
ENDBRANCH  16  17
ENDBRANCH   6  16
TORSDOF 2
ENDMDL
