MODEL 1
REMARK VINA RESULT: -8.110785620      0.000      0.000
REMARK  3 active torsions:
REMARK  status: ('A' for Active; 'I' for Inactive)
REMARK    1  A    between atoms: O1_2  and  C2_3 
REMARK    2  A    between atoms: C11_12  and  C13_15 
REMARK    3  A    between atoms: C13_15  and  O2_18 
ROOT
HETATM    1  C2  UNL     1     -20.070  55.850   2.223  1.00  0.00     0.129 C 
HETATM    2  C3  UNL     1     -18.598  56.100   2.259  1.00  0.00     0.011 C 
HETATM    3  C4  UNL     1     -18.038  56.279   3.623  1.00  0.00     0.012 C 
HETATM    4  C5  UNL     1     -18.399  57.346   1.384  1.00  0.00     0.008 C 
HETATM    5  C6  UNL     1     -18.592  56.857  -0.029  1.00  0.00     0.014 C 
HETATM    6  C7  UNL     1     -19.929  56.214  -0.264  1.00  0.00    -0.021 C 
HETATM    7  C8  UNL     1     -20.870  57.403  -0.576  1.00  0.00     0.020 C 
HETATM    8  C9  UNL     1     -19.832  55.485  -1.537  1.00  0.00    -0.019 C 
HETATM    9  C10 UNL     1     -20.023  54.224  -1.674  1.00  0.00    -0.003 C 
HETATM   10  C11 UNL     1     -20.372  53.326  -0.565  1.00  0.00     0.097 C 
HETATM   11  C12 UNL     1     -19.383  52.213  -0.630  1.00  0.00     0.076 C 
HETATM   12  N1  UNL     1     -18.626  51.340  -0.674  1.00  0.00    -0.196 NA
HETATM   13  C16 UNL     1     -20.233  53.938   0.762  1.00  0.00     0.040 C 
HETATM   14  C17 UNL     1     -20.488  55.419   0.823  1.00  0.00     0.029 C 
ENDROOT
BRANCH  10  15
HETATM   15  C13 UNL     1     -21.721  52.712  -0.847  1.00  0.00     0.074 C 
HETATM   16  C14 UNL     1     -22.333  52.104   0.399  1.00  0.00     0.047 C 
HETATM   17  C15 UNL     1     -22.711  53.663  -1.423  1.00  0.00     0.047 C 
BRANCH  15  18
HETATM   18  O2  UNL     1     -21.562  51.658  -1.759  1.00  0.00    -0.389 OA
ATOM     19  H2  UNL     1     -21.763  51.972  -2.632  1.00  0.00     0.210 HD
ENDBRANCH  15  18
ENDBRANCH  10  15
BRANCH   1  20
HETATM   20  O1  UNL     1     -20.761  56.970   2.607  1.00  0.00    -0.390 OA
HETATM   21  C1  UNL     1     -22.065  56.683   2.987  1.00  0.00     0.202 C 
ENDBRANCH   1  20
TORSDOF 3
ENDMDL
MODEL 2
REMARK VINA RESULT: -8.088120462      2.069      5.190
REMARK  3 active torsions:
REMARK  status: ('A' for Active; 'I' for Inactive)
REMARK    1  A    between atoms: O1_2  and  C2_3 
REMARK    2  A    between atoms: C11_12  and  C13_15 
REMARK    3  A    between atoms: C13_15  and  O2_18 
ROOT
HETATM    1  C2  UNL     1     -20.073  53.115  -2.185  1.00  0.00     0.129 C 
HETATM    2  C3  UNL     1     -18.600  52.867  -2.209  1.00  0.00     0.011 C 
HETATM    3  C4  UNL     1     -18.030  52.675  -3.567  1.00  0.00     0.012 C 
HETATM    4  C5  UNL     1     -18.405  51.630  -1.320  1.00  0.00     0.008 C 
HETATM    5  C6  UNL     1     -18.609  52.133   0.086  1.00  0.00     0.014 C 
HETATM    6  C7  UNL     1     -19.949  52.776   0.306  1.00  0.00    -0.021 C 
HETATM    7  C8  UNL     1     -20.890  51.589   0.623  1.00  0.00     0.020 C 
HETATM    8  C9  UNL     1     -19.862  53.518   1.573  1.00  0.00    -0.019 C 
HETATM    9  C10 UNL     1     -20.056  54.779   1.696  1.00  0.00    -0.003 C 
HETATM   10  C11 UNL     1     -20.398  55.666   0.575  1.00  0.00     0.097 C 
HETATM   11  C12 UNL     1     -19.411  56.781   0.636  1.00  0.00     0.076 C 
HETATM   12  N1  UNL     1     -18.655  57.656   0.677  1.00  0.00    -0.196 NA
HETATM   13  C16 UNL     1     -20.249  55.041  -0.745  1.00  0.00     0.040 C 
HETATM   14  C17 UNL     1     -20.501  53.559  -0.793  1.00  0.00     0.029 C 
ENDROOT
BRANCH  10  15
HETATM   15  C13 UNL     1     -21.749  56.281   0.841  1.00  0.00     0.074 C 
HETATM   16  C14 UNL     1     -22.328  56.927  -0.402  1.00  0.00     0.047 C 
HETATM   17  C15 UNL     1     -22.759  55.321   1.367  1.00  0.00     0.047 C 
BRANCH  15  18
HETATM   18  O2  UNL     1     -21.606  57.308   1.785  1.00  0.00    -0.389 OA
ATOM     19  H2  UNL     1     -22.463  57.665   1.987  1.00  0.00     0.210 HD
ENDBRANCH  15  18
ENDBRANCH  10  15
BRANCH   1  20
HETATM   20  O1  UNL     1     -20.759  51.990  -2.564  1.00  0.00    -0.390 OA
HETATM   21  C1  UNL     1     -22.045  52.277  -3.001  1.00  0.00     0.202 C 
ENDBRANCH   1  20
TORSDOF 3
ENDMDL
MODEL 3
REMARK VINA RESULT: -7.947564479      2.563      3.849
REMARK  3 active torsions:
REMARK  status: ('A' for Active; 'I' for Inactive)
REMARK    1  A    between atoms: O1_2  and  C2_3 
REMARK    2  A    between atoms: C11_12  and  C13_15 
REMARK    3  A    between atoms: C13_15  and  O2_18 
ROOT
HETATM    1  C2  UNL     1     -22.236  55.783   1.937  1.00  0.00     0.129 C 
HETATM    2  C3  UNL     1     -22.380  57.147   2.525  1.00  0.00     0.011 C 
HETATM    3  C4  UNL     1     -23.166  57.195   3.785  1.00  0.00     0.012 C 
HETATM    4  C5  UNL     1     -23.027  57.980   1.410  1.00  0.00     0.008 C 
HETATM    5  C6  UNL     1     -21.926  58.195   0.404  1.00  0.00     0.014 C 
HETATM    6  C7  UNL     1     -21.334  56.918  -0.121  1.00  0.00    -0.021 C 
HETATM    7  C8  UNL     1     -22.276  56.513  -1.280  1.00  0.00     0.020 C 
HETATM    8  C9  UNL     1     -20.073  57.276  -0.787  1.00  0.00    -0.019 C 
HETATM    9  C10 UNL     1     -18.920  56.817  -0.464  1.00  0.00    -0.003 C 
HETATM   10  C11 UNL     1     -18.699  55.858   0.628  1.00  0.00     0.097 C 
HETATM   11  C12 UNL     1     -17.636  56.464   1.479  1.00  0.00     0.076 C 
HETATM   12  N1  UNL     1     -16.807  56.921   2.144  1.00  0.00    -0.196 NA
HETATM   13  C16 UNL     1     -19.869  55.660   1.491  1.00  0.00     0.040 C 
HETATM   14  C17 UNL     1     -21.205  55.808   0.816  1.00  0.00     0.029 C 
ENDROOT
BRANCH  10  15
HETATM   15  C13 UNL     1     -18.110  54.595   0.050  1.00  0.00     0.074 C 
HETATM   16  C14 UNL     1     -18.428  53.385   0.904  1.00  0.00     0.047 C 
HETATM   17  C15 UNL     1     -18.555  54.301  -1.341  1.00  0.00     0.047 C 
BRANCH  15  18
HETATM   18  O2  UNL     1     -16.712  54.708   0.035  1.00  0.00    -0.389 OA
ATOM     19  H2  UNL     1     -16.362  54.319   0.827  1.00  0.00     0.210 HD
ENDBRANCH  15  18
ENDBRANCH  10  15
BRANCH   1  20
HETATM   20  O1  UNL     1     -23.443  55.327   1.470  1.00  0.00    -0.390 OA
HETATM   21  C1  UNL     1     -23.385  54.002   1.060  1.00  0.00     0.202 C 
ENDBRANCH   1  20
TORSDOF 3
ENDMDL
MODEL 4
REMARK VINA RESULT: -7.929331528      2.401      5.348
REMARK  3 active torsions:
REMARK  status: ('A' for Active; 'I' for Inactive)
REMARK    1  A    between atoms: O1_2  and  C2_3 
REMARK    2  A    between atoms: C11_12  and  C13_15 
REMARK    3  A    between atoms: C13_15  and  O2_18 
ROOT
HETATM    1  C2  UNL     1     -22.243  53.179  -1.980  1.00  0.00     0.129 C 
HETATM    2  C3  UNL     1     -22.380  51.811  -2.562  1.00  0.00     0.011 C 
HETATM    3  C4  UNL     1     -23.155  51.754  -3.827  1.00  0.00     0.012 C 
HETATM    4  C5  UNL     1     -23.034  50.983  -1.446  1.00  0.00     0.008 C 
HETATM    5  C6  UNL     1     -21.940  50.776  -0.430  1.00  0.00     0.014 C 
HETATM    6  C7  UNL     1     -21.355  52.057   0.091  1.00  0.00    -0.021 C 
HETATM    7  C8  UNL     1     -22.308  52.467   1.240  1.00  0.00     0.020 C 
HETATM    8  C9  UNL     1     -20.098  51.706   0.769  1.00  0.00    -0.019 C 
HETATM    9  C10 UNL     1     -18.944  52.165   0.453  1.00  0.00    -0.003 C 
HETATM   10  C11 UNL     1     -18.716  53.118  -0.643  1.00  0.00     0.097 C 
HETATM   11  C12 UNL     1     -17.645  52.508  -1.481  1.00  0.00     0.076 C 
HETATM   12  N1  UNL     1     -16.810  52.049  -2.137  1.00  0.00    -0.196 NA
HETATM   13  C16 UNL     1     -19.880  53.309  -1.516  1.00  0.00     0.040 C 
HETATM   14  C17 UNL     1     -21.221  53.162  -0.851  1.00  0.00     0.029 C 
ENDROOT
BRANCH  10  15
HETATM   15  C13 UNL     1     -18.134  54.385  -0.068  1.00  0.00     0.074 C 
HETATM   16  C14 UNL     1     -18.437  55.587  -0.937  1.00  0.00     0.047 C 
HETATM   17  C15 UNL     1     -18.600  54.692   1.313  1.00  0.00     0.047 C 
BRANCH  15  18
HETATM   18  O2  UNL     1     -16.736  54.270  -0.030  1.00  0.00    -0.389 OA
ATOM     19  H2  UNL     1     -16.473  53.979   0.834  1.00  0.00     0.210 HD
ENDBRANCH  15  18
ENDBRANCH  10  15
BRANCH   1  20
HETATM   20  O1  UNL     1     -23.454  53.635  -1.526  1.00  0.00    -0.390 OA
HETATM   21  C1  UNL     1     -23.390  54.948  -1.078  1.00  0.00     0.202 C 
ENDBRANCH   1  20
TORSDOF 3
ENDMDL
MODEL 5
REMARK VINA RESULT: -7.883463040      1.348      1.843
REMARK  3 active torsions:
REMARK  status: ('A' for Active; 'I' for Inactive)
REMARK    1  A    between atoms: O1_2  and  C2_3 
REMARK    2  A    between atoms: C11_12  and  C13_15 
REMARK    3  A    between atoms: C13_15  and  O2_18 
ROOT
HETATM    1  C2  UNL     1     -18.291  55.897   1.468  1.00  0.00     0.129 C 
HETATM    2  C3  UNL     1     -17.419  56.499   0.415  1.00  0.00     0.011 C 
HETATM    3  C4  UNL     1     -16.095  56.962   0.903  1.00  0.00     0.012 C 
HETATM    4  C5  UNL     1     -18.256  57.648  -0.165  1.00  0.00     0.008 C 
HETATM    5  C6  UNL     1     -19.315  56.970  -0.996  1.00  0.00     0.014 C 
HETATM    6  C7  UNL     1     -20.158  55.999  -0.218  1.00  0.00    -0.021 C 
HETATM    7  C8  UNL     1     -21.259  56.881   0.418  1.00  0.00     0.020 C 
HETATM    8  C9  UNL     1     -20.876  55.176  -1.202  1.00  0.00    -0.019 C 
HETATM    9  C10 UNL     1     -20.790  53.899  -1.288  1.00  0.00    -0.003 C 
HETATM   10  C11 UNL     1     -19.954  53.075  -0.404  1.00  0.00     0.097 C 
HETATM   11  C12 UNL     1     -19.124  52.235  -1.313  1.00  0.00     0.076 C 
HETATM   12  N1  UNL     1     -18.479  51.572  -2.008  1.00  0.00    -0.196 NA
HETATM   13  C16 UNL     1     -19.022  53.849   0.424  1.00  0.00     0.040 C 
HETATM   14  C17 UNL     1     -19.493  55.222   0.821  1.00  0.00     0.029 C 
ENDROOT
BRANCH  10  15
HETATM   15  C13 UNL     1     -20.845  52.124   0.356  1.00  0.00     0.074 C 
HETATM   16  C14 UNL     1     -20.200  51.656   1.644  1.00  0.00     0.047 C 
HETATM   17  C15 UNL     1     -22.182  52.687   0.695  1.00  0.00     0.047 C 
BRANCH  15  18
HETATM   18  O2  UNL     1     -21.052  50.974  -0.420  1.00  0.00    -0.389 OA
ATOM     19  H2  UNL     1     -21.950  50.966  -0.729  1.00  0.00     0.210 HD
ENDBRANCH  15  18
ENDBRANCH  10  15
BRANCH   1  20
HETATM   20  O1  UNL     1     -18.700  56.853   2.362  1.00  0.00    -0.390 OA
HETATM   21  C1  UNL     1     -18.495  56.467   3.679  1.00  0.00     0.202 C 
ENDBRANCH   1  20
TORSDOF 3
ENDMDL
