MODEL 1
REMARK VINA RESULT: -8.330520503      0.000      0.000
REMARK  7 active torsions:
REMARK  status: ('A' for Active; 'I' for Inactive)
REMARK    1  A    between atoms: C6_9  and  C7_10 
REMARK    2  A    between atoms: C7_10  and  C8_11 
REMARK    3  A    between atoms: C8_11  and  O2_12 
REMARK    4  A    between atoms: C8_11  and  C9_14 
REMARK    5  A    between atoms: C9_14  and  C10_15 
REMARK    6  A    between atoms: C16_23  and  C17_24 
REMARK    7  A    between atoms: C17_24  and  S1_25 
ROOT
HETATM    1  C1  UNL     1      50.629  11.622   7.367  1.00  0.00     0.015 C 
HETATM    2  C2  UNL     1      50.227  12.525   8.060  1.00  0.00    -0.085 C 
HETATM    3  C3  UNL     1      49.756  13.651   8.914  1.00  0.00     0.105 C 
HETATM    4  C4  UNL     1      50.967  14.309   9.461  1.00  0.00     0.054 C 
HETATM    5  N1  UNL     1      48.992  14.502   7.984  1.00  0.00    -0.336 N 
ATOM      6  H1  UNL     1      49.192  14.467   6.984  1.00  0.00     0.164 HD
HETATM    7  C5  UNL     1      47.949  15.397   8.486  1.00  0.00     0.249 C 
HETATM    8  O1  UNL     1      47.122  15.569   7.541  1.00  0.00    -0.268 OA
HETATM    9  C6  UNL     1      47.872  15.966   9.791  1.00  0.00     0.014 C 
HETATM   10  C16 UNL     1      47.293  14.938  10.823  1.00  0.00     0.043 C 
HETATM   11  C19 UNL     1      48.262  13.795  11.019  1.00  0.00     0.009 C 
HETATM   12  C20 UNL     1      47.524  12.669  11.791  1.00  0.00     0.012 C 
HETATM   13  C21 UNL     1      48.808  13.083   9.880  1.00  0.00     0.102 C 
HETATM   14 BR1  UNL     1      47.287  12.407   8.834  1.00  0.00    -0.087 Br
ENDROOT
BRANCH   9  15
HETATM   15  C7  UNL     1      47.621  17.352  10.014  1.00  0.00     0.018 C 
BRANCH  15  16
HETATM   16  C8  UNL     1      48.465  18.545   9.991  1.00  0.00     0.146 C 
BRANCH  16  17
HETATM   17  O2  UNL     1      49.807  18.148   9.571  1.00  0.00    -0.391 OA
ATOM     18  H2  UNL     1      50.364  18.119  10.340  1.00  0.00     0.210 HD
ENDBRANCH  16  17
BRANCH  16  19
HETATM   19  C9  UNL     1      48.238  19.544   8.847  1.00  0.00     0.076 C 
BRANCH  19  20
HETATM   20  C10 UNL     1      48.095  20.919   9.354  1.00  0.00    -0.034 A 
HETATM   21  C11 UNL     1      47.454  21.035  10.610  1.00  0.00     0.095 A 
HETATM   22  N2  UNL     1      47.349  22.238  11.176  1.00  0.00    -0.375 N 
HETATM   23  C12 UNL     1      47.835  23.351  10.588  1.00  0.00     0.088 A 
ATOM     24  H2  UNL     1      46.886  22.320  12.082  1.00  0.00     0.164 HD
HETATM   25  C13 UNL     1      48.459  23.295   9.380  1.00  0.00     0.024 A 
HETATM   26  C14 UNL     1      48.580  22.026   8.761  1.00  0.00    -0.053 A 
HETATM   27  C15 UNL     1      49.213  22.063   7.389  1.00  0.00     0.049 C 
ENDBRANCH  19  20
ENDBRANCH  16  19
ENDBRANCH  15  16
ENDBRANCH   9  15
BRANCH  10  28
HETATM   28  C17 UNL     1      47.133  15.796  12.021  1.00  0.00     0.150 C 
BRANCH  28  29
HETATM   29  S1  UNL     1      45.738  15.866  13.015  1.00  0.00     0.141 S 
HETATM   30  C18 UNL     1      44.489  14.815  12.182  1.00  0.00     0.161 C 
HETATM   31  O3  UNL     1      45.804  15.225  14.349  1.00  0.00    -0.228 OA
HETATM   32  O4  UNL     1      44.978  17.178  12.999  1.00  0.00    -0.228 OA
ENDBRANCH  28  29
ENDBRANCH  10  28
TORSDOF 7
ENDMDL
MODEL 2
REMARK VINA RESULT: -8.113478213      0.911      1.395
REMARK  7 active torsions:
REMARK  status: ('A' for Active; 'I' for Inactive)
REMARK    1  A    between atoms: C6_9  and  C7_10 
REMARK    2  A    between atoms: C7_10  and  C8_11 
REMARK    3  A    between atoms: C8_11  and  O2_12 
REMARK    4  A    between atoms: C8_11  and  C9_14 
REMARK    5  A    between atoms: C9_14  and  C10_15 
REMARK    6  A    between atoms: C16_23  and  C17_24 
REMARK    7  A    between atoms: C17_24  and  S1_25 
ROOT
HETATM    1  C1  UNL     1      50.619  11.816   7.230  1.00  0.00     0.015 C 
HETATM    2  C2  UNL     1      50.244  12.667   8.000  1.00  0.00    -0.085 C 
HETATM    3  C3  UNL     1      49.806  13.728   8.950  1.00  0.00     0.105 C 
HETATM    4  C4  UNL     1      51.037  14.315   9.533  1.00  0.00     0.054 C 
HETATM    5  N1  UNL     1      49.049  14.668   8.103  1.00  0.00    -0.336 N 
ATOM      6  H1  UNL     1      49.237  14.711   7.102  1.00  0.00     0.164 HD
HETATM    7  C5  UNL     1      48.031  15.539   8.691  1.00  0.00     0.249 C 
HETATM    8  O1  UNL     1      47.196  15.804   7.774  1.00  0.00    -0.268 OA
HETATM    9  C6  UNL     1      47.981  16.000  10.040  1.00  0.00     0.014 C 
HETATM   10  C16 UNL     1      47.394  14.901  10.991  1.00  0.00     0.043 C 
HETATM   11  C19 UNL     1      48.340  13.727  11.080  1.00  0.00     0.009 C 
HETATM   12  C20 UNL     1      47.588  12.557  11.767  1.00  0.00     0.012 C 
HETATM   13  C21 UNL     1      48.858  13.101   9.879  1.00  0.00     0.102 C 
HETATM   14 BR1  UNL     1      47.311  12.544   8.801  1.00  0.00    -0.087 Br
ENDROOT
BRANCH   9  15
HETATM   15  C7  UNL     1      47.761  17.367  10.379  1.00  0.00     0.018 C 
BRANCH  15  16
HETATM   16  C8  UNL     1      48.439  18.613  10.027  1.00  0.00     0.146 C 
BRANCH  16  17
HETATM   17  O2  UNL     1      49.834  18.305   9.719  1.00  0.00    -0.391 OA
ATOM     18  H2  UNL     1      49.991  18.513   8.806  1.00  0.00     0.210 HD
ENDBRANCH  16  17
BRANCH  16  19
HETATM   19  C9  UNL     1      48.114  19.227   8.657  1.00  0.00     0.076 C 
BRANCH  19  20
HETATM   20  C10 UNL     1      48.358  20.678   8.644  1.00  0.00    -0.034 A 
HETATM   21  C11 UNL     1      49.154  21.146   7.571  1.00  0.00     0.095 A 
HETATM   22  N2  UNL     1      49.364  22.456   7.443  1.00  0.00    -0.375 N 
HETATM   23  C12 UNL     1      48.842  23.353   8.305  1.00  0.00     0.088 A 
ATOM     24  H2  UNL     1      49.938  22.792   6.668  1.00  0.00     0.164 HD
HETATM   25  C13 UNL     1      48.071  22.956   9.354  1.00  0.00     0.024 A 
HETATM   26  C14 UNL     1      47.836  21.567   9.509  1.00  0.00    -0.053 A 
HETATM   27  C15 UNL     1      47.039  21.206  10.741  1.00  0.00     0.049 C 
ENDBRANCH  19  20
ENDBRANCH  16  19
ENDBRANCH  15  16
ENDBRANCH   9  15
BRANCH  10  28
HETATM   28  C17 UNL     1      47.265  15.661  12.258  1.00  0.00     0.150 C 
BRANCH  28  29
HETATM   29  S1  UNL     1      45.831  15.814  13.185  1.00  0.00     0.141 S 
HETATM   30  C18 UNL     1      44.574  14.804  12.314  1.00  0.00     0.161 C 
HETATM   31  O3  UNL     1      45.807  15.198  14.531  1.00  0.00    -0.228 OA
HETATM   32  O4  UNL     1      45.133  17.158  13.109  1.00  0.00    -0.228 OA
ENDBRANCH  28  29
ENDBRANCH  10  28
TORSDOF 7
ENDMDL
MODEL 3
REMARK VINA RESULT: -8.066912885      3.566      6.050
REMARK  7 active torsions:
REMARK  status: ('A' for Active; 'I' for Inactive)
REMARK    1  A    between atoms: C6_9  and  C7_10 
REMARK    2  A    between atoms: C7_10  and  C8_11 
REMARK    3  A    between atoms: C8_11  and  O2_12 
REMARK    4  A    between atoms: C8_11  and  C9_14 
REMARK    5  A    between atoms: C9_14  and  C10_15 
REMARK    6  A    between atoms: C16_23  and  C17_24 
REMARK    7  A    between atoms: C17_24  and  S1_25 
ROOT
HETATM    1  C1  UNL     1      47.917   9.111   8.603  1.00  0.00     0.015 C 
HETATM    2  C2  UNL     1      47.530  10.236   8.809  1.00  0.00    -0.085 C 
HETATM    3  C3  UNL     1      47.025  11.615   9.059  1.00  0.00     0.105 C 
HETATM    4  C4  UNL     1      45.616  11.646   8.596  1.00  0.00     0.054 C 
HETATM    5  N1  UNL     1      47.170  11.782  10.517  1.00  0.00    -0.336 N 
ATOM      6  H1  UNL     1      47.185  10.962  11.122  1.00  0.00     0.164 HD
HETATM    7  C5  UNL     1      47.291  13.119  11.100  1.00  0.00     0.249 C 
HETATM    8  O1  UNL     1      47.929  12.991  12.188  1.00  0.00    -0.268 OA
HETATM    9  C6  UNL     1      46.792  14.336  10.549  1.00  0.00     0.014 C 
HETATM   10  C16 UNL     1      47.748  14.886   9.435  1.00  0.00     0.043 C 
HETATM   11  C19 UNL     1      47.745  13.959   8.242  1.00  0.00     0.009 C 
HETATM   12  C20 UNL     1      48.920  14.369   7.314  1.00  0.00     0.012 C 
HETATM   13  C21 UNL     1      47.965  12.536   8.409  1.00  0.00     0.102 C 
HETATM   14 BR1  UNL     1      49.686  12.317   9.333  1.00  0.00    -0.087 Br
ENDROOT
BRANCH   9  15
HETATM   15  C7  UNL     1      46.044  15.278  11.314  1.00  0.00     0.018 C 
BRANCH  15  16
HETATM   16  C8  UNL     1      46.095  15.708  12.711  1.00  0.00     0.146 C 
BRANCH  16  17
HETATM   17  O2  UNL     1      47.287  16.534  12.892  1.00  0.00    -0.391 OA
ATOM     18  H2  UNL     1      47.488  16.567  13.820  1.00  0.00     0.210 HD
ENDBRANCH  16  17
BRANCH  16  19
HETATM   19  C9  UNL     1      45.095  16.787  13.150  1.00  0.00     0.076 C 
BRANCH  19  20
HETATM   20  C10 UNL     1      44.134  16.263  14.134  1.00  0.00    -0.034 A 
HETATM   21  C11 UNL     1      44.521  16.406  15.489  1.00  0.00     0.095 A 
HETATM   22  N2  UNL     1      43.677  16.024  16.448  1.00  0.00    -0.375 N 
HETATM   23  C12 UNL     1      42.463  15.503  16.168  1.00  0.00     0.088 A 
ATOM     24  H2  UNL     1      43.957  16.128  17.423  1.00  0.00     0.164 HD
HETATM   25  C13 UNL     1      42.044  15.344  14.884  1.00  0.00     0.024 A 
HETATM   26  C14 UNL     1      42.927  15.742  13.849  1.00  0.00    -0.053 A 
HETATM   27  C15 UNL     1      42.417  15.457  12.455  1.00  0.00     0.049 C 
ENDBRANCH  19  20
ENDBRANCH  16  19
ENDBRANCH  15  16
ENDBRANCH   9  15
BRANCH  10  28
HETATM   28  C17 UNL     1      47.138  16.209   9.164  1.00  0.00     0.150 C 
BRANCH  28  29
HETATM   29  S1  UNL     1      47.862  17.726   9.501  1.00  0.00     0.141 S 
HETATM   30  C18 UNL     1      49.501  17.337  10.223  1.00  0.00     0.161 C 
HETATM   31  O3  UNL     1      48.252  18.579   8.354  1.00  0.00    -0.228 OA
HETATM   32  O4  UNL     1      47.277  18.496  10.670  1.00  0.00    -0.228 OA
ENDBRANCH  28  29
ENDBRANCH  10  28
TORSDOF 7
ENDMDL
MODEL 4
REMARK VINA RESULT: -8.065953090      2.493      4.695
REMARK  7 active torsions:
REMARK  status: ('A' for Active; 'I' for Inactive)
REMARK    1  A    between atoms: C6_9  and  C7_10 
REMARK    2  A    between atoms: C7_10  and  C8_11 
REMARK    3  A    between atoms: C8_11  and  O2_12 
REMARK    4  A    between atoms: C8_11  and  C9_14 
REMARK    5  A    between atoms: C9_14  and  C10_15 
REMARK    6  A    between atoms: C16_23  and  C17_24 
REMARK    7  A    between atoms: C17_24  and  S1_25 
ROOT
HETATM    1  C1  UNL     1      43.312  11.617  13.869  1.00  0.00     0.015 C 
HETATM    2  C2  UNL     1      43.829  12.242  12.975  1.00  0.00    -0.085 C 
HETATM    3  C3  UNL     1      44.441  13.024  11.864  1.00  0.00     0.105 C 
HETATM    4  C4  UNL     1      43.326  13.500  11.010  1.00  0.00     0.054 C 
HETATM    5  N1  UNL     1      45.160  14.110  12.555  1.00  0.00    -0.336 N 
ATOM      6  H1  UNL     1      44.865  14.402  13.486  1.00  0.00     0.164 HD
HETATM    7  C5  UNL     1      46.295  14.773  11.910  1.00  0.00     0.249 C 
HETATM    8  O1  UNL     1      47.038  15.219  12.837  1.00  0.00    -0.268 OA
HETATM    9  C6  UNL     1      46.527  14.893  10.509  1.00  0.00     0.014 C 
HETATM   10  C16 UNL     1      47.142  13.574   9.923  1.00  0.00     0.043 C 
HETATM   11  C19 UNL     1      46.134  12.452   9.995  1.00  0.00     0.009 C 
HETATM   12  C20 UNL     1      46.877  11.121   9.702  1.00  0.00     0.012 C 
HETATM   13  C21 UNL     1      45.443  12.155  11.235  1.00  0.00     0.102 C 
HETATM   14 BR1  UNL     1      46.818  11.814  12.599  1.00  0.00    -0.087 Br
ENDROOT
BRANCH   9  15
HETATM   15  C7  UNL     1      46.876  16.127   9.888  1.00  0.00     0.018 C 
BRANCH  15  16
HETATM   16  C8  UNL     1      47.680  17.274  10.310  1.00  0.00     0.146 C 
BRANCH  16  17
HETATM   17  O2  UNL     1      49.006  16.790  10.686  1.00  0.00    -0.391 OA
ATOM     18  H2  UNL     1      49.106  16.895  11.625  1.00  0.00     0.210 HD
ENDBRANCH  16  17
BRANCH  16  19
HETATM   19  C9  UNL     1      48.172  18.228   9.211  1.00  0.00     0.076 C 
BRANCH  19  20
HETATM   20  C10 UNL     1      47.909  19.633   9.560  1.00  0.00    -0.034 A 
HETATM   21  C11 UNL     1      47.135  19.829  10.730  1.00  0.00     0.095 A 
HETATM   22  N2  UNL     1      46.911  21.071  11.158  1.00  0.00    -0.375 N 
HETATM   23  C12 UNL     1      47.399  22.151  10.512  1.00  0.00     0.088 A 
ATOM     24  H2  UNL     1      46.354  21.211  12.002  1.00  0.00     0.164 HD
HETATM   25  C13 UNL     1      48.147  22.018   9.383  1.00  0.00     0.024 A 
HETATM   26  C14 UNL     1      48.396  20.706   8.909  1.00  0.00    -0.053 A 
HETATM   27  C15 UNL     1      49.165  20.650   7.609  1.00  0.00     0.049 C 
ENDBRANCH  19  20
ENDBRANCH  16  19
ENDBRANCH  15  16
ENDBRANCH   9  15
BRANCH  10  28
HETATM   28  C17 UNL     1      47.463  14.001   8.540  1.00  0.00     0.150 C 
BRANCH  28  29
HETATM   29  S1  UNL     1      49.038  14.097   7.869  1.00  0.00     0.141 S 
HETATM   30  C18 UNL     1      49.946  12.654   8.542  1.00  0.00     0.161 C 
HETATM   31  O3  UNL     1      49.187  13.871   6.413  1.00  0.00    -0.228 OA
HETATM   32  O4  UNL     1      49.925  15.198   8.416  1.00  0.00    -0.228 OA
ENDBRANCH  28  29
ENDBRANCH  10  28
TORSDOF 7
ENDMDL
MODEL 5
REMARK VINA RESULT: -8.050028178      3.982      7.720
REMARK  7 active torsions:
REMARK  status: ('A' for Active; 'I' for Inactive)
REMARK    1  A    between atoms: C6_9  and  C7_10 
REMARK    2  A    between atoms: C7_10  and  C8_11 
REMARK    3  A    between atoms: C8_11  and  O2_12 
REMARK    4  A    between atoms: C8_11  and  C9_14 
REMARK    5  A    between atoms: C9_14  and  C10_15 
REMARK    6  A    between atoms: C16_23  and  C17_24 
REMARK    7  A    between atoms: C17_24  and  S1_25 
ROOT
HETATM    1  C1  UNL     1      47.431  17.663  10.639  1.00  0.00     0.015 C 
HETATM    2  C2  UNL     1      47.510  16.460  10.705  1.00  0.00    -0.085 C 
HETATM    3  C3  UNL     1      47.603  14.978  10.815  1.00  0.00     0.105 C 
HETATM    4  C4  UNL     1      47.775  14.665  12.255  1.00  0.00     0.054 C 
HETATM    5  N1  UNL     1      46.323  14.504  10.257  1.00  0.00    -0.336 N 
ATOM      6  H1  UNL     1      45.510  15.119  10.260  1.00  0.00     0.164 HD
HETATM    7  C5  UNL     1      46.213  13.155   9.700  1.00  0.00     0.249 C 
HETATM    8  O1  UNL     1      45.281  13.185   8.840  1.00  0.00    -0.268 OA
HETATM    9  C6  UNL     1      47.004  12.022  10.051  1.00  0.00     0.014 C 
HETATM   10  C16 UNL     1      48.395  12.058   9.328  1.00  0.00     0.043 C 
HETATM   11  C19 UNL     1      49.223  13.211   9.847  1.00  0.00     0.009 C 
HETATM   12  C20 UNL     1      50.438  13.392   8.899  1.00  0.00     0.012 C 
HETATM   13  C21 UNL     1      48.672  14.551   9.905  1.00  0.00     0.102 C 
HETATM   14 BR1  UNL     1      48.073  15.012   8.090  1.00  0.00    -0.087 Br
ENDROOT
BRANCH   9  15
HETATM   15  C7  UNL     1      46.437  10.749  10.348  1.00  0.00     0.018 C 
BRANCH  15  16
HETATM   16  C8  UNL     1      45.064  10.258  10.454  1.00  0.00     0.146 C 
BRANCH  16  17
HETATM   17  O2  UNL     1      45.107   8.809  10.632  1.00  0.00    -0.391 OA
ATOM     18  H2  UNL     1      44.217   8.478  10.602  1.00  0.00     0.210 HD
ENDBRANCH  16  17
BRANCH  16  19
HETATM   19  C9  UNL     1      44.313  10.549  11.762  1.00  0.00     0.076 C 
BRANCH  19  20
HETATM   20  C10 UNL     1      43.790  11.924  11.788  1.00  0.00    -0.034 A 
HETATM   21  C11 UNL     1      42.839  12.226  10.784  1.00  0.00     0.095 A 
HETATM   22  N2  UNL     1      42.259  13.427  10.779  1.00  0.00    -0.375 N 
HETATM   23  C12 UNL     1      42.550  14.366  11.704  1.00  0.00     0.088 A 
ATOM     24  H2  UNL     1      41.574  13.643  10.055  1.00  0.00     0.164 HD
HETATM   25  C13 UNL     1      43.457  14.127  12.690  1.00  0.00     0.024 A 
HETATM   26  C14 UNL     1      44.086  12.857  12.712  1.00  0.00    -0.053 A 
HETATM   27  C15 UNL     1      45.135  12.703  13.789  1.00  0.00     0.049 C 
ENDBRANCH  19  20
ENDBRANCH  16  19
ENDBRANCH  15  16
ENDBRANCH   9  15
BRANCH  10  28
HETATM   28  C17 UNL     1      48.937  10.725   9.687  1.00  0.00     0.150 C 
BRANCH  28  29
HETATM   29  S1  UNL     1      49.103   9.398   8.615  1.00  0.00     0.141 S 
HETATM   30  C18 UNL     1      48.319   9.933   7.047  1.00  0.00     0.161 C 
HETATM   31  O3  UNL     1      50.464   9.051   8.146  1.00  0.00    -0.228 OA
HETATM   32  O4  UNL     1      48.227   8.196   8.907  1.00  0.00    -0.228 OA
ENDBRANCH  28  29
ENDBRANCH  10  28
TORSDOF 7
ENDMDL
