MODEL 1
REMARK VINA RESULT: -8.268001680      0.000      0.000
REMARK  11 active torsions:
REMARK  status: ('A' for Active; 'I' for Inactive)
REMARK    1  A    between atoms: O1_2  and  C2_3 
REMARK    2  A    between atoms: C2_3  and  C3_5 
REMARK    3  A    between atoms: C5_7  and  C6_8 
REMARK    4  A    between atoms: C6_8  and  N1_14 
REMARK    5  A    between atoms: C7_9  and  C8_10 
REMARK    6  A    between atoms: C9_11  and  C10_12 
REMARK    7  A    between atoms: N1_14  and  C11_16 
REMARK    8  A    between atoms: C11_16  and  C12_17 
REMARK       I    between atoms: C12_17  and  N2_19 
REMARK    9  A    between atoms: N2_19  and  C13_21 
REMARK   10  A    between atoms: C18_26  and  C23_31 
REMARK   11  A    between atoms: C23_31  and  O4_32 
ROOT
HETATM    1  C6  UNL     1      46.734  22.849  10.656  1.00  0.00     0.010 C 
HETATM    2  C7  UNL     1      46.633  23.742   9.720  1.00  0.00     0.025 C 
ENDROOT
BRANCH   1   3
HETATM    3  C5  UNL     1      45.620  22.557  11.569  1.00  0.00     0.041 C 
HETATM    4  C4  UNL     1      45.327  21.053  11.569  1.00  0.00     0.026 C 
HETATM    5  C3  UNL     1      44.227  21.050  12.640  1.00  0.00     0.091 C 
HETATM    6  C19 UNL     1      44.689  21.783  13.853  1.00  0.00     0.016 C 
HETATM    7  C18 UNL     1      44.643  23.271  13.795  1.00  0.00     0.032 C 
HETATM    8  C20 UNL     1      46.171  21.933  13.915  1.00  0.00    -0.017 A 
HETATM    9  C17 UNL     1      45.828  23.070  12.958  1.00  0.00     0.013 C 
HETATM   10  C21 UNL     1      45.907  22.345  15.416  1.00  0.00     0.038 A 
HETATM   11  C22 UNL     1      46.742  22.976  14.796  1.00  0.00     0.038 A 
HETATM   12  C23 UNL     1      45.323  23.616  15.108  1.00  0.00     0.072 A 
BRANCH   5  13
HETATM   13  C2  UNL     1      43.876  19.653  12.888  1.00  0.00     0.263 C 
HETATM   14  O2  UNL     1      44.691  18.793  13.311  1.00  0.00    -0.265 OA
BRANCH  13  15
HETATM   15  O1  UNL     1      42.571  19.183  12.658  1.00  0.00    -0.326 OA
HETATM   16  C1  UNL     1      42.199  17.858  13.033  1.00  0.00     0.213 C 
ENDBRANCH  13  15
ENDBRANCH   5  13
BRANCH  12  17
HETATM   17  O4  UNL     1      45.409  24.818  15.639  1.00  0.00    -0.389 OA
ATOM     18  H4  UNL     1      44.743  25.240  16.168  1.00  0.00     0.210 HD
ENDBRANCH  12  17
ENDBRANCH   1   3
BRANCH   1  19
HETATM   19  N1  UNL     1      47.988  22.135  10.785  1.00  0.00    -0.384 N 
ATOM     20  H1  UNL     1      48.419  22.020  11.703  1.00  0.00     0.160 HD
BRANCH  19  21
HETATM   21  C11 UNL     1      48.618  21.594   9.625  1.00  0.00     0.222 C 
BRANCH  21  22
HETATM   22  C12 UNL     1      48.626  20.134   9.516  1.00  0.00     0.235 C 
HETATM   23  O3  UNL     1      49.237  19.626   8.507  1.00  0.00    -0.272 OA
HETATM   24  N2  UNL     1      48.039  19.203  10.391  1.00  0.00    -0.352 N 
ATOM     25  H2  UNL     1      47.541  19.552  11.210  1.00  0.00     0.163 HD
BRANCH  24  26
HETATM   26  C13 UNL     1      48.110  17.767  10.184  1.00  0.00     0.022 C 
HETATM   27  C14 UNL     1      47.594  17.376   8.821  1.00  0.00     0.037 C 
HETATM   28  C15 UNL     1      49.521  17.266  10.351  1.00  0.00     0.037 C 
HETATM   29  C16 UNL     1      47.227  17.086  11.201  1.00  0.00     0.037 C 
ENDBRANCH  24  26
ENDBRANCH  21  22
ENDBRANCH  19  21
ENDBRANCH   1  19
BRANCH   2  30
HETATM   30  C8  UNL     1      45.462  24.571   9.420  1.00  0.00    -0.001 C 
HETATM   31  C9  UNL     1      44.926  24.561   8.197  1.00  0.00    -0.016 C 
BRANCH  31  32
HETATM   32  C10 UNL     1      43.743  25.406   7.913  1.00  0.00     0.112 C 
HETATM   33 BR1  UNL     1      43.285  25.212   6.034  1.00  0.00    -0.092 Br
ENDBRANCH  31  32
ENDBRANCH   2  30
TORSDOF 11
ENDMDL
MODEL 2
REMARK VINA RESULT: -7.912551379      4.642      8.811
REMARK  11 active torsions:
REMARK  status: ('A' for Active; 'I' for Inactive)
REMARK    1  A    between atoms: O1_2  and  C2_3 
REMARK    2  A    between atoms: C2_3  and  C3_5 
REMARK    3  A    between atoms: C5_7  and  C6_8 
REMARK    4  A    between atoms: C6_8  and  N1_14 
REMARK    5  A    between atoms: C7_9  and  C8_10 
REMARK    6  A    between atoms: C9_11  and  C10_12 
REMARK    7  A    between atoms: N1_14  and  C11_16 
REMARK    8  A    between atoms: C11_16  and  C12_17 
REMARK       I    between atoms: C12_17  and  N2_19 
REMARK    9  A    between atoms: N2_19  and  C13_21 
REMARK   10  A    between atoms: C18_26  and  C23_31 
REMARK   11  A    between atoms: C23_31  and  O4_32 
ROOT
HETATM    1  C6  UNL     1      47.542  16.475  10.556  1.00  0.00     0.010 C 
HETATM    2  C7  UNL     1      46.961  17.007  11.587  1.00  0.00     0.025 C 
ENDROOT
BRANCH   1   3
HETATM    3  C5  UNL     1      47.654  15.019  10.399  1.00  0.00     0.041 C 
HETATM    4  C4  UNL     1      46.304  14.435   9.971  1.00  0.00     0.026 C 
HETATM    5  C3  UNL     1      46.745  12.974   9.804  1.00  0.00     0.091 C 
HETATM    6  C19 UNL     1      47.965  12.900   8.950  1.00  0.00     0.016 C 
HETATM    7  C18 UNL     1      49.263  13.229   9.603  1.00  0.00     0.032 C 
HETATM    8  C20 UNL     1      48.180  14.129   8.134  1.00  0.00    -0.017 A 
HETATM    9  C17 UNL     1      48.747  14.594   9.471  1.00  0.00     0.013 C 
HETATM   10  C21 UNL     1      49.217  13.234   7.349  1.00  0.00     0.038 A 
HETATM   11  C22 UNL     1      49.529  14.386   7.583  1.00  0.00     0.038 A 
HETATM   12  C23 UNL     1      50.189  13.197   8.401  1.00  0.00     0.072 A 
BRANCH   5  13
HETATM   13  C2  UNL     1      45.600  12.240   9.270  1.00  0.00     0.263 C 
HETATM   14  O2  UNL     1      45.701  11.271   8.474  1.00  0.00    -0.265 OA
BRANCH  13  15
HETATM   15  O1  UNL     1      44.286  12.588   9.629  1.00  0.00    -0.326 OA
HETATM   16  C1  UNL     1      43.354  11.588  10.036  1.00  0.00     0.213 C 
ENDBRANCH  13  15
ENDBRANCH   5  13
BRANCH  12  17
HETATM   17  O4  UNL     1      51.503  13.268   8.438  1.00  0.00    -0.389 OA
ATOM     18  H4  UNL     1      52.018  14.065   8.383  1.00  0.00     0.210 HD
ENDBRANCH  12  17
ENDBRANCH   1   3
BRANCH   1  19
HETATM   19  N1  UNL     1      48.086  17.360   9.547  1.00  0.00    -0.384 N 
ATOM     20  H1  UNL     1      47.769  17.290   8.580  1.00  0.00     0.160 HD
BRANCH  19  21
HETATM   21  C11 UNL     1      49.066  18.332   9.910  1.00  0.00     0.222 C 
BRANCH  21  22
HETATM   22  C12 UNL     1      48.868  19.680   9.376  1.00  0.00     0.235 C 
HETATM   23  O3  UNL     1      49.317  19.913   8.195  1.00  0.00    -0.272 OA
HETATM   24  N2  UNL     1      48.239  20.770  10.003  1.00  0.00    -0.352 N 
ATOM     25  H2  UNL     1      47.864  20.640  10.943  1.00  0.00     0.163 HD
BRANCH  24  26
HETATM   26  C13 UNL     1      48.098  22.072   9.375  1.00  0.00     0.022 C 
HETATM   27  C14 UNL     1      49.376  22.870   9.456  1.00  0.00     0.037 C 
HETATM   28  C15 UNL     1      47.681  21.934   7.933  1.00  0.00     0.037 C 
HETATM   29  C16 UNL     1      47.042  22.856  10.115  1.00  0.00     0.037 C 
ENDBRANCH  24  26
ENDBRANCH  21  22
ENDBRANCH  19  21
ENDBRANCH   1  19
BRANCH   2  30
HETATM   30  C8  UNL     1      46.348  16.298  12.714  1.00  0.00    -0.001 C 
HETATM   31  C9  UNL     1      45.024  16.318  12.883  1.00  0.00    -0.016 C 
BRANCH  31  32
HETATM   32  C10 UNL     1      44.424  15.596  14.028  1.00  0.00     0.112 C 
HETATM   33 BR1  UNL     1      44.711  13.690  13.771  1.00  0.00    -0.092 Br
ENDBRANCH  31  32
ENDBRANCH   2  30
TORSDOF 11
ENDMDL
MODEL 3
REMARK VINA RESULT: -7.801016564      7.004     10.488
REMARK  11 active torsions:
REMARK  status: ('A' for Active; 'I' for Inactive)
REMARK    1  A    between atoms: O1_2  and  C2_3 
REMARK    2  A    between atoms: C2_3  and  C3_5 
REMARK    3  A    between atoms: C5_7  and  C6_8 
REMARK    4  A    between atoms: C6_8  and  N1_14 
REMARK    5  A    between atoms: C7_9  and  C8_10 
REMARK    6  A    between atoms: C9_11  and  C10_12 
REMARK    7  A    between atoms: N1_14  and  C11_16 
REMARK    8  A    between atoms: C11_16  and  C12_17 
REMARK       I    between atoms: C12_17  and  N2_19 
REMARK    9  A    between atoms: N2_19  and  C13_21 
REMARK   10  A    between atoms: C18_26  and  C23_31 
REMARK   11  A    between atoms: C23_31  and  O4_32 
ROOT
HETATM    1  C6  UNL     1      46.241  12.028   8.939  1.00  0.00     0.010 C 
HETATM    2  C7  UNL     1      46.588  10.958   8.292  1.00  0.00     0.025 C 
ENDROOT
BRANCH   1   3
HETATM    3  C5  UNL     1      47.193  12.762   9.784  1.00  0.00     0.041 C 
HETATM    4  C4  UNL     1      47.957  13.786   8.940  1.00  0.00     0.026 C 
HETATM    5  C3  UNL     1      48.771  14.432  10.071  1.00  0.00     0.091 C 
HETATM    6  C19 UNL     1      47.871  14.820  11.193  1.00  0.00     0.016 C 
HETATM    7  C18 UNL     1      47.437  13.732  12.113  1.00  0.00     0.032 C 
HETATM    8  C20 UNL     1      46.439  14.912  10.789  1.00  0.00    -0.017 A 
HETATM    9  C17 UNL     1      46.566  13.404  10.981  1.00  0.00     0.013 C 
HETATM   10  C21 UNL     1      46.261  15.655  12.171  1.00  0.00     0.038 A 
HETATM   11  C22 UNL     1      45.400  14.860  11.842  1.00  0.00     0.038 A 
HETATM   12  C23 UNL     1      46.443  14.486  12.978  1.00  0.00     0.072 A 
BRANCH   5  13
HETATM   13  C2  UNL     1      49.506  15.550   9.484  1.00  0.00     0.263 C 
HETATM   14  O2  UNL     1      50.722  15.496   9.164  1.00  0.00    -0.265 OA
BRANCH  13  15
HETATM   15  O1  UNL     1      48.875  16.783   9.238  1.00  0.00    -0.326 OA
HETATM   16  C1  UNL     1      49.199  17.933  10.017  1.00  0.00     0.213 C 
ENDBRANCH  13  15
ENDBRANCH   5  13
BRANCH  12  17
HETATM   17  O4  UNL     1      45.868  14.027  14.070  1.00  0.00    -0.389 OA
ATOM     18  H4  UNL     1      46.313  13.617  14.802  1.00  0.00     0.210 HD
ENDBRANCH  12  17
ENDBRANCH   1   3
BRANCH   1  19
HETATM   19  N1  UNL     1      44.874  12.490   8.810  1.00  0.00    -0.384 N 
ATOM     20  H1  UNL     1      44.683  13.433   8.473  1.00  0.00     0.160 HD
BRANCH  19  21
HETATM   21  C11 UNL     1      43.797  11.621   9.158  1.00  0.00     0.222 C 
BRANCH  21  22
HETATM   22  C12 UNL     1      43.045  11.974  10.364  1.00  0.00     0.235 C 
HETATM   23  O3  UNL     1      42.215  12.950  10.271  1.00  0.00    -0.272 OA
HETATM   24  N2  UNL     1      43.120  11.370  11.631  1.00  0.00    -0.352 N 
ATOM     25  H2  UNL     1      43.764  10.589  11.761  1.00  0.00     0.163 HD
BRANCH  24  26
HETATM   26  C13 UNL     1      42.322  11.805  12.764  1.00  0.00     0.022 C 
HETATM   27  C14 UNL     1      42.414  13.297  12.968  1.00  0.00     0.037 C 
HETATM   28  C15 UNL     1      40.878  11.409  12.592  1.00  0.00     0.037 C 
HETATM   29  C16 UNL     1      42.861  11.154  14.015  1.00  0.00     0.037 C 
ENDBRANCH  24  26
ENDBRANCH  21  22
ENDBRANCH  19  21
ENDBRANCH   1  19
BRANCH   2  30
HETATM   30  C8  UNL     1      47.910  10.326   8.284  1.00  0.00    -0.001 C 
HETATM   31  C9  UNL     1      48.238   9.461   7.321  1.00  0.00    -0.016 C 
BRANCH  31  32
HETATM   32  C10 UNL     1      49.578   8.832   7.331  1.00  0.00     0.112 C 
HETATM   33 BR1  UNL     1      50.881  10.171   7.869  1.00  0.00    -0.092 Br
ENDBRANCH  31  32
ENDBRANCH   2  30
TORSDOF 11
ENDMDL
MODEL 4
REMARK VINA RESULT: -7.785603645      6.796     11.682
REMARK  11 active torsions:
REMARK  status: ('A' for Active; 'I' for Inactive)
REMARK    1  A    between atoms: O1_2  and  C2_3 
REMARK    2  A    between atoms: C2_3  and  C3_5 
REMARK    3  A    between atoms: C5_7  and  C6_8 
REMARK    4  A    between atoms: C6_8  and  N1_14 
REMARK    5  A    between atoms: C7_9  and  C8_10 
REMARK    6  A    between atoms: C9_11  and  C10_12 
REMARK    7  A    between atoms: N1_14  and  C11_16 
REMARK    8  A    between atoms: C11_16  and  C12_17 
REMARK       I    between atoms: C12_17  and  N2_19 
REMARK    9  A    between atoms: N2_19  and  C13_21 
REMARK   10  A    between atoms: C18_26  and  C23_31 
REMARK   11  A    between atoms: C23_31  and  O4_32 
ROOT
HETATM    1  C6  UNL     1      47.008  12.040  10.951  1.00  0.00     0.010 C 
HETATM    2  C7  UNL     1      45.930  11.597  11.521  1.00  0.00     0.025 C 
ENDROOT
BRANCH   1   3
HETATM    3  C5  UNL     1      47.309  11.755   9.542  1.00  0.00     0.041 C 
HETATM    4  C4  UNL     1      48.382  12.722   9.031  1.00  0.00     0.026 C 
HETATM    5  C3  UNL     1      48.544  12.138   7.621  1.00  0.00     0.091 C 
HETATM    6  C19 UNL     1      48.754  10.664   7.696  1.00  0.00     0.016 C 
HETATM    7  C18 UNL     1      47.544   9.824   7.917  1.00  0.00     0.032 C 
HETATM    8  C20 UNL     1      49.194  10.206   9.045  1.00  0.00    -0.017 A 
HETATM    9  C17 UNL     1      47.693  10.333   9.283  1.00  0.00     0.013 C 
HETATM   10  C21 UNL     1      49.547   8.861   8.298  1.00  0.00     0.038 A 
HETATM   11  C22 UNL     1      49.032   8.778   9.397  1.00  0.00     0.038 A 
HETATM   12  C23 UNL     1      48.188   8.460   8.091  1.00  0.00     0.072 A 
BRANCH   5  13
HETATM   13  C2  UNL     1      49.639  12.863   6.981  1.00  0.00     0.263 C 
HETATM   14  O2  UNL     1      50.854  12.669   7.244  1.00  0.00    -0.265 OA
BRANCH  13  15
HETATM   15  O1  UNL     1      49.385  13.847   6.008  1.00  0.00    -0.326 OA
HETATM   16  C1  UNL     1      49.848  13.682   4.669  1.00  0.00     0.213 C 
ENDBRANCH  13  15
ENDBRANCH   5  13
BRANCH  12  17
HETATM   17  O4  UNL     1      47.550   7.310   8.161  1.00  0.00    -0.389 OA
ATOM     18  H4  UNL     1      46.608   7.194   8.127  1.00  0.00     0.210 HD
ENDBRANCH  12  17
ENDBRANCH   1   3
BRANCH   1  19
HETATM   19  N1  UNL     1      47.923  12.835  11.745  1.00  0.00    -0.384 N 
ATOM     20  H1  UNL     1      48.894  12.543  11.851  1.00  0.00     0.160 HD
BRANCH  19  21
HETATM   21  C11 UNL     1      47.460  14.027  12.379  1.00  0.00     0.222 C 
BRANCH  21  22
HETATM   22  C12 UNL     1      47.315  15.201  11.517  1.00  0.00     0.235 C 
HETATM   23  O3  UNL     1      46.136  15.462  11.078  1.00  0.00    -0.272 OA
HETATM   24  N2  UNL     1      48.319  16.094  11.104  1.00  0.00    -0.352 N 
ATOM     25  H2  UNL     1      49.274  15.934  11.424  1.00  0.00     0.163 HD
BRANCH  24  26
HETATM   26  C13 UNL     1      48.059  17.234  10.242  1.00  0.00     0.022 C 
HETATM   27  C14 UNL     1      47.572  16.803   8.881  1.00  0.00     0.037 C 
HETATM   28  C15 UNL     1      47.052  18.165  10.866  1.00  0.00     0.037 C 
HETATM   29  C16 UNL     1      49.352  17.985  10.030  1.00  0.00     0.037 C 
ENDBRANCH  24  26
ENDBRANCH  21  22
ENDBRANCH  19  21
ENDBRANCH   1  19
BRANCH   2  30
HETATM   30  C8  UNL     1      44.881  10.782  10.903  1.00  0.00    -0.001 C 
HETATM   31  C9  UNL     1      43.594  11.098  11.073  1.00  0.00    -0.016 C 
BRANCH  31  32
HETATM   32  C10 UNL     1      42.549  10.261  10.441  1.00  0.00     0.112 C 
HETATM   33 BR1  UNL     1      40.897  10.479  11.442  1.00  0.00    -0.092 Br
ENDBRANCH  31  32
ENDBRANCH   2  30
TORSDOF 11
ENDMDL
MODEL 5
REMARK VINA RESULT: -7.765060688      7.533     10.640
REMARK  11 active torsions:
REMARK  status: ('A' for Active; 'I' for Inactive)
REMARK    1  A    between atoms: O1_2  and  C2_3 
REMARK    2  A    between atoms: C2_3  and  C3_5 
REMARK    3  A    between atoms: C5_7  and  C6_8 
REMARK    4  A    between atoms: C6_8  and  N1_14 
REMARK    5  A    between atoms: C7_9  and  C8_10 
REMARK    6  A    between atoms: C9_11  and  C10_12 
REMARK    7  A    between atoms: N1_14  and  C11_16 
REMARK    8  A    between atoms: C11_16  and  C12_17 
REMARK       I    between atoms: C12_17  and  N2_19 
REMARK    9  A    between atoms: N2_19  and  C13_21 
REMARK   10  A    between atoms: C18_26  and  C23_31 
REMARK   11  A    between atoms: C23_31  and  O4_32 
ROOT
HETATM    1  C6  UNL     1      46.163  12.001   8.972  1.00  0.00     0.010 C 
HETATM    2  C7  UNL     1      46.519  10.975   8.262  1.00  0.00     0.025 C 
ENDROOT
BRANCH   1   3
HETATM    3  C5  UNL     1      47.130  12.748   9.788  1.00  0.00     0.041 C 
HETATM    4  C4  UNL     1      47.873  13.764   8.916  1.00  0.00     0.026 C 
HETATM    5  C3  UNL     1      48.709  14.426  10.022  1.00  0.00     0.091 C 
HETATM    6  C19 UNL     1      47.832  14.825  11.159  1.00  0.00     0.016 C 
HETATM    7  C18 UNL     1      47.420  13.746  12.100  1.00  0.00     0.032 C 
HETATM    8  C20 UNL     1      46.391  14.907  10.783  1.00  0.00    -0.017 A 
HETATM    9  C17 UNL     1      46.527  13.402  10.990  1.00  0.00     0.013 C 
HETATM   10  C21 UNL     1      46.240  15.666  12.159  1.00  0.00     0.038 A 
HETATM   11  C22 UNL     1      45.375  14.865  11.858  1.00  0.00     0.038 A 
HETATM   12  C23 UNL     1      46.442  14.508  12.977  1.00  0.00     0.072 A 
BRANCH   5  13
HETATM   13  C2  UNL     1      49.428  15.539   9.406  1.00  0.00     0.263 C 
HETATM   14  O2  UNL     1      48.873  16.597   9.012  1.00  0.00    -0.265 OA
BRANCH  13  15
HETATM   15  O1  UNL     1      50.820  15.484   9.216  1.00  0.00    -0.326 OA
HETATM   16  C1  UNL     1      51.491  14.230   9.111  1.00  0.00     0.213 C 
ENDBRANCH  13  15
ENDBRANCH   5  13
BRANCH  12  17
HETATM   17  O4  UNL     1      45.891  14.060  14.086  1.00  0.00    -0.389 OA
ATOM     18  H4  UNL     1      45.004  14.236  14.376  1.00  0.00     0.210 HD
ENDBRANCH  12  17
ENDBRANCH   1   3
BRANCH   1  19
HETATM   19  N1  UNL     1      44.772  12.401   8.944  1.00  0.00    -0.384 N 
ATOM     20  H1  UNL     1      44.512  13.324   8.595  1.00  0.00     0.160 HD
BRANCH  19  21
HETATM   21  C11 UNL     1      43.766  11.500   9.405  1.00  0.00     0.222 C 
BRANCH  21  22
HETATM   22  C12 UNL     1      42.924  11.979  10.503  1.00  0.00     0.235 C 
HETATM   23  O3  UNL     1      42.309  13.093  10.326  1.00  0.00    -0.272 OA
HETATM   24  N2  UNL     1      42.700  11.363  11.747  1.00  0.00    -0.352 N 
ATOM     25  H2  UNL     1      43.164  10.475  11.940  1.00  0.00     0.163 HD
BRANCH  24  26
HETATM   26  C13 UNL     1      41.840  11.932  12.769  1.00  0.00     0.022 C 
HETATM   27  C14 UNL     1      42.328  13.288  13.216  1.00  0.00     0.037 C 
HETATM   28  C15 UNL     1      40.419  12.044  12.278  1.00  0.00     0.037 C 
HETATM   29  C16 UNL     1      41.866  11.032  13.981  1.00  0.00     0.037 C 
ENDBRANCH  24  26
ENDBRANCH  21  22
ENDBRANCH  19  21
ENDBRANCH   1  19
BRANCH   2  30
HETATM   30  C8  UNL     1      47.866  10.408   8.150  1.00  0.00    -0.001 C 
HETATM   31  C9  UNL     1      48.073   9.300   7.435  1.00  0.00    -0.016 C 
BRANCH  31  32
HETATM   32  C10 UNL     1      49.441   8.743   7.334  1.00  0.00     0.112 C 
HETATM   33 BR1  UNL     1      50.703  10.100   7.920  1.00  0.00    -0.092 Br
ENDBRANCH  31  32
ENDBRANCH   2  30
TORSDOF 11
ENDMDL
