MODEL 1
REMARK VINA RESULT: -9.041280492      0.000      0.000
REMARK  8 active torsions:
REMARK  status: ('A' for Active; 'I' for Inactive)
REMARK    1  A    between atoms: C2_2  and  S1_3 
REMARK    2  A    between atoms: S1_3  and  N1_6 
REMARK    3  A    between atoms: N1_6  and  C3_8 
REMARK    4  A    between atoms: C3_8  and  C4_9 
REMARK    5  A    between atoms: C5_10  and  C6_11 
REMARK    6  A    between atoms: C6_11  and  O3_12 
REMARK    7  A    between atoms: C13_19  and  C14_20 
REMARK    8  A    between atoms: C19_27  and  C20_29 
ROOT
HETATM    1  C6  UNL     1      47.234  15.913  10.652  1.00  0.00     0.131 C 
HETATM    2  C8  UNL     1      48.558  15.570  11.420  1.00  0.00     0.053 C 
HETATM    3  C9  UNL     1      49.244  14.674  10.363  1.00  0.00     0.010 C 
HETATM    4  C10 UNL     1      48.084  13.785  10.078  1.00  0.00     0.003 C 
HETATM    5  C11 UNL     1      48.240  12.781   9.006  1.00  0.00     0.004 A 
HETATM    6  C12 UNL     1      48.889  11.527   9.499  1.00  0.00     0.008 A 
HETATM    7  C13 UNL     1      49.902  10.863   8.635  1.00  0.00     0.080 C 
HETATM    8  C15 UNL     1      49.279   9.547   8.232  1.00  0.00     0.014 C 
HETATM    9  C16 UNL     1      47.817   9.843   8.131  1.00  0.00     0.006 C 
HETATM   10  C17 UNL     1      47.573  10.801   9.271  1.00  0.00    -0.001 A 
HETATM   11  C18 UNL     1      46.914  12.075   8.842  1.00  0.00     0.044 A 
HETATM   12  C19 UNL     1      45.834  12.519   9.757  1.00  0.00     0.186 C 
HETATM   13  F1  UNL     1      45.861  11.859  10.997  1.00  0.00    -0.233 F 
HETATM   14  C21 UNL     1      45.703  14.020   9.927  1.00  0.00     0.067 C 
HETATM   15  C22 UNL     1      46.967  14.790   9.749  1.00  0.00     0.006 C 
HETATM   16  C23 UNL     1      47.066  15.161   8.276  1.00  0.00     0.020 C 
ENDROOT
BRANCH   1  17
HETATM   17  C5  UNL     1      47.558  17.143   9.853  1.00  0.00    -0.066 C 
HETATM   18  C4  UNL     1      47.837  18.135   9.227  1.00  0.00    -0.083 C 
BRANCH  18  19
HETATM   19  C3  UNL     1      48.196  19.333   8.465  1.00  0.00     0.225 C 
BRANCH  19  20
HETATM   20  N1  UNL     1      49.147  20.090   9.221  1.00  0.00    -0.308 N 
ATOM     21  H1  UNL     1      49.933  19.652   9.703  1.00  0.00     0.173 HD
BRANCH  20  22
HETATM   22  S1  UNL     1      48.877  21.758   9.261  1.00  0.00     0.227 S 
HETATM   23  O1  UNL     1      49.978  22.406  10.053  1.00  0.00    -0.206 OA
HETATM   24  O2  UNL     1      47.595  22.029   9.995  1.00  0.00    -0.206 OA
BRANCH  22  25
HETATM   25  C2  UNL     1      48.799  22.538   7.692  1.00  0.00     0.158 C 
HETATM   26  C1  UNL     1      47.799  23.670   7.649  1.00  0.00     0.023 C 
ENDBRANCH  22  25
ENDBRANCH  20  22
ENDBRANCH  19  20
ENDBRANCH  18  19
ENDBRANCH   1  17
BRANCH   1  27
HETATM   27  O3  UNL     1      46.287  16.304  11.545  1.00  0.00    -0.371 OA
HETATM   28  C7  UNL     1      46.574  16.160  12.881  1.00  0.00     0.204 C 
ENDBRANCH   1  27
BRANCH  12  29
HETATM   29  C20 UNL     1      44.539  12.060   9.127  1.00  0.00     0.271 C 
HETATM   30  N3  UNL     1      43.278  12.431   9.674  1.00  0.00    -0.059 NA
HETATM   31  O5  UNL     1      44.524  11.339   8.104  1.00  0.00    -0.273 OA
ENDBRANCH  12  29
BRANCH   7  32
HETATM   32  C14 UNL     1      50.358  11.639   7.476  1.00  0.00     0.235 C 
HETATM   33  N2  UNL     1      51.710  12.028   7.291  1.00  0.00    -0.062 NA
HETATM   34  O4  UNL     1      49.543  12.003   6.572  1.00  0.00    -0.276 OA
ENDBRANCH   7  32
TORSDOF 8
ENDMDL
MODEL 2
REMARK VINA RESULT: -8.826532198      1.249      1.378
REMARK  8 active torsions:
REMARK  status: ('A' for Active; 'I' for Inactive)
REMARK    1  A    between atoms: C2_2  and  S1_3 
REMARK    2  A    between atoms: S1_3  and  N1_6 
REMARK    3  A    between atoms: N1_6  and  C3_8 
REMARK    4  A    between atoms: C3_8  and  C4_9 
REMARK    5  A    between atoms: C5_10  and  C6_11 
REMARK    6  A    between atoms: C6_11  and  O3_12 
REMARK    7  A    between atoms: C13_19  and  C14_20 
REMARK    8  A    between atoms: C19_27  and  C20_29 
ROOT
HETATM    1  C6  UNL     1      46.742  15.392  11.534  1.00  0.00     0.131 C 
HETATM    2  C8  UNL     1      48.029  14.883  12.273  1.00  0.00     0.053 C 
HETATM    3  C9  UNL     1      48.771  14.237  11.080  1.00  0.00     0.010 C 
HETATM    4  C10 UNL     1      47.632  13.436  10.552  1.00  0.00     0.003 C 
HETATM    5  C11 UNL     1      47.846  12.690   9.295  1.00  0.00     0.004 A 
HETATM    6  C12 UNL     1      48.479  11.355   9.535  1.00  0.00     0.008 A 
HETATM    7  C13 UNL     1      49.536  10.891   8.597  1.00  0.00     0.080 C 
HETATM    8  C15 UNL     1      48.942   9.698   7.886  1.00  0.00     0.014 C 
HETATM    9  C16 UNL     1      47.485  10.015   7.781  1.00  0.00     0.006 C 
HETATM   10  C17 UNL     1      47.180  10.702   9.089  1.00  0.00    -0.001 A 
HETATM   11  C18 UNL     1      46.535  12.042   8.917  1.00  0.00     0.044 A 
HETATM   12  C19 UNL     1      45.409  12.281   9.853  1.00  0.00     0.186 C 
HETATM   13  F1  UNL     1      45.379  11.366  10.918  1.00  0.00    -0.233 F 
HETATM   14  C21 UNL     1      45.259  13.709  10.340  1.00  0.00     0.067 C 
HETATM   15  C22 UNL     1      46.527  14.493  10.395  1.00  0.00     0.006 C 
HETATM   16  C23 UNL     1      46.694  15.177   9.046  1.00  0.00     0.020 C 
ENDROOT
BRANCH   1  17
HETATM   17  C5  UNL     1      47.097  16.764  11.039  1.00  0.00    -0.066 C 
HETATM   18  C4  UNL     1      47.363  17.876  10.655  1.00  0.00    -0.083 C 
BRANCH  18  19
HETATM   19  C3  UNL     1      47.688  19.233  10.210  1.00  0.00     0.225 C 
BRANCH  19  20
HETATM   20  N1  UNL     1      48.030  19.190   8.821  1.00  0.00    -0.308 N 
ATOM     21  H1  UNL     1      47.923  18.346   8.259  1.00  0.00     0.173 HD
BRANCH  20  22
HETATM   22  S1  UNL     1      48.621  20.637   8.176  1.00  0.00     0.227 S 
HETATM   23  O1  UNL     1      47.491  21.361   7.499  1.00  0.00    -0.206 OA
HETATM   24  O2  UNL     1      49.635  20.321   7.114  1.00  0.00    -0.206 OA
BRANCH  22  25
HETATM   25  C2  UNL     1      49.352  21.727   9.340  1.00  0.00     0.158 C 
HETATM   26  C1  UNL     1      48.758  23.116   9.296  1.00  0.00     0.023 C 
ENDBRANCH  22  25
ENDBRANCH  20  22
ENDBRANCH  19  20
ENDBRANCH  18  19
ENDBRANCH   1  17
BRANCH   1  27
HETATM   27  O3  UNL     1      45.750  15.582  12.443  1.00  0.00    -0.371 OA
HETATM   28  C7  UNL     1      45.910  15.020  13.686  1.00  0.00     0.204 C 
ENDBRANCH   1  27
BRANCH  12  29
HETATM   29  C20 UNL     1      44.149  11.976   9.075  1.00  0.00     0.271 C 
HETATM   30  N3  UNL     1      42.867  12.357   9.565  1.00  0.00    -0.059 NA
HETATM   31  O5  UNL     1      44.182  11.379   7.975  1.00  0.00    -0.273 OA
ENDBRANCH  12  29
BRANCH   7  32
HETATM   32  C14 UNL     1      50.044  11.899   7.659  1.00  0.00     0.235 C 
HETATM   33  N2  UNL     1      51.317  12.512   7.798  1.00  0.00    -0.062 NA
HETATM   34  O4  UNL     1      49.348  12.274   6.663  1.00  0.00    -0.276 OA
ENDBRANCH   7  32
TORSDOF 8
ENDMDL
MODEL 3
REMARK VINA RESULT: -8.767639758      3.957      7.670
REMARK  8 active torsions:
REMARK  status: ('A' for Active; 'I' for Inactive)
REMARK    1  A    between atoms: C2_2  and  S1_3 
REMARK    2  A    between atoms: S1_3  and  N1_6 
REMARK    3  A    between atoms: N1_6  and  C3_8 
REMARK    4  A    between atoms: C3_8  and  C4_9 
REMARK    5  A    between atoms: C5_10  and  C6_11 
REMARK    6  A    between atoms: C6_11  and  O3_12 
REMARK    7  A    between atoms: C13_19  and  C14_20 
REMARK    8  A    between atoms: C19_27  and  C20_29 
ROOT
HETATM    1  C6  UNL     1      45.354  11.345  10.594  1.00  0.00     0.131 C 
HETATM    2  C8  UNL     1      45.103  11.717   9.091  1.00  0.00     0.053 C 
HETATM    3  C9  UNL     1      46.282  12.692   8.867  1.00  0.00     0.010 C 
HETATM    4  C10 UNL     1      46.068  13.536  10.075  1.00  0.00     0.003 C 
HETATM    5  C11 UNL     1      47.060  14.595  10.353  1.00  0.00     0.004 A 
HETATM    6  C12 UNL     1      46.763  15.855   9.603  1.00  0.00     0.008 A 
HETATM    7  C13 UNL     1      47.895  16.607   8.999  1.00  0.00     0.080 C 
HETATM    8  C15 UNL     1      47.963  17.908   9.763  1.00  0.00     0.014 C 
HETATM    9  C16 UNL     1      47.541  17.546  11.151  1.00  0.00     0.006 C 
HETATM   10  C17 UNL     1      46.451  16.526  10.932  1.00  0.00    -0.001 A 
HETATM   11  C18 UNL     1      46.686  15.243  11.666  1.00  0.00     0.044 A 
HETATM   12  C19 UNL     1      45.468  14.705  12.321  1.00  0.00     0.186 C 
HETATM   13  F1  UNL     1      44.286  15.307  11.859  1.00  0.00    -0.233 F 
HETATM   14  C21 UNL     1      45.353  13.193  12.338  1.00  0.00     0.067 C 
HETATM   15  C22 UNL     1      46.028  12.495  11.206  1.00  0.00     0.006 C 
HETATM   16  C23 UNL     1      47.454  12.197  11.645  1.00  0.00     0.020 C 
ENDROOT
BRANCH   1  17
HETATM   17  C5  UNL     1      46.290  10.171  10.552  1.00  0.00    -0.066 C 
HETATM   18  C4  UNL     1      47.034   9.224  10.494  1.00  0.00    -0.083 C 
BRANCH  18  19
HETATM   19  C3  UNL     1      47.948   8.082  10.406  1.00  0.00     0.225 C 
BRANCH  19  20
HETATM   20  N1  UNL     1      49.154   8.509   9.764  1.00  0.00    -0.308 N 
ATOM     21  H1  UNL     1      50.044   8.567  10.258  1.00  0.00     0.173 HD
BRANCH  20  22
HETATM   22  S1  UNL     1      48.999   8.912   8.129  1.00  0.00     0.227 S 
HETATM   23  O1  UNL     1      47.896   8.084   7.531  1.00  0.00    -0.206 OA
HETATM   24  O2  UNL     1      50.263   8.537   7.411  1.00  0.00    -0.206 OA
BRANCH  22  25
HETATM   25  C2  UNL     1      48.652  10.600   7.807  1.00  0.00     0.158 C 
HETATM   26  C1  UNL     1      49.671  11.535   8.419  1.00  0.00     0.023 C 
ENDBRANCH  22  25
ENDBRANCH  20  22
ENDBRANCH  19  20
ENDBRANCH  18  19
ENDBRANCH   1  17
BRANCH   1  27
HETATM   27  O3  UNL     1      44.202  10.868  11.135  1.00  0.00    -0.371 OA
HETATM   28  C7  UNL     1      43.185  10.535  10.275  1.00  0.00     0.204 C 
ENDBRANCH   1  27
BRANCH  12  29
HETATM   29  C20 UNL     1      45.552  15.129  13.769  1.00  0.00     0.271 C 
HETATM   30  N3  UNL     1      45.616  16.503  14.135  1.00  0.00    -0.059 NA
HETATM   31  O5  UNL     1      45.570  14.292  14.701  1.00  0.00    -0.273 OA
ENDBRANCH  12  29
BRANCH   7  32
HETATM   32  C14 UNL     1      49.186  15.908   8.978  1.00  0.00     0.235 C 
HETATM   33  N2  UNL     1      50.247  16.217   9.868  1.00  0.00    -0.062 NA
HETATM   34  O4  UNL     1      49.411  14.977   8.141  1.00  0.00    -0.276 OA
ENDBRANCH   7  32
TORSDOF 8
ENDMDL
MODEL 4
REMARK VINA RESULT: -8.657187976      3.876      5.532
REMARK  8 active torsions:
REMARK  status: ('A' for Active; 'I' for Inactive)
REMARK    1  A    between atoms: C2_2  and  S1_3 
REMARK    2  A    between atoms: S1_3  and  N1_6 
REMARK    3  A    between atoms: N1_6  and  C3_8 
REMARK    4  A    between atoms: C3_8  and  C4_9 
REMARK    5  A    between atoms: C5_10  and  C6_11 
REMARK    6  A    between atoms: C6_11  and  O3_12 
REMARK    7  A    between atoms: C13_19  and  C14_20 
REMARK    8  A    between atoms: C19_27  and  C20_29 
ROOT
HETATM    1  C6  UNL     1      46.541  14.324  10.315  1.00  0.00     0.131 C 
HETATM    2  C8  UNL     1      45.312  13.672   9.592  1.00  0.00     0.053 C 
HETATM    3  C9  UNL     1      45.698  12.181   9.720  1.00  0.00     0.010 C 
HETATM    4  C10 UNL     1      47.100  12.300   9.232  1.00  0.00     0.003 C 
HETATM    5  C11 UNL     1      47.943  11.087   9.270  1.00  0.00     0.004 A 
HETATM    6  C12 UNL     1      47.752  10.232   8.058  1.00  0.00     0.008 A 
HETATM    7  C13 UNL     1      47.697   8.755   8.230  1.00  0.00     0.080 C 
HETATM    8  C15 UNL     1      48.935   8.228   7.544  1.00  0.00     0.014 C 
HETATM    9  C16 UNL     1      49.963   9.292   7.762  1.00  0.00     0.006 C 
HETATM   10  C17 UNL     1      49.174  10.572   7.640  1.00  0.00    -0.001 A 
HETATM   11  C18 UNL     1      49.332  11.479   8.821  1.00  0.00     0.044 A 
HETATM   12  C19 UNL     1      49.508  12.905   8.453  1.00  0.00     0.186 C 
HETATM   13  F1  UNL     1      49.165  13.171   7.117  1.00  0.00    -0.233 F 
HETATM   14  C21 UNL     1      48.875  13.904   9.400  1.00  0.00     0.067 C 
HETATM   15  C22 UNL     1      47.673  13.409  10.131  1.00  0.00     0.006 C 
HETATM   16  C23 UNL     1      48.159  12.781  11.429  1.00  0.00     0.020 C 
ENDROOT
BRANCH   1  17
HETATM   17  C5  UNL     1      46.157  14.371  11.766  1.00  0.00    -0.066 C 
HETATM   18  C4  UNL     1      45.824  14.416  12.925  1.00  0.00    -0.083 C 
BRANCH  18  19
HETATM   19  C3  UNL     1      45.404  14.455  14.327  1.00  0.00     0.225 C 
BRANCH  19  20
HETATM   20  N1  UNL     1      46.000  15.597  14.952  1.00  0.00    -0.308 N 
ATOM     21  H1  UNL     1      46.996  15.644  15.165  1.00  0.00     0.173 HD
BRANCH  20  22
HETATM   22  S1  UNL     1      44.937  16.860  15.314  1.00  0.00     0.227 S 
HETATM   23  O1  UNL     1      45.737  18.048  15.769  1.00  0.00    -0.206 OA
HETATM   24  O2  UNL     1      44.067  16.452  16.468  1.00  0.00    -0.206 OA
BRANCH  22  25
HETATM   25  C2  UNL     1      43.906  17.369  13.989  1.00  0.00     0.158 C 
HETATM   26  C1  UNL     1      44.541  18.438  13.130  1.00  0.00     0.023 C 
ENDBRANCH  22  25
ENDBRANCH  20  22
ENDBRANCH  19  20
ENDBRANCH  18  19
ENDBRANCH   1  17
BRANCH   1  27
HETATM   27  O3  UNL     1      46.651  15.622   9.929  1.00  0.00    -0.371 OA
HETATM   28  C7  UNL     1      47.113  16.525  10.856  1.00  0.00     0.204 C 
ENDBRANCH   1  27
BRANCH  12  29
HETATM   29  C20 UNL     1      50.995  13.169   8.507  1.00  0.00     0.271 C 
HETATM   30  N3  UNL     1      51.914  12.385   7.753  1.00  0.00    -0.059 NA
HETATM   31  O5  UNL     1      51.476  14.083   9.215  1.00  0.00    -0.273 OA
ENDBRANCH  12  29
BRANCH   7  32
HETATM   32  C14 UNL     1      47.584   8.279   9.614  1.00  0.00     0.235 C 
HETATM   33  N2  UNL     1      46.346   8.192  10.302  1.00  0.00    -0.062 NA
HETATM   34  O4  UNL     1      48.614   7.918  10.267  1.00  0.00    -0.276 OA
ENDBRANCH   7  32
TORSDOF 8
ENDMDL
MODEL 5
REMARK VINA RESULT: -8.309178896      2.289      2.757
REMARK  8 active torsions:
REMARK  status: ('A' for Active; 'I' for Inactive)
REMARK    1  A    between atoms: C2_2  and  S1_3 
REMARK    2  A    between atoms: S1_3  and  N1_6 
REMARK    3  A    between atoms: N1_6  and  C3_8 
REMARK    4  A    between atoms: C3_8  and  C4_9 
REMARK    5  A    between atoms: C5_10  and  C6_11 
REMARK    6  A    between atoms: C6_11  and  O3_12 
REMARK    7  A    between atoms: C13_19  and  C14_20 
REMARK    8  A    between atoms: C19_27  and  C20_29 
ROOT
HETATM    1  C6  UNL     1      46.239  14.172  11.479  1.00  0.00     0.131 C 
HETATM    2  C8  UNL     1      47.527  13.788  12.287  1.00  0.00     0.053 C 
HETATM    3  C9  UNL     1      48.045  12.625  11.410  1.00  0.00     0.010 C 
HETATM    4  C10 UNL     1      46.763  11.875  11.304  1.00  0.00     0.003 C 
HETATM    5  C11 UNL     1      46.740  10.680  10.436  1.00  0.00     0.004 A 
HETATM    6  C12 UNL     1      47.225   9.458  11.149  1.00  0.00     0.008 A 
HETATM    7  C13 UNL     1      48.104   8.508  10.415  1.00  0.00     0.080 C 
HETATM    8  C15 UNL     1      47.291   7.244  10.268  1.00  0.00     0.014 C 
HETATM    9  C16 UNL     1      45.882   7.723  10.126  1.00  0.00     0.006 C 
HETATM   10  C17 UNL     1      45.813   8.898  11.070  1.00  0.00    -0.001 A 
HETATM   11  C18 UNL     1      45.324  10.153  10.417  1.00  0.00     0.044 A 
HETATM   12  C19 UNL     1      44.349  10.908  11.242  1.00  0.00     0.186 C 
HETATM   13  F1  UNL     1      44.326  10.489  12.582  1.00  0.00    -0.233 F 
HETATM   14  C21 UNL     1      44.434  12.417  11.131  1.00  0.00     0.067 C 
HETATM   15  C22 UNL     1      45.787  12.952  10.803  1.00  0.00     0.006 C 
HETATM   16  C23 UNL     1      45.885  13.030   9.286  1.00  0.00     0.020 C 
ENDROOT
BRANCH   1  17
HETATM   17  C5  UNL     1      46.703  15.175  10.463  1.00  0.00    -0.066 C 
HETATM   18  C4  UNL     1      47.092  15.990   9.664  1.00  0.00    -0.083 C 
BRANCH  18  19
HETATM   19  C3  UNL     1      47.586  16.973   8.696  1.00  0.00     0.225 C 
BRANCH  19  20
HETATM   20  N1  UNL     1      48.675  17.690   9.286  1.00  0.00    -0.308 N 
ATOM     21  H1  UNL     1      49.509  17.221   9.638  1.00  0.00     0.173 HD
BRANCH  20  22
HETATM   22  S1  UNL     1      48.481  19.368   9.360  1.00  0.00     0.227 S 
HETATM   23  O1  UNL     1      49.720  19.970   9.960  1.00  0.00    -0.206 OA
HETATM   24  O2  UNL     1      47.346  19.689  10.289  1.00  0.00    -0.206 OA
BRANCH  22  25
HETATM   25  C2  UNL     1      48.182  20.151   7.820  1.00  0.00     0.158 C 
HETATM   26  C1  UNL     1      48.935  21.452   7.667  1.00  0.00     0.023 C 
ENDBRANCH  22  25
ENDBRANCH  20  22
ENDBRANCH  19  20
ENDBRANCH  18  19
ENDBRANCH   1  17
BRANCH   1  27
HETATM   27  O3  UNL     1      45.387  14.851  12.292  1.00  0.00    -0.371 OA
HETATM   28  C7  UNL     1      45.719  14.952  13.620  1.00  0.00     0.204 C 
ENDBRANCH   1  27
BRANCH  12  29
HETATM   29  C20 UNL     1      42.981  10.532  10.719  1.00  0.00     0.271 C 
HETATM   30  N3  UNL     1      41.852  11.375  10.925  1.00  0.00    -0.059 NA
HETATM   31  O5  UNL     1      42.788   9.469  10.085  1.00  0.00    -0.273 OA
ENDBRANCH  12  29
BRANCH   7  32
HETATM   32  C14 UNL     1      48.625   8.986   9.129  1.00  0.00     0.235 C 
HETATM   33  N2  UNL     1      49.781   9.800   9.018  1.00  0.00    -0.062 NA
HETATM   34  O4  UNL     1      48.047   8.682   8.037  1.00  0.00    -0.276 OA
ENDBRANCH   7  32
TORSDOF 8
ENDMDL
