MODEL 1
REMARK VINA RESULT: -9.108932231      0.000      0.000
REMARK  6 active torsions:
REMARK  status: ('A' for Active; 'I' for Inactive)
REMARK    1  A    between atoms: N1_2  and  C2_5 
REMARK    2  A    between atoms: N2_19  and  O1_21 
REMARK    3  A    between atoms: O1_21  and  C16_22 
REMARK    4  A    between atoms: C16_22  and  C17_23 
REMARK    5  A    between atoms: C17_23  and  C18_24 
REMARK    6  A    between atoms: C18_24  and  N3_25 
ROOT
HETATM    1  C2  UNL     1      12.045  38.326   8.947  1.00  0.00     0.189 C 
HETATM    2  C3  UNL     1      13.041  38.144  10.048  1.00  0.00     0.034 C 
HETATM    3  C4  UNL     1      14.362  37.596   9.635  1.00  0.00     0.012 C 
HETATM    4  C5  UNL     1      14.337  36.696   8.457  1.00  0.00    -0.036 C 
HETATM    5  C6  UNL     1      14.703  37.494   7.220  1.00  0.00     0.016 C 
HETATM    6  C7  UNL     1      12.956  36.111   8.187  1.00  0.00    -0.000 C 
HETATM    7  C8  UNL     1      12.519  35.142   9.211  1.00  0.00     0.006 C 
HETATM    8  C9  UNL     1      13.548  34.639  10.144  1.00  0.00     0.006 C 
HETATM    9  C10 UNL     1      14.948  34.595   9.678  1.00  0.00    -0.004 C 
HETATM   10  C11 UNL     1      15.440  33.237   9.258  1.00  0.00     0.008 C 
HETATM   11  C12 UNL     1      15.334  32.179  10.287  1.00  0.00    -0.008 C 
HETATM   12  C13 UNL     1      14.427  31.063   9.784  1.00  0.00     0.011 C 
HETATM   13  C14 UNL     1      16.714  31.573  10.408  1.00  0.00     0.060 C 
HETATM   14  C15 UNL     1      17.641  32.382   9.627  1.00  0.00     0.019 C 
HETATM   15  N2  UNL     1      18.910  32.270   9.602  1.00  0.00    -0.274 N 
ATOM     16  H2  UNL     1      19.459  32.896   9.014  1.00  0.00     0.193 HD
HETATM   17  C24 UNL     1      16.867  33.374   8.849  1.00  0.00     0.001 C 
HETATM   18  C25 UNL     1      17.076  33.057   7.375  1.00  0.00     0.022 C 
HETATM   19  C26 UNL     1      17.482  34.719   9.156  1.00  0.00     0.016 C 
HETATM   20  C27 UNL     1      16.710  35.870   8.586  1.00  0.00     0.007 C 
HETATM   21  C28 UNL     1      15.265  35.517   8.527  1.00  0.00    -0.002 C 
HETATM   22  C29 UNL     1      12.036  37.259   7.922  1.00  0.00     0.017 C 
HETATM   23  C30 UNL     1      10.673  36.697   7.597  1.00  0.00     0.012 C 
ENDROOT
BRANCH  15  24
HETATM   24  O1  UNL     1      19.545  31.319  10.357  1.00  0.00    -0.281 OA
BRANCH  24  25
HETATM   25  C16 UNL     1      20.840  30.862   9.987  1.00  0.00     0.203 C 
BRANCH  25  26
HETATM   26  C17 UNL     1      21.620  30.563  11.224  1.00  0.00     0.059 C 
BRANCH  26  27
HETATM   27  C18 UNL     1      22.592  31.653  11.566  1.00  0.00     0.274 C 
BRANCH  27  28
HETATM   28  N3  UNL     1      23.919  31.076  11.807  1.00  0.00     0.088 N 
HETATM   29  C19 UNL     1      24.622  30.793  10.572  1.00  0.00     0.272 C 
HETATM   30  C20 UNL     1      24.773  32.010   9.699  1.00  0.00     0.030 C 
HETATM   31  C21 UNL     1      25.387  33.161  10.446  1.00  0.00     0.003 C 
HETATM   32  C22 UNL     1      24.855  33.341  11.834  1.00  0.00     0.030 C 
HETATM   33  C23 UNL     1      24.683  32.036  12.584  1.00  0.00     0.272 C 
ENDBRANCH  27  28
ENDBRANCH  26  27
ENDBRANCH  25  26
ENDBRANCH  24  25
ENDBRANCH  15  24
BRANCH   1  34
HETATM   34  N1  UNL     1      10.721  38.347   9.578  1.00  0.00    -0.074 N 
HETATM   35  C1  UNL     1      10.595  39.478  10.477  1.00  0.00     0.267 C 
ATOM     36  H12 UNL     1      10.514  37.466  10.050  1.00  0.00     0.277 HD
ATOM     37  H11 UNL     1       9.972  38.331   8.885  1.00  0.00     0.277 HD
ENDBRANCH   1  34
TORSDOF 6
ENDMDL
MODEL 2
REMARK VINA RESULT: -8.959151900      1.462      1.887
REMARK  6 active torsions:
REMARK  status: ('A' for Active; 'I' for Inactive)
REMARK    1  A    between atoms: N1_2  and  C2_5 
REMARK    2  A    between atoms: N2_19  and  O1_21 
REMARK    3  A    between atoms: O1_21  and  C16_22 
REMARK    4  A    between atoms: C16_22  and  C17_23 
REMARK    5  A    between atoms: C17_23  and  C18_24 
REMARK    6  A    between atoms: C18_24  and  N3_25 
ROOT
HETATM    1  C2  UNL     1      14.655  38.346   6.920  1.00  0.00     0.189 C 
HETATM    2  C3  UNL     1      15.463  38.192   8.168  1.00  0.00     0.034 C 
HETATM    3  C4  UNL     1      16.559  37.187   8.105  1.00  0.00     0.012 C 
HETATM    4  C5  UNL     1      16.321  36.044   7.190  1.00  0.00    -0.036 C 
HETATM    5  C6  UNL     1      17.008  36.323   5.866  1.00  0.00     0.016 C 
HETATM    6  C7  UNL     1      14.846  35.842   6.865  1.00  0.00    -0.000 C 
HETATM    7  C8  UNL     1      14.052  35.369   8.016  1.00  0.00     0.006 C 
HETATM    8  C9  UNL     1      14.797  34.864   9.186  1.00  0.00     0.006 C 
HETATM    9  C10 UNL     1      16.136  34.282   8.962  1.00  0.00    -0.004 C 
HETATM   10  C11 UNL     1      16.187  32.779   8.962  1.00  0.00     0.008 C 
HETATM   11  C12 UNL     1      15.675  32.128  10.188  1.00  0.00    -0.008 C 
HETATM   12  C13 UNL     1      14.490  31.236   9.840  1.00  0.00     0.011 C 
HETATM   13  C14 UNL     1      16.773  31.201  10.659  1.00  0.00     0.060 C 
HETATM   14  C15 UNL     1      17.961  31.450   9.854  1.00  0.00     0.019 C 
HETATM   15  N2  UNL     1      19.124  30.967  10.049  1.00  0.00    -0.274 N 
ATOM     16  H2  UNL     1      19.885  31.214   9.416  1.00  0.00     0.193 HD
HETATM   17  C24 UNL     1      17.605  32.369   8.751  1.00  0.00     0.001 C 
HETATM   18  C25 UNL     1      17.797  31.609   7.447  1.00  0.00     0.022 C 
HETATM   19  C26 UNL     1      18.601  33.503   8.813  1.00  0.00     0.016 C 
HETATM   20  C27 UNL     1      18.284  34.625   7.871  1.00  0.00     0.007 C 
HETATM   21  C28 UNL     1      16.809  34.712   7.682  1.00  0.00    -0.002 C 
HETATM   22  C29 UNL     1      14.368  37.089   6.194  1.00  0.00     0.017 C 
HETATM   23  C30 UNL     1      12.921  36.888   5.814  1.00  0.00     0.012 C 
ENDROOT
BRANCH  15  24
HETATM   24  O1  UNL     1      19.364  30.119  11.098  1.00  0.00    -0.281 OA
BRANCH  24  25
HETATM   25  C16 UNL     1      20.700  29.866  11.519  1.00  0.00     0.203 C 
BRANCH  25  26
HETATM   26  C17 UNL     1      21.639  30.586  10.609  1.00  0.00     0.059 C 
BRANCH  26  27
HETATM   27  C18 UNL     1      22.495  31.579  11.337  1.00  0.00     0.274 C 
BRANCH  27  28
HETATM   28  N3  UNL     1      23.790  30.972  11.663  1.00  0.00     0.088 N 
HETATM   29  C19 UNL     1      24.619  30.793  10.488  1.00  0.00     0.272 C 
HETATM   30  C20 UNL     1      24.859  32.082   9.747  1.00  0.00     0.030 C 
HETATM   31  C21 UNL     1      25.390  33.157  10.654  1.00  0.00     0.003 C 
HETATM   32  C22 UNL     1      24.717  33.218  11.990  1.00  0.00     0.030 C 
HETATM   33  C23 UNL     1      24.468  31.853  12.598  1.00  0.00     0.272 C 
ENDBRANCH  27  28
ENDBRANCH  26  27
ENDBRANCH  25  26
ENDBRANCH  24  25
ENDBRANCH  15  24
BRANCH   1  34
HETATM   34  N1  UNL     1      13.370  38.932   7.320  1.00  0.00    -0.074 N 
HETATM   35  C1  UNL     1      13.297  39.078   8.761  1.00  0.00     0.267 C 
ATOM     36  H12 UNL     1      12.582  38.396   6.955  1.00  0.00     0.277 HD
ATOM     37  H11 UNL     1      13.192  39.815   6.841  1.00  0.00     0.277 HD
ENDBRANCH   1  34
TORSDOF 6
ENDMDL
MODEL 3
REMARK VINA RESULT: -8.384861947      3.967      9.050
REMARK  6 active torsions:
REMARK  status: ('A' for Active; 'I' for Inactive)
REMARK    1  A    between atoms: N1_2  and  C2_5 
REMARK    2  A    between atoms: N2_19  and  O1_21 
REMARK    3  A    between atoms: O1_21  and  C16_22 
REMARK    4  A    between atoms: C16_22  and  C17_23 
REMARK    5  A    between atoms: C17_23  and  C18_24 
REMARK    6  A    between atoms: C18_24  and  N3_25 
ROOT
HETATM    1  C2  UNL     1      17.097  28.644  11.323  1.00  0.00     0.189 C 
HETATM    2  C3  UNL     1      16.929  29.882  12.144  1.00  0.00     0.034 C 
HETATM    3  C4  UNL     1      15.919  30.854  11.643  1.00  0.00     0.012 C 
HETATM    4  C5  UNL     1      15.725  30.868  10.173  1.00  0.00    -0.036 C 
HETATM    5  C6  UNL     1      14.521  30.012   9.827  1.00  0.00     0.016 C 
HETATM    6  C7  UNL     1      16.902  30.266   9.415  1.00  0.00    -0.000 C 
HETATM    7  C8  UNL     1      18.125  31.090   9.481  1.00  0.00     0.006 C 
HETATM    8  C9  UNL     1      17.978  32.475   9.970  1.00  0.00     0.006 C 
HETATM    9  C10 UNL     1      16.680  33.150   9.772  1.00  0.00    -0.004 C 
HETATM   10  C11 UNL     1      16.635  34.125   8.627  1.00  0.00     0.008 C 
HETATM   11  C12 UNL     1      17.638  35.211   8.679  1.00  0.00    -0.008 C 
HETATM   12  C13 UNL     1      18.545  35.131   7.457  1.00  0.00     0.011 C 
HETATM   13  C14 UNL     1      16.865  36.502   8.543  1.00  0.00     0.060 C 
HETATM   14  C15 UNL     1      15.442  36.195   8.613  1.00  0.00     0.019 C 
HETATM   15  N2  UNL     1      14.487  37.037   8.680  1.00  0.00    -0.274 N 
ATOM     16  H2  UNL     1      13.525  36.703   8.726  1.00  0.00     0.193 HD
HETATM   17  C24 UNL     1      15.271  34.726   8.592  1.00  0.00     0.001 C 
HETATM   18  C25 UNL     1      14.519  34.375   7.316  1.00  0.00     0.022 C 
HETATM   19  C26 UNL     1      14.406  34.389   9.783  1.00  0.00     0.016 C 
HETATM   20  C27 UNL     1      14.271  32.915  10.022  1.00  0.00     0.007 C 
HETATM   21  C28 UNL     1      15.507  32.224   9.564  1.00  0.00    -0.002 C 
HETATM   22  C29 UNL     1      17.031  28.845   9.858  1.00  0.00     0.017 C 
HETATM   23  C30 UNL     1      18.159  28.214   9.077  1.00  0.00     0.012 C 
ENDROOT
BRANCH  15  24
HETATM   24  O1  UNL     1      14.739  38.383   8.693  1.00  0.00    -0.281 OA
BRANCH  24  25
HETATM   25  C16 UNL     1      13.953  39.264   7.899  1.00  0.00     0.203 C 
BRANCH  25  26
HETATM   26  C17 UNL     1      14.639  39.477   6.590  1.00  0.00     0.059 C 
BRANCH  26  27
HETATM   27  C18 UNL     1      14.235  38.466   5.560  1.00  0.00     0.274 C 
BRANCH  27  28
HETATM   28  N3  UNL     1      14.950  38.724   4.305  1.00  0.00     0.088 N 
HETATM   29  C19 UNL     1      16.386  38.777   4.497  1.00  0.00     0.272 C 
HETATM   30  C20 UNL     1      16.934  37.521   5.118  1.00  0.00     0.030 C 
HETATM   31  C21 UNL     1      16.512  36.293   4.362  1.00  0.00     0.003 C 
HETATM   32  C22 UNL     1      15.080  36.306   3.926  1.00  0.00     0.030 C 
HETATM   33  C23 UNL     1      14.631  37.647   3.384  1.00  0.00     0.272 C 
ENDBRANCH  27  28
ENDBRANCH  26  27
ENDBRANCH  25  26
ENDBRANCH  24  25
ENDBRANCH  15  24
BRANCH   1  34
HETATM   34  N1  UNL     1      18.426  28.108  11.639  1.00  0.00    -0.074 N 
HETATM   35  C1  UNL     1      18.580  27.919  13.068  1.00  0.00     0.267 C 
ATOM     36  H12 UNL     1      19.169  28.691  11.253  1.00  0.00     0.277 HD
ATOM     37  H11 UNL     1      18.619  27.249  11.122  1.00  0.00     0.277 HD
ENDBRANCH   1  34
TORSDOF 6
ENDMDL
MODEL 4
REMARK VINA RESULT: -8.278080229      2.514      3.950
REMARK  6 active torsions:
REMARK  status: ('A' for Active; 'I' for Inactive)
REMARK    1  A    between atoms: N1_2  and  C2_5 
REMARK    2  A    between atoms: N2_19  and  O1_21 
REMARK    3  A    between atoms: O1_21  and  C16_22 
REMARK    4  A    between atoms: C16_22  and  C17_23 
REMARK    5  A    between atoms: C17_23  and  C18_24 
REMARK    6  A    between atoms: C18_24  and  N3_25 
ROOT
HETATM    1  C2  UNL     1      12.040  39.208   8.527  1.00  0.00     0.189 C 
HETATM    2  C3  UNL     1      13.035  39.023   9.627  1.00  0.00     0.034 C 
HETATM    3  C4  UNL     1      14.329  38.407   9.226  1.00  0.00     0.012 C 
HETATM    4  C5  UNL     1      14.258  37.468   8.080  1.00  0.00    -0.036 C 
HETATM    5  C6  UNL     1      14.648  38.207   6.813  1.00  0.00     0.016 C 
HETATM    6  C7  UNL     1      12.852  36.933   7.839  1.00  0.00    -0.000 C 
HETATM    7  C8  UNL     1      12.383  36.018   8.899  1.00  0.00     0.006 C 
HETATM    8  C9  UNL     1      13.397  35.505   9.842  1.00  0.00     0.006 C 
HETATM    9  C10 UNL     1      14.791  35.387   9.370  1.00  0.00    -0.004 C 
HETATM   10  C11 UNL     1      15.223  33.996   8.995  1.00  0.00     0.008 C 
HETATM   11  C12 UNL     1      15.080  32.979  10.060  1.00  0.00    -0.008 C 
HETATM   12  C13 UNL     1      14.124  31.886   9.602  1.00  0.00     0.011 C 
HETATM   13  C14 UNL     1      16.435  32.321  10.194  1.00  0.00     0.060 C 
HETATM   14  C15 UNL     1      17.389  33.063   9.379  1.00  0.00     0.019 C 
HETATM   15  N2  UNL     1      18.652  32.897   9.351  1.00  0.00    -0.274 N 
ATOM     16  H2  UNL     1      19.222  33.479   8.738  1.00  0.00     0.193 HD
HETATM   17  C24 UNL     1      16.651  34.058   8.572  1.00  0.00     0.001 C 
HETATM   18  C25 UNL     1      16.836  33.682   7.109  1.00  0.00     0.022 C 
HETATM   19  C26 UNL     1      17.324  35.386   8.828  1.00  0.00     0.016 C 
HETATM   20  C27 UNL     1      16.596  36.549   8.223  1.00  0.00     0.007 C 
HETATM   21  C28 UNL     1      15.137  36.254   8.185  1.00  0.00    -0.002 C 
HETATM   22  C29 UNL     1      11.979  38.108   7.539  1.00  0.00     0.017 C 
HETATM   23  C30 UNL     1      10.591  37.593   7.243  1.00  0.00     0.012 C 
ENDROOT
BRANCH  15  24
HETATM   24  O1  UNL     1      19.252  31.947  10.135  1.00  0.00    -0.281 OA
BRANCH  24  25
HETATM   25  C16 UNL     1      20.086  30.958   9.544  1.00  0.00     0.203 C 
BRANCH  25  26
HETATM   26  C17 UNL     1      19.906  29.671  10.279  1.00  0.00     0.059 C 
BRANCH  26  27
HETATM   27  C18 UNL     1      18.637  29.640  11.076  1.00  0.00     0.274 C 
BRANCH  27  28
HETATM   28  N3  UNL     1      18.269  28.250  11.368  1.00  0.00     0.088 N 
HETATM   29  C19 UNL     1      17.222  28.162  12.367  1.00  0.00     0.272 C 
HETATM   30  C20 UNL     1      15.982  28.920  11.975  1.00  0.00     0.030 C 
HETATM   31  C21 UNL     1      15.493  28.525  10.609  1.00  0.00     0.003 C 
HETATM   32  C22 UNL     1      16.581  28.365   9.593  1.00  0.00     0.030 C 
HETATM   33  C23 UNL     1      17.802  27.647  10.132  1.00  0.00     0.272 C 
ENDBRANCH  27  28
ENDBRANCH  26  27
ENDBRANCH  25  26
ENDBRANCH  24  25
ENDBRANCH  15  24
BRANCH   1  34
HETATM   34  N1  UNL     1      10.722  39.306   9.165  1.00  0.00    -0.074 N 
HETATM   35  C1  UNL     1      10.854  39.477  10.598  1.00  0.00     0.267 C 
ATOM     36  H12 UNL     1      10.131  38.508   8.933  1.00  0.00     0.277 HD
ATOM     37  H11 UNL     1      10.155  40.045   8.748  1.00  0.00     0.277 HD
ENDBRANCH   1  34
TORSDOF 6
ENDMDL
MODEL 5
REMARK VINA RESULT: -8.171336554      3.439      5.368
REMARK  6 active torsions:
REMARK  status: ('A' for Active; 'I' for Inactive)
REMARK    1  A    between atoms: N1_2  and  C2_5 
REMARK    2  A    between atoms: N2_19  and  O1_21 
REMARK    3  A    between atoms: O1_21  and  C16_22 
REMARK    4  A    between atoms: C16_22  and  C17_23 
REMARK    5  A    between atoms: C17_23  and  C18_24 
REMARK    6  A    between atoms: C18_24  and  N3_25 
ROOT
HETATM    1  C2  UNL     1      15.403  38.269   6.670  1.00  0.00     0.189 C 
HETATM    2  C3  UNL     1      16.063  38.098   8.001  1.00  0.00     0.034 C 
HETATM    3  C4  UNL     1      17.062  36.997   8.086  1.00  0.00     0.012 C 
HETATM    4  C5  UNL     1      16.812  35.842   7.191  1.00  0.00    -0.036 C 
HETATM    5  C6  UNL     1      17.652  36.000   5.937  1.00  0.00     0.016 C 
HETATM    6  C7  UNL     1      15.365  35.758   6.721  1.00  0.00    -0.000 C 
HETATM    7  C8  UNL     1      14.418  35.407   7.798  1.00  0.00     0.006 C 
HETATM    8  C9  UNL     1      14.992  34.890   9.056  1.00  0.00     0.006 C 
HETATM    9  C10 UNL     1      16.286  34.182   8.993  1.00  0.00    -0.004 C 
HETATM   10  C11 UNL     1      16.197  32.681   9.050  1.00  0.00     0.008 C 
HETATM   11  C12 UNL     1      15.506  32.132  10.237  1.00  0.00    -0.008 C 
HETATM   12  C13 UNL     1      14.284  31.335   9.798  1.00  0.00     0.011 C 
HETATM   13  C14 UNL     1      16.459  31.132  10.851  1.00  0.00     0.060 C 
HETATM   14  C15 UNL     1      17.741  31.239  10.167  1.00  0.00     0.019 C 
HETATM   15  N2  UNL     1      18.828  30.664  10.498  1.00  0.00    -0.274 N 
ATOM     16  H2  UNL     1      19.668  30.815   9.940  1.00  0.00     0.193 HD
HETATM   17  C24 UNL     1      17.584  32.138   9.002  1.00  0.00     0.001 C 
HETATM   18  C25 UNL     1      17.836  31.307   7.751  1.00  0.00     0.022 C 
HETATM   19  C26 UNL     1      18.671  33.180   9.129  1.00  0.00     0.016 C 
HETATM   20  C27 UNL     1      18.556  34.284   8.121  1.00  0.00     0.007 C 
HETATM   21  C28 UNL     1      17.122  34.494   7.777  1.00  0.00    -0.002 C 
HETATM   22  C29 UNL     1      15.076  37.012   5.961  1.00  0.00     0.017 C 
HETATM   23  C30 UNL     1      13.662  36.924   5.439  1.00  0.00     0.012 C 
ENDROOT
BRANCH  15  24
HETATM   24  O1  UNL     1      18.882  29.845  11.595  1.00  0.00    -0.281 OA
BRANCH  24  25
HETATM   25  C16 UNL     1      18.325  28.537  11.537  1.00  0.00     0.203 C 
BRANCH  25  26
HETATM   26  C17 UNL     1      18.384  27.924  12.898  1.00  0.00     0.059 C 
BRANCH  26  27
HETATM   27  C18 UNL     1      17.022  27.638  13.456  1.00  0.00     0.274 C 
BRANCH  27  28
HETATM   28  N3  UNL     1      16.077  28.668  13.013  1.00  0.00     0.088 N 
HETATM   29  C19 UNL     1      14.866  28.095  12.461  1.00  0.00     0.272 C 
HETATM   30  C20 UNL     1      14.166  27.178  13.428  1.00  0.00     0.030 C 
HETATM   31  C21 UNL     1      13.921  27.845  14.753  1.00  0.00     0.003 C 
HETATM   32  C22 UNL     1      15.076  28.658  15.250  1.00  0.00     0.030 C 
HETATM   33  C23 UNL     1      15.738  29.483  14.167  1.00  0.00     0.272 C 
ENDBRANCH  27  28
ENDBRANCH  26  27
ENDBRANCH  25  26
ENDBRANCH  24  25
ENDBRANCH  15  24
BRANCH   1  34
HETATM   34  N1  UNL     1      14.145  38.983   6.914  1.00  0.00    -0.074 N 
HETATM   35  C1  UNL     1      13.909  39.143   8.336  1.00  0.00     0.267 C 
ATOM     36  H12 UNL     1      13.358  38.528   6.451  1.00  0.00     0.277 HD
ATOM     37  H11 UNL     1      14.117  39.877   6.424  1.00  0.00     0.277 HD
ENDBRANCH   1  34
TORSDOF 6
ENDMDL
