MODEL 1
REMARK VINA RESULT: -7.636515053      0.000      0.000
REMARK  9 active torsions:
REMARK  status: ('A' for Active; 'I' for Inactive)
REMARK    1  A    between atoms: C3_3  and  C4_4 
REMARK    2  A    between atoms: C4_4  and  C7_7 
REMARK    3  A    between atoms: C7_7  and  C8_8 
REMARK    4  A    between atoms: C7_7  and  C13_14 
REMARK    5  A    between atoms: C8_8  and  C9_9 
REMARK    6  A    between atoms: C9_9  and  C10_10 
REMARK    7  A    between atoms: C10_10  and  C12_12 
REMARK    8  A    between atoms: C27_29  and  O3_30 
REMARK    9  A    between atoms: C30_33  and  O4_34 
ROOT
HETATM    1  C1  UNL     1      10.906  38.876   6.804  1.00  0.00     0.112 C 
HETATM    2  C2  UNL     1      11.992  38.121   7.441  1.00  0.00    -0.110 C 
HETATM    3  C3  UNL     1      12.887  37.518   7.976  1.00  0.00    -0.093 C 
ENDROOT
BRANCH   3   4
HETATM    4  C4  UNL     1      13.942  36.833   8.653  1.00  0.00     0.040 C 
HETATM    5  C5  UNL     1      13.725  36.850  10.172  1.00  0.00     0.034 C 
HETATM    6  C6  UNL     1      15.164  37.811   8.531  1.00  0.00     0.034 C 
BRANCH   4   7
HETATM    7  C7  UNL     1      14.471  35.583   8.111  1.00  0.00    -0.055 C 
BRANCH   7   8
HETATM    8  C8  UNL     1      14.767  35.526   6.637  1.00  0.00     0.037 C 
BRANCH   8   9
HETATM    9  C9  UNL     1      16.150  35.618   6.161  1.00  0.00     0.015 C 
BRANCH   9  10
HETATM   10  C10 UNL     1      16.229  36.556   4.911  1.00  0.00     0.043 C 
HETATM   11  C11 UNL     1      14.840  37.080   4.613  1.00  0.00     0.017 C 
BRANCH  10  12
HETATM   12  C12 UNL     1      17.079  37.716   5.298  1.00  0.00     0.235 C 
HETATM   13  O1  UNL     1      17.962  37.495   6.120  1.00  0.00    -0.306 OA
ENDBRANCH  10  12
ENDBRANCH   9  10
ENDBRANCH   8   9
ENDBRANCH   7   8
BRANCH   7  14
HETATM   14  C13 UNL     1      14.003  34.270   8.574  1.00  0.00    -0.042 C 
HETATM   15  C14 UNL     1      12.670  34.120   9.198  1.00  0.00     0.038 C 
HETATM   16  C15 UNL     1      12.634  32.636   9.555  1.00  0.00     0.013 C 
HETATM   17  C16 UNL     1      13.986  32.070   9.189  1.00  0.00     0.029 C 
HETATM   18  C17 UNL     1      14.474  31.067  10.163  1.00  0.00    -0.002 A 
HETATM   19  C30 UNL     1      14.873  33.348   9.360  1.00  0.00     0.088 C 
HETATM   20  C18 UNL     1      14.041  29.650  10.138  1.00  0.00     0.011 A 
HETATM   21  C19 UNL     1      15.277  30.063   9.487  1.00  0.00    -0.001 A 
HETATM   22  C20 UNL     1      16.638  29.959  10.114  1.00  0.00    -0.033 C 
HETATM   23  C21 UNL     1      16.644  29.834  11.596  1.00  0.00     0.016 C 
HETATM   24  C22 UNL     1      17.183  28.635   9.550  1.00  0.00     0.017 C 
HETATM   25  C26 UNL     1      17.544  31.046   9.599  1.00  0.00     0.030 C 
HETATM   26  C23 UNL     1      18.588  28.346   9.923  1.00  0.00     0.079 C 
HETATM   27  C24 UNL     1      19.465  29.519   9.941  1.00  0.00     0.127 C 
HETATM   28  O2  UNL     1      20.626  29.440   9.687  1.00  0.00    -0.298 OA
HETATM   29  C25 UNL     1      18.875  30.840  10.286  1.00  0.00     0.086 C 
HETATM   30  C27 UNL     1      17.110  32.444   9.850  1.00  0.00     0.129 C 
HETATM   31  C29 UNL     1      16.184  32.983   8.770  1.00  0.00     0.075 C 
BRANCH  30  32
HETATM   32  O3  UNL     1      18.284  33.239   9.829  1.00  0.00    -0.390 OA
HETATM   33  C28 UNL     1      18.252  34.218   8.852  1.00  0.00     0.202 C 
ENDBRANCH  30  32
BRANCH  19  34
HETATM   34  O4  UNL     1      14.895  33.544  10.723  1.00  0.00    -0.385 OA
ATOM     35  H4  UNL     1      15.467  34.233  11.040  1.00  0.00     0.211 HD
ENDBRANCH  19  34
ENDBRANCH   7  14
ENDBRANCH   4   7
ENDBRANCH   3   4
TORSDOF 9
ENDMDL
MODEL 2
REMARK VINA RESULT: -7.375857091      1.380      3.095
REMARK  9 active torsions:
REMARK  status: ('A' for Active; 'I' for Inactive)
REMARK    1  A    between atoms: C3_3  and  C4_4 
REMARK    2  A    between atoms: C4_4  and  C7_7 
REMARK    3  A    between atoms: C7_7  and  C8_8 
REMARK    4  A    between atoms: C7_7  and  C13_14 
REMARK    5  A    between atoms: C8_8  and  C9_9 
REMARK    6  A    between atoms: C9_9  and  C10_10 
REMARK    7  A    between atoms: C10_10  and  C12_12 
REMARK    8  A    between atoms: C27_29  and  O3_30 
REMARK    9  A    between atoms: C30_33  and  O4_34 
ROOT
HETATM    1  C1  UNL     1      18.215  37.513   6.392  1.00  0.00     0.112 C 
HETATM    2  C2  UNL     1      16.843  37.023   6.576  1.00  0.00    -0.110 C 
HETATM    3  C3  UNL     1      15.724  36.602   6.729  1.00  0.00    -0.093 C 
ENDROOT
BRANCH   3   4
HETATM    4  C4  UNL     1      14.419  36.059   6.932  1.00  0.00     0.040 C 
HETATM    5  C5  UNL     1      14.093  34.995   5.877  1.00  0.00     0.034 C 
HETATM    6  C6  UNL     1      13.458  37.214   6.476  1.00  0.00     0.034 C 
BRANCH   4   7
HETATM    7  C7  UNL     1      13.952  35.763   8.285  1.00  0.00    -0.055 C 
BRANCH   7   8
HETATM    8  C8  UNL     1      14.601  36.494   9.428  1.00  0.00     0.037 C 
BRANCH   8   9
HETATM    9  C9  UNL     1      13.775  37.113  10.469  1.00  0.00     0.015 C 
BRANCH   9  10
HETATM   10  C10 UNL     1      13.805  38.670  10.326  1.00  0.00     0.043 C 
HETATM   11  C11 UNL     1      14.977  39.052   9.446  1.00  0.00     0.017 C 
BRANCH  10  12
HETATM   12  C12 UNL     1      12.557  39.059   9.612  1.00  0.00     0.235 C 
HETATM   13  O1  UNL     1      11.593  38.314   9.756  1.00  0.00    -0.306 OA
ENDBRANCH  10  12
ENDBRANCH   9  10
ENDBRANCH   8   9
ENDBRANCH   7   8
BRANCH   7  14
HETATM   14  C13 UNL     1      13.588  34.404   8.706  1.00  0.00    -0.042 C 
HETATM   15  C14 UNL     1      12.284  34.136   9.349  1.00  0.00     0.038 C 
HETATM   16  C15 UNL     1      12.361  32.640   9.648  1.00  0.00     0.013 C 
HETATM   17  C16 UNL     1      13.741  32.186   9.233  1.00  0.00     0.029 C 
HETATM   18  C17 UNL     1      14.320  31.185  10.157  1.00  0.00    -0.002 A 
HETATM   19  C30 UNL     1      14.539  33.517   9.437  1.00  0.00     0.088 C 
HETATM   20  C18 UNL     1      13.987  29.743  10.085  1.00  0.00     0.011 A 
HETATM   21  C19 UNL     1      15.176  30.266   9.426  1.00  0.00    -0.001 A 
HETATM   22  C20 UNL     1      16.556  30.236  10.020  1.00  0.00    -0.033 C 
HETATM   23  C21 UNL     1      16.604  30.056  11.496  1.00  0.00     0.016 C 
HETATM   24  C22 UNL     1      17.179  28.977   9.393  1.00  0.00     0.017 C 
HETATM   25  C26 UNL     1      17.371  31.404   9.531  1.00  0.00     0.030 C 
HETATM   26  C23 UNL     1      18.609  28.775   9.727  1.00  0.00     0.079 C 
HETATM   27  C24 UNL     1      19.401  30.006   9.773  1.00  0.00     0.127 C 
HETATM   28  O2  UNL     1      20.559  30.020   9.493  1.00  0.00    -0.298 OA
HETATM   29  C25 UNL     1      18.728  31.267  10.182  1.00  0.00     0.086 C 
HETATM   30  C27 UNL     1      16.845  32.757   9.845  1.00  0.00     0.129 C 
HETATM   31  C29 UNL     1      15.859  33.269   8.807  1.00  0.00     0.075 C 
BRANCH  30  32
HETATM   32  O3  UNL     1      17.959  33.633   9.832  1.00  0.00    -0.390 OA
HETATM   33  C28 UNL     1      18.043  34.377   8.668  1.00  0.00     0.202 C 
ENDBRANCH  30  32
BRANCH  19  34
HETATM   34  O4  UNL     1      14.578  33.662  10.806  1.00  0.00    -0.385 OA
ATOM     35  H4  UNL     1      15.305  34.165  11.155  1.00  0.00     0.211 HD
ENDBRANCH  19  34
ENDBRANCH   7  14
ENDBRANCH   4   7
ENDBRANCH   3   4
TORSDOF 9
ENDMDL
MODEL 3
REMARK VINA RESULT: -7.238697098      2.600      8.371
REMARK  9 active torsions:
REMARK  status: ('A' for Active; 'I' for Inactive)
REMARK    1  A    between atoms: C3_3  and  C4_4 
REMARK    2  A    between atoms: C4_4  and  C7_7 
REMARK    3  A    between atoms: C7_7  and  C8_8 
REMARK    4  A    between atoms: C7_7  and  C13_14 
REMARK    5  A    between atoms: C8_8  and  C9_9 
REMARK    6  A    between atoms: C9_9  and  C10_10 
REMARK    7  A    between atoms: C10_10  and  C12_12 
REMARK    8  A    between atoms: C27_29  and  O3_30 
REMARK    9  A    between atoms: C30_33  and  O4_34 
ROOT
HETATM    1  C1  UNL     1      12.872  26.447  13.427  1.00  0.00     0.112 C 
HETATM    2  C2  UNL     1      13.721  27.356  12.646  1.00  0.00    -0.110 C 
HETATM    3  C3  UNL     1      14.411  28.093  11.988  1.00  0.00    -0.093 C 
ENDROOT
BRANCH   3   4
HETATM    4  C4  UNL     1      15.195  28.959  11.167  1.00  0.00     0.040 C 
HETATM    5  C5  UNL     1      16.369  28.204  10.532  1.00  0.00     0.034 C 
HETATM    6  C6  UNL     1      15.964  29.859  12.200  1.00  0.00     0.034 C 
BRANCH   4   7
HETATM    7  C7  UNL     1      14.542  29.941  10.304  1.00  0.00    -0.055 C 
BRANCH   7   8
HETATM    8  C8  UNL     1      13.430  29.462   9.412  1.00  0.00     0.037 C 
BRANCH   8   9
HETATM    9  C9  UNL     1      12.156  29.028   9.993  1.00  0.00     0.015 C 
BRANCH   9  10
HETATM   10  C10 UNL     1      10.972  29.425   9.050  1.00  0.00     0.043 C 
HETATM   11  C11 UNL     1      10.771  28.319   8.036  1.00  0.00     0.017 C 
BRANCH  10  12
HETATM   12  C12 UNL     1       9.750  29.489   9.900  1.00  0.00     0.235 C 
HETATM   13  O1  UNL     1       9.437  28.456  10.482  1.00  0.00    -0.306 OA
ENDBRANCH  10  12
ENDBRANCH   9  10
ENDBRANCH   8   9
ENDBRANCH   7   8
BRANCH   7  14
HETATM   14  C13 UNL     1      15.289  31.013   9.635  1.00  0.00    -0.042 C 
HETATM   15  C14 UNL     1      16.764  31.079   9.730  1.00  0.00     0.038 C 
HETATM   16  C15 UNL     1      17.093  32.346   8.944  1.00  0.00     0.013 C 
HETATM   17  C16 UNL     1      15.773  32.956   8.535  1.00  0.00     0.029 C 
HETATM   18  C17 UNL     1      15.775  34.436   8.607  1.00  0.00    -0.002 A 
HETATM   19  C30 UNL     1      14.861  32.441   9.699  1.00  0.00     0.088 C 
HETATM   20  C18 UNL     1      16.332  35.288   7.531  1.00  0.00     0.011 A 
HETATM   21  C19 UNL     1      14.907  34.988   7.581  1.00  0.00    -0.001 A 
HETATM   22  C20 UNL     1      13.873  35.892   8.189  1.00  0.00    -0.033 C 
HETATM   23  C21 UNL     1      14.402  36.908   9.139  1.00  0.00     0.016 C 
HETATM   24  C22 UNL     1      13.321  36.658   6.974  1.00  0.00     0.017 C 
HETATM   25  C26 UNL     1      12.726  35.091   8.744  1.00  0.00     0.030 C 
HETATM   26  C23 UNL     1      12.179  37.550   7.284  1.00  0.00     0.079 C 
HETATM   27  C24 UNL     1      11.235  37.010   8.265  1.00  0.00     0.127 C 
HETATM   28  O2  UNL     1      10.077  37.283   8.240  1.00  0.00    -0.298 OA
HETATM   29  C25 UNL     1      11.753  36.096   9.317  1.00  0.00     0.086 C 
HETATM   30  C27 UNL     1      13.057  34.112   9.811  1.00  0.00     0.129 C 
HETATM   31  C29 UNL     1      13.478  32.756   9.266  1.00  0.00     0.075 C 
BRANCH  30  32
HETATM   32  O3  UNL     1      11.867  33.912  10.556  1.00  0.00    -0.390 OA
HETATM   33  C28 UNL     1      11.065  32.916  10.030  1.00  0.00     0.202 C 
ENDBRANCH  30  32
BRANCH  19  34
HETATM   34  O4  UNL     1      15.296  33.159  10.791  1.00  0.00    -0.385 OA
ATOM     35  H4  UNL     1      14.624  33.589  11.306  1.00  0.00     0.211 HD
ENDBRANCH  19  34
ENDBRANCH   7  14
ENDBRANCH   4   7
ENDBRANCH   3   4
TORSDOF 9
ENDMDL
MODEL 4
REMARK VINA RESULT: -7.232567002      2.450      8.207
REMARK  9 active torsions:
REMARK  status: ('A' for Active; 'I' for Inactive)
REMARK    1  A    between atoms: C3_3  and  C4_4 
REMARK    2  A    between atoms: C4_4  and  C7_7 
REMARK    3  A    between atoms: C7_7  and  C8_8 
REMARK    4  A    between atoms: C7_7  and  C13_14 
REMARK    5  A    between atoms: C8_8  and  C9_9 
REMARK    6  A    between atoms: C9_9  and  C10_10 
REMARK    7  A    between atoms: C10_10  and  C12_12 
REMARK    8  A    between atoms: C27_29  and  O3_30 
REMARK    9  A    between atoms: C30_33  and  O4_34 
ROOT
HETATM    1  C1  UNL     1      13.483  26.639  14.160  1.00  0.00     0.112 C 
HETATM    2  C2  UNL     1      14.296  27.486  13.279  1.00  0.00    -0.110 C 
HETATM    3  C3  UNL     1      14.969  28.194  12.572  1.00  0.00    -0.093 C 
ENDROOT
BRANCH   3   4
HETATM    4  C4  UNL     1      15.795  29.045  11.777  1.00  0.00     0.040 C 
HETATM    5  C5  UNL     1      17.124  28.359  11.432  1.00  0.00     0.034 C 
HETATM    6  C6  UNL     1      16.295  30.135  12.790  1.00  0.00     0.034 C 
BRANCH   4   7
HETATM    7  C7  UNL     1      15.206  29.843  10.704  1.00  0.00    -0.055 C 
BRANCH   7   8
HETATM    8  C8  UNL     1      14.207  29.175   9.799  1.00  0.00     0.037 C 
BRANCH   8   9
HETATM    9  C9  UNL     1      12.838  29.691   9.706  1.00  0.00     0.015 C 
BRANCH   9  10
HETATM   10  C10 UNL     1      11.831  28.512   9.501  1.00  0.00     0.043 C 
HETATM   11  C11 UNL     1      11.556  27.871  10.845  1.00  0.00     0.017 C 
BRANCH  10  12
HETATM   12  C12 UNL     1      10.558  29.115   9.016  1.00  0.00     0.235 C 
HETATM   13  O1  UNL     1      10.305  28.970   7.825  1.00  0.00    -0.306 OA
ENDBRANCH  10  12
ENDBRANCH   9  10
ENDBRANCH   8   9
ENDBRANCH   7   8
BRANCH   7  14
HETATM   14  C13 UNL     1      15.987  30.827   9.943  1.00  0.00    -0.042 C 
HETATM   15  C14 UNL     1      17.454  30.916  10.106  1.00  0.00     0.038 C 
HETATM   16  C15 UNL     1      17.823  32.075   9.182  1.00  0.00     0.013 C 
HETATM   17  C16 UNL     1      16.525  32.617   8.630  1.00  0.00     0.029 C 
HETATM   18  C17 UNL     1      16.522  34.094   8.512  1.00  0.00    -0.002 A 
HETATM   19  C30 UNL     1      15.554  32.247   9.801  1.00  0.00     0.088 C 
HETATM   20  C18 UNL     1      17.135  34.806   7.366  1.00  0.00     0.011 A 
HETATM   21  C19 UNL     1      15.710  34.503   7.380  1.00  0.00    -0.001 A 
HETATM   22  C20 UNL     1      14.643  35.469   7.811  1.00  0.00    -0.033 C 
HETATM   23  C21 UNL     1      15.120  36.603   8.649  1.00  0.00     0.016 C 
HETATM   24  C22 UNL     1      14.156  36.069   6.480  1.00  0.00     0.017 C 
HETATM   25  C26 UNL     1      13.470  34.736   8.403  1.00  0.00     0.030 C 
HETATM   26  C23 UNL     1      12.998  36.984   6.613  1.00  0.00     0.079 C 
HETATM   27  C24 UNL     1      12.004  36.566   7.605  1.00  0.00     0.127 C 
HETATM   28  O2  UNL     1      10.848  36.824   7.483  1.00  0.00    -0.298 OA
HETATM   29  C25 UNL     1      12.467  35.798   8.791  1.00  0.00     0.086 C 
HETATM   30  C27 UNL     1      13.745  33.905   9.603  1.00  0.00     0.129 C 
HETATM   31  C29 UNL     1      14.195  32.493   9.259  1.00  0.00     0.075 C 
BRANCH  30  32
HETATM   32  O3  UNL     1      12.517  33.792  10.303  1.00  0.00    -0.390 OA
HETATM   33  C28 UNL     1      11.700  32.797   9.799  1.00  0.00     0.202 C 
ENDBRANCH  30  32
BRANCH  19  34
HETATM   34  O4  UNL     1      15.930  33.103  10.813  1.00  0.00    -0.385 OA
ATOM     35  H4  UNL     1      15.514  33.957  10.817  1.00  0.00     0.211 HD
ENDBRANCH  19  34
ENDBRANCH   7  14
ENDBRANCH   4   7
ENDBRANCH   3   4
TORSDOF 9
ENDMDL
MODEL 5
REMARK VINA RESULT: -7.119944964      2.412      8.070
REMARK  9 active torsions:
REMARK  status: ('A' for Active; 'I' for Inactive)
REMARK    1  A    between atoms: C3_3  and  C4_4 
REMARK    2  A    between atoms: C4_4  and  C7_7 
REMARK    3  A    between atoms: C7_7  and  C8_8 
REMARK    4  A    between atoms: C7_7  and  C13_14 
REMARK    5  A    between atoms: C8_8  and  C9_9 
REMARK    6  A    between atoms: C9_9  and  C10_10 
REMARK    7  A    between atoms: C10_10  and  C12_12 
REMARK    8  A    between atoms: C27_29  and  O3_30 
REMARK    9  A    between atoms: C30_33  and  O4_34 
ROOT
HETATM    1  C1  UNL     1      16.864  28.563  14.529  1.00  0.00     0.112 C 
HETATM    2  C2  UNL     1      16.127  28.612  13.261  1.00  0.00    -0.110 C 
HETATM    3  C3  UNL     1      15.506  28.640  12.228  1.00  0.00    -0.093 C 
ENDROOT
BRANCH   3   4
HETATM    4  C4  UNL     1      14.727  28.663  11.032  1.00  0.00     0.040 C 
HETATM    5  C5  UNL     1      13.561  27.670  11.114  1.00  0.00     0.034 C 
HETATM    6  C6  UNL     1      15.639  27.941   9.977  1.00  0.00     0.034 C 
BRANCH   4   7
HETATM    7  C7  UNL     1      14.421  29.935  10.381  1.00  0.00    -0.055 C 
BRANCH   7   8
HETATM    8  C8  UNL     1      13.302  29.959   9.375  1.00  0.00     0.037 C 
BRANCH   8   9
HETATM    9  C9  UNL     1      11.992  30.502   9.746  1.00  0.00     0.015 C 
BRANCH   9  10
HETATM   10  C10 UNL     1      10.918  29.365   9.748  1.00  0.00     0.043 C 
HETATM   11  C11 UNL     1       9.544  29.998   9.766  1.00  0.00     0.017 C 
BRANCH  10  12
HETATM   12  C12 UNL     1      11.065  28.634   8.458  1.00  0.00     0.235 C 
HETATM   13  O1  UNL     1      10.304  28.965   7.555  1.00  0.00    -0.306 OA
ENDBRANCH  10  12
ENDBRANCH   9  10
ENDBRANCH   8   9
ENDBRANCH   7   8
BRANCH   7  14
HETATM   14  C13 UNL     1      15.472  30.879   9.978  1.00  0.00    -0.042 C 
HETATM   15  C14 UNL     1      16.775  30.901  10.676  1.00  0.00     0.038 C 
HETATM   16  C15 UNL     1      17.511  32.038   9.971  1.00  0.00     0.013 C 
HETATM   17  C16 UNL     1      16.538  32.637   8.983  1.00  0.00     0.029 C 
HETATM   18  C17 UNL     1      16.645  34.111   8.891  1.00  0.00    -0.002 A 
HETATM   19  C30 UNL     1      15.186  32.317   9.703  1.00  0.00     0.088 C 
HETATM   20  C18 UNL     1      17.670  34.789   8.064  1.00  0.00     0.011 A 
HETATM   21  C19 UNL     1      16.331  34.552   7.542  1.00  0.00    -0.001 A 
HETATM   22  C20 UNL     1      15.224  35.568   7.558  1.00  0.00    -0.033 C 
HETATM   23  C21 UNL     1      15.404  36.682   8.527  1.00  0.00     0.016 C 
HETATM   24  C22 UNL     1      15.295  36.183   6.150  1.00  0.00     0.017 C 
HETATM   25  C26 UNL     1      13.884  34.891   7.661  1.00  0.00     0.030 C 
HETATM   26  C23 UNL     1      14.212  37.151   5.853  1.00  0.00     0.079 C 
HETATM   27  C24 UNL     1      12.903  36.783   6.398  1.00  0.00     0.127 C 
HETATM   28  O2  UNL     1      11.888  37.093   5.858  1.00  0.00    -0.298 OA
HETATM   29  C25 UNL     1      12.856  36.000   7.661  1.00  0.00     0.086 C 
HETATM   30  C27 UNL     1      13.655  34.054   8.867  1.00  0.00     0.129 C 
HETATM   31  C29 UNL     1      14.139  32.622   8.697  1.00  0.00     0.075 C 
BRANCH  30  32
HETATM   32  O3  UNL     1      12.251  34.001   9.058  1.00  0.00    -0.390 OA
HETATM   33  C28 UNL     1      11.885  34.146  10.384  1.00  0.00     0.202 C 
ENDBRANCH  30  32
BRANCH  19  34
HETATM   34  O4  UNL     1      15.195  33.159  10.792  1.00  0.00    -0.385 OA
ATOM     35  H4  UNL     1      14.404  33.665  10.939  1.00  0.00     0.211 HD
ENDBRANCH  19  34
ENDBRANCH   7  14
ENDBRANCH   4   7
ENDBRANCH   3   4
TORSDOF 9
ENDMDL
