MODEL 1
REMARK VINA RESULT: -7.828077470      0.000      0.000
REMARK  8 active torsions:
REMARK  status: ('A' for Active; 'I' for Inactive)
REMARK    1  A    between atoms: C2_2  and  C4_4 
REMARK    2  A    between atoms: C4_4  and  C5_5 
REMARK    3  A    between atoms: C5_5  and  C6_6 
REMARK    4  A    between atoms: C6_6  and  C7_8 
REMARK    5  A    between atoms: C12_13  and  O2_14 
REMARK    6  A    between atoms: C17_20  and  C19_22 
REMARK    7  A    between atoms: C19_22  and  O4_24 
REMARK    8  A    between atoms: O4_24  and  C20_25 
ROOT
HETATM    1  C7  UNL     1      18.549  31.225  10.390  1.00  0.00     0.064 C 
HETATM    2  C8  UNL     1      17.320  30.449  10.785  1.00  0.00     0.013 C 
HETATM    3  C9  UNL     1      16.127  31.304  10.338  1.00  0.00     0.007 C 
HETATM    4  C10 UNL     1      16.793  32.567   9.890  1.00  0.00     0.001 C 
HETATM    5  C11 UNL     1      16.029  33.553   9.150  1.00  0.00     0.024 C 
HETATM    6  C12 UNL     1      14.656  33.144   8.695  1.00  0.00     0.123 C 
HETATM    7  C13 UNL     1      13.985  34.378   8.095  1.00  0.00     0.042 C 
HETATM    8  C14 UNL     1      14.864  35.024   7.062  1.00  0.00     0.026 C 
HETATM    9  C15 UNL     1      14.141  36.122   6.401  1.00  0.00    -0.066 C 
HETATM   10  C16 UNL     1      12.942  36.534   6.729  1.00  0.00     0.016 C 
HETATM   11  C17 UNL     1      14.881  36.789   5.268  1.00  0.00     0.067 C 
HETATM   12  C18 UNL     1      14.941  38.271   5.420  1.00  0.00     0.031 C 
HETATM   13  C22 UNL     1      16.229  36.121   5.201  1.00  0.00     0.025 C 
HETATM   14  C23 UNL     1      16.957  36.144   6.519  1.00  0.00     0.012 C 
HETATM   15  C24 UNL     1      16.197  35.461   7.628  1.00  0.00    -0.032 C 
HETATM   16  C25 UNL     1      16.066  36.438   8.760  1.00  0.00     0.016 C 
HETATM   17  C26 UNL     1      16.876  34.167   8.054  1.00  0.00     0.001 C 
HETATM   18  C27 UNL     1      18.238  34.402   8.640  1.00  0.00     0.007 C 
HETATM   19  C28 UNL     1      18.931  33.060   8.728  1.00  0.00     0.011 C 
HETATM   20  C29 UNL     1      18.019  31.972   9.182  1.00  0.00    -0.030 C 
HETATM   21  C30 UNL     1      17.649  30.984   8.148  1.00  0.00     0.016 C 
ENDROOT
BRANCH   1  22
HETATM   22  C6  UNL     1      19.779  30.496  10.233  1.00  0.00     0.132 C 
HETATM   23  O1  UNL     1      19.668  29.250  10.165  1.00  0.00    -0.298 OA
BRANCH  22  24
HETATM   24  C5  UNL     1      21.155  30.982  10.136  1.00  0.00     0.083 C 
BRANCH  24  25
HETATM   25  C4  UNL     1      21.996  30.837  11.362  1.00  0.00     0.040 C 
BRANCH  25  26
HETATM   26  C2  UNL     1      23.334  31.435  11.299  1.00  0.00    -0.093 C 
HETATM   27  C1  UNL     1      24.285  30.842  10.601  1.00  0.00     0.014 C 
HETATM   28  C3  UNL     1      23.635  32.701  12.008  1.00  0.00     0.042 C 
ENDBRANCH  25  26
ENDBRANCH  24  25
ENDBRANCH  22  24
ENDBRANCH   1  22
BRANCH   6  29
HETATM   29  O2  UNL     1      13.915  32.896   9.877  1.00  0.00    -0.395 OA
ATOM     30  H2  UNL     1      13.006  32.840   9.606  1.00  0.00     0.210 HD
ENDBRANCH   6  29
BRANCH  11  31
HETATM   31  C19 UNL     1      14.175  36.486   3.978  1.00  0.00     0.271 C 
HETATM   32  O3  UNL     1      14.295  35.381   3.402  1.00  0.00    -0.264 OA
BRANCH  31  33
HETATM   33  O4  UNL     1      13.360  37.439   3.387  1.00  0.00    -0.321 OA
BRANCH  33  34
HETATM   34  C20 UNL     1      11.938  37.273   3.383  1.00  0.00     0.174 C 
HETATM   35  C21 UNL     1      11.343  38.511   4.003  1.00  0.00     0.034 C 
ENDBRANCH  33  34
ENDBRANCH  31  33
ENDBRANCH  11  31
TORSDOF 8
ENDMDL
MODEL 2
REMARK VINA RESULT: -7.458572126      3.382      5.349
REMARK  8 active torsions:
REMARK  status: ('A' for Active; 'I' for Inactive)
REMARK    1  A    between atoms: C2_2  and  C4_4 
REMARK    2  A    between atoms: C4_4  and  C5_5 
REMARK    3  A    between atoms: C5_5  and  C6_6 
REMARK    4  A    between atoms: C6_6  and  C7_8 
REMARK    5  A    between atoms: C12_13  and  O2_14 
REMARK    6  A    between atoms: C17_20  and  C19_22 
REMARK    7  A    between atoms: C19_22  and  O4_24 
REMARK    8  A    between atoms: O4_24  and  C20_25 
ROOT
HETATM    1  C7  UNL     1      16.421  29.661  10.272  1.00  0.00     0.064 C 
HETATM    2  C8  UNL     1      17.875  30.052  10.321  1.00  0.00     0.013 C 
HETATM    3  C9  UNL     1      17.938  31.484   9.773  1.00  0.00     0.007 C 
HETATM    4  C10 UNL     1      16.536  31.705   9.301  1.00  0.00     0.001 C 
HETATM    5  C11 UNL     1      16.107  33.043   8.940  1.00  0.00     0.024 C 
HETATM    6  C12 UNL     1      17.048  34.168   9.267  1.00  0.00     0.123 C 
HETATM    7  C13 UNL     1      16.471  35.442   8.653  1.00  0.00     0.042 C 
HETATM    8  C14 UNL     1      15.038  35.636   9.056  1.00  0.00     0.026 C 
HETATM    9  C15 UNL     1      14.549  36.936   8.570  1.00  0.00    -0.066 C 
HETATM   10  C16 UNL     1      15.236  37.761   7.820  1.00  0.00     0.016 C 
HETATM   11  C17 UNL     1      13.148  37.298   8.998  1.00  0.00     0.067 C 
HETATM   12  C18 UNL     1      12.282  37.684   7.847  1.00  0.00     0.031 C 
HETATM   13  C22 UNL     1      12.637  36.121   9.787  1.00  0.00     0.025 C 
HETATM   14  C23 UNL     1      12.742  34.823   9.030  1.00  0.00     0.012 C 
HETATM   15  C24 UNL     1      14.155  34.485   8.627  1.00  0.00    -0.032 C 
HETATM   16  C25 UNL     1      14.163  34.256   7.143  1.00  0.00     0.016 C 
HETATM   17  C26 UNL     1      14.684  33.286   9.402  1.00  0.00     0.001 C 
HETATM   18  C27 UNL     1      13.914  32.030   9.109  1.00  0.00     0.007 C 
HETATM   19  C28 UNL     1      14.310  31.004  10.148  1.00  0.00     0.011 C 
HETATM   20  C29 UNL     1      15.771  31.020  10.442  1.00  0.00    -0.030 C 
HETATM   21  C30 UNL     1      16.142  31.552  11.769  1.00  0.00     0.016 C 
ENDROOT
BRANCH   1  22
HETATM   22  C6  UNL     1      15.983  28.602  11.141  1.00  0.00     0.132 C 
HETATM   23  O1  UNL     1      14.954  27.988  10.774  1.00  0.00    -0.298 OA
BRANCH  22  24
HETATM   24  C5  UNL     1      16.553  28.119  12.398  1.00  0.00     0.083 C 
BRANCH  24  25
HETATM   25  C4  UNL     1      16.046  28.764  13.646  1.00  0.00     0.040 C 
BRANCH  25  26
HETATM   26  C2  UNL     1      14.973  28.051  14.348  1.00  0.00    -0.093 C 
HETATM   27  C1  UNL     1      14.412  28.592  15.413  1.00  0.00     0.014 C 
HETATM   28  C3  UNL     1      14.505  26.726  13.874  1.00  0.00     0.042 C 
ENDBRANCH  25  26
ENDBRANCH  24  25
ENDBRANCH  22  24
ENDBRANCH   1  22
BRANCH   6  29
HETATM   29  O2  UNL     1      18.219  33.925   8.506  1.00  0.00    -0.395 OA
ATOM     30  H2  UNL     1      18.811  34.641   8.706  1.00  0.00     0.210 HD
ENDBRANCH   6  29
BRANCH  11  31
HETATM   31  C19 UNL     1      13.211  38.466   9.940  1.00  0.00     0.271 C 
HETATM   32  O3  UNL     1      14.129  38.587  10.782  1.00  0.00    -0.264 OA
BRANCH  31  33
HETATM   33  O4  UNL     1      12.238  39.452   9.896  1.00  0.00    -0.321 OA
BRANCH  33  34
HETATM   34  C20 UNL     1      11.190  39.478  10.870  1.00  0.00     0.174 C 
HETATM   35  C21 UNL     1       9.883  39.438  10.120  1.00  0.00     0.034 C 
ENDBRANCH  33  34
ENDBRANCH  31  33
ENDBRANCH  11  31
TORSDOF 8
ENDMDL
MODEL 3
REMARK VINA RESULT: -7.402916501      3.273      5.709
REMARK  8 active torsions:
REMARK  status: ('A' for Active; 'I' for Inactive)
REMARK    1  A    between atoms: C2_2  and  C4_4 
REMARK    2  A    between atoms: C4_4  and  C5_5 
REMARK    3  A    between atoms: C5_5  and  C6_6 
REMARK    4  A    between atoms: C6_6  and  C7_8 
REMARK    5  A    between atoms: C12_13  and  O2_14 
REMARK    6  A    between atoms: C17_20  and  C19_22 
REMARK    7  A    between atoms: C19_22  and  O4_24 
REMARK    8  A    between atoms: O4_24  and  C20_25 
ROOT
HETATM    1  C7  UNL     1      16.678  29.726  10.091  1.00  0.00     0.064 C 
HETATM    2  C8  UNL     1      18.105  30.209  10.090  1.00  0.00     0.013 C 
HETATM    3  C9  UNL     1      18.055  31.651   9.568  1.00  0.00     0.007 C 
HETATM    4  C10 UNL     1      16.623  31.789   9.156  1.00  0.00     0.001 C 
HETATM    5  C11 UNL     1      16.096  33.103   8.839  1.00  0.00     0.024 C 
HETATM    6  C12 UNL     1      16.977  34.280   9.151  1.00  0.00     0.123 C 
HETATM    7  C13 UNL     1      16.296  35.525   8.585  1.00  0.00     0.042 C 
HETATM    8  C14 UNL     1      14.870  35.620   9.049  1.00  0.00     0.026 C 
HETATM    9  C15 UNL     1      14.281  36.893   8.608  1.00  0.00    -0.066 C 
HETATM   10  C16 UNL     1      14.883  37.774   7.847  1.00  0.00     0.016 C 
HETATM   11  C17 UNL     1      12.879  37.158   9.099  1.00  0.00     0.067 C 
HETATM   12  C18 UNL     1      11.943  37.507   7.990  1.00  0.00     0.031 C 
HETATM   13  C22 UNL     1      12.476  35.937   9.883  1.00  0.00     0.025 C 
HETATM   14  C23 UNL     1      12.632  34.662   9.098  1.00  0.00     0.012 C 
HETATM   15  C24 UNL     1      14.046  34.422   8.632  1.00  0.00    -0.032 C 
HETATM   16  C25 UNL     1      14.008  34.219   7.145  1.00  0.00     0.016 C 
HETATM   17  C26 UNL     1      14.681  33.246   9.361  1.00  0.00     0.001 C 
HETATM   18  C27 UNL     1      13.981  31.949   9.075  1.00  0.00     0.007 C 
HETATM   19  C28 UNL     1      14.483  30.932  10.077  1.00  0.00     0.011 C 
HETATM   20  C29 UNL     1      15.951  31.038  10.313  1.00  0.00    -0.030 C 
HETATM   21  C30 UNL     1      16.342  31.569  11.634  1.00  0.00     0.016 C 
ENDROOT
BRANCH   1  22
HETATM   22  C6  UNL     1      16.344  28.626  10.956  1.00  0.00     0.132 C 
HETATM   23  O1  UNL     1      17.290  27.857  11.247  1.00  0.00    -0.298 OA
BRANCH  22  24
HETATM   24  C5  UNL     1      15.064  28.258  11.559  1.00  0.00     0.083 C 
BRANCH  24  25
HETATM   25  C4  UNL     1      15.084  27.961  13.023  1.00  0.00     0.040 C 
BRANCH  25  26
HETATM   26  C2  UNL     1      13.830  27.455  13.593  1.00  0.00    -0.093 C 
HETATM   27  C1  UNL     1      13.550  27.679  14.863  1.00  0.00     0.014 C 
HETATM   28  C3  UNL     1      12.868  26.696  12.759  1.00  0.00     0.042 C 
ENDBRANCH  25  26
ENDBRANCH  24  25
ENDBRANCH  22  24
ENDBRANCH   1  22
BRANCH   6  29
HETATM   29  O2  UNL     1      18.129  34.126   8.340  1.00  0.00    -0.395 OA
ATOM     30  H2  UNL     1      18.410  33.225   8.457  1.00  0.00     0.210 HD
ENDBRANCH   6  29
BRANCH  11  31
HETATM   31  C19 UNL     1      12.905  38.311  10.060  1.00  0.00     0.271 C 
HETATM   32  O3  UNL     1      12.237  39.350   9.863  1.00  0.00    -0.264 OA
BRANCH  31  33
HETATM   33  O4  UNL     1      13.683  38.248  11.205  1.00  0.00    -0.321 OA
BRANCH  33  34
HETATM   34  C20 UNL     1      14.412  39.397  11.649  1.00  0.00     0.174 C 
HETATM   35  C21 UNL     1      15.667  39.478  10.820  1.00  0.00     0.034 C 
ENDBRANCH  33  34
ENDBRANCH  31  33
ENDBRANCH  11  31
TORSDOF 8
ENDMDL
MODEL 4
REMARK VINA RESULT: -7.320562180      5.379      8.605
REMARK  8 active torsions:
REMARK  status: ('A' for Active; 'I' for Inactive)
REMARK    1  A    between atoms: C2_2  and  C4_4 
REMARK    2  A    between atoms: C4_4  and  C5_5 
REMARK    3  A    between atoms: C5_5  and  C6_6 
REMARK    4  A    between atoms: C6_6  and  C7_8 
REMARK    5  A    between atoms: C12_13  and  O2_14 
REMARK    6  A    between atoms: C17_20  and  C19_22 
REMARK    7  A    between atoms: C19_22  and  O4_24 
REMARK    8  A    between atoms: O4_24  and  C20_25 
ROOT
HETATM    1  C7  UNL     1      13.870  26.044  13.864  1.00  0.00     0.064 C 
HETATM    2  C8  UNL     1      15.049  26.229  14.784  1.00  0.00     0.013 C 
HETATM    3  C9  UNL     1      15.911  27.322  14.139  1.00  0.00     0.007 C 
HETATM    4  C10 UNL     1      15.228  27.529  12.824  1.00  0.00     0.001 C 
HETATM    5  C11 UNL     1      15.586  28.673  12.006  1.00  0.00     0.024 C 
HETATM    6  C12 UNL     1      16.481  29.703  12.637  1.00  0.00     0.123 C 
HETATM    7  C13 UNL     1      16.855  30.711  11.552  1.00  0.00     0.042 C 
HETATM    8  C14 UNL     1      15.632  31.232  10.852  1.00  0.00     0.026 C 
HETATM    9  C15 UNL     1      16.005  32.300   9.913  1.00  0.00    -0.066 C 
HETATM   10  C16 UNL     1      17.233  32.680   9.659  1.00  0.00     0.016 C 
HETATM   11  C17 UNL     1      14.850  32.980   9.219  1.00  0.00     0.067 C 
HETATM   12  C18 UNL     1      15.013  33.008   7.736  1.00  0.00     0.031 C 
HETATM   13  C22 UNL     1      13.608  32.270   9.687  1.00  0.00     0.025 C 
HETATM   14  C23 UNL     1      13.673  30.780   9.478  1.00  0.00     0.012 C 
HETATM   15  C24 UNL     1      14.831  30.130  10.193  1.00  0.00    -0.032 C 
HETATM   16  C25 UNL     1      15.617  29.355   9.177  1.00  0.00     0.016 C 
HETATM   17  C26 UNL     1      14.354  29.259  11.346  1.00  0.00     0.001 C 
HETATM   18  C27 UNL     1      13.520  28.100  10.881  1.00  0.00     0.007 C 
HETATM   19  C28 UNL     1      12.853  27.503  12.101  1.00  0.00     0.011 C 
HETATM   20  C29 UNL     1      13.765  27.438  13.279  1.00  0.00    -0.030 C 
HETATM   21  C30 UNL     1      13.454  28.381  14.372  1.00  0.00     0.016 C 
ENDROOT
BRANCH   1  22
HETATM   22  C6  UNL     1      12.675  25.463  14.416  1.00  0.00     0.132 C 
HETATM   23  O1  UNL     1      12.172  24.524  13.755  1.00  0.00    -0.298 OA
BRANCH  22  24
HETATM   24  C5  UNL     1      11.946  25.794  15.640  1.00  0.00     0.083 C 
BRANCH  24  25
HETATM   25  C4  UNL     1      10.926  24.801  16.091  1.00  0.00     0.040 C 
BRANCH  25  26
HETATM   26  C2  UNL     1       9.524  25.200  15.927  1.00  0.00    -0.093 C 
HETATM   27  C1  UNL     1       8.850  25.667  16.961  1.00  0.00     0.014 C 
HETATM   28  C3  UNL     1       8.851  25.089  14.611  1.00  0.00     0.042 C 
ENDBRANCH  25  26
ENDBRANCH  24  25
ENDBRANCH  22  24
ENDBRANCH   1  22
BRANCH   6  29
HETATM   29  O2  UNL     1      17.700  29.036  12.915  1.00  0.00    -0.395 OA
ATOM     30  H2  UNL     1      17.512  28.108  12.835  1.00  0.00     0.210 HD
ENDBRANCH   6  29
BRANCH  11  31
HETATM   31  C19 UNL     1      14.756  34.399   9.700  1.00  0.00     0.271 C 
HETATM   32  O3  UNL     1      15.614  35.257   9.396  1.00  0.00    -0.264 OA
BRANCH  31  33
HETATM   33  O4  UNL     1      13.699  34.795  10.503  1.00  0.00    -0.321 OA
BRANCH  33  34
HETATM   34  C20 UNL     1      12.900  35.926  10.142  1.00  0.00     0.174 C 
HETATM   35  C21 UNL     1      11.729  35.410   9.346  1.00  0.00     0.034 C 
ENDBRANCH  33  34
ENDBRANCH  31  33
ENDBRANCH  11  31
TORSDOF 8
ENDMDL
MODEL 5
REMARK VINA RESULT: -7.240673131      3.312      5.293
REMARK  8 active torsions:
REMARK  status: ('A' for Active; 'I' for Inactive)
REMARK    1  A    between atoms: C2_2  and  C4_4 
REMARK    2  A    between atoms: C4_4  and  C5_5 
REMARK    3  A    between atoms: C5_5  and  C6_6 
REMARK    4  A    between atoms: C6_6  and  C7_8 
REMARK    5  A    between atoms: C12_13  and  O2_14 
REMARK    6  A    between atoms: C17_20  and  C19_22 
REMARK    7  A    between atoms: C19_22  and  O4_24 
REMARK    8  A    between atoms: O4_24  and  C20_25 
ROOT
HETATM    1  C7  UNL     1      16.695  29.889   9.780  1.00  0.00     0.064 C 
HETATM    2  C8  UNL     1      18.119  30.379   9.813  1.00  0.00     0.013 C 
HETATM    3  C9  UNL     1      18.064  31.845   9.362  1.00  0.00     0.007 C 
HETATM    4  C10 UNL     1      16.634  31.995   8.947  1.00  0.00     0.001 C 
HETATM    5  C11 UNL     1      16.101  33.320   8.692  1.00  0.00     0.024 C 
HETATM    6  C12 UNL     1      16.973  34.485   9.068  1.00  0.00     0.123 C 
HETATM    7  C13 UNL     1      16.288  35.752   8.559  1.00  0.00     0.042 C 
HETATM    8  C14 UNL     1      14.859  35.816   9.016  1.00  0.00     0.026 C 
HETATM    9  C15 UNL     1      14.265  37.106   8.635  1.00  0.00    -0.066 C 
HETATM   10  C16 UNL     1      14.866  38.027   7.923  1.00  0.00     0.016 C 
HETATM   11  C17 UNL     1      12.857  37.338   9.127  1.00  0.00     0.067 C 
HETATM   12  C18 UNL     1      11.927  37.736   8.031  1.00  0.00     0.031 C 
HETATM   13  C22 UNL     1      12.456  36.078   9.848  1.00  0.00     0.025 C 
HETATM   14  C23 UNL     1      12.626  34.844   9.002  1.00  0.00     0.012 C 
HETATM   15  C24 UNL     1      14.045  34.635   8.535  1.00  0.00    -0.032 C 
HETATM   16  C25 UNL     1      14.018  34.506   7.040  1.00  0.00     0.016 C 
HETATM   17  C26 UNL     1      14.681  33.429   9.210  1.00  0.00     0.001 C 
HETATM   18  C27 UNL     1      13.991  32.143   8.855  1.00  0.00     0.007 C 
HETATM   19  C28 UNL     1      14.493  31.081   9.809  1.00  0.00     0.011 C 
HETATM   20  C29 UNL     1      15.959  31.183  10.061  1.00  0.00    -0.030 C 
HETATM   21  C30 UNL     1      16.337  31.651  11.410  1.00  0.00     0.016 C 
ENDROOT
BRANCH   1  22
HETATM   22  C6  UNL     1      16.362  28.746  10.587  1.00  0.00     0.132 C 
HETATM   23  O1  UNL     1      15.716  27.841  10.008  1.00  0.00    -0.298 OA
BRANCH  22  24
HETATM   24  C5  UNL     1      16.661  28.465  11.991  1.00  0.00     0.083 C 
BRANCH  24  25
HETATM   25  C4  UNL     1      15.487  28.221  12.881  1.00  0.00     0.040 C 
BRANCH  25  26
HETATM   26  C2  UNL     1      15.754  28.265  14.323  1.00  0.00    -0.093 C 
HETATM   27  C1  UNL     1      16.978  28.059  14.770  1.00  0.00     0.014 C 
HETATM   28  C3  UNL     1      14.664  28.541  15.289  1.00  0.00     0.042 C 
ENDBRANCH  25  26
ENDBRANCH  24  25
ENDBRANCH  22  24
ENDBRANCH   1  22
BRANCH   6  29
HETATM   29  O2  UNL     1      18.132  34.378   8.258  1.00  0.00    -0.395 OA
ATOM     30  H2  UNL     1      18.727  35.051   8.567  1.00  0.00     0.210 HD
ENDBRANCH   6  29
BRANCH  11  31
HETATM   31  C19 UNL     1      12.870  38.442  10.144  1.00  0.00     0.271 C 
HETATM   32  O3  UNL     1      12.172  39.472  10.009  1.00  0.00    -0.264 OA
BRANCH  31  33
HETATM   33  O4  UNL     1      13.668  38.344  11.273  1.00  0.00    -0.321 OA
BRANCH  33  34
HETATM   34  C20 UNL     1      14.466  39.454  11.695  1.00  0.00     0.174 C 
HETATM   35  C21 UNL     1      15.694  39.478  10.822  1.00  0.00     0.034 C 
ENDBRANCH  33  34
ENDBRANCH  31  33
ENDBRANCH  11  31
TORSDOF 8
ENDMDL
