MODEL 1
REMARK VINA RESULT: -9.404591838      0.000      0.000
REMARK  7 active torsions:
REMARK  status: ('A' for Active; 'I' for Inactive)
REMARK    1  A    between atoms: C11_11  and  O1_12 
REMARK    2  A    between atoms: C18_20  and  C19_21 
REMARK    3  A    between atoms: C19_21  and  C20_22 
REMARK    4  A    between atoms: C20_22  and  C21_23 
REMARK    5  A    between atoms: C21_23  and  C22_24 
REMARK    6  A    between atoms: C22_24  and  C23_25 
REMARK    7  A    between atoms: C23_25  and  N1_26 
ROOT
HETATM    1  C1  UNL     1      17.247  28.953   8.987  1.00  0.00     0.024 C 
HETATM    2  C2  UNL     1      17.517  30.336   9.607  1.00  0.00     0.021 C 
HETATM    3  C3  UNL     1      18.232  31.124   8.595  1.00  0.00     0.018 C 
HETATM    4  C4  UNL     1      17.959  32.608   8.592  1.00  0.00     0.007 C 
HETATM    5  C5  UNL     1      16.461  32.724   8.521  1.00  0.00    -0.002 C 
HETATM    6  C6  UNL     1      15.948  32.301   9.860  1.00  0.00    -0.004 C 
HETATM    7  C7  UNL     1      14.528  32.670  10.060  1.00  0.00     0.006 C 
HETATM    8  C8  UNL     1      13.755  33.065   8.873  1.00  0.00     0.006 C 
HETATM    9  C9  UNL     1      14.462  33.862   7.832  1.00  0.00    -0.004 C 
HETATM   10  C10 UNL     1      13.758  35.129   7.453  1.00  0.00     0.037 C 
HETATM   11  C11 UNL     1      14.250  36.354   8.129  1.00  0.00     0.118 C 
HETATM   12  C12 UNL     1      15.129  36.116   9.308  1.00  0.00     0.032 C 
HETATM   13  C13 UNL     1      16.247  35.160   9.051  1.00  0.00     0.012 C 
HETATM   14  C14 UNL     1      15.945  34.058   8.105  1.00  0.00    -0.036 C 
HETATM   15  C15 UNL     1      16.574  34.379   6.741  1.00  0.00     0.016 C 
HETATM   16  C16 UNL     1      16.242  30.845  10.138  1.00  0.00     0.006 C 
HETATM   17  C17 UNL     1      16.178  30.703  11.666  1.00  0.00     0.011 C 
HETATM   18  C18 UNL     1      16.578  29.314  12.107  1.00  0.00    -0.007 C 
HETATM   19  C29 UNL     1      17.998  28.985  11.698  1.00  0.00     0.083 C 
HETATM   20  C30 UNL     1      18.427  30.061  10.754  1.00  0.00     0.136 C 
HETATM   21  O3  UNL     1      19.447  30.703  10.866  1.00  0.00    -0.297 OA
ENDROOT
BRANCH  18  22
HETATM   22  C19 UNL     1      16.566  29.354  13.637  1.00  0.00     0.005 C 
BRANCH  22  23
HETATM   23  C20 UNL     1      16.139  27.993  14.114  1.00  0.00     0.000 C 
BRANCH  23  24
HETATM   24  C21 UNL     1      14.862  27.505  13.436  1.00  0.00     0.002 C 
BRANCH  24  25
HETATM   25  C22 UNL     1      14.125  26.495  14.235  1.00  0.00     0.020 C 
BRANCH  25  26
HETATM   26  C23 UNL     1      12.784  27.030  14.648  1.00  0.00     0.125 C 
BRANCH  26  27
HETATM   27  N1  UNL     1      11.776  26.041  14.515  1.00  0.00    -0.352 N 
HETATM   28  C24 UNL     1      11.412  25.073  15.524  1.00  0.00     0.125 C 
HETATM   29  C25 UNL     1       9.936  25.323  15.817  1.00  0.00     0.020 C 
HETATM   30  C26 UNL     1       9.152  24.915  14.600  1.00  0.00     0.011 C 
HETATM   31  C27 UNL     1       9.933  24.909  13.328  1.00  0.00     0.103 C 
HETATM   32  C28 UNL     1      11.003  25.964  13.299  1.00  0.00     0.219 C 
HETATM   33  O2  UNL     1      11.213  26.710  12.327  1.00  0.00    -0.273 OA
ENDBRANCH  26  27
ENDBRANCH  25  26
ENDBRANCH  24  25
ENDBRANCH  23  24
ENDBRANCH  22  23
ENDBRANCH  18  22
BRANCH  11  34
HETATM   34  O1  UNL     1      14.850  37.260   7.222  1.00  0.00    -0.396 OA
ATOM     35  H1  UNL     1      15.784  37.350   7.370  1.00  0.00     0.210 HD
ENDBRANCH  11  34
TORSDOF 7
ENDMDL
MODEL 2
REMARK VINA RESULT: -9.216416182      4.667      8.129
REMARK  7 active torsions:
REMARK  status: ('A' for Active; 'I' for Inactive)
REMARK    1  A    between atoms: C11_11  and  O1_12 
REMARK    2  A    between atoms: C18_20  and  C19_21 
REMARK    3  A    between atoms: C19_21  and  C20_22 
REMARK    4  A    between atoms: C20_22  and  C21_23 
REMARK    5  A    between atoms: C21_23  and  C22_24 
REMARK    6  A    between atoms: C22_24  and  C23_25 
REMARK    7  A    between atoms: C23_25  and  N1_26 
ROOT
HETATM    1  C1  UNL     1      15.969  32.015  11.795  1.00  0.00     0.024 C 
HETATM    2  C2  UNL     1      15.641  32.088  10.292  1.00  0.00     0.021 C 
HETATM    3  C3  UNL     1      14.434  32.914  10.158  1.00  0.00     0.018 C 
HETATM    4  C4  UNL     1      14.334  33.748   8.905  1.00  0.00     0.007 C 
HETATM    5  C5  UNL     1      15.622  34.523   8.854  1.00  0.00    -0.002 C 
HETATM    6  C6  UNL     1      16.687  33.535   8.503  1.00  0.00    -0.004 C 
HETATM    7  C7  UNL     1      17.950  34.192   8.094  1.00  0.00     0.006 C 
HETATM    8  C8  UNL     1      18.100  35.623   8.396  1.00  0.00     0.006 C 
HETATM    9  C9  UNL     1      16.887  36.479   8.270  1.00  0.00    -0.004 C 
HETATM   10  C10 UNL     1      17.080  37.685   7.404  1.00  0.00     0.037 C 
HETATM   11  C11 UNL     1      16.612  37.542   6.004  1.00  0.00     0.118 C 
HETATM   12  C12 UNL     1      16.327  36.144   5.572  1.00  0.00     0.032 C 
HETATM   13  C13 UNL     1      15.450  35.384   6.511  1.00  0.00     0.012 C 
HETATM   14  C14 UNL     1      15.617  35.706   7.950  1.00  0.00    -0.036 C 
HETATM   15  C15 UNL     1      14.461  36.613   8.399  1.00  0.00     0.016 C 
HETATM   16  C16 UNL     1      16.867  32.497   9.586  1.00  0.00     0.006 C 
HETATM   17  C17 UNL     1      17.537  31.301   8.894  1.00  0.00     0.011 C 
HETATM   18  C18 UNL     1      17.668  30.124   9.833  1.00  0.00    -0.007 C 
HETATM   19  C29 UNL     1      16.317  29.645  10.320  1.00  0.00     0.083 C 
HETATM   20  C30 UNL     1      15.325  30.684   9.909  1.00  0.00     0.136 C 
HETATM   21  O3  UNL     1      14.305  30.452   9.299  1.00  0.00    -0.297 OA
ENDROOT
BRANCH  18  22
HETATM   22  C19 UNL     1      18.251  28.990   8.985  1.00  0.00     0.005 C 
BRANCH  22  23
HETATM   23  C20 UNL     1      19.733  28.963   9.239  1.00  0.00     0.000 C 
BRANCH  23  24
HETATM   24  C21 UNL     1      20.123  29.677  10.529  1.00  0.00     0.002 C 
BRANCH  24  25
HETATM   25  C22 UNL     1      21.362  30.484  10.400  1.00  0.00     0.020 C 
BRANCH  25  26
HETATM   26  C23 UNL     1      22.120  30.490  11.695  1.00  0.00     0.125 C 
BRANCH  26  27
HETATM   27  N1  UNL     1      23.333  31.215  11.575  1.00  0.00    -0.352 N 
HETATM   28  C24 UNL     1      24.584  30.684  11.082  1.00  0.00     0.125 C 
HETATM   29  C25 UNL     1      24.942  31.539   9.871  1.00  0.00     0.020 C 
HETATM   30  C26 UNL     1      25.286  32.915  10.368  1.00  0.00     0.011 C 
HETATM   31  C27 UNL     1      24.707  33.261  11.700  1.00  0.00     0.103 C 
HETATM   32  C28 UNL     1      23.373  32.611  11.938  1.00  0.00     0.219 C 
HETATM   33  O2  UNL     1      22.387  33.208  12.404  1.00  0.00    -0.273 OA
ENDBRANCH  26  27
ENDBRANCH  25  26
ENDBRANCH  24  25
ENDBRANCH  23  24
ENDBRANCH  22  23
ENDBRANCH  18  22
BRANCH  11  34
HETATM   34  O1  UNL     1      15.520  38.395   5.715  1.00  0.00    -0.396 OA
ATOM     35  H1  UNL     1      14.743  37.911   5.462  1.00  0.00     0.210 HD
ENDBRANCH  11  34
TORSDOF 7
ENDMDL
MODEL 3
REMARK VINA RESULT: -9.214357600      3.834      5.580
REMARK  7 active torsions:
REMARK  status: ('A' for Active; 'I' for Inactive)
REMARK    1  A    between atoms: C11_11  and  O1_12 
REMARK    2  A    between atoms: C18_20  and  C19_21 
REMARK    3  A    between atoms: C19_21  and  C20_22 
REMARK    4  A    between atoms: C20_22  and  C21_23 
REMARK    5  A    between atoms: C21_23  and  C22_24 
REMARK    6  A    between atoms: C22_24  and  C23_25 
REMARK    7  A    between atoms: C23_25  and  N1_26 
ROOT
HETATM    1  C1  UNL     1      17.341  28.598   9.151  1.00  0.00     0.024 C 
HETATM    2  C2  UNL     1      17.603  29.985   9.764  1.00  0.00     0.021 C 
HETATM    3  C3  UNL     1      18.316  30.772   8.749  1.00  0.00     0.018 C 
HETATM    4  C4  UNL     1      18.036  32.255   8.739  1.00  0.00     0.007 C 
HETATM    5  C5  UNL     1      16.537  32.362   8.665  1.00  0.00    -0.002 C 
HETATM    6  C6  UNL     1      16.024  31.944  10.006  1.00  0.00    -0.004 C 
HETATM    7  C7  UNL     1      14.603  32.307  10.202  1.00  0.00     0.006 C 
HETATM    8  C8  UNL     1      13.829  32.692   9.012  1.00  0.00     0.006 C 
HETATM    9  C9  UNL     1      14.533  33.487   7.967  1.00  0.00    -0.004 C 
HETATM   10  C10 UNL     1      13.825  34.749   7.581  1.00  0.00     0.037 C 
HETATM   11  C11 UNL     1      14.310  35.979   8.251  1.00  0.00     0.118 C 
HETATM   12  C12 UNL     1      15.188  35.752   9.433  1.00  0.00     0.032 C 
HETATM   13  C13 UNL     1      16.311  34.800   9.182  1.00  0.00     0.012 C 
HETATM   14  C14 UNL     1      16.015  33.692   8.242  1.00  0.00    -0.036 C 
HETATM   15  C15 UNL     1      16.645  34.009   6.877  1.00  0.00     0.016 C 
HETATM   16  C16 UNL     1      16.325  30.491  10.291  1.00  0.00     0.006 C 
HETATM   17  C17 UNL     1      16.260  30.356  11.820  1.00  0.00     0.011 C 
HETATM   18  C18 UNL     1      16.665  28.971  12.269  1.00  0.00    -0.007 C 
HETATM   19  C29 UNL     1      18.087  28.648  11.863  1.00  0.00     0.083 C 
HETATM   20  C30 UNL     1      18.513  29.720  10.914  1.00  0.00     0.136 C 
HETATM   21  O3  UNL     1      19.530  30.368  11.025  1.00  0.00    -0.297 OA
ENDROOT
BRANCH  18  22
HETATM   22  C19 UNL     1      16.651  29.019  13.799  1.00  0.00     0.005 C 
BRANCH  22  23
HETATM   23  C20 UNL     1      17.683  28.038  14.283  1.00  0.00     0.000 C 
BRANCH  23  24
HETATM   24  C21 UNL     1      17.696  27.899  15.802  1.00  0.00     0.002 C 
BRANCH  24  25
HETATM   25  C22 UNL     1      18.914  28.467  16.432  1.00  0.00     0.020 C 
BRANCH  25  26
HETATM   26  C23 UNL     1      18.751  28.532  17.922  1.00  0.00     0.125 C 
BRANCH  26  27
HETATM   27  N1  UNL     1      19.327  29.717  18.448  1.00  0.00    -0.352 N 
HETATM   28  C24 UNL     1      20.157  30.645  17.714  1.00  0.00     0.125 C 
HETATM   29  C25 UNL     1      19.430  31.984  17.779  1.00  0.00     0.020 C 
HETATM   30  C26 UNL     1      19.488  32.468  19.201  1.00  0.00     0.011 C 
HETATM   31  C27 UNL     1      19.703  31.395  20.217  1.00  0.00     0.103 C 
HETATM   32  C28 UNL     1      19.078  30.087  19.820  1.00  0.00     0.219 C 
HETATM   33  O2  UNL     1      18.406  29.380  20.591  1.00  0.00    -0.273 OA
ENDBRANCH  26  27
ENDBRANCH  25  26
ENDBRANCH  24  25
ENDBRANCH  23  24
ENDBRANCH  22  23
ENDBRANCH  18  22
BRANCH  11  34
HETATM   34  O1  UNL     1      14.907  36.884   7.340  1.00  0.00    -0.396 OA
ATOM     35  H1  UNL     1      15.525  37.466   7.766  1.00  0.00     0.210 HD
ENDBRANCH  11  34
TORSDOF 7
ENDMDL
MODEL 4
REMARK VINA RESULT: -9.174866724      0.886      1.229
REMARK  7 active torsions:
REMARK  status: ('A' for Active; 'I' for Inactive)
REMARK    1  A    between atoms: C11_11  and  O1_12 
REMARK    2  A    between atoms: C18_20  and  C19_21 
REMARK    3  A    between atoms: C19_21  and  C20_22 
REMARK    4  A    between atoms: C20_22  and  C21_23 
REMARK    5  A    between atoms: C21_23  and  C22_24 
REMARK    6  A    between atoms: C22_24  and  C23_25 
REMARK    7  A    between atoms: C23_25  and  N1_26 
ROOT
HETATM    1  C1  UNL     1      17.135  28.805   9.033  1.00  0.00     0.024 C 
HETATM    2  C2  UNL     1      17.402  30.180   9.672  1.00  0.00     0.021 C 
HETATM    3  C3  UNL     1      18.146  30.972   8.684  1.00  0.00     0.018 C 
HETATM    4  C4  UNL     1      17.885  32.458   8.689  1.00  0.00     0.007 C 
HETATM    5  C5  UNL     1      16.390  32.587   8.585  1.00  0.00    -0.002 C 
HETATM    6  C6  UNL     1      15.843  32.156   9.908  1.00  0.00    -0.004 C 
HETATM    7  C7  UNL     1      14.423  32.535  10.080  1.00  0.00     0.006 C 
HETATM    8  C8  UNL     1      13.680  32.947   8.880  1.00  0.00     0.006 C 
HETATM    9  C9  UNL     1      14.416  33.748   7.862  1.00  0.00    -0.004 C 
HETATM   10  C10 UNL     1      13.732  35.024   7.479  1.00  0.00     0.037 C 
HETATM   11  C11 UNL     1      14.218  36.238   8.177  1.00  0.00     0.118 C 
HETATM   12  C12 UNL     1      15.068  35.982   9.374  1.00  0.00     0.032 C 
HETATM   13  C13 UNL     1      16.184  35.019   9.133  1.00  0.00     0.012 C 
HETATM   14  C14 UNL     1      15.894  33.929   8.170  1.00  0.00    -0.036 C 
HETATM   15  C15 UNL     1      16.557  34.257   6.824  1.00  0.00     0.016 C 
HETATM   16  C16 UNL     1      16.119  30.695  10.179  1.00  0.00     0.006 C 
HETATM   17  C17 UNL     1      16.020  30.539  11.704  1.00  0.00     0.011 C 
HETATM   18  C18 UNL     1      16.398  29.143  12.141  1.00  0.00    -0.007 C 
HETATM   19  C29 UNL     1      17.824  28.807  11.761  1.00  0.00     0.083 C 
HETATM   20  C30 UNL     1      18.283  29.887  10.837  1.00  0.00     0.136 C 
HETATM   21  O3  UNL     1      19.306  30.520  10.978  1.00  0.00    -0.297 OA
ENDROOT
BRANCH  18  22
HETATM   22  C19 UNL     1      16.352  29.169  13.671  1.00  0.00     0.005 C 
BRANCH  22  23
HETATM   23  C20 UNL     1      15.876  27.816  14.124  1.00  0.00     0.000 C 
BRANCH  23  24
HETATM   24  C21 UNL     1      14.359  27.741  14.265  1.00  0.00     0.002 C 
BRANCH  24  25
HETATM   25  C22 UNL     1      13.818  26.376  14.048  1.00  0.00     0.020 C 
BRANCH  25  26
HETATM   26  C23 UNL     1      12.778  26.055  15.081  1.00  0.00     0.125 C 
BRANCH  26  27
HETATM   27  N1  UNL     1      11.528  25.767  14.476  1.00  0.00    -0.352 N 
HETATM   28  C24 UNL     1      11.229  25.891  13.067  1.00  0.00     0.125 C 
HETATM   29  C25 UNL     1      10.808  24.497  12.615  1.00  0.00     0.020 C 
HETATM   30  C26 UNL     1       9.485  24.186  13.257  1.00  0.00     0.011 C 
HETATM   31  C27 UNL     1       9.195  24.965  14.497  1.00  0.00     0.103 C 
HETATM   32  C28 UNL     1      10.434  25.285  15.284  1.00  0.00     0.219 C 
HETATM   33  O2  UNL     1      10.525  25.149  16.517  1.00  0.00    -0.273 OA
ENDBRANCH  26  27
ENDBRANCH  25  26
ENDBRANCH  24  25
ENDBRANCH  23  24
ENDBRANCH  22  23
ENDBRANCH  18  22
BRANCH  11  34
HETATM   34  O1  UNL     1      14.846  37.148   7.293  1.00  0.00    -0.396 OA
ATOM     35  H1  UNL     1      15.119  36.731   6.484  1.00  0.00     0.210 HD
ENDBRANCH  11  34
TORSDOF 7
ENDMDL
MODEL 5
REMARK VINA RESULT: -8.622029785      3.799      5.028
REMARK  7 active torsions:
REMARK  status: ('A' for Active; 'I' for Inactive)
REMARK    1  A    between atoms: C11_11  and  O1_12 
REMARK    2  A    between atoms: C18_20  and  C19_21 
REMARK    3  A    between atoms: C19_21  and  C20_22 
REMARK    4  A    between atoms: C20_22  and  C21_23 
REMARK    5  A    between atoms: C21_23  and  C22_24 
REMARK    6  A    between atoms: C22_24  and  C23_25 
REMARK    7  A    between atoms: C23_25  and  N1_26 
ROOT
HETATM    1  C1  UNL     1      17.441  28.600   9.093  1.00  0.00     0.024 C 
HETATM    2  C2  UNL     1      17.675  29.983   9.726  1.00  0.00     0.021 C 
HETATM    3  C3  UNL     1      18.370  30.800   8.722  1.00  0.00     0.018 C 
HETATM    4  C4  UNL     1      18.058  32.276   8.734  1.00  0.00     0.007 C 
HETATM    5  C5  UNL     1      16.557  32.354   8.665  1.00  0.00    -0.002 C 
HETATM    6  C6  UNL     1      16.056  31.905  10.000  1.00  0.00    -0.004 C 
HETATM    7  C7  UNL     1      14.627  32.234  10.204  1.00  0.00     0.006 C 
HETATM    8  C8  UNL     1      13.844  32.621   9.022  1.00  0.00     0.006 C 
HETATM    9  C9  UNL     1      14.528  33.446   7.988  1.00  0.00    -0.004 C 
HETATM   10  C10 UNL     1      13.792  34.698   7.622  1.00  0.00     0.037 C 
HETATM   11  C11 UNL     1      14.253  35.929   8.309  1.00  0.00     0.118 C 
HETATM   12  C12 UNL     1      15.138  35.702   9.486  1.00  0.00     0.032 C 
HETATM   13  C13 UNL     1      16.280  34.778   9.219  1.00  0.00     0.012 C 
HETATM   14  C14 UNL     1      16.006  33.678   8.262  1.00  0.00    -0.036 C 
HETATM   15  C15 UNL     1      16.626  34.029   6.901  1.00  0.00     0.016 C 
HETATM   16  C16 UNL     1      16.388  30.454  10.263  1.00  0.00     0.006 C 
HETATM   17  C17 UNL     1      16.329  30.295  11.789  1.00  0.00     0.011 C 
HETATM   18  C18 UNL     1      16.765  28.912  12.216  1.00  0.00    -0.007 C 
HETATM   19  C29 UNL     1      18.192  28.625  11.804  1.00  0.00     0.083 C 
HETATM   20  C30 UNL     1      18.593  29.721  10.870  1.00  0.00     0.136 C 
HETATM   21  O3  UNL     1      19.596  30.388  10.988  1.00  0.00    -0.297 OA
ENDROOT
BRANCH  18  22
HETATM   22  C19 UNL     1      16.753  28.937  13.747  1.00  0.00     0.005 C 
BRANCH  22  23
HETATM   23  C20 UNL     1      17.735  27.899  14.215  1.00  0.00     0.000 C 
BRANCH  23  24
HETATM   24  C21 UNL     1      17.831  27.823  15.736  1.00  0.00     0.002 C 
BRANCH  24  25
HETATM   25  C22 UNL     1      18.878  28.711  16.301  1.00  0.00     0.020 C 
BRANCH  25  26
HETATM   26  C23 UNL     1      19.275  28.246  17.672  1.00  0.00     0.125 C 
BRANCH  26  27
HETATM   27  N1  UNL     1      18.487  28.872  18.672  1.00  0.00    -0.352 N 
HETATM   28  C24 UNL     1      17.181  28.432  19.110  1.00  0.00     0.125 C 
HETATM   29  C25 UNL     1      17.324  28.149  20.601  1.00  0.00     0.020 C 
HETATM   30  C26 UNL     1      17.535  29.464  21.299  1.00  0.00     0.011 C 
HETATM   31  C27 UNL     1      18.075  30.552  20.431  1.00  0.00     0.103 C 
HETATM   32  C28 UNL     1      18.993  30.035  19.358  1.00  0.00     0.219 C 
HETATM   33  O2  UNL     1      20.089  30.552  19.078  1.00  0.00    -0.273 OA
ENDBRANCH  26  27
ENDBRANCH  25  26
ENDBRANCH  24  25
ENDBRANCH  23  24
ENDBRANCH  22  23
ENDBRANCH  18  22
BRANCH  11  34
HETATM   34  O1  UNL     1      14.829  36.859   7.411  1.00  0.00    -0.396 OA
ATOM     35  H1  UNL     1      15.540  37.348   7.808  1.00  0.00     0.210 HD
ENDBRANCH  11  34
TORSDOF 7
ENDMDL
