MODEL 1
REMARK VINA RESULT: -6.940621184      0.000      0.000
REMARK  4 active torsions:
REMARK  status: ('A' for Active; 'I' for Inactive)
REMARK    1  A    between atoms: O1_3  and  C2_4 
REMARK    2  A    between atoms: C6_9  and  N2_10 
REMARK    3  A    between atoms: C6_9  and  C7_14 
REMARK       I    between atoms: C7_14  and  N3_16 
REMARK       I    between atoms: N3_16  and  C8_18 
REMARK    4  A    between atoms: N5_20  and  N6_22 
ROOT
HETATM    1  N1  UNL     1     -14.163  60.091 -34.533  1.00  0.00    -0.164 NA
HETATM    2  C1  UNL     1     -15.267  60.027 -34.194  1.00  0.00     0.234 C 
HETATM    3  O1  UNL     1     -16.596  59.957 -33.809  1.00  0.00    -0.242 OA
ENDROOT
BRANCH   3   4
HETATM    4  C2  UNL     1     -17.554  60.336 -34.766  1.00  0.00     0.116 C 
HETATM    5  C3  UNL     1     -17.401  61.366 -35.577  1.00  0.00     0.087 C 
HETATM    6  C4  UNL     1     -18.566  61.491 -36.447  1.00  0.00     0.155 C 
HETATM    7  O2  UNL     1     -18.991  62.474 -37.041  1.00  0.00    -0.293 OA
HETATM    8  C5  UNL     1     -19.148  60.123 -36.457  1.00  0.00     0.139 C 
HETATM    9  C6  UNL     1     -18.828  59.698 -35.029  1.00  0.00     0.259 C 
BRANCH   9  10
HETATM   10  N2  UNL     1     -19.823  60.353 -34.169  1.00  0.00    -0.055 N 
ATOM     11  H23 UNL     1     -19.422  61.079 -33.574  1.00  0.00     0.276 HD
ATOM     12  H22 UNL     1     -20.468  60.950 -34.686  1.00  0.00     0.276 HD
ATOM     13  H21 UNL     1     -20.293  59.618 -33.641  1.00  0.00     0.276 HD
ENDBRANCH   9  10
BRANCH   9  14
HETATM   14  C7  UNL     1     -18.867  58.255 -34.851  1.00  0.00     0.267 C 
HETATM   15  O3  UNL     1     -19.883  57.680 -34.405  1.00  0.00    -0.270 OA
HETATM   16  N3  UNL     1     -17.731  57.469 -35.186  1.00  0.00    -0.297 N 
HETATM   17  C8  UNL     1     -17.701  56.065 -35.037  1.00  0.00     0.209 C 
ATOM     18  H3  UNL     1     -16.902  57.940 -35.549  1.00  0.00     0.171 HD
HETATM   19  N4  UNL     1     -18.850  55.421 -34.535  1.00  0.00    -0.062 NA
HETATM   20  N5  UNL     1     -16.659  55.400 -35.350  1.00  0.00    -0.280 N 
ATOM     21  H5  UNL     1     -15.854  55.912 -35.708  1.00  0.00     0.189 HD
BRANCH  20  22
HETATM   22  N6  UNL     1     -16.555  54.024 -35.234  1.00  0.00    -0.343 N 
ATOM     23  H62 UNL     1     -16.056  53.667 -34.419  1.00  0.00     0.176 HD
ATOM     24  H61 UNL     1     -16.942  53.364 -35.907  1.00  0.00     0.176 HD
ENDBRANCH  20  22
ENDBRANCH   9  14
ENDBRANCH   3   4
TORSDOF 4
ENDMDL
MODEL 2
REMARK VINA RESULT: -6.874340394      3.668      5.401
REMARK  4 active torsions:
REMARK  status: ('A' for Active; 'I' for Inactive)
REMARK    1  A    between atoms: O1_3  and  C2_4 
REMARK    2  A    between atoms: C6_9  and  N2_10 
REMARK    3  A    between atoms: C6_9  and  C7_14 
REMARK       I    between atoms: C7_14  and  N3_16 
REMARK       I    between atoms: N3_16  and  C8_18 
REMARK    4  A    between atoms: N5_20  and  N6_22 
ROOT
HETATM    1  N1  UNL     1     -18.196  60.558 -35.049  1.00  0.00    -0.164 NA
HETATM    2  C1  UNL     1     -19.231  60.051 -34.958  1.00  0.00     0.234 C 
HETATM    3  O1  UNL     1     -20.460  59.423 -34.842  1.00  0.00    -0.242 OA
ENDROOT
BRANCH   3   4
HETATM    4  C2  UNL     1     -20.448  58.071 -34.456  1.00  0.00     0.116 C 
HETATM    5  C3  UNL     1     -20.383  57.677 -33.198  1.00  0.00     0.087 C 
HETATM    6  C4  UNL     1     -20.389  56.219 -33.134  1.00  0.00     0.155 C 
HETATM    7  O2  UNL     1     -19.975  55.477 -32.251  1.00  0.00    -0.293 OA
HETATM    8  C5  UNL     1     -21.027  55.812 -34.413  1.00  0.00     0.139 C 
HETATM    9  C6  UNL     1     -20.500  56.913 -35.325  1.00  0.00     0.259 C 
BRANCH   9  10
HETATM   10  N2  UNL     1     -19.112  56.554 -35.647  1.00  0.00    -0.055 N 
ATOM     11  H23 UNL     1     -18.915  56.575 -36.648  1.00  0.00     0.276 HD
ATOM     12  H22 UNL     1     -18.438  57.266 -35.366  1.00  0.00     0.276 HD
ATOM     13  H21 UNL     1     -18.932  55.643 -35.224  1.00  0.00     0.276 HD
ENDBRANCH   9  10
BRANCH   9  14
HETATM   14  C7  UNL     1     -21.287  57.061 -36.538  1.00  0.00     0.267 C 
HETATM   15  O3  UNL     1     -22.469  56.660 -36.602  1.00  0.00    -0.270 OA
HETATM   16  N3  UNL     1     -20.713  57.673 -37.685  1.00  0.00    -0.297 N 
HETATM   17  C8  UNL     1     -21.420  57.847 -38.895  1.00  0.00     0.209 C 
ATOM     18  H3  UNL     1     -19.748  57.999 -37.632  1.00  0.00     0.171 HD
HETATM   19  N4  UNL     1     -22.753  57.394 -38.961  1.00  0.00    -0.062 NA
HETATM   20  N5  UNL     1     -20.864  58.402 -39.900  1.00  0.00    -0.280 N 
ATOM     21  H5  UNL     1     -19.897  58.712 -39.801  1.00  0.00     0.189 HD
BRANCH  20  22
HETATM   22  N6  UNL     1     -21.492  58.608 -41.116  1.00  0.00    -0.343 N 
ATOM     23  H62 UNL     1     -21.883  59.536 -41.281  1.00  0.00     0.176 HD
ATOM     24  H61 UNL     1     -21.581  57.896 -41.840  1.00  0.00     0.176 HD
ENDBRANCH  20  22
ENDBRANCH   9  14
ENDBRANCH   3   4
TORSDOF 4
ENDMDL
MODEL 3
REMARK VINA RESULT: -6.697469145      3.455      6.079
REMARK  4 active torsions:
REMARK  status: ('A' for Active; 'I' for Inactive)
REMARK    1  A    between atoms: O1_3  and  C2_4 
REMARK    2  A    between atoms: C6_9  and  N2_10 
REMARK    3  A    between atoms: C6_9  and  C7_14 
REMARK       I    between atoms: C7_14  and  N3_16 
REMARK       I    between atoms: N3_16  and  C8_18 
REMARK    4  A    between atoms: N5_20  and  N6_22 
ROOT
HETATM    1  N1  UNL     1     -22.548  56.636 -38.120  1.00  0.00    -0.164 NA
HETATM    2  C1  UNL     1     -21.751  57.313 -37.625  1.00  0.00     0.234 C 
HETATM    3  O1  UNL     1     -20.801  58.112 -37.012  1.00  0.00    -0.242 OA
ENDROOT
BRANCH   3   4
HETATM    4  C2  UNL     1     -20.568  57.885 -35.645  1.00  0.00     0.116 C 
HETATM    5  C3  UNL     1     -20.780  56.723 -35.056  1.00  0.00     0.087 C 
HETATM    6  C4  UNL     1     -20.442  56.815 -33.639  1.00  0.00     0.155 C 
HETATM    7  O2  UNL     1     -20.832  56.131 -32.700  1.00  0.00    -0.293 OA
HETATM    8  C5  UNL     1     -19.490  57.954 -33.577  1.00  0.00     0.139 C 
HETATM    9  C6  UNL     1     -20.076  58.839 -34.671  1.00  0.00     0.259 C 
BRANCH   9  10
HETATM   10  N2  UNL     1     -21.249  59.500 -34.085  1.00  0.00    -0.055 N 
ATOM     11  H23 UNL     1     -22.089  59.406 -34.656  1.00  0.00     0.276 HD
ATOM     12  H22 UNL     1     -21.603  59.026 -33.254  1.00  0.00     0.276 HD
ATOM     13  H21 UNL     1     -20.990  60.471 -33.911  1.00  0.00     0.276 HD
ENDBRANCH   9  10
BRANCH   9  14
HETATM   14  C7  UNL     1     -19.126  59.822 -35.166  1.00  0.00     0.267 C 
HETATM   15  O3  UNL     1     -17.921  59.791 -34.833  1.00  0.00    -0.270 OA
HETATM   16  N3  UNL     1     -19.563  60.848 -36.047  1.00  0.00    -0.297 N 
HETATM   17  C8  UNL     1     -18.694  61.834 -36.564  1.00  0.00     0.209 C 
ATOM     18  H3  UNL     1     -20.546  60.873 -36.318  1.00  0.00     0.171 HD
HETATM   19  N4  UNL     1     -17.336  61.794 -36.186  1.00  0.00    -0.062 NA
HETATM   20  N5  UNL     1     -19.130  62.737 -37.352  1.00  0.00    -0.280 N 
ATOM     21  H5  UNL     1     -20.120  62.723 -37.594  1.00  0.00     0.189 HD
BRANCH  20  22
HETATM   22  N6  UNL     1     -18.341  63.734 -37.899  1.00  0.00    -0.343 N 
ATOM     23  H62 UNL     1     -18.811  64.427 -38.482  1.00  0.00     0.176 HD
ATOM     24  H61 UNL     1     -17.335  63.811 -37.752  1.00  0.00     0.176 HD
ENDBRANCH  20  22
ENDBRANCH   9  14
ENDBRANCH   3   4
TORSDOF 4
ENDMDL
MODEL 4
REMARK VINA RESULT: -6.562702787      3.414      4.864
REMARK  4 active torsions:
REMARK  status: ('A' for Active; 'I' for Inactive)
REMARK    1  A    between atoms: O1_3  and  C2_4 
REMARK    2  A    between atoms: C6_9  and  N2_10 
REMARK    3  A    between atoms: C6_9  and  C7_14 
REMARK       I    between atoms: C7_14  and  N3_16 
REMARK       I    between atoms: N3_16  and  C8_18 
REMARK    4  A    between atoms: N5_20  and  N6_22 
ROOT
HETATM    1  N1  UNL     1     -20.544  54.777 -33.531  1.00  0.00    -0.164 NA
HETATM    2  C1  UNL     1     -19.841  55.362 -34.239  1.00  0.00     0.234 C 
HETATM    3  O1  UNL     1     -19.009  56.084 -35.078  1.00  0.00    -0.242 OA
ENDROOT
BRANCH   3   4
HETATM    4  C2  UNL     1     -19.113  57.485 -35.023  1.00  0.00     0.116 C 
HETATM    5  C3  UNL     1     -18.117  58.274 -34.667  1.00  0.00     0.087 C 
HETATM    6  C4  UNL     1     -18.546  59.668 -34.714  1.00  0.00     0.155 C 
HETATM    7  O2  UNL     1     -18.092  60.642 -34.124  1.00  0.00    -0.293 OA
HETATM    8  C5  UNL     1     -19.690  59.654 -35.662  1.00  0.00     0.139 C 
HETATM    9  C6  UNL     1     -20.280  58.288 -35.332  1.00  0.00     0.259 C 
BRANCH   9  10
HETATM   10  N2  UNL     1     -21.033  58.453 -34.082  1.00  0.00    -0.055 N 
ATOM     11  H23 UNL     1     -21.030  57.615 -33.499  1.00  0.00     0.276 HD
ATOM     12  H22 UNL     1     -20.574  59.076 -33.418  1.00  0.00     0.276 HD
ATOM     13  H21 UNL     1     -21.972  58.760 -34.336  1.00  0.00     0.276 HD
ENDBRANCH   9  10
BRANCH   9  14
HETATM   14  C7  UNL     1     -21.141  57.779 -36.388  1.00  0.00     0.267 C 
HETATM   15  O3  UNL     1     -22.227  57.217 -36.129  1.00  0.00    -0.270 OA
HETATM   16  N3  UNL     1     -20.753  57.917 -37.747  1.00  0.00    -0.297 N 
HETATM   17  C8  UNL     1     -21.541  57.445 -38.820  1.00  0.00     0.209 C 
ATOM     18  H3  UNL     1     -19.867  58.376 -37.958  1.00  0.00     0.171 HD
HETATM   19  N4  UNL     1     -22.765  56.812 -38.523  1.00  0.00    -0.062 NA
HETATM   20  N5  UNL     1     -21.153  57.591 -40.026  1.00  0.00    -0.280 N 
ATOM     21  H5  UNL     1     -20.260  58.055 -40.189  1.00  0.00     0.189 HD
BRANCH  20  22
HETATM   22  N6  UNL     1     -21.869  57.157 -41.128  1.00  0.00    -0.343 N 
ATOM     23  H62 UNL     1     -21.333  56.766 -41.903  1.00  0.00     0.176 HD
ATOM     24  H61 UNL     1     -22.885  57.206 -41.204  1.00  0.00     0.176 HD
ENDBRANCH  20  22
ENDBRANCH   9  14
ENDBRANCH   3   4
TORSDOF 4
ENDMDL
MODEL 5
REMARK VINA RESULT: -6.489903511      2.150      3.675
REMARK  4 active torsions:
REMARK  status: ('A' for Active; 'I' for Inactive)
REMARK    1  A    between atoms: O1_3  and  C2_4 
REMARK    2  A    between atoms: C6_9  and  N2_10 
REMARK    3  A    between atoms: C6_9  and  C7_14 
REMARK       I    between atoms: C7_14  and  N3_16 
REMARK       I    between atoms: N3_16  and  C8_18 
REMARK    4  A    between atoms: N5_20  and  N6_22 
ROOT
HETATM    1  N1  UNL     1     -17.839  63.398 -37.530  1.00  0.00    -0.164 NA
HETATM    2  C1  UNL     1     -17.730  62.289 -37.219  1.00  0.00     0.234 C 
HETATM    3  O1  UNL     1     -17.580  60.966 -36.835  1.00  0.00    -0.242 OA
ENDROOT
BRANCH   3   4
HETATM    4  C2  UNL     1     -16.447  60.656 -36.061  1.00  0.00     0.116 C 
HETATM    5  C3  UNL     1     -15.391  61.442 -35.973  1.00  0.00     0.087 C 
HETATM    6  C4  UNL     1     -14.394  60.838 -35.095  1.00  0.00     0.155 C 
HETATM    7  O2  UNL     1     -13.184  61.026 -35.047  1.00  0.00    -0.293 OA
HETATM    8  C5  UNL     1     -15.187  59.914 -34.243  1.00  0.00     0.139 C 
HETATM    9  C6  UNL     1     -16.238  59.470 -35.255  1.00  0.00     0.259 C 
BRANCH   9  10
HETATM   10  N2  UNL     1     -15.589  58.473 -36.116  1.00  0.00    -0.055 N 
ATOM     11  H23 UNL     1     -14.818  58.857 -36.663  1.00  0.00     0.276 HD
ATOM     12  H22 UNL     1     -15.048  57.783 -35.593  1.00  0.00     0.276 HD
ATOM     13  H21 UNL     1     -16.319  58.055 -36.692  1.00  0.00     0.276 HD
ENDBRANCH   9  10
BRANCH   9  14
HETATM   14  C7  UNL     1     -17.422  58.911 -34.624  1.00  0.00     0.267 C 
HETATM   15  O3  UNL     1     -18.082  59.560 -33.783  1.00  0.00    -0.270 OA
HETATM   16  N3  UNL     1     -17.852  57.599 -34.960  1.00  0.00    -0.297 N 
HETATM   17  C8  UNL     1     -18.992  56.995 -34.384  1.00  0.00     0.209 C 
ATOM     18  H3  UNL     1     -17.313  57.070 -35.645  1.00  0.00     0.171 HD
HETATM   19  N4  UNL     1     -19.732  57.732 -33.437  1.00  0.00    -0.062 NA
HETATM   20  N5  UNL     1     -19.340  55.814 -34.716  1.00  0.00    -0.280 N 
ATOM     21  H5  UNL     1     -18.770  55.323 -35.405  1.00  0.00     0.189 HD
BRANCH  20  22
HETATM   22  N6  UNL     1     -20.443  55.158 -34.198  1.00  0.00    -0.343 N 
ATOM     23  H62 UNL     1     -20.402  54.892 -33.213  1.00  0.00     0.176 HD
ATOM     24  H61 UNL     1     -21.277  54.931 -34.738  1.00  0.00     0.176 HD
ENDBRANCH  20  22
ENDBRANCH   9  14
ENDBRANCH   3   4
TORSDOF 4
ENDMDL
