MODEL 1
REMARK VINA RESULT: -6.687808130      0.000      0.000
REMARK  8 active torsions:
REMARK  status: ('A' for Active; 'I' for Inactive)
REMARK    1  A    between atoms: C2_2  and  O2_4 
REMARK    2  A    between atoms: O2_4  and  C3_5 
REMARK    3  A    between atoms: C3_5  and  C4_6 
REMARK    4  A    between atoms: C5_7  and  C6_8 
REMARK    5  A    between atoms: C7_9  and  C8_10 
REMARK    6  A    between atoms: C8_10  and  N3_16 
REMARK    7  A    between atoms: N1_11  and  N2_13 
REMARK    8  A    between atoms: N3_16  and  N4_18 
ROOT
HETATM    1  C6  UNL     1     -18.251  57.759 -34.841  1.00  0.00     0.133 A 
HETATM    2  C7  UNL     1     -19.587  58.033 -34.895  1.00  0.00     0.129 A 
HETATM    3  N5  UNL     1     -20.192  56.866 -35.208  1.00  0.00    -0.278 N 
ATOM      4  H5  UNL     1     -21.198  56.741 -35.323  1.00  0.00     0.184 HD
HETATM    5  N6  UNL     1     -19.288  55.910 -35.342  1.00  0.00    -0.019 NA
HETATM    6  N7  UNL     1     -18.095  56.438 -35.121  1.00  0.00    -0.270 N 
HETATM    7  C9  UNL     1     -16.817  55.753 -35.163  1.00  0.00     0.176 C 
ENDROOT
BRANCH   2   8
HETATM    8  C8  UNL     1     -20.279  59.280 -34.677  1.00  0.00     0.165 C 
HETATM    9  N1  UNL     1     -20.249  60.180 -35.583  1.00  0.00    -0.289 N 
ATOM     10  H1  UNL     1     -20.744  61.053 -35.407  1.00  0.00     0.188 HD
BRANCH   9  11
HETATM   11  N2  UNL     1     -19.577  60.038 -36.798  1.00  0.00    -0.344 N 
ATOM     12  H22 UNL     1     -19.963  59.370 -37.465  1.00  0.00     0.176 HD
ATOM     13  H21 UNL     1     -18.737  60.558 -37.048  1.00  0.00     0.176 HD
ENDBRANCH   9  11
BRANCH   8  14
HETATM   14  N3  UNL     1     -20.990  59.530 -33.485  1.00  0.00    -0.289 N 
ATOM     15  H3  UNL     1     -20.495  59.470 -32.595  1.00  0.00     0.188 HD
BRANCH  14  16
HETATM   16  N4  UNL     1     -22.365  59.860 -33.482  1.00  0.00    -0.344 N 
ATOM     17  H42 UNL     1     -22.993  59.290 -34.049  1.00  0.00     0.176 HD
ATOM     18  H41 UNL     1     -22.736  60.638 -32.938  1.00  0.00     0.176 HD
ENDBRANCH  14  16
ENDBRANCH   8  14
ENDBRANCH   2   8
BRANCH   1  19
HETATM   19  C5  UNL     1     -17.227  58.719 -34.538  1.00  0.00    -0.043 C 
HETATM   20  C4  UNL     1     -16.375  59.534 -34.266  1.00  0.00    -0.073 C 
BRANCH  20  21
HETATM   21  C3  UNL     1     -15.354  60.546 -33.923  1.00  0.00     0.272 C 
BRANCH  21  22
HETATM   22  O2  UNL     1     -14.171  60.166 -34.596  1.00  0.00    -0.310 OA
BRANCH  22  23
HETATM   23  C2  UNL     1     -13.583  61.110 -35.426  1.00  0.00     0.255 C 
HETATM   24  C1  UNL     1     -14.390  61.944 -36.370  1.00  0.00     0.126 C 
HETATM   25  O1  UNL     1     -12.335  61.314 -35.427  1.00  0.00    -0.266 OA
ENDBRANCH  22  23
ENDBRANCH  21  22
ENDBRANCH  20  21
ENDBRANCH   1  19
TORSDOF 8
ENDMDL
MODEL 2
REMARK VINA RESULT: -6.558306525      0.614      1.662
REMARK  8 active torsions:
REMARK  status: ('A' for Active; 'I' for Inactive)
REMARK    1  A    between atoms: C2_2  and  O2_4 
REMARK    2  A    between atoms: O2_4  and  C3_5 
REMARK    3  A    between atoms: C3_5  and  C4_6 
REMARK    4  A    between atoms: C5_7  and  C6_8 
REMARK    5  A    between atoms: C7_9  and  C8_10 
REMARK    6  A    between atoms: C8_10  and  N3_16 
REMARK    7  A    between atoms: N1_11  and  N2_13 
REMARK    8  A    between atoms: N3_16  and  N4_18 
ROOT
HETATM    1  C6  UNL     1     -18.296  57.761 -35.008  1.00  0.00     0.133 A 
HETATM    2  C7  UNL     1     -19.553  58.134 -35.388  1.00  0.00     0.129 A 
HETATM    3  N5  UNL     1     -20.220  56.987 -35.641  1.00  0.00    -0.278 N 
ATOM      4  H5  UNL     1     -21.191  56.930 -35.948  1.00  0.00     0.184 HD
HETATM    5  N6  UNL     1     -19.428  55.948 -35.433  1.00  0.00    -0.019 NA
HETATM    6  N7  UNL     1     -18.247  56.403 -35.046  1.00  0.00    -0.270 N 
HETATM    7  C9  UNL     1     -17.076  55.615 -34.710  1.00  0.00     0.176 C 
ENDROOT
BRANCH   2   8
HETATM    8  C8  UNL     1     -20.121  59.455 -35.514  1.00  0.00     0.165 C 
HETATM    9  N1  UNL     1     -20.999  59.842 -34.672  1.00  0.00    -0.289 N 
ATOM     10  H1  UNL     1     -21.387  60.779 -34.780  1.00  0.00     0.188 HD
BRANCH   9  11
HETATM   11  N2  UNL     1     -21.459  59.059 -33.612  1.00  0.00    -0.344 N 
ATOM     12  H22 UNL     1     -20.775  58.461 -33.148  1.00  0.00     0.176 HD
ATOM     13  H21 UNL     1     -22.424  59.056 -33.284  1.00  0.00     0.176 HD
ENDBRANCH   9  11
BRANCH   8  14
HETATM   14  N3  UNL     1     -19.729  60.329 -36.549  1.00  0.00    -0.289 N 
ATOM     15  H3  UNL     1     -19.706  59.981 -37.507  1.00  0.00     0.188 HD
BRANCH  14  16
HETATM   16  N4  UNL     1     -19.366  61.674 -36.302  1.00  0.00    -0.344 N 
ATOM     17  H42 UNL     1     -18.495  61.848 -35.800  1.00  0.00     0.176 HD
ATOM     18  H41 UNL     1     -19.943  62.458 -36.607  1.00  0.00     0.176 HD
ENDBRANCH  14  16
ENDBRANCH   8  14
ENDBRANCH   2   8
BRANCH   1  19
HETATM   19  C5  UNL     1     -17.245  58.668 -34.643  1.00  0.00    -0.043 C 
HETATM   20  C4  UNL     1     -16.369  59.437 -34.318  1.00  0.00    -0.073 C 
BRANCH  20  21
HETATM   21  C3  UNL     1     -15.318  60.390 -33.907  1.00  0.00     0.272 C 
BRANCH  21  22
HETATM   22  O2  UNL     1     -14.170  60.075 -34.668  1.00  0.00    -0.310 OA
BRANCH  22  23
HETATM   23  C2  UNL     1     -13.621  61.091 -35.438  1.00  0.00     0.255 C 
HETATM   24  C1  UNL     1     -14.444  61.881 -36.405  1.00  0.00     0.126 C 
HETATM   25  O1  UNL     1     -12.398  61.401 -35.361  1.00  0.00    -0.266 OA
ENDBRANCH  22  23
ENDBRANCH  21  22
ENDBRANCH  20  21
ENDBRANCH   1  19
TORSDOF 8
ENDMDL
MODEL 3
REMARK VINA RESULT: -6.553052128      1.409      3.525
REMARK  8 active torsions:
REMARK  status: ('A' for Active; 'I' for Inactive)
REMARK    1  A    between atoms: C2_2  and  O2_4 
REMARK    2  A    between atoms: O2_4  and  C3_5 
REMARK    3  A    between atoms: C3_5  and  C4_6 
REMARK    4  A    between atoms: C5_7  and  C6_8 
REMARK    5  A    between atoms: C7_9  and  C8_10 
REMARK    6  A    between atoms: C8_10  and  N3_16 
REMARK    7  A    between atoms: N1_11  and  N2_13 
REMARK    8  A    between atoms: N3_16  and  N4_18 
ROOT
HETATM    1  C6  UNL     1     -18.500  59.032 -35.231  1.00  0.00     0.133 A 
HETATM    2  C7  UNL     1     -18.928  57.736 -35.242  1.00  0.00     0.129 A 
HETATM    3  N5  UNL     1     -20.148  57.753 -35.819  1.00  0.00    -0.278 N 
ATOM      4  H5  UNL     1     -20.734  56.933 -35.974  1.00  0.00     0.184 HD
HETATM    5  N6  UNL     1     -20.473  58.991 -36.155  1.00  0.00    -0.019 NA
HETATM    6  N7  UNL     1     -19.476  59.787 -35.802  1.00  0.00    -0.270 N 
HETATM    7  C9  UNL     1     -19.403  61.224 -35.979  1.00  0.00     0.176 C 
ENDROOT
BRANCH   2   8
HETATM    8  C8  UNL     1     -18.269  56.546 -34.756  1.00  0.00     0.165 C 
HETATM    9  N1  UNL     1     -18.823  55.856 -33.837  1.00  0.00    -0.289 N 
ATOM     10  H1  UNL     1     -18.340  55.019 -33.509  1.00  0.00     0.188 HD
BRANCH   9  11
HETATM   11  N2  UNL     1     -20.050  56.177 -33.254  1.00  0.00    -0.344 N 
ATOM     12  H22 UNL     1     -20.755  56.595 -33.860  1.00  0.00     0.176 HD
ATOM     13  H21 UNL     1     -20.272  56.018 -32.271  1.00  0.00     0.176 HD
ENDBRANCH   9  11
BRANCH   8  14
HETATM   14  N3  UNL     1     -17.026  56.129 -35.275  1.00  0.00    -0.289 N 
ATOM     15  H3  UNL     1     -16.401  56.827 -35.678  1.00  0.00     0.188 HD
BRANCH  14  16
HETATM   16  N4  UNL     1     -16.618  54.775 -35.255  1.00  0.00    -0.344 N 
ATOM     17  H42 UNL     1     -17.015  54.167 -34.538  1.00  0.00     0.176 HD
ATOM     18  H41 UNL     1     -15.949  54.399 -35.928  1.00  0.00     0.176 HD
ENDBRANCH  14  16
ENDBRANCH   8  14
ENDBRANCH   2   8
BRANCH   1  19
HETATM   19  C5  UNL     1     -17.241  59.477 -34.704  1.00  0.00    -0.043 C 
HETATM   20  C4  UNL     1     -16.182  59.870 -34.269  1.00  0.00    -0.073 C 
BRANCH  20  21
HETATM   21  C3  UNL     1     -14.886  60.365 -33.761  1.00  0.00     0.272 C 
BRANCH  21  22
HETATM   22  O2  UNL     1     -13.961  60.231 -34.822  1.00  0.00    -0.310 OA
BRANCH  22  23
HETATM   23  C2  UNL     1     -13.474  61.400 -35.389  1.00  0.00     0.255 C 
HETATM   24  C1  UNL     1     -14.121  62.027 -36.583  1.00  0.00     0.126 C 
HETATM   25  O1  UNL     1     -12.458  61.994 -34.927  1.00  0.00    -0.266 OA
ENDBRANCH  22  23
ENDBRANCH  21  22
ENDBRANCH  20  21
ENDBRANCH   1  19
TORSDOF 8
ENDMDL
MODEL 4
REMARK VINA RESULT: -6.175054698      3.916      6.253
REMARK  8 active torsions:
REMARK  status: ('A' for Active; 'I' for Inactive)
REMARK    1  A    between atoms: C2_2  and  O2_4 
REMARK    2  A    between atoms: O2_4  and  C3_5 
REMARK    3  A    between atoms: C3_5  and  C4_6 
REMARK    4  A    between atoms: C5_7  and  C6_8 
REMARK    5  A    between atoms: C7_9  and  C8_10 
REMARK    6  A    between atoms: C8_10  and  N3_16 
REMARK    7  A    between atoms: N1_11  and  N2_13 
REMARK    8  A    between atoms: N3_16  and  N4_18 
ROOT
HETATM    1  C6  UNL     1     -17.675  60.729 -35.872  1.00  0.00     0.133 A 
HETATM    2  C7  UNL     1     -16.361  60.359 -35.918  1.00  0.00     0.129 A 
HETATM    3  N5  UNL     1     -15.731  61.315 -36.634  1.00  0.00    -0.278 N 
ATOM      4  H5  UNL     1     -14.734  61.324 -36.847  1.00  0.00     0.184 HD
HETATM    5  N6  UNL     1     -16.597  62.237 -37.018  1.00  0.00    -0.019 NA
HETATM    6  N7  UNL     1     -17.792  61.895 -36.562  1.00  0.00    -0.270 N 
HETATM    7  C9  UNL     1     -19.036  62.618 -36.746  1.00  0.00     0.176 C 
ENDROOT
BRANCH   2   8
HETATM    8  C8  UNL     1     -15.712  59.204 -35.345  1.00  0.00     0.165 C 
HETATM    9  N1  UNL     1     -14.913  59.359 -34.362  1.00  0.00    -0.289 N 
ATOM     10  H1  UNL     1     -14.464  58.529 -33.974  1.00  0.00     0.188 HD
BRANCH   9  11
HETATM   11  N2  UNL     1     -14.616  60.596 -33.787  1.00  0.00    -0.344 N 
ATOM     12  H22 UNL     1     -14.923  60.745 -32.826  1.00  0.00     0.176 HD
ATOM     13  H21 UNL     1     -14.118  61.343 -34.271  1.00  0.00     0.176 HD
ENDBRANCH   9  11
BRANCH   8  14
HETATM   14  N3  UNL     1     -15.940  57.906 -35.848  1.00  0.00    -0.289 N 
ATOM     15  H3  UNL     1     -15.438  57.606 -36.684  1.00  0.00     0.188 HD
BRANCH  14  16
HETATM   16  N4  UNL     1     -16.840  57.007 -35.231  1.00  0.00    -0.344 N 
ATOM     17  H42 UNL     1     -16.496  56.446 -34.452  1.00  0.00     0.176 HD
ATOM     18  H41 UNL     1     -17.807  56.907 -35.542  1.00  0.00     0.176 HD
ENDBRANCH  14  16
ENDBRANCH   8  14
ENDBRANCH   2   8
BRANCH   1  19
HETATM   19  C5  UNL     1     -18.713  59.995 -35.207  1.00  0.00    -0.043 C 
HETATM   20  C4  UNL     1     -19.578  59.358 -34.650  1.00  0.00    -0.073 C 
BRANCH  20  21
HETATM   21  C3  UNL     1     -20.630  58.559 -33.987  1.00  0.00     0.272 C 
BRANCH  21  22
HETATM   22  O2  UNL     1     -20.690  57.326 -34.673  1.00  0.00    -0.310 OA
BRANCH  22  23
HETATM   23  C2  UNL     1     -20.130  56.222 -34.045  1.00  0.00     0.255 C 
HETATM   24  C1  UNL     1     -20.329  55.959 -32.586  1.00  0.00     0.126 C 
HETATM   25  O1  UNL     1     -19.423  55.384 -34.673  1.00  0.00    -0.266 OA
ENDBRANCH  22  23
ENDBRANCH  21  22
ENDBRANCH  20  21
ENDBRANCH   1  19
TORSDOF 8
ENDMDL
MODEL 5
REMARK VINA RESULT: -6.108135345      1.377      1.680
REMARK  8 active torsions:
REMARK  status: ('A' for Active; 'I' for Inactive)
REMARK    1  A    between atoms: C2_2  and  O2_4 
REMARK    2  A    between atoms: O2_4  and  C3_5 
REMARK    3  A    between atoms: C3_5  and  C4_6 
REMARK    4  A    between atoms: C5_7  and  C6_8 
REMARK    5  A    between atoms: C7_9  and  C8_10 
REMARK    6  A    between atoms: C8_10  and  N3_16 
REMARK    7  A    between atoms: N1_11  and  N2_13 
REMARK    8  A    between atoms: N3_16  and  N4_18 
ROOT
HETATM    1  C6  UNL     1     -18.478  57.375 -34.774  1.00  0.00     0.133 A 
HETATM    2  C7  UNL     1     -19.799  57.718 -34.731  1.00  0.00     0.129 A 
HETATM    3  N5  UNL     1     -20.487  56.561 -34.843  1.00  0.00    -0.278 N 
ATOM      4  H5  UNL     1     -21.503  56.482 -34.845  1.00  0.00     0.184 HD
HETATM    5  N6  UNL     1     -19.647  55.545 -34.952  1.00  0.00    -0.019 NA
HETATM    6  N7  UNL     1     -18.414  56.024 -34.912  1.00  0.00    -0.270 N 
HETATM    7  C9  UNL     1     -17.180  55.266 -34.997  1.00  0.00     0.176 C 
ENDROOT
BRANCH   2   8
HETATM    8  C8  UNL     1     -20.407  59.021 -34.594  1.00  0.00     0.165 C 
HETATM    9  N1  UNL     1     -20.365  59.836 -35.575  1.00  0.00    -0.289 N 
ATOM     10  H1  UNL     1     -20.800  60.751 -35.457  1.00  0.00     0.188 HD
BRANCH   9  11
HETATM   11  N2  UNL     1     -19.759  59.551 -36.800  1.00  0.00    -0.344 N 
ATOM     12  H22 UNL     1     -18.897  59.005 -36.774  1.00  0.00     0.176 HD
ATOM     13  H21 UNL     1     -20.126  59.855 -37.701  1.00  0.00     0.176 HD
ENDBRANCH   9  11
BRANCH   8  14
HETATM   14  N3  UNL     1     -21.046  59.413 -33.401  1.00  0.00    -0.289 N 
ATOM     15  H3  UNL     1     -20.523  59.378 -32.526  1.00  0.00     0.188 HD
BRANCH  14  16
HETATM   16  N4  UNL     1     -22.390  59.855 -33.376  1.00  0.00    -0.344 N 
ATOM     17  H42 UNL     1     -23.060  59.376 -33.977  1.00  0.00     0.176 HD
ATOM     18  H41 UNL     1     -22.698  60.626 -32.783  1.00  0.00     0.176 HD
ENDBRANCH  14  16
ENDBRANCH   8  14
ENDBRANCH   2   8
BRANCH   1  19
HETATM   19  C5  UNL     1     -17.386  58.302 -34.688  1.00  0.00    -0.043 C 
HETATM   20  C4  UNL     1     -16.467  59.088 -34.634  1.00  0.00    -0.073 C 
BRANCH  20  21
HETATM   21  C3  UNL     1     -15.340  60.042 -34.595  1.00  0.00     0.272 C 
BRANCH  21  22
HETATM   22  O2  UNL     1     -15.868  61.302 -34.955  1.00  0.00    -0.310 OA
BRANCH  22  23
HETATM   23  C2  UNL     1     -16.506  61.395 -36.184  1.00  0.00     0.255 C 
HETATM   24  C1  UNL     1     -15.770  61.202 -37.472  1.00  0.00     0.126 C 
HETATM   25  O1  UNL     1     -17.741  61.647 -36.278  1.00  0.00    -0.266 OA
ENDBRANCH  22  23
ENDBRANCH  21  22
ENDBRANCH  20  21
ENDBRANCH   1  19
TORSDOF 8
ENDMDL
