MODEL 1
REMARK VINA RESULT: -7.053448345      0.000      0.000
REMARK  6 active torsions:
REMARK  status: ('A' for Active; 'I' for Inactive)
REMARK    1  A    between atoms: O1_2  and  C2_3 
REMARK    2  A    between atoms: C2_3  and  O2_4 
REMARK    3  A    between atoms: C2_3  and  C3_6 
REMARK    4  A    between atoms: C3_6  and  O3_7 
REMARK    5  A    between atoms: C3_6  and  N1_9 
REMARK       I    between atoms: N1_9  and  C4_10 
REMARK       I    between atoms: C4_10  and  N4_15 
REMARK    6  A    between atoms: N4_15  and  C6_17 
ROOT
HETATM    1  N1  UNL     1     -18.944  57.164 -34.688  1.00  0.00    -0.344 NA
HETATM    2  C4  UNL     1     -18.969  58.475 -35.037  1.00  0.00     0.285 C 
HETATM    3  N2  UNL     1     -19.891  58.856 -35.886  1.00  0.00    -0.252 N 
ATOM      4  H2  UNL     1     -19.910  59.840 -36.154  1.00  0.00     0.182 HD
HETATM    5  C5  UNL     1     -20.836  58.020 -36.444  1.00  0.00     0.185 C 
HETATM    6  N3  UNL     1     -21.648  57.323 -36.941  1.00  0.00    -0.172 NA
HETATM    7  N4  UNL     1     -18.165  59.523 -34.580  1.00  0.00    -0.145 N 
ATOM      8  H4  UNL     1     -18.677  60.367 -34.324  1.00  0.00     0.188 HD
ENDROOT
BRANCH   1   9
HETATM    9  C3  UNL     1     -18.920  55.866 -34.342  1.00  0.00     0.249 C 
BRANCH   9  10
HETATM   10  C2  UNL     1     -19.994  55.065 -33.646  1.00  0.00     0.348 C 
BRANCH  10  11
HETATM   11  O1  UNL     1     -20.412  55.747 -32.539  1.00  0.00    -0.358 OA
HETATM   12  C1  UNL     1     -20.139  55.370 -31.296  1.00  0.00     0.205 C 
ENDBRANCH  10  11
BRANCH  10  13
HETATM   13  O2  UNL     1     -21.155  55.226 -34.531  1.00  0.00    -0.363 OA
ATOM     14  H2  UNL     1     -21.566  54.373 -34.450  1.00  0.00     0.213 HD
ENDBRANCH  10  13
ENDBRANCH   9  10
BRANCH   9  15
HETATM   15  O3  UNL     1     -17.911  55.076 -34.577  1.00  0.00    -0.335 OA
ATOM     16  H3  UNL     1     -17.354  55.068 -33.807  1.00  0.00     0.220 HD
ENDBRANCH   9  15
ENDBRANCH   1   9
BRANCH   7  17
HETATM   17  C6  UNL     1     -16.914  59.604 -34.431  1.00  0.00     0.717 A 
HETATM   18  N5  UNL     1     -16.079  60.524 -33.930  1.00  0.00    -0.115 N 
HETATM   19  N6  UNL     1     -14.843  60.108 -34.056  1.00  0.00    -0.213 N 
ATOM     20  H5  UNL     1     -16.361  61.411 -33.514  1.00  0.00     0.207 HD
HETATM   21  N7  UNL     1     -14.832  58.915 -34.639  1.00  0.00    -0.213 N 
ATOM     22  H6  UNL     1     -14.016  60.622 -33.753  1.00  0.00     0.210 HD
HETATM   23  N8  UNL     1     -16.084  58.596 -34.872  1.00  0.00    -0.115 N 
ATOM     24  H7  UNL     1     -14.010  58.355 -34.863  1.00  0.00     0.210 HD
ATOM     25  H8  UNL     1     -16.395  57.731 -35.313  1.00  0.00     0.207 HD
ENDBRANCH   7  17
TORSDOF 6
ENDMDL
MODEL 2
REMARK VINA RESULT: -6.582219874      1.107      1.107
REMARK  6 active torsions:
REMARK  status: ('A' for Active; 'I' for Inactive)
REMARK    1  A    between atoms: O1_2  and  C2_3 
REMARK    2  A    between atoms: C2_3  and  O2_4 
REMARK    3  A    between atoms: C2_3  and  C3_6 
REMARK    4  A    between atoms: C3_6  and  O3_7 
REMARK    5  A    between atoms: C3_6  and  N1_9 
REMARK       I    between atoms: N1_9  and  C4_10 
REMARK       I    between atoms: C4_10  and  N4_15 
REMARK    6  A    between atoms: N4_15  and  C6_17 
ROOT
HETATM    1  N1  UNL     1     -18.707  57.748 -34.297  1.00  0.00    -0.344 NA
HETATM    2  C4  UNL     1     -18.669  59.099 -34.178  1.00  0.00     0.285 C 
HETATM    3  N2  UNL     1     -19.787  59.754 -34.372  1.00  0.00    -0.252 N 
ATOM      4  H2  UNL     1     -19.762  60.770 -34.287  1.00  0.00     0.182 HD
HETATM    5  C5  UNL     1     -20.996  59.166 -34.684  1.00  0.00     0.185 C 
HETATM    6  N3  UNL     1     -22.038  58.686 -34.960  1.00  0.00    -0.172 NA
HETATM    7  N4  UNL     1     -17.596  59.922 -33.824  1.00  0.00    -0.145 N 
ATOM      8  H4  UNL     1     -17.819  60.628 -33.124  1.00  0.00     0.188 HD
ENDROOT
BRANCH   1   9
HETATM    9  C3  UNL     1     -18.746  56.410 -34.415  1.00  0.00     0.249 C 
BRANCH   9  10
HETATM   10  C2  UNL     1     -19.833  55.464 -33.965  1.00  0.00     0.348 C 
BRANCH  10  11
HETATM   11  O1  UNL     1     -20.347  55.907 -32.780  1.00  0.00    -0.358 OA
HETATM   12  C1  UNL     1     -20.128  55.312 -31.614  1.00  0.00     0.205 C 
ENDBRANCH  10  11
BRANCH  10  13
HETATM   13  O2  UNL     1     -20.939  55.768 -34.882  1.00  0.00    -0.363 OA
ATOM     14  H2  UNL     1     -21.600  55.156 -34.580  1.00  0.00     0.213 HD
ENDBRANCH  10  13
ENDBRANCH   9  10
BRANCH   9  15
HETATM   15  O3  UNL     1     -17.798  55.707 -34.967  1.00  0.00    -0.335 OA
ATOM     16  H3  UNL     1     -17.120  55.560 -34.317  1.00  0.00     0.220 HD
ENDBRANCH   9  15
ENDBRANCH   1   9
BRANCH   7  17
HETATM   17  C6  UNL     1     -16.399  59.940 -34.223  1.00  0.00     0.717 A 
HETATM   18  N5  UNL     1     -15.503  60.901 -34.485  1.00  0.00    -0.115 N 
HETATM   19  N6  UNL     1     -14.393  60.359 -34.919  1.00  0.00    -0.213 N 
ATOM     20  H5  UNL     1     -15.662  61.901 -34.365  1.00  0.00     0.207 HD
HETATM   21  N7  UNL     1     -14.527  59.038 -34.956  1.00  0.00    -0.213 N 
ATOM     22  H6  UNL     1     -13.554  60.872 -35.188  1.00  0.00     0.210 HD
HETATM   23  N8  UNL     1     -15.740  58.769 -34.535  1.00  0.00    -0.115 N 
ATOM     24  H7  UNL     1     -13.823  58.364 -35.253  1.00  0.00     0.210 HD
ATOM     25  H8  UNL     1     -16.137  57.833 -34.451  1.00  0.00     0.207 HD
ENDBRANCH   7  17
TORSDOF 6
ENDMDL
MODEL 3
REMARK VINA RESULT: -6.559835610      2.312      3.700
REMARK  6 active torsions:
REMARK  status: ('A' for Active; 'I' for Inactive)
REMARK    1  A    between atoms: O1_2  and  C2_3 
REMARK    2  A    between atoms: C2_3  and  O2_4 
REMARK    3  A    between atoms: C2_3  and  C3_6 
REMARK    4  A    between atoms: C3_6  and  O3_7 
REMARK    5  A    between atoms: C3_6  and  N1_9 
REMARK       I    between atoms: N1_9  and  C4_10 
REMARK       I    between atoms: C4_10  and  N4_15 
REMARK    6  A    between atoms: N4_15  and  C6_17 
ROOT
HETATM    1  N1  UNL     1     -19.291  57.940 -34.373  1.00  0.00    -0.344 NA
HETATM    2  C4  UNL     1     -18.186  57.237 -34.729  1.00  0.00     0.285 C 
HETATM    3  N2  UNL     1     -18.255  55.930 -34.665  1.00  0.00    -0.252 N 
ATOM      4  H2  UNL     1     -17.425  55.398 -34.928  1.00  0.00     0.182 HD
HETATM    5  C5  UNL     1     -19.371  55.223 -34.268  1.00  0.00     0.185 C 
HETATM    6  N3  UNL     1     -20.311  54.597 -33.923  1.00  0.00    -0.172 NA
HETATM    7  N4  UNL     1     -16.961  57.706 -35.210  1.00  0.00    -0.145 N 
ATOM      8  H4  UNL     1     -16.608  57.207 -36.026  1.00  0.00     0.188 HD
ENDROOT
BRANCH   1   9
HETATM    9  C3  UNL     1     -20.386  58.635 -34.022  1.00  0.00     0.249 C 
BRANCH   9  10
HETATM   10  C2  UNL     1     -20.846  59.976 -34.539  1.00  0.00     0.348 C 
BRANCH  10  11
HETATM   11  O1  UNL     1     -20.510  60.085 -35.858  1.00  0.00    -0.358 OA
HETATM   12  C1  UNL     1     -19.472  60.784 -36.299  1.00  0.00     0.205 C 
ENDBRANCH  10  11
BRANCH  10  13
HETATM   13  O2  UNL     1     -22.303  59.816 -34.631  1.00  0.00    -0.363 OA
ATOM     14  H2  UNL     1     -22.367  59.032 -35.163  1.00  0.00     0.213 HD
ENDBRANCH  10  13
ENDBRANCH   9  10
BRANCH   9  15
HETATM   15  O3  UNL     1     -21.250  58.220 -33.140  1.00  0.00    -0.335 OA
ATOM     16  H3  UNL     1     -21.143  57.281 -33.038  1.00  0.00     0.220 HD
ENDBRANCH   9  15
ENDBRANCH   1   9
BRANCH   7  17
HETATM   17  C6  UNL     1     -16.215  58.642 -34.807  1.00  0.00     0.717 A 
HETATM   18  N5  UNL     1     -14.894  58.862 -34.797  1.00  0.00    -0.115 N 
HETATM   19  N6  UNL     1     -14.645  60.007 -34.211  1.00  0.00    -0.213 N 
ATOM     20  H5  UNL     1     -14.190  58.234 -35.185  1.00  0.00     0.207 HD
HETATM   21  N7  UNL     1     -15.785  60.565 -33.822  1.00  0.00    -0.213 N 
ATOM     22  H6  UNL     1     -13.717  60.407 -34.074  1.00  0.00     0.210 HD
HETATM   23  N8  UNL     1     -16.748  59.748 -34.179  1.00  0.00    -0.115 N 
ATOM     24  H7  UNL     1     -15.891  61.457 -33.340  1.00  0.00     0.210 HD
ATOM     25  H8  UNL     1     -17.742  59.907 -34.015  1.00  0.00     0.207 HD
ENDBRANCH   7  17
TORSDOF 6
ENDMDL
MODEL 4
REMARK VINA RESULT: -6.481238769      2.017      3.243
REMARK  6 active torsions:
REMARK  status: ('A' for Active; 'I' for Inactive)
REMARK    1  A    between atoms: O1_2  and  C2_3 
REMARK    2  A    between atoms: C2_3  and  O2_4 
REMARK    3  A    between atoms: C2_3  and  C3_6 
REMARK    4  A    between atoms: C3_6  and  O3_7 
REMARK    5  A    between atoms: C3_6  and  N1_9 
REMARK       I    between atoms: N1_9  and  C4_10 
REMARK       I    between atoms: C4_10  and  N4_15 
REMARK    6  A    between atoms: N4_15  and  C6_17 
ROOT
HETATM    1  N1  UNL     1     -19.041  58.172 -34.982  1.00  0.00    -0.344 NA
HETATM    2  C4  UNL     1     -17.923  57.406 -34.945  1.00  0.00     0.285 C 
HETATM    3  N2  UNL     1     -18.069  56.136 -34.657  1.00  0.00    -0.252 N 
ATOM      4  H2  UNL     1     -17.230  55.558 -34.624  1.00  0.00     0.182 HD
HETATM    5  C5  UNL     1     -19.279  55.527 -34.394  1.00  0.00     0.185 C 
HETATM    6  N3  UNL     1     -20.301  54.986 -34.158  1.00  0.00    -0.172 NA
HETATM    7  N4  UNL     1     -16.600  57.765 -35.219  1.00  0.00    -0.145 N 
ATOM      8  H4  UNL     1     -16.104  57.115 -35.829  1.00  0.00     0.188 HD
ENDROOT
BRANCH   1   9
HETATM    9  C3  UNL     1     -20.150  58.930 -35.020  1.00  0.00     0.249 C 
BRANCH   9  10
HETATM   10  C2  UNL     1     -21.558  58.544 -34.638  1.00  0.00     0.348 C 
BRANCH  10  11
HETATM   11  O1  UNL     1     -21.976  57.524 -35.445  1.00  0.00    -0.358 OA
HETATM   12  C1  UNL     1     -21.524  57.327 -36.677  1.00  0.00     0.205 C 
ENDBRANCH  10  11
BRANCH  10  13
HETATM   13  O2  UNL     1     -21.376  57.838 -33.363  1.00  0.00    -0.363 OA
ATOM     14  H2  UNL     1     -20.481  57.533 -33.450  1.00  0.00     0.213 HD
ENDBRANCH  10  13
ENDBRANCH   9  10
BRANCH   9  15
HETATM   15  O3  UNL     1     -20.161  60.173 -35.411  1.00  0.00    -0.335 OA
ATOM     16  H3  UNL     1     -19.261  60.450 -35.542  1.00  0.00     0.220 HD
ENDBRANCH   9  15
ENDBRANCH   1   9
BRANCH   7  17
HETATM   17  C6  UNL     1     -15.914  58.755 -34.841  1.00  0.00     0.717 A 
HETATM   18  N5  UNL     1     -14.605  59.002 -34.703  1.00  0.00    -0.115 N 
HETATM   19  N6  UNL     1     -14.435  60.209 -34.225  1.00  0.00    -0.213 N 
ATOM     20  H5  UNL     1     -13.856  58.350 -34.933  1.00  0.00     0.207 HD
HETATM   21  N7  UNL     1     -15.617  60.784 -34.037  1.00  0.00    -0.213 N 
ATOM     22  H6  UNL     1     -13.532  60.642 -34.028  1.00  0.00     0.210 HD
HETATM   23  N8  UNL     1     -16.525  59.913 -34.408  1.00  0.00    -0.115 N 
ATOM     24  H7  UNL     1     -15.786  61.722 -33.675  1.00  0.00     0.210 HD
ATOM     25  H8  UNL     1     -17.532  60.069 -34.379  1.00  0.00     0.207 HD
ENDBRANCH   7  17
TORSDOF 6
ENDMDL
MODEL 5
REMARK VINA RESULT: -6.411259120      1.575      1.935
REMARK  6 active torsions:
REMARK  status: ('A' for Active; 'I' for Inactive)
REMARK    1  A    between atoms: O1_2  and  C2_3 
REMARK    2  A    between atoms: C2_3  and  O2_4 
REMARK    3  A    between atoms: C2_3  and  C3_6 
REMARK    4  A    between atoms: C3_6  and  O3_7 
REMARK    5  A    between atoms: C3_6  and  N1_9 
REMARK       I    between atoms: N1_9  and  C4_10 
REMARK       I    between atoms: C4_10  and  N4_15 
REMARK    6  A    between atoms: N4_15  and  C6_17 
ROOT
HETATM    1  N1  UNL     1     -18.000  58.353 -34.704  1.00  0.00    -0.344 NA
HETATM    2  C4  UNL     1     -18.126  59.692 -34.525  1.00  0.00     0.285 C 
HETATM    3  N2  UNL     1     -19.325  60.207 -34.639  1.00  0.00    -0.252 N 
ATOM      4  H2  UNL     1     -19.423  61.214 -34.509  1.00  0.00     0.182 HD
HETATM    5  C5  UNL     1     -20.465  59.482 -34.922  1.00  0.00     0.185 C 
HETATM    6  N3  UNL     1     -21.452  58.885 -35.171  1.00  0.00    -0.172 NA
HETATM    7  N4  UNL     1     -17.148  60.630 -34.184  1.00  0.00    -0.145 N 
ATOM      8  H4  UNL     1     -17.421  61.275 -33.443  1.00  0.00     0.188 HD
ENDROOT
BRANCH   1   9
HETATM    9  C3  UNL     1     -17.877  57.026 -34.879  1.00  0.00     0.249 C 
BRANCH   9  10
HETATM   10  C2  UNL     1     -18.922  55.957 -34.675  1.00  0.00     0.348 C 
BRANCH  10  11
HETATM   11  O1  UNL     1     -19.691  56.284 -33.595  1.00  0.00    -0.358 OA
HETATM   12  C1  UNL     1     -20.242  55.389 -32.785  1.00  0.00     0.205 C 
ENDBRANCH  10  11
BRANCH  10  13
HETATM   13  O2  UNL     1     -19.865  56.198 -35.775  1.00  0.00    -0.363 OA
ATOM     14  H2  UNL     1     -19.811  55.374 -36.245  1.00  0.00     0.213 HD
ENDBRANCH  10  13
ENDBRANCH   9  10
BRANCH   9  15
HETATM   15  O3  UNL     1     -16.777  56.450 -35.275  1.00  0.00    -0.335 OA
ATOM     16  H3  UNL     1     -16.582  55.739 -34.676  1.00  0.00     0.220 HD
ENDBRANCH   9  15
ENDBRANCH   1   9
BRANCH   7  17
HETATM   17  C6  UNL     1     -15.983  60.816 -34.636  1.00  0.00     0.717 A 
HETATM   18  N5  UNL     1     -14.744  60.616 -34.170  1.00  0.00    -0.115 N 
HETATM   19  N6  UNL     1     -13.871  61.028 -35.054  1.00  0.00    -0.213 N 
ATOM     20  H5  UNL     1     -14.515  60.205 -33.265  1.00  0.00     0.207 HD
HETATM   21  N7  UNL     1     -14.507  61.508 -36.117  1.00  0.00    -0.213 N 
ATOM     22  H6  UNL     1     -12.858  60.987 -34.944  1.00  0.00     0.210 HD
HETATM   23  N8  UNL     1     -15.791  61.385 -35.877  1.00  0.00    -0.115 N 
ATOM     24  H7  UNL     1     -14.079  61.897 -36.957  1.00  0.00     0.210 HD
ATOM     25  H8  UNL     1     -16.535  61.669 -36.514  1.00  0.00     0.207 HD
ENDBRANCH   7  17
TORSDOF 6
ENDMDL
