MODEL 1
REMARK VINA RESULT: -8.260535498      0.000      0.000
REMARK  10 active torsions:
REMARK  status: ('A' for Active; 'I' for Inactive)
REMARK    1  A    between atoms: N2_7  and  O1_8 
REMARK    2  A    between atoms: C5_10  and  C6_11 
REMARK    3  A    between atoms: C6_11  and  O2_12 
REMARK    4  A    between atoms: C6_11  and  N3_14 
REMARK    5  A    between atoms: C7_16  and  C8_17 
REMARK    6  A    between atoms: C8_17  and  N4_18 
REMARK       I    between atoms: N4_18  and  C9_20 
REMARK    7  A    between atoms: C9_20  and  C10_22 
REMARK    8  A    between atoms: C13_30  and  O4_31 
REMARK    9  A    between atoms: C13_30  and  O5_33 
REMARK   10  A    between atoms: O5_33  and  N8_34 
ROOT
HETATM    1  N4  UNL     1      -7.752  -2.895   3.142  1.00  0.00    -0.350 N 
ATOM      2  H4  UNL     1      -7.915  -3.841   2.795  1.00  0.00     0.163 HD
HETATM    3  C9  UNL     1      -8.606  -2.337   4.114  1.00  0.00     0.287 C 
HETATM    4  O3  UNL     1      -8.395  -1.159   4.542  1.00  0.00    -0.264 OA
ENDROOT
BRANCH   3   5
HETATM    5  C10 UNL     1      -9.721  -3.131   4.612  1.00  0.00     0.191 A 
HETATM    6  N5  UNL     1     -10.400  -2.973   5.775  1.00  0.00    -0.324 N 
HETATM    7  C11 UNL     1     -11.347  -3.919   5.832  1.00  0.00     0.124 A 
ATOM      8  H5  UNL     1     -10.222  -2.260   6.482  1.00  0.00     0.169 HD
HETATM    9  N6  UNL     1     -11.269  -4.667   4.718  1.00  0.00    -0.269 N 
HETATM   10  C14 UNL     1     -12.407  -4.310   6.794  1.00  0.00     0.252 C 
HETATM   11  N7  UNL     1     -10.285  -4.181   3.991  1.00  0.00    -0.277 N 
HETATM   12  C12 UNL     1     -12.223  -5.747   4.600  1.00  0.00     0.254 C 
ATOM     13  H7  UNL     1      -9.991  -4.549   3.085  1.00  0.00     0.189 HD
HETATM   14  C13 UNL     1     -13.571  -5.136   4.953  1.00  0.00     0.318 C 
HETATM   15  O6  UNL     1     -13.601  -4.660   6.233  1.00  0.00    -0.323 OA
BRANCH  14  16
HETATM   16  O4  UNL     1     -13.711  -4.021   4.093  1.00  0.00    -0.341 OA
ATOM     17  H4  UNL     1     -13.781  -3.269   4.669  1.00  0.00     0.215 HD
ENDBRANCH  14  16
BRANCH  14  18
HETATM   18  O5  UNL     1     -14.618  -5.985   4.652  1.00  0.00    -0.200 OA
BRANCH  18  19
HETATM   19  N8  UNL     1     -15.669  -5.387   4.095  1.00  0.00     0.029 NA
HETATM   20  N9  UNL     1     -16.751  -5.382   4.993  1.00  0.00     0.009 NA
HETATM   21  N10 UNL     1     -17.490  -6.255   4.184  1.00  0.00     0.001 NA
HETATM   22  N11 UNL     1     -16.446  -6.186   3.247  1.00  0.00     0.009 NA
ENDBRANCH  18  19
ENDBRANCH  14  18
ENDBRANCH   3   5
BRANCH   1  23
HETATM   23  C8  UNL     1      -6.645  -2.119   2.642  1.00  0.00     0.167 C 
BRANCH  23  24
HETATM   24  C7  UNL     1      -5.472  -2.302   3.508  1.00  0.00     0.078 C 
HETATM   25  N3  UNL     1      -5.127  -1.391   4.320  1.00  0.00    -0.370 N 
ATOM     26  H3  UNL     1      -5.688  -0.540   4.348  1.00  0.00     0.161 HD
BRANCH  25  27
HETATM   27  C6  UNL     1      -4.004  -1.479   5.199  1.00  0.00     0.273 C 
BRANCH  27  28
HETATM   28  C5  UNL     1      -3.414  -0.124   5.459  1.00  0.00     0.112 A 
HETATM   29  C2  UNL     1      -2.713   0.256   6.583  1.00  0.00     0.036 A 
HETATM   30  C1  UNL     1      -2.420  -0.637   7.746  1.00  0.00     0.070 C 
HETATM   31  N1  UNL     1      -2.356   1.547   6.429  1.00  0.00    -0.346 N 
HETATM   32  C3  UNL     1      -2.806   1.997   5.247  1.00  0.00     0.106 A 
ATOM     33  H1  UNL     1      -1.825   2.096   7.106  1.00  0.00     0.167 HD
HETATM   34  C4  UNL     1      -2.646   3.368   4.656  1.00  0.00     0.091 C 
HETATM   35  N2  UNL     1      -3.456   0.957   4.663  1.00  0.00    -0.211 N 
BRANCH  35  36
HETATM   36  O1  UNL     1      -4.068   1.020   3.421  1.00  0.00    -0.281 OA
ATOM     37  H1  UNL     1      -4.238   0.264   2.871  1.00  0.00     0.245 HD
ENDBRANCH  35  36
ENDBRANCH  27  28
BRANCH  27  38
HETATM   38  O2  UNL     1      -3.010  -2.206   4.508  1.00  0.00    -0.371 OA
ATOM     39  H2  UNL     1      -3.168  -3.121   4.713  1.00  0.00     0.212 HD
ENDBRANCH  27  38
ENDBRANCH  25  27
ENDBRANCH  23  24
ENDBRANCH   1  23
TORSDOF 10
ENDMDL
MODEL 2
REMARK VINA RESULT: -8.214508028      3.146     10.629
REMARK  10 active torsions:
REMARK  status: ('A' for Active; 'I' for Inactive)
REMARK    1  A    between atoms: N2_7  and  O1_8 
REMARK    2  A    between atoms: C5_10  and  C6_11 
REMARK    3  A    between atoms: C6_11  and  O2_12 
REMARK    4  A    between atoms: C6_11  and  N3_14 
REMARK    5  A    between atoms: C7_16  and  C8_17 
REMARK    6  A    between atoms: C8_17  and  N4_18 
REMARK       I    between atoms: N4_18  and  C9_20 
REMARK    7  A    between atoms: C9_20  and  C10_22 
REMARK    8  A    between atoms: C13_30  and  O4_31 
REMARK    9  A    between atoms: C13_30  and  O5_33 
REMARK   10  A    between atoms: O5_33  and  N8_34 
ROOT
HETATM    1  N4  UNL     1      -9.372  -2.828   5.420  1.00  0.00    -0.350 N 
ATOM      2  H4  UNL     1      -9.540  -1.828   5.536  1.00  0.00     0.163 HD
HETATM    3  C9  UNL     1      -8.055  -3.329   5.387  1.00  0.00     0.287 C 
HETATM    4  O3  UNL     1      -7.855  -4.576   5.243  1.00  0.00    -0.264 OA
ENDROOT
BRANCH   3   5
HETATM    5  C10 UNL     1      -6.943  -2.398   5.520  1.00  0.00     0.191 A 
HETATM    6  N5  UNL     1      -5.635  -2.620   5.241  1.00  0.00    -0.324 N 
HETATM    7  C11 UNL     1      -4.959  -1.494   5.506  1.00  0.00     0.124 A 
ATOM      8  H5  UNL     1      -5.235  -3.490   4.890  1.00  0.00     0.169 HD
HETATM    9  N6  UNL     1      -5.829  -0.569   5.949  1.00  0.00    -0.269 N 
HETATM   10  C14 UNL     1      -3.544  -1.056   5.429  1.00  0.00     0.252 C 
HETATM   11  N7  UNL     1      -7.022  -1.127   5.952  1.00  0.00    -0.277 N 
HETATM   12  C12 UNL     1      -5.278   0.723   6.287  1.00  0.00     0.254 C 
ATOM     13  H7  UNL     1      -7.883  -0.662   6.241  1.00  0.00     0.189 HD
HETATM   14  C13 UNL     1      -4.377   1.097   5.119  1.00  0.00     0.318 C 
HETATM   15  O6  UNL     1      -3.351   0.209   4.957  1.00  0.00    -0.323 OA
BRANCH  14  16
HETATM   16  O4  UNL     1      -5.196   0.997   3.969  1.00  0.00    -0.341 OA
ATOM     17  H4  UNL     1      -4.636   1.240   3.242  1.00  0.00     0.215 HD
ENDBRANCH  14  16
BRANCH  14  18
HETATM   18  O5  UNL     1      -3.966   2.414   5.183  1.00  0.00    -0.200 OA
BRANCH  18  19
HETATM   19  N8  UNL     1      -4.066   3.078   4.034  1.00  0.00     0.029 NA
HETATM   20  N9  UNL     1      -3.203   4.189   4.045  1.00  0.00     0.009 NA
HETATM   21  N10 UNL     1      -4.279   5.086   4.044  1.00  0.00     0.001 NA
HETATM   22  N11 UNL     1      -5.135   3.978   3.941  1.00  0.00     0.009 NA
ENDBRANCH  18  19
ENDBRANCH  14  18
ENDBRANCH   3   5
BRANCH   1  23
HETATM   23  C8  UNL     1     -10.481  -3.740   5.289  1.00  0.00     0.167 C 
BRANCH  23  24
HETATM   24  C7  UNL     1     -11.545  -3.125   4.482  1.00  0.00     0.078 C 
HETATM   25  N3  UNL     1     -12.762  -3.281   4.800  1.00  0.00    -0.370 N 
ATOM     26  H3  UNL     1     -12.970  -3.842   5.626  1.00  0.00     0.161 HD
BRANCH  25  27
HETATM   27  C6  UNL     1     -13.861  -2.722   4.078  1.00  0.00     0.273 C 
BRANCH  27  28
HETATM   28  C5  UNL     1     -14.386  -1.494   4.761  1.00  0.00     0.112 A 
HETATM   29  C2  UNL     1     -14.308  -0.202   4.285  1.00  0.00     0.036 A 
HETATM   30  C1  UNL     1     -13.677   0.189   2.986  1.00  0.00     0.070 C 
HETATM   31  N1  UNL     1     -14.894   0.607   5.189  1.00  0.00    -0.346 N 
HETATM   32  C3  UNL     1     -15.340  -0.127   6.221  1.00  0.00     0.106 A 
ATOM     33  H1  UNL     1     -14.985   1.620   5.102  1.00  0.00     0.167 HD
HETATM   34  C4  UNL     1     -16.053   0.348   7.455  1.00  0.00     0.091 C 
HETATM   35  N2  UNL     1     -15.019  -1.416   5.942  1.00  0.00    -0.211 N 
BRANCH  35  36
HETATM   36  O1  UNL     1     -15.311  -2.489   6.771  1.00  0.00    -0.281 OA
ATOM     37  H1  UNL     1     -15.043  -3.384   6.601  1.00  0.00     0.245 HD
ENDBRANCH  35  36
ENDBRANCH  27  28
BRANCH  27  38
HETATM   38  O2  UNL     1     -14.904  -3.672   4.138  1.00  0.00    -0.371 OA
ATOM     39  H2  UNL     1     -14.686  -4.251   4.860  1.00  0.00     0.212 HD
ENDBRANCH  27  38
ENDBRANCH  25  27
ENDBRANCH  23  24
ENDBRANCH   1  23
TORSDOF 10
ENDMDL
MODEL 3
REMARK VINA RESULT: -8.021412279      2.666     10.363
REMARK  10 active torsions:
REMARK  status: ('A' for Active; 'I' for Inactive)
REMARK    1  A    between atoms: N2_7  and  O1_8 
REMARK    2  A    between atoms: C5_10  and  C6_11 
REMARK    3  A    between atoms: C6_11  and  O2_12 
REMARK    4  A    between atoms: C6_11  and  N3_14 
REMARK    5  A    between atoms: C7_16  and  C8_17 
REMARK    6  A    between atoms: C8_17  and  N4_18 
REMARK       I    between atoms: N4_18  and  C9_20 
REMARK    7  A    between atoms: C9_20  and  C10_22 
REMARK    8  A    between atoms: C13_30  and  O4_31 
REMARK    9  A    between atoms: C13_30  and  O5_33 
REMARK   10  A    between atoms: O5_33  and  N8_34 
ROOT
HETATM    1  N4  UNL     1      -8.293  -4.242   3.876  1.00  0.00    -0.350 N 
ATOM      2  H4  UNL     1      -8.647  -3.539   3.226  1.00  0.00     0.163 HD
HETATM    3  C9  UNL     1      -7.379  -3.881   4.885  1.00  0.00     0.287 C 
HETATM    4  O3  UNL     1      -6.943  -4.762   5.691  1.00  0.00    -0.264 OA
ENDROOT
BRANCH   3   5
HETATM    5  C10 UNL     1      -6.948  -2.493   4.983  1.00  0.00     0.191 A 
HETATM    6  N5  UNL     1      -6.673  -1.785   6.106  1.00  0.00    -0.324 N 
HETATM    7  C11 UNL     1      -6.313  -0.548   5.737  1.00  0.00     0.124 A 
ATOM      8  H5  UNL     1      -6.729  -2.132   7.063  1.00  0.00     0.169 HD
HETATM    9  N6  UNL     1      -6.359  -0.474   4.395  1.00  0.00    -0.269 N 
HETATM   10  C14 UNL     1      -5.897   0.694   6.433  1.00  0.00     0.252 C 
HETATM   11  N7  UNL     1      -6.744  -1.653   3.953  1.00  0.00    -0.277 N 
HETATM   12  C12 UNL     1      -5.998   0.796   3.808  1.00  0.00     0.254 C 
ATOM     13  H7  UNL     1      -6.869  -1.895   2.970  1.00  0.00     0.189 HD
HETATM   14  C13 UNL     1      -4.706   1.208   4.498  1.00  0.00     0.318 C 
HETATM   15  O6  UNL     1      -4.872   1.376   5.844  1.00  0.00    -0.323 OA
BRANCH  14  16
HETATM   16  O4  UNL     1      -3.826   0.114   4.323  1.00  0.00    -0.341 OA
ATOM     17  H4  UNL     1      -3.236   0.378   3.627  1.00  0.00     0.215 HD
ENDBRANCH  14  16
BRANCH  14  18
HETATM   18  O5  UNL     1      -4.107   2.286   3.874  1.00  0.00    -0.200 OA
BRANCH  18  19
HETATM   19  N8  UNL     1      -4.232   3.438   4.528  1.00  0.00     0.029 NA
HETATM   20  N9  UNL     1      -5.243   4.218   3.938  1.00  0.00     0.009 NA
HETATM   21  N10 UNL     1      -4.318   5.176   3.503  1.00  0.00     0.001 NA
HETATM   22  N11 UNL     1      -3.324   4.443   4.171  1.00  0.00     0.009 NA
ENDBRANCH  18  19
ENDBRANCH  14  18
ENDBRANCH   3   5
BRANCH   1  23
HETATM   23  C8  UNL     1      -8.726  -5.613   3.769  1.00  0.00     0.167 C 
BRANCH  23  24
HETATM   24  C7  UNL     1     -10.156  -5.663   3.430  1.00  0.00     0.078 C 
HETATM   25  N3  UNL     1     -11.025  -5.825   4.339  1.00  0.00    -0.370 N 
ATOM     26  H3  UNL     1     -10.697  -5.917   5.300  1.00  0.00     0.161 HD
BRANCH  25  27
HETATM   27  C6  UNL     1     -12.433  -5.886   4.105  1.00  0.00     0.273 C 
BRANCH  27  28
HETATM   28  C5  UNL     1     -13.119  -4.656   4.621  1.00  0.00     0.112 A 
HETATM   29  C2  UNL     1     -13.761  -3.702   3.861  1.00  0.00     0.036 A 
HETATM   30  C1  UNL     1     -13.880  -3.741   2.370  1.00  0.00     0.070 C 
HETATM   31  N1  UNL     1     -14.244  -2.762   4.698  1.00  0.00    -0.346 N 
HETATM   32  C3  UNL     1     -13.929  -3.088   5.963  1.00  0.00     0.106 A 
ATOM     33  H1  UNL     1     -14.767  -1.933   4.416  1.00  0.00     0.167 HD
HETATM   34  C4  UNL     1     -14.258  -2.337   7.221  1.00  0.00     0.091 C 
HETATM   35  N2  UNL     1     -13.238  -4.255   5.898  1.00  0.00    -0.211 N 
BRANCH  35  36
HETATM   36  O1  UNL     1     -12.733  -4.923   7.003  1.00  0.00    -0.281 OA
ATOM     37  H1  UNL     1     -11.901  -5.382   7.014  1.00  0.00     0.245 HD
ENDBRANCH  35  36
ENDBRANCH  27  28
BRANCH  27  38
HETATM   38  O2  UNL     1     -12.922  -6.956   4.884  1.00  0.00    -0.371 OA
ATOM     39  H2  UNL     1     -13.773  -7.173   4.521  1.00  0.00     0.212 HD
ENDBRANCH  27  38
ENDBRANCH  25  27
ENDBRANCH  23  24
ENDBRANCH   1  23
TORSDOF 10
ENDMDL
MODEL 4
REMARK VINA RESULT: -8.018103768      3.873     10.203
REMARK  10 active torsions:
REMARK  status: ('A' for Active; 'I' for Inactive)
REMARK    1  A    between atoms: N2_7  and  O1_8 
REMARK    2  A    between atoms: C5_10  and  C6_11 
REMARK    3  A    between atoms: C6_11  and  O2_12 
REMARK    4  A    between atoms: C6_11  and  N3_14 
REMARK    5  A    between atoms: C7_16  and  C8_17 
REMARK    6  A    between atoms: C8_17  and  N4_18 
REMARK       I    between atoms: N4_18  and  C9_20 
REMARK    7  A    between atoms: C9_20  and  C10_22 
REMARK    8  A    between atoms: C13_30  and  O4_31 
REMARK    9  A    between atoms: C13_30  and  O5_33 
REMARK   10  A    between atoms: O5_33  and  N8_34 
ROOT
HETATM    1  N4  UNL     1      -4.425  -2.308   3.825  1.00  0.00    -0.350 N 
ATOM      2  H4  UNL     1      -4.134  -2.226   2.851  1.00  0.00     0.163 HD
HETATM    3  C9  UNL     1      -4.941  -1.188   4.508  1.00  0.00     0.287 C 
HETATM    4  O3  UNL     1      -5.302  -1.298   5.723  1.00  0.00    -0.264 OA
ENDROOT
BRANCH   3   5
HETATM    5  C10 UNL     1      -5.050   0.081   3.802  1.00  0.00     0.191 A 
HETATM    6  N5  UNL     1      -6.117   0.562   3.117  1.00  0.00    -0.324 N 
HETATM    7  C11 UNL     1      -5.785   1.764   2.626  1.00  0.00     0.124 A 
ATOM      8  H5  UNL     1      -7.014   0.093   2.997  1.00  0.00     0.169 HD
HETATM    9  N6  UNL     1      -4.522   2.040   2.996  1.00  0.00    -0.269 N 
HETATM   10  C14 UNL     1      -6.455   2.805   1.809  1.00  0.00     0.252 C 
HETATM   11  N7  UNL     1      -4.091   1.017   3.704  1.00  0.00    -0.277 N 
HETATM   12  C12 UNL     1      -3.986   3.308   2.555  1.00  0.00     0.254 C 
ATOM     13  H7  UNL     1      -3.162   0.946   4.120  1.00  0.00     0.189 HD
HETATM   14  C13 UNL     1      -5.061   4.335   2.876  1.00  0.00     0.318 C 
HETATM   15  O6  UNL     1      -6.224   4.090   2.201  1.00  0.00    -0.323 OA
BRANCH  14  16
HETATM   16  O4  UNL     1      -5.339   4.167   4.253  1.00  0.00    -0.341 OA
ATOM     17  H4  UNL     1      -5.987   3.474   4.294  1.00  0.00     0.215 HD
ENDBRANCH  14  16
BRANCH  14  18
HETATM   18  O5  UNL     1      -4.599   5.629   2.734  1.00  0.00    -0.200 OA
BRANCH  18  19
HETATM   19  N8  UNL     1      -4.817   6.162   1.534  1.00  0.00     0.029 NA
HETATM   20  N9  UNL     1      -3.596   6.346   0.861  1.00  0.00     0.009 NA
HETATM   21  N10 UNL     1      -3.720   7.740   0.915  1.00  0.00     0.001 NA
HETATM   22  N11 UNL     1      -4.981   7.553   1.505  1.00  0.00     0.009 NA
ENDBRANCH  18  19
ENDBRANCH  14  18
ENDBRANCH   3   5
BRANCH   1  23
HETATM   23  C8  UNL     1      -4.311  -3.569   4.514  1.00  0.00     0.167 C 
BRANCH  23  24
HETATM   24  C7  UNL     1      -5.627  -4.220   4.588  1.00  0.00     0.078 C 
HETATM   25  N3  UNL     1      -6.455  -3.893   5.490  1.00  0.00    -0.370 N 
ATOM     26  H3  UNL     1      -6.176  -3.170   6.153  1.00  0.00     0.161 HD
BRANCH  25  27
HETATM   27  C6  UNL     1      -7.753  -4.470   5.639  1.00  0.00     0.273 C 
BRANCH  27  28
HETATM   28  C5  UNL     1      -8.747  -3.804   4.735  1.00  0.00     0.112 A 
HETATM   29  C2  UNL     1      -9.560  -4.432   3.815  1.00  0.00     0.036 A 
HETATM   30  C1  UNL     1      -9.584  -5.907   3.568  1.00  0.00     0.070 C 
HETATM   31  N1  UNL     1     -10.303  -3.486   3.207  1.00  0.00    -0.346 N 
HETATM   32  C3  UNL     1      -9.989  -2.281   3.709  1.00  0.00     0.106 A 
ATOM     33  H1  UNL     1     -10.997  -3.659   2.479  1.00  0.00     0.167 HD
HETATM   34  C4  UNL     1     -10.560  -0.944   3.333  1.00  0.00     0.091 C 
HETATM   35  N2  UNL     1      -9.030  -2.494   4.647  1.00  0.00    -0.211 N 
BRANCH  35  36
HETATM   36  O1  UNL     1      -8.439  -1.490   5.399  1.00  0.00    -0.281 OA
ATOM     37  H1  UNL     1      -7.951  -1.640   6.200  1.00  0.00     0.245 HD
ENDBRANCH  35  36
ENDBRANCH  27  28
BRANCH  27  38
HETATM   38  O2  UNL     1      -8.173  -4.178   6.955  1.00  0.00    -0.371 OA
ATOM     39  H2  UNL     1      -7.962  -4.947   7.472  1.00  0.00     0.212 HD
ENDBRANCH  27  38
ENDBRANCH  25  27
ENDBRANCH  23  24
ENDBRANCH   1  23
TORSDOF 10
ENDMDL
MODEL 5
REMARK VINA RESULT: -7.966395955      1.912      2.339
REMARK  10 active torsions:
REMARK  status: ('A' for Active; 'I' for Inactive)
REMARK    1  A    between atoms: N2_7  and  O1_8 
REMARK    2  A    between atoms: C5_10  and  C6_11 
REMARK    3  A    between atoms: C6_11  and  O2_12 
REMARK    4  A    between atoms: C6_11  and  N3_14 
REMARK    5  A    between atoms: C7_16  and  C8_17 
REMARK    6  A    between atoms: C8_17  and  N4_18 
REMARK       I    between atoms: N4_18  and  C9_20 
REMARK    7  A    between atoms: C9_20  and  C10_22 
REMARK    8  A    between atoms: C13_30  and  O4_31 
REMARK    9  A    between atoms: C13_30  and  O5_33 
REMARK   10  A    between atoms: O5_33  and  N8_34 
ROOT
HETATM    1  N4  UNL     1      -6.652  -3.288   4.288  1.00  0.00    -0.350 N 
ATOM      2  H4  UNL     1      -7.005  -2.654   3.570  1.00  0.00     0.163 HD
HETATM    3  C9  UNL     1      -7.519  -3.797   5.275  1.00  0.00     0.287 C 
HETATM    4  O3  UNL     1      -7.072  -4.586   6.166  1.00  0.00    -0.264 OA
ENDROOT
BRANCH   3   5
HETATM    5  C10 UNL     1      -8.921  -3.404   5.253  1.00  0.00     0.191 A 
HETATM    6  N5  UNL     1      -9.560  -2.652   4.323  1.00  0.00    -0.324 N 
HETATM    7  C11 UNL     1     -10.842  -2.537   4.693  1.00  0.00     0.124 A 
ATOM      8  H5  UNL     1      -9.139  -2.245   3.488  1.00  0.00     0.169 HD
HETATM    9  N6  UNL     1     -11.014  -3.209   5.845  1.00  0.00    -0.269 N 
HETATM   10  C14 UNL     1     -12.053  -1.872   4.153  1.00  0.00     0.252 C 
HETATM   11  N7  UNL     1      -9.848  -3.727   6.171  1.00  0.00    -0.277 N 
HETATM   12  C12 UNL     1     -12.347  -3.200   6.403  1.00  0.00     0.254 C 
ATOM     13  H7  UNL     1      -9.673  -4.293   7.002  1.00  0.00     0.189 HD
HETATM   14  C13 UNL     1     -13.273  -3.530   5.242  1.00  0.00     0.318 C 
HETATM   15  O6  UNL     1     -13.205  -2.596   4.247  1.00  0.00    -0.323 OA
BRANCH  14  16
HETATM   16  O4  UNL     1     -12.780  -4.743   4.705  1.00  0.00    -0.341 OA
ATOM     17  H4  UNL     1     -12.770  -4.614   3.764  1.00  0.00     0.215 HD
ENDBRANCH  14  16
BRANCH  14  18
HETATM   18  O5  UNL     1     -14.561  -3.795   5.667  1.00  0.00    -0.200 OA
BRANCH  18  19
HETATM   19  N8  UNL     1     -14.942  -5.061   5.511  1.00  0.00     0.029 NA
HETATM   20  N9  UNL     1     -15.512  -5.237   4.237  1.00  0.00     0.009 NA
HETATM   21  N10 UNL     1     -16.779  -5.480   4.784  1.00  0.00     0.001 NA
HETATM   22  N11 UNL     1     -16.189  -5.393   6.055  1.00  0.00     0.009 NA
ENDBRANCH  18  19
ENDBRANCH  14  18
ENDBRANCH   3   5
BRANCH   1  23
HETATM   23  C8  UNL     1      -5.262  -3.669   4.300  1.00  0.00     0.167 C 
BRANCH  23  24
HETATM   24  C7  UNL     1      -4.441  -2.560   4.807  1.00  0.00     0.078 C 
HETATM   25  N3  UNL     1      -4.076  -1.626   4.032  1.00  0.00    -0.370 N 
ATOM     26  H3  UNL     1      -4.371  -1.674   3.057  1.00  0.00     0.161 HD
BRANCH  25  27
HETATM   27  C6  UNL     1      -3.280  -0.510   4.435  1.00  0.00     0.273 C 
BRANCH  27  28
HETATM   28  C5  UNL     1      -4.056   0.770   4.335  1.00  0.00     0.112 A 
HETATM   29  C2  UNL     1      -4.580   1.489   5.388  1.00  0.00     0.036 A 
HETATM   30  C1  UNL     1      -4.458   1.101   6.827  1.00  0.00     0.070 C 
HETATM   31  N1  UNL     1      -5.202   2.571   4.880  1.00  0.00    -0.346 N 
HETATM   32  C3  UNL     1      -5.090   2.563   3.542  1.00  0.00     0.106 A 
ATOM     33  H1  UNL     1      -5.683   3.286   5.427  1.00  0.00     0.167 HD
HETATM   34  C4  UNL     1      -5.626   3.567   2.562  1.00  0.00     0.091 C 
HETATM   35  N2  UNL     1      -4.382   1.449   3.223  1.00  0.00    -0.211 N 
BRANCH  35  36
HETATM   36  O1  UNL     1      -4.052   1.081   1.928  1.00  0.00    -0.281 OA
ATOM     37  H1  UNL     1      -4.501   0.404   1.435  1.00  0.00     0.245 HD
ENDBRANCH  35  36
ENDBRANCH  27  28
BRANCH  27  38
HETATM   38  O2  UNL     1      -2.235  -0.402   3.492  1.00  0.00    -0.371 OA
ATOM     39  H2  UNL     1      -1.438  -0.621   3.961  1.00  0.00     0.212 HD
ENDBRANCH  27  38
ENDBRANCH  25  27
ENDBRANCH  23  24
ENDBRANCH   1  23
TORSDOF 10
ENDMDL
