MODEL 1
REMARK VINA RESULT: -7.778903385      0.000      0.000
REMARK  11 active torsions:
REMARK  status: ('A' for Active; 'I' for Inactive)
REMARK    1  A    between atoms: N1_2  and  C2_3 
REMARK    2  A    between atoms: N1_2  and  C9_31 
REMARK    3  A    between atoms: C2_3  and  C3_4 
REMARK    4  A    between atoms: C3_4  and  N2_5 
REMARK    5  A    between atoms: C5_7  and  C6_8 
REMARK    6  A    between atoms: N3_10  and  N4_11 
REMARK    7  A    between atoms: C8_16  and  N6_17 
REMARK    8  A    between atoms: N6_17  and  N7_19 
REMARK    9  A    between atoms: N10_26  and  N11_28 
REMARK   10  A    between atoms: C12_36  and  N13_37 
REMARK   11  A    between atoms: C13_42  and  N15_43 
ROOT
HETATM    1  C2  UNL     1      -8.331  -3.183   4.859  1.00  0.00     0.119 C 
HETATM    2  N10 UNL     1      -8.656  -3.748   5.965  1.00  0.00    -0.294 N 
ATOM      3  H10 UNL     1      -9.650  -3.888   6.147  1.00  0.00     0.187 HD
ENDROOT
BRANCH   1   4
HETATM    4  N1  UNL     1      -9.367  -2.796   3.976  1.00  0.00    -0.324 N 
HETATM    5  C1  UNL     1      -9.051  -2.401   2.615  1.00  0.00     0.159 C 
BRANCH   4   6
HETATM    6  C9  UNL     1     -10.728  -2.796   4.428  1.00  0.00     0.125 A 
HETATM    7  C10 UNL     1     -11.335  -3.998   4.717  1.00  0.00     0.137 A 
HETATM    8  N12 UNL     1     -12.611  -4.037   5.144  1.00  0.00    -0.356 N 
HETATM    9  C11 UNL     1     -13.330  -2.895   5.301  1.00  0.00     0.122 A 
ATOM     10  H12 UNL     1     -13.044  -4.937   5.353  1.00  0.00     0.165 HD
HETATM   11  C12 UNL     1     -14.639  -2.881   5.734  1.00  0.00     0.145 A 
HETATM   12  C14 UNL     1     -12.731  -1.691   5.014  1.00  0.00     0.153 A 
HETATM   13  N14 UNL     1     -15.313  -1.702   5.873  1.00  0.00    -0.175 N 
HETATM   14  C13 UNL     1     -14.718  -0.528   5.590  1.00  0.00     0.679 A 
ATOM     15  H14 UNL     1     -16.281  -1.710   6.196  1.00  0.00     0.186 HD
HETATM   16  N16 UNL     1     -13.445  -0.563   5.169  1.00  0.00    -0.174 N 
ATOM     17  H16 UNL     1     -12.989   0.323   4.954  1.00  0.00     0.186 HD
HETATM   18  N17 UNL     1     -11.437  -1.680   4.583  1.00  0.00    -0.325 N 
ATOM     19  H17 UNL     1     -10.997  -0.784   4.371  1.00  0.00     0.169 HD
BRANCH  11  20
HETATM   20  N13 UNL     1     -15.229  -3.973   6.010  1.00  0.00    -0.383 N 
ATOM     21 2H13 UNL     1     -14.715  -4.851   5.940  1.00  0.00     0.157 HD
ATOM     22 1H13 UNL     1     -16.208  -3.966   6.298  1.00  0.00     0.157 HD
ENDBRANCH  11  20
BRANCH  14  23
HETATM   23  N15 UNL     1     -15.371   0.598   5.725  1.00  0.00    -0.234 N 
ATOM     24 2H15 UNL     1     -16.202   0.672   6.312  1.00  0.00     0.174 HD
ATOM     25 1H15 UNL     1     -15.059   1.439   5.239  1.00  0.00     0.174 HD
ENDBRANCH  14  23
ENDBRANCH   4   6
ENDBRANCH   1   4
BRANCH   1  26
HETATM   26  C3  UNL     1      -6.909  -2.960   4.554  1.00  0.00     0.227 C 
BRANCH  26  27
HETATM   27  N2  UNL     1      -6.482  -1.643   5.017  1.00  0.00    -0.280 N 
HETATM   28  C4  UNL     1      -5.723  -0.754   4.391  1.00  0.00     0.144 A 
HETATM   29  C5  UNL     1      -5.594   0.342   5.230  1.00  0.00     0.082 A 
HETATM   30  N8  UNL     1      -6.290   0.058   6.337  1.00  0.00    -0.284 N 
HETATM   31  N9  UNL     1      -6.817  -1.141   6.191  1.00  0.00    -0.240 N 
ATOM     32  H8  UNL     1      -6.394   0.664   7.151  1.00  0.00     0.188 HD
ATOM     33  H9  UNL     1      -7.399  -1.611   6.884  1.00  0.00     0.208 HD
BRANCH  29  34
HETATM   34  C6  UNL     1      -4.833   1.555   4.924  1.00  0.00     0.059 A 
HETATM   35  C7  UNL     1      -5.325   2.714   4.352  1.00  0.00     0.153 A 
HETATM   36  N3  UNL     1      -4.342   3.606   4.223  1.00  0.00    -0.212 N 
HETATM   37  N5  UNL     1      -3.248   3.041   4.697  1.00  0.00    -0.263 N 
HETATM   38  C8  UNL     1      -3.500   1.780   5.139  1.00  0.00     0.150 A 
ATOM     39  H5  UNL     1      -2.333   3.492   4.728  1.00  0.00     0.190 HD
BRANCH  36  40
HETATM   40  N4  UNL     1      -4.467   4.908   3.678  1.00  0.00    -0.324 N 
ATOM     41  H42 UNL     1      -5.171   5.608   3.910  1.00  0.00     0.178 HD
ATOM     42  H41 UNL     1      -3.859   5.322   2.970  1.00  0.00     0.178 HD
ENDBRANCH  36  40
BRANCH  38  43
HETATM   43  N6  UNL     1      -2.526   0.920   5.703  1.00  0.00    -0.290 N 
ATOM     44  H6  UNL     1      -1.855   0.451   5.096  1.00  0.00     0.188 HD
BRANCH  43  45
HETATM   45  N7  UNL     1      -2.473   0.709   7.086  1.00  0.00    -0.344 N 
ATOM     46  H72 UNL     1      -1.626   0.973   7.589  1.00  0.00     0.176 HD
ATOM     47  H71 UNL     1      -3.267   0.300   7.581  1.00  0.00     0.176 HD
ENDBRANCH  43  45
ENDBRANCH  38  43
ENDBRANCH  29  34
ENDBRANCH  26  27
ENDBRANCH   1  26
BRANCH   2  48
HETATM   48  N11 UNL     1      -7.763  -4.183   6.932  1.00  0.00    -0.344 N 
ATOM     49 2H11 UNL     1      -8.100  -4.910   7.564  1.00  0.00     0.176 HD
ATOM     50 1H11 UNL     1      -6.812  -3.835   7.052  1.00  0.00     0.176 HD
ENDBRANCH   2  48
TORSDOF 11
ENDMDL
MODEL 2
REMARK VINA RESULT: -7.734924803      2.671      8.939
REMARK  11 active torsions:
REMARK  status: ('A' for Active; 'I' for Inactive)
REMARK    1  A    between atoms: N1_2  and  C2_3 
REMARK    2  A    between atoms: N1_2  and  C9_31 
REMARK    3  A    between atoms: C2_3  and  C3_4 
REMARK    4  A    between atoms: C3_4  and  N2_5 
REMARK    5  A    between atoms: C5_7  and  C6_8 
REMARK    6  A    between atoms: N3_10  and  N4_11 
REMARK    7  A    between atoms: C8_16  and  N6_17 
REMARK    8  A    between atoms: N6_17  and  N7_19 
REMARK    9  A    between atoms: N10_26  and  N11_28 
REMARK   10  A    between atoms: C12_36  and  N13_37 
REMARK   11  A    between atoms: C13_42  and  N15_43 
ROOT
HETATM    1  C2  UNL     1     -12.980  -3.977   4.760  1.00  0.00     0.119 C 
HETATM    2  N10 UNL     1     -13.844  -4.907   4.571  1.00  0.00    -0.294 N 
ATOM      3  H10 UNL     1     -13.785  -5.433   3.698  1.00  0.00     0.187 HD
ENDROOT
BRANCH   1   4
HETATM    4  N1  UNL     1     -12.014  -3.746   3.751  1.00  0.00    -0.324 N 
HETATM    5  C1  UNL     1     -12.435  -3.539   2.377  1.00  0.00     0.159 C 
BRANCH   4   6
HETATM    6  C9  UNL     1     -10.621  -3.716   4.090  1.00  0.00     0.125 A 
HETATM    7  C10 UNL     1      -9.871  -4.859   3.928  1.00  0.00     0.137 A 
HETATM    8  N12 UNL     1      -8.560  -4.869   4.236  1.00  0.00    -0.356 N 
HETATM    9  C11 UNL     1      -7.946  -3.754   4.712  1.00  0.00     0.122 A 
ATOM     10  H12 UNL     1      -8.020  -5.725   4.110  1.00  0.00     0.165 HD
HETATM   11  C12 UNL     1      -6.609  -3.712   5.043  1.00  0.00     0.145 A 
HETATM   12  C14 UNL     1      -8.689  -2.609   4.878  1.00  0.00     0.153 A 
HETATM   13  N14 UNL     1      -6.045  -2.562   5.518  1.00  0.00    -0.175 N 
HETATM   14  C13 UNL     1      -6.780  -1.447   5.675  1.00  0.00     0.679 A 
ATOM     15  H14 UNL     1      -5.053  -2.549   5.757  1.00  0.00     0.186 HD
HETATM   16  N16 UNL     1      -8.079  -1.508   5.349  1.00  0.00    -0.174 N 
ATOM     17  H16 UNL     1      -8.641  -0.665   5.466  1.00  0.00     0.186 HD
HETATM   18  N17 UNL     1     -10.015  -2.626   4.558  1.00  0.00    -0.325 N 
ATOM     19  H17 UNL     1     -10.562  -1.774   4.682  1.00  0.00     0.169 HD
BRANCH  11  20
HETATM   20  N13 UNL     1      -5.887  -4.750   4.905  1.00  0.00    -0.383 N 
ATOM     21 2H13 UNL     1      -6.241  -5.651   5.224  1.00  0.00     0.157 HD
ATOM     22 1H13 UNL     1      -4.962  -4.676   4.480  1.00  0.00     0.157 HD
ENDBRANCH  11  20
BRANCH  14  23
HETATM   23  N15 UNL     1      -6.233  -0.348   6.131  1.00  0.00    -0.234 N 
ATOM     24 2H15 UNL     1      -5.594  -0.355   6.926  1.00  0.00     0.174 HD
ATOM     25 1H15 UNL     1      -6.438   0.551   5.696  1.00  0.00     0.174 HD
ENDBRANCH  14  23
ENDBRANCH   4   6
ENDBRANCH   1   4
BRANCH   1  26
HETATM   26  C3  UNL     1     -13.026  -3.192   6.003  1.00  0.00     0.227 C 
BRANCH  26  27
HETATM   27  N2  UNL     1     -13.664  -1.899   5.775  1.00  0.00    -0.280 N 
HETATM   28  C4  UNL     1     -14.859  -1.486   6.174  1.00  0.00     0.144 A 
HETATM   29  C5  UNL     1     -15.020  -0.186   5.716  1.00  0.00     0.082 A 
HETATM   30  N8  UNL     1     -13.900   0.126   5.055  1.00  0.00    -0.284 N 
HETATM   31  N9  UNL     1     -13.095  -0.917   5.101  1.00  0.00    -0.240 N 
ATOM     32  H8  UNL     1     -13.703   1.015   4.597  1.00  0.00     0.188 HD
ATOM     33  H9  UNL     1     -12.169  -0.958   4.677  1.00  0.00     0.208 HD
BRANCH  29  34
HETATM   34  C6  UNL     1     -16.204   0.646   5.938  1.00  0.00     0.059 A 
HETATM   35  C7  UNL     1     -16.934   0.746   7.107  1.00  0.00     0.153 A 
HETATM   36  N3  UNL     1     -17.945   1.599   6.937  1.00  0.00    -0.212 N 
HETATM   37  N5  UNL     1     -17.871   2.038   5.695  1.00  0.00    -0.263 N 
HETATM   38  C8  UNL     1     -16.817   1.480   5.042  1.00  0.00     0.150 A 
ATOM     39  H5  UNL     1     -18.519   2.708   5.280  1.00  0.00     0.190 HD
BRANCH  36  40
HETATM   40  N4  UNL     1     -18.907   1.955   7.915  1.00  0.00    -0.324 N 
ATOM     41  H42 UNL     1     -19.144   1.439   8.763  1.00  0.00     0.178 HD
ATOM     42  H41 UNL     1     -19.498   2.786   7.900  1.00  0.00     0.178 HD
ENDBRANCH  36  40
BRANCH  38  43
HETATM   43  N6  UNL     1     -16.476   1.753   3.694  1.00  0.00    -0.290 N 
ATOM     44  H6  UNL     1     -16.932   1.237   2.943  1.00  0.00     0.188 HD
BRANCH  43  45
HETATM   45  N7  UNL     1     -15.519   2.727   3.382  1.00  0.00    -0.344 N 
ATOM     46  H72 UNL     1     -14.558   2.430   3.211  1.00  0.00     0.176 HD
ATOM     47  H71 UNL     1     -15.778   3.713   3.328  1.00  0.00     0.176 HD
ENDBRANCH  43  45
ENDBRANCH  38  43
ENDBRANCH  29  34
ENDBRANCH  26  27
ENDBRANCH   1  26
BRANCH   2  48
HETATM   48  N11 UNL     1     -14.849  -5.255   5.458  1.00  0.00    -0.344 N 
ATOM     49 2H11 UNL     1     -14.553  -5.503   6.403  1.00  0.00     0.176 HD
ATOM     50 1H11 UNL     1     -15.845  -5.280   5.238  1.00  0.00     0.176 HD
ENDBRANCH   2  48
TORSDOF 11
ENDMDL
MODEL 3
REMARK VINA RESULT: -7.714054881      3.278      9.619
REMARK  11 active torsions:
REMARK  status: ('A' for Active; 'I' for Inactive)
REMARK    1  A    between atoms: N1_2  and  C2_3 
REMARK    2  A    between atoms: N1_2  and  C9_31 
REMARK    3  A    between atoms: C2_3  and  C3_4 
REMARK    4  A    between atoms: C3_4  and  N2_5 
REMARK    5  A    between atoms: C5_7  and  C6_8 
REMARK    6  A    between atoms: N3_10  and  N4_11 
REMARK    7  A    between atoms: C8_16  and  N6_17 
REMARK    8  A    between atoms: N6_17  and  N7_19 
REMARK    9  A    between atoms: N10_26  and  N11_28 
REMARK   10  A    between atoms: C12_36  and  N13_37 
REMARK   11  A    between atoms: C13_42  and  N15_43 
ROOT
HETATM    1  C2  UNL     1     -14.442  -2.520   5.385  1.00  0.00     0.119 C 
HETATM    2  N10 UNL     1     -15.236  -3.474   5.060  1.00  0.00    -0.294 N 
ATOM      3  H10 UNL     1     -15.378  -3.649   4.064  1.00  0.00     0.187 HD
ENDROOT
BRANCH   1   4
HETATM    4  N1  UNL     1     -13.823  -1.781   4.348  1.00  0.00    -0.324 N 
HETATM    5  C1  UNL     1     -14.637  -1.100   3.357  1.00  0.00     0.159 C 
BRANCH   4   6
HETATM    6  C9  UNL     1     -12.393  -1.708   4.279  1.00  0.00     0.125 A 
HETATM    7  C10 UNL     1     -11.812  -0.811   3.411  1.00  0.00     0.137 A 
HETATM    8  N12 UNL     1     -10.472  -0.714   3.318  1.00  0.00    -0.356 N 
HETATM    9  C11 UNL     1      -9.662  -1.497   4.079  1.00  0.00     0.122 A 
ATOM     10  H12 UNL     1     -10.060  -0.045   2.669  1.00  0.00     0.165 HD
HETATM   11  C12 UNL     1      -8.286  -1.437   4.022  1.00  0.00     0.145 A 
HETATM   12  C14 UNL     1     -10.235  -2.395   4.947  1.00  0.00     0.153 A 
HETATM   13  N14 UNL     1      -7.521  -2.249   4.810  1.00  0.00    -0.175 N 
HETATM   14  C13 UNL     1      -8.091  -3.124   5.658  1.00  0.00     0.679 A 
ATOM     15  H14 UNL     1      -6.504  -2.190   4.756  1.00  0.00     0.186 HD
HETATM   16  N16 UNL     1      -9.430  -3.168   5.698  1.00  0.00    -0.174 N 
ATOM     17  H16 UNL     1      -9.868  -3.829   6.339  1.00  0.00     0.186 HD
HETATM   18  N17 UNL     1     -11.594  -2.473   5.021  1.00  0.00    -0.325 N 
ATOM     19  H17 UNL     1     -12.014  -3.141   5.667  1.00  0.00     0.169 HD
BRANCH  11  20
HETATM   20  N13 UNL     1      -7.717  -0.619   3.231  1.00  0.00    -0.383 N 
ATOM     21 2H13 UNL     1      -8.181  -0.361   2.361  1.00  0.00     0.157 HD
ATOM     22 1H13 UNL     1      -6.805  -0.230   3.469  1.00  0.00     0.157 HD
ENDBRANCH  11  20
BRANCH  14  23
HETATM   23  N15 UNL     1      -7.352  -3.899   6.410  1.00  0.00    -0.234 N 
ATOM     24 2H15 UNL     1      -6.539  -4.393   6.041  1.00  0.00     0.174 HD
ATOM     25 1H15 UNL     1      -7.575  -4.029   7.397  1.00  0.00     0.174 HD
ENDBRANCH  14  23
ENDBRANCH   4   6
ENDBRANCH   1   4
BRANCH   1  26
HETATM   26  C3  UNL     1     -14.208  -2.230   6.808  1.00  0.00     0.227 C 
BRANCH  26  27
HETATM   27  N2  UNL     1     -15.028  -1.105   7.248  1.00  0.00    -0.280 N 
HETATM   28  C4  UNL     1     -15.998  -0.483   6.591  1.00  0.00     0.144 A 
HETATM   29  C5  UNL     1     -16.479   0.521   7.418  1.00  0.00     0.082 A 
HETATM   30  N8  UNL     1     -15.767   0.456   8.549  1.00  0.00    -0.284 N 
HETATM   31  N9  UNL     1     -14.898  -0.528   8.428  1.00  0.00    -0.240 N 
ATOM     32  H8  UNL     1     -15.877   1.061   9.362  1.00  0.00     0.188 HD
ATOM     33  H9  UNL     1     -14.225  -0.803   9.143  1.00  0.00     0.208 HD
BRANCH  29  34
HETATM   34  C6  UNL     1     -17.559   1.449   7.078  1.00  0.00     0.059 A 
HETATM   35  C7  UNL     1     -18.830   1.469   7.622  1.00  0.00     0.153 A 
HETATM   36  N3  UNL     1     -19.541   2.453   7.070  1.00  0.00    -0.212 N 
HETATM   37  N5  UNL     1     -18.754   3.052   6.197  1.00  0.00    -0.263 N 
HETATM   38  C8  UNL     1     -17.525   2.470   6.167  1.00  0.00     0.150 A 
ATOM     39  H5  UNL     1     -19.031   3.847   5.621  1.00  0.00     0.190 HD
BRANCH  36  40
HETATM   40  N4  UNL     1     -20.886   2.779   7.375  1.00  0.00    -0.324 N 
ATOM     41  H42 UNL     1     -21.648   2.131   7.571  1.00  0.00     0.178 HD
ATOM     42  H41 UNL     1     -21.274   3.721   7.441  1.00  0.00     0.178 HD
ENDBRANCH  36  40
BRANCH  38  43
HETATM   43  N6  UNL     1     -16.462   2.889   5.330  1.00  0.00    -0.290 N 
ATOM     44  H6  UNL     1     -15.923   3.719   5.576  1.00  0.00     0.188 HD
BRANCH  43  45
HETATM   45  N7  UNL     1     -16.142   2.177   4.168  1.00  0.00    -0.344 N 
ATOM     46  H72 UNL     1     -16.826   1.517   3.795  1.00  0.00     0.176 HD
ATOM     47  H71 UNL     1     -15.244   2.314   3.703  1.00  0.00     0.176 HD
ENDBRANCH  43  45
ENDBRANCH  38  43
ENDBRANCH  29  34
ENDBRANCH  26  27
ENDBRANCH   1  26
BRANCH   2  48
HETATM   48  N11 UNL     1     -15.917  -4.286   5.953  1.00  0.00    -0.344 N 
ATOM     49 2H11 UNL     1     -16.062  -5.254   5.665  1.00  0.00     0.176 HD
ATOM     50 1H11 UNL     1     -16.274  -3.989   6.861  1.00  0.00     0.176 HD
ENDBRANCH   2  48
TORSDOF 11
ENDMDL
MODEL 4
REMARK VINA RESULT: -7.653385621      2.513      4.749
REMARK  11 active torsions:
REMARK  status: ('A' for Active; 'I' for Inactive)
REMARK    1  A    between atoms: N1_2  and  C2_3 
REMARK    2  A    between atoms: N1_2  and  C9_31 
REMARK    3  A    between atoms: C2_3  and  C3_4 
REMARK    4  A    between atoms: C3_4  and  N2_5 
REMARK    5  A    between atoms: C5_7  and  C6_8 
REMARK    6  A    between atoms: N3_10  and  N4_11 
REMARK    7  A    between atoms: C8_16  and  N6_17 
REMARK    8  A    between atoms: N6_17  and  N7_19 
REMARK    9  A    between atoms: N10_26  and  N11_28 
REMARK   10  A    between atoms: C12_36  and  N13_37 
REMARK   11  A    between atoms: C13_42  and  N15_43 
ROOT
HETATM    1  C2  UNL     1     -12.710  -3.761   3.615  1.00  0.00     0.119 C 
HETATM    2  N10 UNL     1     -12.468  -4.658   2.729  1.00  0.00    -0.294 N 
ATOM      3  H10 UNL     1     -13.064  -5.486   2.724  1.00  0.00     0.187 HD
ENDROOT
BRANCH   1   4
HETATM    4  N1  UNL     1     -13.779  -3.982   4.516  1.00  0.00    -0.324 N 
HETATM    5  C1  UNL     1     -14.342  -5.312   4.662  1.00  0.00     0.159 C 
BRANCH   4   6
HETATM    6  C9  UNL     1     -14.304  -2.890   5.283  1.00  0.00     0.125 A 
HETATM    7  C10 UNL     1     -14.107  -2.878   6.646  1.00  0.00     0.137 A 
HETATM    8  N12 UNL     1     -14.585  -1.870   7.400  1.00  0.00    -0.356 N 
HETATM    9  C11 UNL     1     -15.270  -0.840   6.836  1.00  0.00     0.122 A 
ATOM     10  H12 UNL     1     -14.430  -1.878   8.408  1.00  0.00     0.165 HD
HETATM   11  C12 UNL     1     -15.780   0.214   7.562  1.00  0.00     0.145 A 
HETATM   12  C14 UNL     1     -15.471  -0.846   5.476  1.00  0.00     0.153 A 
HETATM   13  N14 UNL     1     -16.461   1.222   6.940  1.00  0.00    -0.175 N 
HETATM   14  C13 UNL     1     -16.652   1.208   5.609  1.00  0.00     0.679 A 
ATOM     15  H14 UNL     1     -16.831   1.995   7.494  1.00  0.00     0.186 HD
HETATM   16  N16 UNL     1     -16.149   0.173   4.920  1.00  0.00    -0.174 N 
ATOM     17  H16 UNL     1     -16.290   0.158   3.910  1.00  0.00     0.186 HD
HETATM   18  N17 UNL     1     -14.976  -1.880   4.736  1.00  0.00    -0.325 N 
ATOM     19  H17 UNL     1     -15.127  -1.879   3.727  1.00  0.00     0.169 HD
BRANCH  11  20
HETATM   20  N13 UNL     1     -15.616   0.257   8.822  1.00  0.00    -0.383 N 
ATOM     21 2H13 UNL     1     -16.307   0.734   9.400  1.00  0.00     0.157 HD
ATOM     22 1H13 UNL     1     -14.798  -0.183   9.246  1.00  0.00     0.157 HD
ENDBRANCH  11  20
BRANCH  14  23
HETATM   23  N15 UNL     1     -17.306   2.177   5.020  1.00  0.00    -0.234 N 
ATOM     24 2H15 UNL     1     -17.681   2.969   5.543  1.00  0.00     0.174 HD
ATOM     25 1H15 UNL     1     -17.459   2.161   4.012  1.00  0.00     0.174 HD
ENDBRANCH  14  23
ENDBRANCH   4   6
ENDBRANCH   1   4
BRANCH   1  26
HETATM   26  C3  UNL     1     -11.876  -2.550   3.662  1.00  0.00     0.227 C 
BRANCH  26  27
HETATM   27  N2  UNL     1     -10.632  -2.806   4.382  1.00  0.00    -0.280 N 
HETATM   28  C4  UNL     1      -9.388  -2.566   3.991  1.00  0.00     0.144 A 
HETATM   29  C5  UNL     1      -8.547  -2.980   5.014  1.00  0.00     0.082 A 
HETATM   30  N8  UNL     1      -9.335  -3.456   5.984  1.00  0.00    -0.284 N 
HETATM   31  N9  UNL     1     -10.586  -3.343   5.587  1.00  0.00    -0.240 N 
ATOM     32  H8  UNL     1      -9.022  -3.838   6.877  1.00  0.00     0.188 HD
ATOM     33  H9  UNL     1     -11.400  -3.630   6.130  1.00  0.00     0.208 HD
BRANCH  29  34
HETATM   34  C6  UNL     1      -7.086  -2.894   4.992  1.00  0.00     0.059 A 
HETATM   35  C7  UNL     1      -6.214  -3.815   4.444  1.00  0.00     0.153 A 
HETATM   36  N3  UNL     1      -4.957  -3.403   4.612  1.00  0.00    -0.212 N 
HETATM   37  N5  UNL     1      -5.014  -2.249   5.249  1.00  0.00    -0.263 N 
HETATM   38  C8  UNL     1      -6.302  -1.895   5.505  1.00  0.00     0.150 A 
ATOM     39  H5  UNL     1      -4.199  -1.695   5.515  1.00  0.00     0.190 HD
BRANCH  36  40
HETATM   40  N4  UNL     1      -3.793  -4.087   4.182  1.00  0.00    -0.324 N 
ATOM     41  H42 UNL     1      -3.007  -4.388   4.758  1.00  0.00     0.178 HD
ATOM     42  H41 UNL     1      -3.584  -4.371   3.224  1.00  0.00     0.178 HD
ENDBRANCH  36  40
BRANCH  38  43
HETATM   43  N6  UNL     1      -6.687  -0.708   6.175  1.00  0.00    -0.290 N 
ATOM     44  H6  UNL     1      -7.673  -0.535   6.369  1.00  0.00     0.188 HD
BRANCH  43  45
HETATM   45  N7  UNL     1      -5.728   0.230   6.576  1.00  0.00    -0.344 N 
ATOM     46  H72 UNL     1      -4.879   0.330   6.018  1.00  0.00     0.176 HD
ATOM     47  H71 UNL     1      -5.875   0.803   7.408  1.00  0.00     0.176 HD
ENDBRANCH  43  45
ENDBRANCH  38  43
ENDBRANCH  29  34
ENDBRANCH  26  27
ENDBRANCH   1  26
BRANCH   2  48
HETATM   48  N11 UNL     1     -11.461  -4.590   1.780  1.00  0.00    -0.344 N 
ATOM     49 2H11 UNL     1     -11.555  -3.861   1.071  1.00  0.00     0.176 HD
ATOM     50 1H11 UNL     1     -10.649  -5.205   1.740  1.00  0.00     0.176 HD
ENDBRANCH   2  48
TORSDOF 11
ENDMDL
MODEL 5
REMARK VINA RESULT: -7.647304371      0.865      1.819
REMARK  11 active torsions:
REMARK  status: ('A' for Active; 'I' for Inactive)
REMARK    1  A    between atoms: N1_2  and  C2_3 
REMARK    2  A    between atoms: N1_2  and  C9_31 
REMARK    3  A    between atoms: C2_3  and  C3_4 
REMARK    4  A    between atoms: C3_4  and  N2_5 
REMARK    5  A    between atoms: C5_7  and  C6_8 
REMARK    6  A    between atoms: N3_10  and  N4_11 
REMARK    7  A    between atoms: C8_16  and  N6_17 
REMARK    8  A    between atoms: N6_17  and  N7_19 
REMARK    9  A    between atoms: N10_26  and  N11_28 
REMARK   10  A    between atoms: C12_36  and  N13_37 
REMARK   11  A    between atoms: C13_42  and  N15_43 
ROOT
HETATM    1  C2  UNL     1      -7.897  -3.400   4.836  1.00  0.00     0.119 C 
HETATM    2  N10 UNL     1      -8.445  -3.871   5.896  1.00  0.00    -0.294 N 
ATOM      3  H10 UNL     1      -9.451  -4.037   5.872  1.00  0.00     0.187 HD
ENDROOT
BRANCH   1   4
HETATM    4  N1  UNL     1      -8.722  -3.146   3.713  1.00  0.00    -0.324 N 
HETATM    5  C1  UNL     1      -8.246  -3.459   2.378  1.00  0.00     0.159 C 
BRANCH   4   6
HETATM    6  C9  UNL     1     -10.026  -2.580   3.899  1.00  0.00     0.125 A 
HETATM    7  C10 UNL     1     -10.213  -1.239   3.648  1.00  0.00     0.137 A 
HETATM    8  N12 UNL     1     -11.423  -0.672   3.811  1.00  0.00    -0.356 N 
HETATM    9  C11 UNL     1     -12.489  -1.408   4.226  1.00  0.00     0.122 A 
ATOM     10  H12 UNL     1     -11.543   0.322   3.621  1.00  0.00     0.165 HD
HETATM   11  C12 UNL     1     -13.747  -0.876   4.409  1.00  0.00     0.145 A 
HETATM   12  C14 UNL     1     -12.309  -2.747   4.479  1.00  0.00     0.153 A 
HETATM   13  N14 UNL     1     -14.780  -1.664   4.828  1.00  0.00    -0.175 N 
HETATM   14  C13 UNL     1     -14.595  -2.974   5.073  1.00  0.00     0.679 A 
ATOM     15  H14 UNL     1     -15.706  -1.254   4.958  1.00  0.00     0.186 HD
HETATM   16  N16 UNL     1     -13.364  -3.472   4.890  1.00  0.00    -0.174 N 
ATOM     17  H16 UNL     1     -13.218  -4.465   5.073  1.00  0.00     0.186 HD
HETATM   18  N17 UNL     1     -11.072  -3.296   4.306  1.00  0.00    -0.325 N 
ATOM     19  H17 UNL     1     -10.945  -4.290   4.495  1.00  0.00     0.169 HD
BRANCH  11  20
HETATM   20  N13 UNL     1     -13.954   0.358   4.186  1.00  0.00    -0.383 N 
ATOM     21 2H13 UNL     1     -13.696   1.045   4.894  1.00  0.00     0.157 HD
ATOM     22 1H13 UNL     1     -14.376   0.654   3.305  1.00  0.00     0.157 HD
ENDBRANCH  11  20
BRANCH  14  23
HETATM   23  N15 UNL     1     -15.591  -3.723   5.474  1.00  0.00    -0.234 N 
ATOM     24 2H15 UNL     1     -16.211  -3.435   6.232  1.00  0.00     0.174 HD
ATOM     25 1H15 UNL     1     -15.771  -4.625   5.034  1.00  0.00     0.174 HD
ENDBRANCH  14  23
ENDBRANCH   4   6
ENDBRANCH   1   4
BRANCH   1  26
HETATM   26  C3  UNL     1      -6.449  -3.143   4.825  1.00  0.00     0.227 C 
BRANCH  26  27
HETATM   27  N2  UNL     1      -6.167  -1.760   5.198  1.00  0.00    -0.280 N 
HETATM   28  C4  UNL     1      -5.391  -0.880   4.580  1.00  0.00     0.144 A 
HETATM   29  C5  UNL     1      -5.438   0.298   5.311  1.00  0.00     0.082 A 
HETATM   30  N8  UNL     1      -6.251   0.069   6.349  1.00  0.00    -0.284 N 
HETATM   31  N9  UNL     1      -6.680  -1.174   6.265  1.00  0.00    -0.240 N 
ATOM     32  H8  UNL     1      -6.496   0.739   7.077  1.00  0.00     0.188 HD
ATOM     33  H9  UNL     1      -7.315  -1.619   6.927  1.00  0.00     0.208 HD
BRANCH  29  34
HETATM   34  C6  UNL     1      -4.721   1.529   4.975  1.00  0.00     0.059 A 
HETATM   35  C7  UNL     1      -5.259   2.666   4.402  1.00  0.00     0.153 A 
HETATM   36  N3  UNL     1      -4.307   3.586   4.242  1.00  0.00    -0.212 N 
HETATM   37  N5  UNL     1      -3.186   3.060   4.700  1.00  0.00    -0.263 N 
HETATM   38  C8  UNL     1      -3.392   1.797   5.161  1.00  0.00     0.150 A 
ATOM     39  H5  UNL     1      -2.285   3.538   4.707  1.00  0.00     0.190 HD
BRANCH  36  40
HETATM   40  N4  UNL     1      -4.482   4.877   3.686  1.00  0.00    -0.324 N 
ATOM     41  H42 UNL     1      -4.840   5.708   4.157  1.00  0.00     0.178 HD
ATOM     42  H41 UNL     1      -4.271   5.149   2.725  1.00  0.00     0.178 HD
ENDBRANCH  36  40
BRANCH  38  43
HETATM   43  N6  UNL     1      -2.380   0.974   5.714  1.00  0.00    -0.290 N 
ATOM     44  H6  UNL     1      -1.712   0.513   5.097  1.00  0.00     0.188 HD
BRANCH  43  45
HETATM   45  N7  UNL     1      -2.288   0.787   7.098  1.00  0.00    -0.344 N 
ATOM     46  H72 UNL     1      -2.452   1.586   7.711  1.00  0.00     0.176 HD
ATOM     47  H71 UNL     1      -2.061  -0.129   7.486  1.00  0.00     0.176 HD
ENDBRANCH  43  45
ENDBRANCH  38  43
ENDBRANCH  29  34
ENDBRANCH  26  27
ENDBRANCH   1  26
BRANCH   2  48
HETATM   48  N11 UNL     1      -7.777  -4.171   7.073  1.00  0.00    -0.344 N 
ATOM     49 2H11 UNL     1      -8.351  -4.241   7.914  1.00  0.00     0.176 HD
ATOM     50 1H11 UNL     1      -6.772  -4.323   7.156  1.00  0.00     0.176 HD
ENDBRANCH   2  48
TORSDOF 11
ENDMDL
