MODEL 1
REMARK VINA RESULT: -8.187362518      0.000      0.000
REMARK  9 active torsions:
REMARK  status: ('A' for Active; 'I' for Inactive)
REMARK    1  A    between atoms: C2_2  and  S1_3 
REMARK    2  A    between atoms: S1_3  and  C3_6 
REMARK    3  A    between atoms: C6_12  and  N2_13 
REMARK       I    between atoms: N2_13  and  C7_15 
REMARK    4  A    between atoms: C7_15  and  C8_17 
REMARK    5  A    between atoms: C9_20  and  C10_21 
REMARK    6  A    between atoms: N4_22  and  N5_24 
REMARK    7  A    between atoms: N5_24  and  C11_26 
REMARK    8  A    between atoms: C14_33  and  O5_34 
REMARK    9  A    between atoms: N9_38  and  N10_39 
ROOT
HETATM    1  C8  UNL     1     -12.531 -13.416 -28.868  1.00  0.00     0.214 A 
HETATM    2  N3  UNL     1     -11.711 -12.998 -29.765  1.00  0.00    -0.330 N 
ATOM      3  H3  UNL     1     -11.721 -13.432 -30.689  1.00  0.00     0.168 HD
HETATM    4  C9  UNL     1     -10.784 -11.941 -29.502  1.00  0.00     0.103 A 
HETATM    5  C14 UNL     1     -10.764 -11.369 -28.300  1.00  0.00     0.185 A 
HETATM    6  N8  UNL     1     -11.653 -11.811 -27.310  1.00  0.00    -0.255 N 
ATOM      7  H8  UNL     1     -11.643 -11.376 -26.387  1.00  0.00     0.191 HD
HETATM    8  N9  UNL     1     -12.563 -12.858 -27.586  1.00  0.00    -0.178 N 
ENDROOT
BRANCH   1   9
HETATM    9  C7  UNL     1     -13.472 -14.512 -29.187  1.00  0.00     0.293 C 
HETATM   10  N2  UNL     1     -13.416 -15.085 -30.447  1.00  0.00    -0.316 N 
ATOM     11  H2  UNL     1     -12.720 -14.711 -31.092  1.00  0.00     0.169 HD
HETATM   12  O4  UNL     1     -14.249 -14.845 -28.296  1.00  0.00    -0.264 OA
BRANCH  10  13
HETATM   13  C6  UNL     1     -14.227 -16.133 -30.926  1.00  0.00     0.105 A 
HETATM   14  C5  UNL     1     -13.649 -17.075 -31.796  1.00  0.00     0.272 A 
HETATM   15  N1  UNL     1     -14.363 -18.075 -32.273  1.00  0.00    -0.330 N 
HETATM   16  O3  UNL     1     -12.425 -16.905 -32.085  1.00  0.00    -0.266 OA
HETATM   17  C4  UNL     1     -15.642 -18.252 -31.968  1.00  0.00     0.115 A 
ATOM     18  H1  UNL     1     -13.913 -18.741 -32.901  1.00  0.00     0.168 HD
HETATM   19  C3  UNL     1     -16.274 -17.370 -31.124  1.00  0.00     0.081 A 
HETATM   20  C15 UNL     1     -15.558 -16.296 -30.596  1.00  0.00     0.060 A 
BRANCH  19  21
HETATM   21  S1  UNL     1     -17.960 -17.541 -30.680  1.00  0.00     0.197 S 
HETATM   22  O1  UNL     1     -18.808 -17.137 -31.855  1.00  0.00    -0.218 OA
HETATM   23  O2  UNL     1     -18.269 -16.685 -29.484  1.00  0.00    -0.218 OA
BRANCH  21  24
HETATM   24  C2  UNL     1     -18.273 -19.218 -30.237  1.00  0.00     0.104 C 
HETATM   25  C1  UNL     1     -19.515 -19.601 -30.074  1.00  0.00     0.024 C 
ENDBRANCH  21  24
ENDBRANCH  19  21
ENDBRANCH  10  13
ENDBRANCH   1   9
BRANCH   8  26
HETATM   26  N10 UNL     1     -13.412 -13.251 -26.575  1.00  0.00    -0.322 N 
ATOM     27 2H10 UNL     1     -13.110 -14.020 -25.976  1.00  0.00     0.179 HD
ATOM     28 1H10 UNL     1     -14.321 -12.832 -26.378  1.00  0.00     0.179 HD
ENDBRANCH   8  26
BRANCH   4  29
HETATM   29  C10 UNL     1      -9.877 -11.509 -30.555  1.00  0.00     0.141 C 
HETATM   30  N4  UNL     1      -8.605 -11.563 -30.383  1.00  0.00    -0.307 N 
ATOM     31  H4  UNL     1      -8.238 -11.913 -29.497  1.00  0.00     0.186 HD
BRANCH  30  32
HETATM   32  N5  UNL     1      -7.720 -11.160 -31.363  1.00  0.00    -0.272 N 
ATOM     33  H5  UNL     1      -8.000 -10.453 -32.044  1.00  0.00     0.190 HD
BRANCH  32  34
HETATM   34  C11 UNL     1      -6.428 -11.725 -31.426  1.00  0.00     0.190 C 
HETATM   35  N6  UNL     1      -6.137 -12.754 -32.110  1.00  0.00    -0.360 N 
HETATM   36  C12 UNL     1      -4.736 -13.064 -31.955  1.00  0.00     0.142 C 
ATOM     37  H6  UNL     1      -6.794 -13.282 -32.683  1.00  0.00     0.162 HD
HETATM   38  C13 UNL     1      -4.367 -12.353 -30.684  1.00  0.00     0.142 C 
HETATM   39  N7  UNL     1      -5.295 -11.214 -30.732  1.00  0.00    -0.360 N 
ATOM     40  H7  UNL     1      -5.159 -10.276 -30.356  1.00  0.00     0.162 HD
ENDBRANCH  32  34
ENDBRANCH  30  32
ENDBRANCH   4  29
BRANCH   5  41
HETATM   41  O5  UNL     1      -9.835 -10.350 -28.127  1.00  0.00    -0.343 OA
ATOM     42  H5  UNL     1     -10.189  -9.501 -27.890  1.00  0.00     0.219 HD
ENDBRANCH   5  41
TORSDOF 9
ENDMDL
MODEL 2
REMARK VINA RESULT: -8.077968088      4.881      9.782
REMARK  9 active torsions:
REMARK  status: ('A' for Active; 'I' for Inactive)
REMARK    1  A    between atoms: C2_2  and  S1_3 
REMARK    2  A    between atoms: S1_3  and  C3_6 
REMARK    3  A    between atoms: C6_12  and  N2_13 
REMARK       I    between atoms: N2_13  and  C7_15 
REMARK    4  A    between atoms: C7_15  and  C8_17 
REMARK    5  A    between atoms: C9_20  and  C10_21 
REMARK    6  A    between atoms: N4_22  and  N5_24 
REMARK    7  A    between atoms: N5_24  and  C11_26 
REMARK    8  A    between atoms: C14_33  and  O5_34 
REMARK    9  A    between atoms: N9_38  and  N10_39 
ROOT
HETATM    1  C8  UNL     1     -11.646 -15.353 -30.442  1.00  0.00     0.214 A 
HETATM    2  N3  UNL     1     -12.715 -15.681 -31.076  1.00  0.00    -0.330 N 
ATOM      3  H3  UNL     1     -12.636 -16.063 -32.019  1.00  0.00     0.168 HD
HETATM    4  C9  UNL     1     -14.012 -15.524 -30.493  1.00  0.00     0.103 A 
HETATM    5  C14 UNL     1     -14.124 -15.026 -29.263  1.00  0.00     0.185 A 
HETATM    6  N8  UNL     1     -12.967 -14.664 -28.557  1.00  0.00    -0.255 N 
ATOM      7  H8  UNL     1     -13.046 -14.283 -27.614  1.00  0.00     0.191 HD
HETATM    8  N9  UNL     1     -11.692 -14.825 -29.148  1.00  0.00    -0.178 N 
ENDROOT
BRANCH   1   9
HETATM    9  C7  UNL     1     -10.326 -15.533 -31.086  1.00  0.00     0.293 C 
HETATM   10  N2  UNL     1      -9.949 -16.809 -31.472  1.00  0.00    -0.316 N 
ATOM     11  H2  UNL     1     -10.612 -17.561 -31.287  1.00  0.00     0.169 HD
HETATM   12  O4  UNL     1      -9.646 -14.522 -31.236  1.00  0.00    -0.264 OA
BRANCH  10  13
HETATM   13  C6  UNL     1      -8.738 -17.170 -32.097  1.00  0.00     0.105 A 
HETATM   14  C5  UNL     1      -8.657 -17.069 -33.497  1.00  0.00     0.272 A 
HETATM   15  N1  UNL     1      -7.549 -17.394 -34.131  1.00  0.00    -0.330 N 
HETATM   16  O3  UNL     1      -9.696 -16.654 -34.097  1.00  0.00    -0.266 OA
HETATM   17  C4  UNL     1      -6.464 -17.827 -33.502  1.00  0.00     0.115 A 
ATOM     18  H1  UNL     1      -7.523 -17.309 -35.147  1.00  0.00     0.168 HD
HETATM   19  C3  UNL     1      -6.469 -17.952 -32.132  1.00  0.00     0.081 A 
HETATM   20  C15 UNL     1      -7.621 -17.619 -31.421  1.00  0.00     0.060 A 
BRANCH  19  21
HETATM   21  S1  UNL     1      -5.074 -18.517 -31.236  1.00  0.00     0.197 S 
HETATM   22  O1  UNL     1      -4.914 -17.660 -30.010  1.00  0.00    -0.218 OA
HETATM   23  O2  UNL     1      -3.844 -18.447 -32.096  1.00  0.00    -0.218 OA
BRANCH  21  24
HETATM   24  C2  UNL     1      -5.321 -20.202 -30.786  1.00  0.00     0.104 C 
HETATM   25  C1  UNL     1      -4.573 -20.714 -29.840  1.00  0.00     0.024 C 
ENDBRANCH  21  24
ENDBRANCH  19  21
ENDBRANCH  10  13
ENDBRANCH   1   9
BRANCH   8  26
HETATM   26  N10 UNL     1     -10.592 -14.452 -28.407  1.00  0.00    -0.322 N 
ATOM     27 2H10 UNL     1      -9.876 -13.894 -28.872  1.00  0.00     0.179 HD
ATOM     28 1H10 UNL     1     -10.439 -14.691 -27.427  1.00  0.00     0.179 HD
ENDBRANCH   8  26
BRANCH   4  29
HETATM   29  C10 UNL     1     -15.188 -15.911 -31.257  1.00  0.00     0.141 C 
HETATM   30  N4  UNL     1     -16.007 -16.787 -30.793  1.00  0.00    -0.307 N 
ATOM     31  H4  UNL     1     -15.822 -17.206 -29.882  1.00  0.00     0.186 HD
BRANCH  30  32
HETATM   32  N5  UNL     1     -17.132 -17.175 -31.495  1.00  0.00    -0.272 N 
ATOM     33  H5  UNL     1     -17.112 -17.201 -32.515  1.00  0.00     0.190 HD
BRANCH  32  34
HETATM   34  C11 UNL     1     -18.308 -17.535 -30.804  1.00  0.00     0.190 C 
HETATM   35  N6  UNL     1     -18.404 -17.568 -29.538  1.00  0.00    -0.360 N 
HETATM   36  C12 UNL     1     -19.737 -17.975 -29.159  1.00  0.00     0.142 C 
ATOM     37  H6  UNL     1     -17.653 -17.342 -28.887  1.00  0.00     0.162 HD
HETATM   38  C13 UNL     1     -20.251 -18.653 -30.397  1.00  0.00     0.142 C 
HETATM   39  N7  UNL     1     -19.527 -17.906 -31.436  1.00  0.00    -0.360 N 
ATOM     40  H7  UNL     1     -19.829 -17.702 -32.389  1.00  0.00     0.162 HD
ENDBRANCH  32  34
ENDBRANCH  30  32
ENDBRANCH   4  29
BRANCH   5  41
HETATM   41  O5  UNL     1     -15.418 -14.907 -28.771  1.00  0.00    -0.343 OA
ATOM     42  H5  UNL     1     -15.994 -15.644 -28.935  1.00  0.00     0.219 HD
ENDBRANCH   5  41
TORSDOF 9
ENDMDL
MODEL 3
REMARK VINA RESULT: -8.063649499      3.323      4.211
REMARK  9 active torsions:
REMARK  status: ('A' for Active; 'I' for Inactive)
REMARK    1  A    between atoms: C2_2  and  S1_3 
REMARK    2  A    between atoms: S1_3  and  C3_6 
REMARK    3  A    between atoms: C6_12  and  N2_13 
REMARK       I    between atoms: N2_13  and  C7_15 
REMARK    4  A    between atoms: C7_15  and  C8_17 
REMARK    5  A    between atoms: C9_20  and  C10_21 
REMARK    6  A    between atoms: N4_22  and  N5_24 
REMARK    7  A    between atoms: N5_24  and  C11_26 
REMARK    8  A    between atoms: C14_33  and  O5_34 
REMARK    9  A    between atoms: N9_38  and  N10_39 
ROOT
HETATM    1  C8  UNL     1     -14.095 -14.977 -29.159  1.00  0.00     0.214 A 
HETATM    2  N3  UNL     1     -13.162 -15.071 -30.039  1.00  0.00    -0.330 N 
ATOM      3  H3  UNL     1     -13.341 -15.588 -30.900  1.00  0.00     0.168 HD
HETATM    4  C9  UNL     1     -11.880 -14.467 -29.842  1.00  0.00     0.103 A 
HETATM    5  C14 UNL     1     -11.639 -13.790 -28.722  1.00  0.00     0.185 A 
HETATM    6  N8  UNL     1     -12.645 -13.677 -27.751  1.00  0.00    -0.255 N 
ATOM      7  H8  UNL     1     -12.466 -13.158 -26.891  1.00  0.00     0.191 HD
HETATM    8  N9  UNL     1     -13.908 -14.280 -27.962  1.00  0.00    -0.178 N 
ENDROOT
BRANCH   1   9
HETATM    9  C7  UNL     1     -15.405 -15.618 -29.407  1.00  0.00     0.293 C 
HETATM   10  N2  UNL     1     -16.193 -15.955 -28.319  1.00  0.00    -0.316 N 
ATOM     11  H2  UNL     1     -15.819 -15.739 -27.395  1.00  0.00     0.169 HD
HETATM   12  O4  UNL     1     -15.707 -15.809 -30.582  1.00  0.00    -0.264 OA
BRANCH  10  13
HETATM   13  C6  UNL     1     -17.462 -16.567 -28.362  1.00  0.00     0.105 A 
HETATM   14  C5  UNL     1     -18.502 -15.993 -27.609  1.00  0.00     0.272 A 
HETATM   15  N1  UNL     1     -19.707 -16.525 -27.614  1.00  0.00    -0.330 N 
HETATM   16  O3  UNL     1     -18.212 -14.954 -26.940  1.00  0.00    -0.266 OA
HETATM   17  C4  UNL     1     -20.008 -17.611 -28.315  1.00  0.00     0.115 A 
ATOM     18  H1  UNL     1     -20.439 -16.084 -27.058  1.00  0.00     0.168 HD
HETATM   19  C3  UNL     1     -19.042 -18.227 -29.074  1.00  0.00     0.081 A 
HETATM   20  C15 UNL     1     -17.752 -17.698 -29.098  1.00  0.00     0.060 A 
BRANCH  19  21
HETATM   21  S1  UNL     1     -19.368 -19.663 -30.023  1.00  0.00     0.197 S 
HETATM   22  O1  UNL     1     -19.884 -20.736 -29.103  1.00  0.00    -0.218 OA
HETATM   23  O2  UNL     1     -18.117 -20.118 -30.720  1.00  0.00    -0.218 OA
BRANCH  21  24
HETATM   24  C2  UNL     1     -20.563 -19.279 -31.259  1.00  0.00     0.104 C 
HETATM   25  C1  UNL     1     -20.946 -20.229 -32.076  1.00  0.00     0.024 C 
ENDBRANCH  21  24
ENDBRANCH  19  21
ENDBRANCH  10  13
ENDBRANCH   1   9
BRANCH   8  26
HETATM   26  N10 UNL     1     -14.857 -14.137 -26.974  1.00  0.00    -0.322 N 
ATOM     27 2H10 UNL     1     -15.401 -14.961 -26.717  1.00  0.00     0.179 HD
ATOM     28 1H10 UNL     1     -15.060 -13.268 -26.479  1.00  0.00     0.179 HD
ENDBRANCH   8  26
BRANCH   4  29
HETATM   29  C10 UNL     1     -10.861 -14.606 -30.871  1.00  0.00     0.141 C 
HETATM   30  N4  UNL     1      -9.732 -15.158 -30.601  1.00  0.00    -0.307 N 
ATOM     31  H4  UNL     1      -9.560 -15.498 -29.655  1.00  0.00     0.186 HD
BRANCH  30  32
HETATM   32  N5  UNL     1      -8.746 -15.302 -31.557  1.00  0.00    -0.272 N 
ATOM     33  H5  UNL     1      -8.633 -14.595 -32.284  1.00  0.00     0.190 HD
BRANCH  32  34
HETATM   34  C11 UNL     1      -7.894 -16.428 -31.530  1.00  0.00     0.190 C 
HETATM   35  N6  UNL     1      -8.293 -17.614 -31.317  1.00  0.00    -0.360 N 
HETATM   36  C12 UNL     1      -7.172 -18.522 -31.357  1.00  0.00     0.142 C 
ATOM     37  H6  UNL     1      -9.261 -17.884 -31.145  1.00  0.00     0.162 HD
HETATM   38  C13 UNL     1      -5.993 -17.619 -31.131  1.00  0.00     0.142 C 
HETATM   39  N7  UNL     1      -6.487 -16.373 -31.734  1.00  0.00    -0.360 N 
ATOM     40  H7  UNL     1      -5.947 -15.639 -32.193  1.00  0.00     0.162 HD
ENDBRANCH  32  34
ENDBRANCH  30  32
ENDBRANCH   4  29
BRANCH   5  41
HETATM   41  O5  UNL     1     -10.370 -13.235 -28.609  1.00  0.00    -0.343 OA
ATOM     42  H5  UNL     1      -9.764 -13.438 -29.311  1.00  0.00     0.219 HD
ENDBRANCH   5  41
TORSDOF 9
ENDMDL
MODEL 4
REMARK VINA RESULT: -8.058204720      3.561     10.379
REMARK  9 active torsions:
REMARK  status: ('A' for Active; 'I' for Inactive)
REMARK    1  A    between atoms: C2_2  and  S1_3 
REMARK    2  A    between atoms: S1_3  and  C3_6 
REMARK    3  A    between atoms: C6_12  and  N2_13 
REMARK       I    between atoms: N2_13  and  C7_15 
REMARK    4  A    between atoms: C7_15  and  C8_17 
REMARK    5  A    between atoms: C9_20  and  C10_21 
REMARK    6  A    between atoms: N4_22  and  N5_24 
REMARK    7  A    between atoms: N5_24  and  C11_26 
REMARK    8  A    between atoms: C14_33  and  O5_34 
REMARK    9  A    between atoms: N9_38  and  N10_39 
ROOT
HETATM    1  C8  UNL     1     -13.476 -16.145 -31.710  1.00  0.00     0.214 A 
HETATM    2  N3  UNL     1     -14.691 -16.196 -31.293  1.00  0.00    -0.330 N 
ATOM      3  H3  UNL     1     -15.104 -15.370 -30.861  1.00  0.00     0.168 HD
HETATM    4  C9  UNL     1     -15.480 -17.384 -31.420  1.00  0.00     0.103 A 
HETATM    5  C14 UNL     1     -14.949 -18.467 -31.984  1.00  0.00     0.185 A 
HETATM    6  N8  UNL     1     -13.625 -18.428 -32.444  1.00  0.00    -0.255 N 
ATOM      7  H8  UNL     1     -13.213 -19.255 -32.877  1.00  0.00     0.191 HD
HETATM    8  N9  UNL     1     -12.859 -17.246 -32.311  1.00  0.00    -0.178 N 
ENDROOT
BRANCH   1   9
HETATM    9  C7  UNL     1     -12.700 -14.895 -31.556  1.00  0.00     0.293 C 
HETATM   10  N2  UNL     1     -12.100 -14.635 -30.334  1.00  0.00    -0.316 N 
ATOM     11  H2  UNL     1     -12.231 -15.331 -29.601  1.00  0.00     0.169 HD
HETATM   12  O4  UNL     1     -12.641 -14.163 -32.540  1.00  0.00    -0.264 OA
BRANCH  10  13
HETATM   13  C6  UNL     1     -11.327 -13.503 -30.006  1.00  0.00     0.105 A 
HETATM   14  C5  UNL     1     -11.447 -12.971 -28.710  1.00  0.00     0.272 A 
HETATM   15  N1  UNL     1     -10.747 -11.914 -28.352  1.00  0.00    -0.330 N 
HETATM   16  O3  UNL     1     -12.253 -13.560 -27.927  1.00  0.00    -0.266 OA
HETATM   17  C4  UNL     1      -9.903 -11.300 -29.173  1.00  0.00     0.115 A 
ATOM     18  H1  UNL     1     -10.857 -11.553 -27.404  1.00  0.00     0.168 HD
HETATM   19  C3  UNL     1      -9.735 -11.765 -30.456  1.00  0.00     0.081 A 
HETATM   20  C15 UNL     1     -10.456 -12.881 -30.878  1.00  0.00     0.060 A 
BRANCH  19  21
HETATM   21  S1  UNL     1      -8.640 -11.005 -31.593  1.00  0.00     0.197 S 
HETATM   22  O1  UNL     1      -7.234 -11.167 -31.084  1.00  0.00    -0.218 OA
HETATM   23  O2  UNL     1      -8.984  -9.550 -31.748  1.00  0.00    -0.218 OA
BRANCH  21  24
HETATM   24  C2  UNL     1      -8.822 -11.771 -33.168  1.00  0.00     0.104 C 
HETATM   25  C1  UNL     1      -9.601 -11.203 -34.056  1.00  0.00     0.024 C 
ENDBRANCH  21  24
ENDBRANCH  19  21
ENDBRANCH  10  13
ENDBRANCH   1   9
BRANCH   8  26
HETATM   26  N10 UNL     1     -11.564 -17.267 -32.781  1.00  0.00    -0.322 N 
ATOM     27 2H10 UNL     1     -11.251 -18.108 -33.266  1.00  0.00     0.179 HD
ATOM     28 1H10 UNL     1     -10.893 -16.505 -32.681  1.00  0.00     0.179 HD
ENDBRANCH   8  26
BRANCH   4  29
HETATM   29  C10 UNL     1     -16.850 -17.385 -30.930  1.00  0.00     0.141 C 
HETATM   30  N4  UNL     1     -17.827 -17.132 -31.726  1.00  0.00    -0.307 N 
ATOM     31  H4  UNL     1     -17.629 -16.930 -32.707  1.00  0.00     0.186 HD
BRANCH  30  32
HETATM   32  N5  UNL     1     -19.137 -17.126 -31.290  1.00  0.00    -0.272 N 
ATOM     33  H5  UNL     1     -19.731 -16.316 -31.471  1.00  0.00     0.190 HD
BRANCH  32  34
HETATM   34  C11 UNL     1     -19.657 -18.240 -30.596  1.00  0.00     0.190 C 
HETATM   35  N6  UNL     1     -20.192 -18.172 -29.446  1.00  0.00    -0.360 N 
HETATM   36  C12 UNL     1     -20.615 -19.486 -29.025  1.00  0.00     0.142 C 
ATOM     37  H6  UNL     1     -20.304 -17.317 -28.902  1.00  0.00     0.162 HD
HETATM   38  C13 UNL     1     -19.798 -20.401 -29.890  1.00  0.00     0.142 C 
HETATM   39  N7  UNL     1     -19.644 -19.572 -31.094  1.00  0.00    -0.360 N 
ATOM     40  H7  UNL     1     -19.551 -19.880 -32.062  1.00  0.00     0.162 HD
ENDBRANCH  32  34
ENDBRANCH  30  32
ENDBRANCH   4  29
BRANCH   5  41
HETATM   41  O5  UNL     1     -15.781 -19.577 -32.069  1.00  0.00    -0.343 OA
ATOM     42  H5  UNL     1     -15.623 -20.159 -32.802  1.00  0.00     0.219 HD
ENDBRANCH   5  41
TORSDOF 9
ENDMDL
MODEL 5
REMARK VINA RESULT: -8.052289807      3.623     10.028
REMARK  9 active torsions:
REMARK  status: ('A' for Active; 'I' for Inactive)
REMARK    1  A    between atoms: C2_2  and  S1_3 
REMARK    2  A    between atoms: S1_3  and  C3_6 
REMARK    3  A    between atoms: C6_12  and  N2_13 
REMARK       I    between atoms: N2_13  and  C7_15 
REMARK    4  A    between atoms: C7_15  and  C8_17 
REMARK    5  A    between atoms: C9_20  and  C10_21 
REMARK    6  A    between atoms: N4_22  and  N5_24 
REMARK    7  A    between atoms: N5_24  and  C11_26 
REMARK    8  A    between atoms: C14_33  and  O5_34 
REMARK    9  A    between atoms: N9_38  and  N10_39 
ROOT
HETATM    1  C8  UNL     1     -13.045 -16.423 -31.919  1.00  0.00     0.214 A 
HETATM    2  N3  UNL     1     -14.308 -16.334 -31.691  1.00  0.00    -0.330 N 
ATOM      3  H3  UNL     1     -14.696 -15.442 -31.381  1.00  0.00     0.168 HD
HETATM    4  C9  UNL     1     -15.182 -17.453 -31.860  1.00  0.00     0.103 A 
HETATM    5  C14 UNL     1     -14.684 -18.620 -32.265  1.00  0.00     0.185 A 
HETATM    6  N8  UNL     1     -13.310 -18.734 -32.519  1.00  0.00    -0.255 N 
ATOM      7  H8  UNL     1     -12.923 -19.626 -32.830  1.00  0.00     0.191 HD
HETATM    8  N9  UNL     1     -12.459 -17.617 -32.346  1.00  0.00    -0.178 N 
ENDROOT
BRANCH   1   9
HETATM    9  C7  UNL     1     -12.181 -15.237 -31.729  1.00  0.00     0.293 C 
HETATM   10  N2  UNL     1     -12.090 -14.681 -30.463  1.00  0.00    -0.316 N 
ATOM     11  H2  UNL     1     -12.632 -15.128 -29.724  1.00  0.00     0.169 HD
HETATM   12  O4  UNL     1     -11.594 -14.822 -32.725  1.00  0.00    -0.264 OA
BRANCH  10  13
HETATM   13  C6  UNL     1     -11.320 -13.559 -30.096  1.00  0.00     0.105 A 
HETATM   14  C5  UNL     1     -11.443 -13.071 -28.783  1.00  0.00     0.272 A 
HETATM   15  N1  UNL     1     -10.747 -12.025 -28.388  1.00  0.00    -0.330 N 
HETATM   16  O3  UNL     1     -12.249 -13.688 -28.021  1.00  0.00    -0.266 OA
HETATM   17  C4  UNL     1      -9.904 -11.381 -29.186  1.00  0.00     0.115 A 
ATOM     18  H1  UNL     1     -10.859 -11.696 -27.429  1.00  0.00     0.168 HD
HETATM   19  C3  UNL     1      -9.732 -11.802 -30.484  1.00  0.00     0.081 A 
HETATM   20  C15 UNL     1     -10.450 -12.906 -30.945  1.00  0.00     0.060 A 
BRANCH  19  21
HETATM   21  S1  UNL     1      -8.637 -11.001 -31.593  1.00  0.00     0.197 S 
HETATM   22  O1  UNL     1      -7.234 -11.152 -31.072  1.00  0.00    -0.218 OA
HETATM   23  O2  UNL     1      -9.003  -9.549 -31.721  1.00  0.00    -0.218 OA
BRANCH  21  24
HETATM   24  C2  UNL     1      -8.790 -11.738 -33.186  1.00  0.00     0.104 C 
HETATM   25  C1  UNL     1      -9.595 -11.182 -34.058  1.00  0.00     0.024 C 
ENDBRANCH  21  24
ENDBRANCH  19  21
ENDBRANCH  10  13
ENDBRANCH   1   9
BRANCH   8  26
HETATM   26  N10 UNL     1     -11.118 -17.789 -32.610  1.00  0.00    -0.322 N 
ATOM     27 2H10 UNL     1     -10.825 -17.792 -33.588  1.00  0.00     0.179 HD
ATOM     28 1H10 UNL     1     -10.393 -17.913 -31.903  1.00  0.00     0.179 HD
ENDBRANCH   8  26
BRANCH   4  29
HETATM   29  C10 UNL     1     -16.603 -17.296 -31.587  1.00  0.00     0.141 C 
HETATM   30  N4  UNL     1     -17.185 -18.042 -30.717  1.00  0.00    -0.307 N 
ATOM     31  H4  UNL     1     -16.639 -18.746 -30.220  1.00  0.00     0.186 HD
BRANCH  30  32
HETATM   32  N5  UNL     1     -18.532 -17.917 -30.437  1.00  0.00    -0.272 N 
ATOM     33  H5  UNL     1     -19.220 -18.409 -31.008  1.00  0.00     0.190 HD
BRANCH  32  34
HETATM   34  C11 UNL     1     -18.959 -17.108 -29.361  1.00  0.00     0.190 C 
HETATM   35  N6  UNL     1     -19.949 -16.317 -29.419  1.00  0.00    -0.360 N 
HETATM   36  C12 UNL     1     -20.113 -15.643 -28.153  1.00  0.00     0.142 C 
ATOM     37  H6  UNL     1     -20.541 -16.177 -30.238  1.00  0.00     0.162 HD
HETATM   38  C13 UNL     1     -18.765 -15.795 -27.509  1.00  0.00     0.142 C 
HETATM   39  N7  UNL     1     -18.332 -17.077 -28.084  1.00  0.00    -0.360 N 
ATOM     40  H7  UNL     1     -17.725 -17.782 -27.665  1.00  0.00     0.162 HD
ENDBRANCH  32  34
ENDBRANCH  30  32
ENDBRANCH   4  29
BRANCH   5  41
HETATM   41  O5  UNL     1     -15.600 -19.656 -32.405  1.00  0.00    -0.343 OA
ATOM     42  H5  UNL     1     -15.660 -20.043 -33.270  1.00  0.00     0.219 HD
ENDBRANCH   5  41
TORSDOF 9
ENDMDL
