MODEL 1
REMARK VINA RESULT: -8.600635064      0.000      0.000
REMARK  11 active torsions:
REMARK  status: ('A' for Active; 'I' for Inactive)
REMARK    1  A    between atoms: O1_2  and  C2_3 
REMARK    2  A    between atoms: C3_4  and  O2_5 
REMARK    3  A    between atoms: C3_4  and  C4_7 
REMARK    4  A    between atoms: C4_7  and  O3_8 
REMARK    5  A    between atoms: C6_16  and  O4_17 
REMARK    6  A    between atoms: C7_19  and  C8_20 
REMARK    7  A    between atoms: C8_20  and  O5_22 
REMARK    8  A    between atoms: C10_25  and  O7_26 
REMARK    9  A    between atoms: O7_26  and  S1_27 
REMARK   10  A    between atoms: S1_27  and  C11_30 
REMARK   11  A    between atoms: C11_30  and  C12_31 
ROOT
HETATM    1  C2  UNL     1     -13.628 -14.561 -32.247  1.00  0.00     0.231 C 
HETATM    2  C3  UNL     1     -15.013 -14.109 -32.081  1.00  0.00     0.207 C 
HETATM    3  N1  UNL     1     -15.251 -12.773 -32.678  1.00  0.00    -0.101 NA
HETATM    4  N2  UNL     1     -14.441 -11.798 -32.171  1.00  0.00    -0.106 NA
HETATM    5  C5  UNL     1     -13.107 -12.341 -31.901  1.00  0.00     0.364 C 
HETATM    6  N3  UNL     1     -13.297 -13.037 -30.611  1.00  0.00    -0.012 N 
ATOM      7  H31 UNL     1     -14.243 -13.030 -30.228  1.00  0.00     0.283 HD
ATOM      8  H32 UNL     1     -12.884 -12.592 -29.791  1.00  0.00     0.283 HD
HETATM    9  C6  UNL     1     -12.761 -14.336 -30.978  1.00  0.00     0.296 C 
HETATM   10  C7  UNL     1     -11.385 -14.033 -31.526  1.00  0.00     0.220 C 
HETATM   11  O6  UNL     1     -11.584 -13.954 -32.894  1.00  0.00    -0.336 OA
HETATM   12  C10 UNL     1     -12.877 -13.378 -32.947  1.00  0.00     0.268 C 
ENDROOT
BRANCH  12  13
HETATM   13  O7  UNL     1     -13.333 -13.161 -34.186  1.00  0.00    -0.228 OA
BRANCH  13  14
HETATM   14  S1  UNL     1     -12.147 -12.873 -35.308  1.00  0.00     0.272 S 
HETATM   15  O8  UNL     1     -12.760 -12.515 -36.657  1.00  0.00    -0.198 OA
HETATM   16  O9  UNL     1     -11.231 -14.019 -35.569  1.00  0.00    -0.198 OA
BRANCH  14  17
HETATM   17  C11 UNL     1     -11.106 -11.513 -34.757  1.00  0.00     0.209 C 
BRANCH  17  18
HETATM   18  C12 UNL     1     -11.341 -10.389 -35.719  1.00  0.00    -0.042 A 
HETATM   19  C13 UNL     1     -10.568 -10.233 -36.862  1.00  0.00     0.008 A 
HETATM   20  C14 UNL     1     -10.786  -9.199 -37.743  1.00  0.00     0.001 A 
HETATM   21  C15 UNL     1     -11.798  -8.280 -37.501  1.00  0.00     0.000 A 
HETATM   22  C16 UNL     1     -12.563  -8.434 -36.368  1.00  0.00     0.001 A 
HETATM   23  C17 UNL     1     -12.331  -9.473 -35.499  1.00  0.00     0.008 A 
ENDBRANCH  17  18
ENDBRANCH  14  17
ENDBRANCH  13  14
ENDBRANCH  12  13
BRANCH   1  24
HETATM   24  O1  UNL     1     -13.301 -15.655 -32.918  1.00  0.00    -0.371 OA
HETATM   25  C1  UNL     1     -13.519 -16.911 -32.522  1.00  0.00     0.203 C 
ENDBRANCH   1  24
BRANCH   2  26
HETATM   26  O2  UNL     1     -15.454 -14.103 -30.740  1.00  0.00    -0.368 OA
ATOM     27  H2  UNL     1     -16.314 -13.718 -30.620  1.00  0.00     0.212 HD
ENDBRANCH   2  26
BRANCH   2  28
HETATM   28  C4  UNL     1     -16.079 -14.936 -32.798  1.00  0.00     0.225 C 
BRANCH  28  29
HETATM   29  O3  UNL     1     -16.464 -14.392 -34.006  1.00  0.00    -0.396 OA
ATOM     30  H3  UNL     1     -16.673 -15.049 -34.661  1.00  0.00     0.209 HD
ENDBRANCH  28  29
ENDBRANCH   2  28
BRANCH   9  31
HETATM   31  O4  UNL     1     -12.853 -15.306 -30.075  1.00  0.00    -0.360 OA
ATOM     32  H4  UNL     1     -12.078 -15.850 -30.007  1.00  0.00     0.212 HD
ENDBRANCH   9  31
BRANCH  10  33
HETATM   33  C8  UNL     1     -10.289 -14.907 -31.066  1.00  0.00     0.148 C 
HETATM   34  C9  UNL     1      -9.102 -14.686 -32.016  1.00  0.00     0.042 C 
BRANCH  33  35
HETATM   35  O5  UNL     1     -10.511 -16.250 -31.020  1.00  0.00    -0.393 OA
ATOM     36  H5  UNL     1     -10.656 -16.711 -31.837  1.00  0.00     0.210 HD
ENDBRANCH  33  35
ENDBRANCH  10  33
TORSDOF 11
ENDMDL
MODEL 2
REMARK VINA RESULT: -7.816468662      2.445      3.309
REMARK  11 active torsions:
REMARK  status: ('A' for Active; 'I' for Inactive)
REMARK    1  A    between atoms: O1_2  and  C2_3 
REMARK    2  A    between atoms: C3_4  and  O2_5 
REMARK    3  A    between atoms: C3_4  and  C4_7 
REMARK    4  A    between atoms: C4_7  and  O3_8 
REMARK    5  A    between atoms: C6_16  and  O4_17 
REMARK    6  A    between atoms: C7_19  and  C8_20 
REMARK    7  A    between atoms: C8_20  and  O5_22 
REMARK    8  A    between atoms: C10_25  and  O7_26 
REMARK    9  A    between atoms: O7_26  and  S1_27 
REMARK   10  A    between atoms: S1_27  and  C11_30 
REMARK   11  A    between atoms: C11_30  and  C12_31 
ROOT
HETATM    1  C2  UNL     1     -11.755 -13.682 -30.398  1.00  0.00     0.231 C 
HETATM    2  C3  UNL     1     -11.294 -12.587 -29.539  1.00  0.00     0.207 C 
HETATM    3  N1  UNL     1     -10.449 -11.609 -30.268  1.00  0.00    -0.101 NA
HETATM    4  N2  UNL     1      -9.345 -12.168 -30.844  1.00  0.00    -0.106 NA
HETATM    5  C5  UNL     1      -9.663 -13.505 -31.352  1.00  0.00     0.364 C 
HETATM    6  N3  UNL     1      -9.608 -14.336 -30.131  1.00  0.00    -0.012 N 
ATOM      7  H31 UNL     1      -9.415 -13.845 -29.258  1.00  0.00     0.283 HD
ATOM      8  H32 UNL     1      -8.805 -14.958 -30.043  1.00  0.00     0.283 HD
HETATM    9  C6  UNL     1     -10.909 -14.975 -30.238  1.00  0.00     0.296 C 
HETATM   10  C7  UNL     1     -10.913 -15.587 -31.620  1.00  0.00     0.220 C 
HETATM   11  O6  UNL     1     -11.543 -14.633 -32.402  1.00  0.00    -0.336 OA
HETATM   12  C10 UNL     1     -11.086 -13.439 -31.793  1.00  0.00     0.268 C 
ENDROOT
BRANCH  12  13
HETATM   13  O7  UNL     1     -11.533 -12.318 -32.372  1.00  0.00    -0.228 OA
BRANCH  13  14
HETATM   14  S1  UNL     1     -10.916 -12.041 -33.885  1.00  0.00     0.272 S 
HETATM   15  O8  UNL     1     -10.035 -13.204 -34.327  1.00  0.00    -0.198 OA
HETATM   16  O9  UNL     1     -10.070 -10.820 -34.009  1.00  0.00    -0.198 OA
BRANCH  14  17
HETATM   17  C11 UNL     1     -12.261 -11.842 -35.064  1.00  0.00     0.209 C 
BRANCH  17  18
HETATM   18  C12 UNL     1     -11.943 -10.614 -35.859  1.00  0.00    -0.042 A 
HETATM   19  C13 UNL     1     -11.006 -10.628 -36.882  1.00  0.00     0.008 A 
HETATM   20  C14 UNL     1     -10.716  -9.498 -37.611  1.00  0.00     0.001 A 
HETATM   21  C15 UNL     1     -11.367  -8.304 -37.330  1.00  0.00     0.000 A 
HETATM   22  C16 UNL     1     -12.296  -8.289 -36.315  1.00  0.00     0.001 A 
HETATM   23  C17 UNL     1     -12.571  -9.428 -35.599  1.00  0.00     0.008 A 
ENDBRANCH  17  18
ENDBRANCH  14  17
ENDBRANCH  13  14
ENDBRANCH  12  13
BRANCH   1  24
HETATM   24  O1  UNL     1     -13.035 -13.921 -30.638  1.00  0.00    -0.371 OA
HETATM   25  C1  UNL     1     -13.911 -14.440 -29.775  1.00  0.00     0.203 C 
ENDBRANCH   1  24
BRANCH   2  26
HETATM   26  O2  UNL     1     -10.610 -13.018 -28.382  1.00  0.00    -0.368 OA
ATOM     27  H2  UNL     1     -10.875 -13.878 -28.077  1.00  0.00     0.212 HD
ENDBRANCH   2  26
BRANCH   2  28
HETATM   28  C4  UNL     1     -12.380 -11.666 -28.984  1.00  0.00     0.225 C 
BRANCH  28  29
HETATM   29  O3  UNL     1     -13.203 -11.148 -29.963  1.00  0.00    -0.396 OA
ATOM     30  H3  UNL     1     -14.122 -11.336 -29.815  1.00  0.00     0.209 HD
ENDBRANCH  28  29
ENDBRANCH   2  28
BRANCH   9  31
HETATM   31  O4  UNL     1     -11.285 -15.752 -29.230  1.00  0.00    -0.360 OA
ATOM     32  H4  UNL     1     -11.682 -16.573 -29.497  1.00  0.00     0.212 HD
ENDBRANCH   9  31
BRANCH  10  33
HETATM   33  C8  UNL     1     -11.423 -16.968 -31.723  1.00  0.00     0.148 C 
HETATM   34  C9  UNL     1     -11.135 -17.452 -33.153  1.00  0.00     0.042 C 
BRANCH  33  35
HETATM   35  O5  UNL     1     -12.747 -17.186 -31.493  1.00  0.00    -0.393 OA
ATOM     36  H5  UNL     1     -12.997 -17.963 -31.007  1.00  0.00     0.210 HD
ENDBRANCH  33  35
ENDBRANCH  10  33
TORSDOF 11
ENDMDL
MODEL 3
REMARK VINA RESULT: -7.629694219      0.994      1.543
REMARK  11 active torsions:
REMARK  status: ('A' for Active; 'I' for Inactive)
REMARK    1  A    between atoms: O1_2  and  C2_3 
REMARK    2  A    between atoms: C3_4  and  O2_5 
REMARK    3  A    between atoms: C3_4  and  C4_7 
REMARK    4  A    between atoms: C4_7  and  O3_8 
REMARK    5  A    between atoms: C6_16  and  O4_17 
REMARK    6  A    between atoms: C7_19  and  C8_20 
REMARK    7  A    between atoms: C8_20  and  O5_22 
REMARK    8  A    between atoms: C10_25  and  O7_26 
REMARK    9  A    between atoms: O7_26  and  S1_27 
REMARK   10  A    between atoms: S1_27  and  C11_30 
REMARK   11  A    between atoms: C11_30  and  C12_31 
ROOT
HETATM    1  C2  UNL     1     -13.630 -14.624 -32.270  1.00  0.00     0.231 C 
HETATM    2  C3  UNL     1     -15.022 -14.190 -32.122  1.00  0.00     0.207 C 
HETATM    3  N1  UNL     1     -15.278 -12.872 -32.753  1.00  0.00    -0.101 NA
HETATM    4  N2  UNL     1     -14.486 -11.873 -32.265  1.00  0.00    -0.106 NA
HETATM    5  C5  UNL     1     -13.146 -12.388 -31.974  1.00  0.00     0.364 C 
HETATM    6  N3  UNL     1     -13.333 -13.056 -30.669  1.00  0.00    -0.012 N 
ATOM      7  H31 UNL     1     -14.281 -13.055 -30.292  1.00  0.00     0.283 HD
ATOM      8  H32 UNL     1     -12.932 -12.586 -29.858  1.00  0.00     0.283 HD
HETATM    9  C6  UNL     1     -12.774 -14.356 -31.001  1.00  0.00     0.296 C 
HETATM   10  C7  UNL     1     -11.399 -14.044 -31.548  1.00  0.00     0.220 C 
HETATM   11  O6  UNL     1     -11.591 -14.001 -32.920  1.00  0.00    -0.336 OA
HETATM   12  C10 UNL     1     -12.893 -13.447 -32.994  1.00  0.00     0.268 C 
ENDROOT
BRANCH  12  13
HETATM   13  O7  UNL     1     -13.345 -13.266 -34.240  1.00  0.00    -0.228 OA
BRANCH  13  14
HETATM   14  S1  UNL     1     -12.171 -12.862 -35.338  1.00  0.00     0.272 S 
HETATM   15  O8  UNL     1     -12.791 -12.539 -36.693  1.00  0.00    -0.198 OA
HETATM   16  O9  UNL     1     -11.156 -13.922 -35.599  1.00  0.00    -0.198 OA
BRANCH  14  17
HETATM   17  C11 UNL     1     -11.259 -11.425 -34.754  1.00  0.00     0.209 C 
BRANCH  17  18
HETATM   18  C12 UNL     1     -10.121 -11.234 -35.708  1.00  0.00    -0.042 A 
HETATM   19  C13 UNL     1      -8.826 -11.616 -35.385  1.00  0.00     0.008 A 
HETATM   20  C14 UNL     1      -7.782 -11.439 -36.263  1.00  0.00     0.001 A 
HETATM   21  C15 UNL     1      -8.010 -10.866 -37.508  1.00  0.00     0.000 A 
HETATM   22  C16 UNL     1      -9.293 -10.488 -37.828  1.00  0.00     0.001 A 
HETATM   23  C17 UNL     1     -10.323 -10.673 -36.937  1.00  0.00     0.008 A 
ENDBRANCH  17  18
ENDBRANCH  14  17
ENDBRANCH  13  14
ENDBRANCH  12  13
BRANCH   1  24
HETATM   24  O1  UNL     1     -13.282 -15.729 -32.912  1.00  0.00    -0.371 OA
HETATM   25  C1  UNL     1     -13.490 -16.978 -32.491  1.00  0.00     0.203 C 
ENDBRANCH   1  24
BRANCH   2  26
HETATM   26  O2  UNL     1     -15.472 -14.158 -30.784  1.00  0.00    -0.368 OA
ATOM     27  H2  UNL     1     -15.218 -13.375 -30.313  1.00  0.00     0.212 HD
ENDBRANCH   2  26
BRANCH   2  28
HETATM   28  C4  UNL     1     -16.072 -15.051 -32.826  1.00  0.00     0.225 C 
BRANCH  28  29
HETATM   29  O3  UNL     1     -16.661 -14.416 -33.900  1.00  0.00    -0.396 OA
ATOM     30  H3  UNL     1     -17.338 -14.937 -34.315  1.00  0.00     0.209 HD
ENDBRANCH  28  29
ENDBRANCH   2  28
BRANCH   9  31
HETATM   31  O4  UNL     1     -12.857 -15.304 -30.076  1.00  0.00    -0.360 OA
ATOM     32  H4  UNL     1     -12.028 -15.716 -29.864  1.00  0.00     0.212 HD
ENDBRANCH   9  31
BRANCH  10  33
HETATM   33  C8  UNL     1     -10.293 -14.890 -31.061  1.00  0.00     0.148 C 
HETATM   34  C9  UNL     1      -9.100 -14.662 -32.001  1.00  0.00     0.042 C 
BRANCH  33  35
HETATM   35  O5  UNL     1     -10.491 -16.235 -30.995  1.00  0.00    -0.393 OA
ATOM     36  H5  UNL     1     -11.215 -16.559 -30.472  1.00  0.00     0.210 HD
ENDBRANCH  33  35
ENDBRANCH  10  33
TORSDOF 11
ENDMDL
MODEL 4
REMARK VINA RESULT: -7.544070813      2.229      4.080
REMARK  11 active torsions:
REMARK  status: ('A' for Active; 'I' for Inactive)
REMARK    1  A    between atoms: O1_2  and  C2_3 
REMARK    2  A    between atoms: C3_4  and  O2_5 
REMARK    3  A    between atoms: C3_4  and  C4_7 
REMARK    4  A    between atoms: C4_7  and  O3_8 
REMARK    5  A    between atoms: C6_16  and  O4_17 
REMARK    6  A    between atoms: C7_19  and  C8_20 
REMARK    7  A    between atoms: C8_20  and  O5_22 
REMARK    8  A    between atoms: C10_25  and  O7_26 
REMARK    9  A    between atoms: O7_26  and  S1_27 
REMARK   10  A    between atoms: S1_27  and  C11_30 
REMARK   11  A    between atoms: C11_30  and  C12_31 
ROOT
HETATM    1  C2  UNL     1     -11.555 -13.417 -30.403  1.00  0.00     0.231 C 
HETATM    2  C3  UNL     1     -10.204 -13.146 -29.904  1.00  0.00     0.207 C 
HETATM    3  N1  UNL     1      -9.157 -13.418 -30.918  1.00  0.00    -0.101 NA
HETATM    4  N2  UNL     1      -9.171 -14.702 -31.383  1.00  0.00    -0.106 NA
HETATM    5  C5  UNL     1     -10.549 -15.186 -31.488  1.00  0.00     0.364 C 
HETATM    6  N3  UNL     1     -10.872 -15.549 -30.092  1.00  0.00    -0.012 N 
ATOM      7  H31 UNL     1     -10.146 -15.367 -29.398  1.00  0.00     0.283 HD
ATOM      8  H32 UNL     1     -10.923 -16.546 -29.884  1.00  0.00     0.283 HD
HETATM    9  C6  UNL     1     -12.106 -14.796 -29.946  1.00  0.00     0.296 C 
HETATM   10  C7  UNL     1     -12.962 -15.250 -31.107  1.00  0.00     0.220 C 
HETATM   11  O6  UNL     1     -12.731 -14.293 -32.082  1.00  0.00    -0.336 OA
HETATM   12  C10 UNL     1     -11.367 -13.992 -31.848  1.00  0.00     0.268 C 
ENDROOT
BRANCH  12  13
HETATM   13  O7  UNL     1     -10.852 -13.082 -32.684  1.00  0.00    -0.228 OA
BRANCH  13  14
HETATM   14  S1  UNL     1     -11.049 -13.444 -34.289  1.00  0.00     0.272 S 
HETATM   15  O8  UNL     1     -12.430 -13.012 -34.771  1.00  0.00    -0.198 OA
HETATM   16  O9  UNL     1     -10.934 -14.890 -34.630  1.00  0.00    -0.198 OA
BRANCH  14  17
HETATM   17  C11 UNL     1      -9.796 -12.596 -35.262  1.00  0.00     0.209 C 
BRANCH  17  18
HETATM   18  C12 UNL     1     -10.450 -11.362 -35.804  1.00  0.00    -0.042 A 
HETATM   19  C13 UNL     1     -11.407 -10.665 -35.079  1.00  0.00     0.008 A 
HETATM   20  C14 UNL     1     -12.005  -9.532 -35.579  1.00  0.00     0.001 A 
HETATM   21  C15 UNL     1     -11.657  -9.058 -36.837  1.00  0.00     0.000 A 
HETATM   22  C16 UNL     1     -10.709  -9.749 -37.556  1.00  0.00     0.001 A 
HETATM   23  C17 UNL     1     -10.122 -10.879 -37.039  1.00  0.00     0.008 A 
ENDBRANCH  17  18
ENDBRANCH  14  17
ENDBRANCH  13  14
ENDBRANCH  12  13
BRANCH   1  24
HETATM   24  O1  UNL     1     -12.492 -12.484 -30.496  1.00  0.00    -0.371 OA
HETATM   25  C1  UNL     1     -12.959 -11.742 -29.490  1.00  0.00     0.203 C 
ENDBRANCH   1  24
BRANCH   2  26
HETATM   26  O2  UNL     1      -9.887 -13.837 -28.714  1.00  0.00    -0.368 OA
ATOM     27  H2  UNL     1      -8.991 -13.712 -28.425  1.00  0.00     0.212 HD
ENDBRANCH   2  26
BRANCH   2  28
HETATM   28  C4  UNL     1      -9.895 -11.690 -29.558  1.00  0.00     0.225 C 
BRANCH  28  29
HETATM   29  O3  UNL     1      -9.790 -10.881 -30.671  1.00  0.00    -0.396 OA
ATOM     30  H3  UNL     1      -9.462 -10.012 -30.470  1.00  0.00     0.209 HD
ENDBRANCH  28  29
ENDBRANCH   2  28
BRANCH   9  31
HETATM   31  O4  UNL     1     -12.670 -14.787 -28.744  1.00  0.00    -0.360 OA
ATOM     32  H4  UNL     1     -12.843 -15.651 -28.388  1.00  0.00     0.212 HD
ENDBRANCH   9  31
BRANCH  10  33
HETATM   33  C8  UNL     1     -14.372 -15.555 -30.800  1.00  0.00     0.148 C 
HETATM   34  C9  UNL     1     -15.018 -16.068 -32.097  1.00  0.00     0.042 C 
BRANCH  33  35
HETATM   35  O5  UNL     1     -15.164 -14.549 -30.337  1.00  0.00    -0.393 OA
ATOM     36  H5  UNL     1     -15.177 -14.380 -29.403  1.00  0.00     0.210 HD
ENDBRANCH  33  35
ENDBRANCH  10  33
TORSDOF 11
ENDMDL
MODEL 5
REMARK VINA RESULT: -7.514313542      1.997      3.902
REMARK  11 active torsions:
REMARK  status: ('A' for Active; 'I' for Inactive)
REMARK    1  A    between atoms: O1_2  and  C2_3 
REMARK    2  A    between atoms: C3_4  and  O2_5 
REMARK    3  A    between atoms: C3_4  and  C4_7 
REMARK    4  A    between atoms: C4_7  and  O3_8 
REMARK    5  A    between atoms: C6_16  and  O4_17 
REMARK    6  A    between atoms: C7_19  and  C8_20 
REMARK    7  A    between atoms: C8_20  and  O5_22 
REMARK    8  A    between atoms: C10_25  and  O7_26 
REMARK    9  A    between atoms: O7_26  and  S1_27 
REMARK   10  A    between atoms: S1_27  and  C11_30 
REMARK   11  A    between atoms: C11_30  and  C12_31 
ROOT
HETATM    1  C2  UNL     1     -11.596 -13.370 -31.106  1.00  0.00     0.231 C 
HETATM    2  C3  UNL     1     -10.164 -13.304 -30.802  1.00  0.00     0.207 C 
HETATM    3  N1  UNL     1      -9.319 -13.395 -32.018  1.00  0.00    -0.101 NA
HETATM    4  N2  UNL     1      -9.530 -14.533 -32.742  1.00  0.00    -0.106 NA
HETATM    5  C5  UNL     1     -10.949 -14.896 -32.710  1.00  0.00     0.364 C 
HETATM    6  N3  UNL     1     -11.084 -15.553 -31.392  1.00  0.00    -0.012 N 
ATOM      7  H31 UNL     1     -10.246 -15.581 -30.812  1.00  0.00     0.283 HD
ATOM      8  H32 UNL     1     -11.200 -16.566 -31.402  1.00  0.00     0.283 HD
HETATM    9  C6  UNL     1     -12.201 -14.782 -30.873  1.00  0.00     0.296 C 
HETATM   10  C7  UNL     1     -13.268 -14.902 -31.938  1.00  0.00     0.220 C 
HETATM   11  O6  UNL     1     -13.099 -13.761 -32.705  1.00  0.00    -0.336 OA
HETATM   12  C10 UNL     1     -11.692 -13.604 -32.652  1.00  0.00     0.268 C 
ENDROOT
BRANCH  12  13
HETATM   13  O7  UNL     1     -11.227 -12.558 -33.345  1.00  0.00    -0.228 OA
BRANCH  13  14
HETATM   14  S1  UNL     1     -11.409 -12.694 -34.987  1.00  0.00     0.272 S 
HETATM   15  O8  UNL     1     -12.808 -12.258 -35.410  1.00  0.00    -0.198 OA
HETATM   16  O9  UNL     1     -11.231 -14.070 -35.531  1.00  0.00    -0.198 OA
BRANCH  14  17
HETATM   17  C11 UNL     1     -10.196 -11.661 -35.822  1.00  0.00     0.209 C 
BRANCH  17  18
HETATM   18  C12 UNL     1     -10.911 -10.403 -36.208  1.00  0.00    -0.042 A 
HETATM   19  C13 UNL     1     -11.843  -9.806 -35.371  1.00  0.00     0.008 A 
HETATM   20  C14 UNL     1     -12.498  -8.651 -35.729  1.00  0.00     0.001 A 
HETATM   21  C15 UNL     1     -12.235  -8.053 -36.954  1.00  0.00     0.000 A 
HETATM   22  C16 UNL     1     -11.312  -8.645 -37.785  1.00  0.00     0.001 A 
HETATM   23  C17 UNL     1     -10.667  -9.799 -37.409  1.00  0.00     0.008 A 
ENDBRANCH  17  18
ENDBRANCH  14  17
ENDBRANCH  13  14
ENDBRANCH  12  13
BRANCH   1  24
HETATM   24  O1  UNL     1     -12.440 -12.387 -30.829  1.00  0.00    -0.371 OA
HETATM   25  C1  UNL     1     -12.800 -11.985 -29.608  1.00  0.00     0.203 C 
ENDBRANCH   1  24
BRANCH   2  26
HETATM   26  O2  UNL     1      -9.734 -14.269 -29.865  1.00  0.00    -0.368 OA
ATOM     27  H2  UNL     1      -9.607 -13.924 -28.990  1.00  0.00     0.212 HD
ENDBRANCH   2  26
BRANCH   2  28
HETATM   28  C4  UNL     1      -9.664 -11.988 -30.206  1.00  0.00     0.225 C 
BRANCH  28  29
HETATM   29  O3  UNL     1      -9.741 -10.931 -31.089  1.00  0.00    -0.396 OA
ATOM     30  H3  UNL     1      -9.327 -10.141 -30.760  1.00  0.00     0.209 HD
ENDBRANCH  28  29
ENDBRANCH   2  28
BRANCH   9  31
HETATM   31  O4  UNL     1     -12.568 -15.018 -29.619  1.00  0.00    -0.360 OA
ATOM     32  H4  UNL     1     -12.769 -15.928 -29.436  1.00  0.00     0.212 HD
ENDBRANCH   9  31
BRANCH  10  33
HETATM   33  C8  UNL     1     -14.636 -15.185 -31.466  1.00  0.00     0.148 C 
HETATM   34  C9  UNL     1     -15.590 -14.884 -32.632  1.00  0.00     0.042 C 
BRANCH  33  35
HETATM   35  O5  UNL     1     -15.102 -14.495 -30.388  1.00  0.00    -0.393 OA
ATOM     36  H5  UNL     1     -15.422 -14.988 -29.642  1.00  0.00     0.210 HD
ENDBRANCH  33  35
ENDBRANCH  10  33
TORSDOF 11
ENDMDL
