MODEL 1
REMARK VINA RESULT: -8.204563526      0.000      0.000
REMARK  8 active torsions:
REMARK  status: ('A' for Active; 'I' for Inactive)
REMARK    1  A    between atoms: O1_2  and  C2_3 
REMARK    2  A    between atoms: C2_3  and  C3_5 
REMARK    3  A    between atoms: C4_8  and  N2_9 
REMARK    4  A    between atoms: C6_14  and  C7_15 
REMARK    5  A    between atoms: C9_22  and  N7_23 
REMARK    6  A    between atoms: N7_23  and  N8_25 
REMARK       I    between atoms: N8_25  and  C10_27 
REMARK       I    between atoms: C10_27  and  N9_29 
REMARK       I    between atoms: N9_29  and  C11_31 
REMARK    7  A    between atoms: C13_36  and  S1_37 
REMARK    8  A    between atoms: S1_37  and  C14_38 
ROOT
HETATM    1  C3  UNL     1     -11.967 -12.049 -29.920  1.00  0.00     0.144 A 
HETATM    2  N1  UNL     1     -13.065 -12.690 -30.358  1.00  0.00    -0.331 N 
ATOM      3  H1  UNL     1     -13.928 -12.610 -29.821  1.00  0.00     0.168 HD
HETATM    4  C4  UNL     1     -13.066 -13.433 -31.480  1.00  0.00     0.175 A 
HETATM    5  C9  UNL     1     -11.925 -13.568 -32.239  1.00  0.00     0.168 A 
HETATM    6  N10 UNL     1     -10.818 -12.933 -31.812  1.00  0.00    -0.331 N 
ATOM      7  H10 UNL     1      -9.956 -13.016 -32.352  1.00  0.00     0.168 HD
HETATM    8  C13 UNL     1     -10.823 -12.185 -30.680  1.00  0.00     0.111 A 
ENDROOT
BRANCH   4   9
HETATM    9  N2  UNL     1     -14.241 -14.099 -31.920  1.00  0.00    -0.218 N 
HETATM   10  N3  UNL     1     -15.002 -13.648 -32.897  1.00  0.00    -0.277 N 
HETATM   11  C5  UNL     1     -16.042 -14.473 -33.102  1.00  0.00     0.150 A 
ATOM     12  H3  UNL     1     -14.826 -12.793 -33.423  1.00  0.00     0.189 HD
HETATM   13  N4  UNL     1     -17.066 -14.314 -34.066  1.00  0.00    -0.080 NA
HETATM   14  C6  UNL     1     -15.908 -15.504 -32.185  1.00  0.00     0.117 A 
HETATM   15  C8  UNL     1     -14.774 -15.252 -31.453  1.00  0.00     0.141 A 
HETATM   16  N6  UNL     1     -14.241 -15.905 -30.503  1.00  0.00    -0.383 N 
ATOM     17  H62 UNL     1     -13.398 -15.718 -29.960  1.00  0.00     0.157 HD
ATOM     18  H61 UNL     1     -14.642 -16.774 -30.151  1.00  0.00     0.157 HD
BRANCH  14  19
HETATM   19  C7  UNL     1     -16.818 -16.614 -32.059  1.00  0.00     0.272 C 
HETATM   20  N5  UNL     1     -18.188 -16.458 -31.770  1.00  0.00    -0.057 NA
HETATM   21  O3  UNL     1     -16.407 -17.801 -32.207  1.00  0.00    -0.271 OA
ENDBRANCH  14  19
ENDBRANCH   4   9
BRANCH   5  22
HETATM   22  N7  UNL     1     -11.952 -14.289 -33.316  1.00  0.00    -0.278 N 
ATOM     23  H7  UNL     1     -12.246 -13.867 -34.197  1.00  0.00     0.189 HD
BRANCH  22  24
HETATM   24  N8  UNL     1     -11.580 -15.652 -33.287  1.00  0.00    -0.250 N 
HETATM   25  C10 UNL     1     -11.108 -16.236 -34.461  1.00  0.00     0.341 C 
HETATM   26  O4  UNL     1     -11.044 -15.479 -35.499  1.00  0.00    -0.245 OA
HETATM   27  N9  UNL     1     -10.705 -17.550 -34.601  1.00  0.00    -0.278 N 
HETATM   28  C11 UNL     1     -10.697 -18.525 -33.609  1.00  0.00     0.221 C 
ATOM     29  H9  UNL     1     -10.381 -17.833 -35.526  1.00  0.00     0.173 HD
HETATM   30  C12 UNL     1     -10.216 -19.922 -33.960  1.00  0.00     0.117 C 
HETATM   31  O5  UNL     1     -11.046 -18.402 -32.417  1.00  0.00    -0.274 OA
ATOM     32  H8  UNL     1     -11.656 -16.196 -32.427  1.00  0.00     0.192 HD
ENDBRANCH  22  24
ENDBRANCH   5  22
BRANCH   1  33
HETATM   33  C2  UNL     1     -11.991 -11.245 -28.693  1.00  0.00     0.312 C 
HETATM   34  O2  UNL     1     -12.278 -10.019 -28.803  1.00  0.00    -0.258 OA
BRANCH  33  35
HETATM   35  O1  UNL     1     -11.719 -11.759 -27.455  1.00  0.00    -0.321 OA
HETATM   36  C1  UNL     1     -12.711 -11.746 -26.455  1.00  0.00     0.213 C 
ENDBRANCH  33  35
ENDBRANCH   1  33
BRANCH   8  37
HETATM   37  S1  UNL     1      -9.342 -11.362 -30.151  1.00  0.00    -0.041 SA
BRANCH  37  38
HETATM   38  C14 UNL     1      -8.477 -10.591 -31.491  1.00  0.00     0.310 C 
HETATM   39  O6  UNL     1      -9.044 -10.434 -32.552  1.00  0.00    -0.295 OA
ENDBRANCH  37  38
ENDBRANCH   8  37
TORSDOF 8
ENDMDL
MODEL 2
REMARK VINA RESULT: -8.156164563      2.541      3.898
REMARK  8 active torsions:
REMARK  status: ('A' for Active; 'I' for Inactive)
REMARK    1  A    between atoms: O1_2  and  C2_3 
REMARK    2  A    between atoms: C2_3  and  C3_5 
REMARK    3  A    between atoms: C4_8  and  N2_9 
REMARK    4  A    between atoms: C6_14  and  C7_15 
REMARK    5  A    between atoms: C9_22  and  N7_23 
REMARK    6  A    between atoms: N7_23  and  N8_25 
REMARK       I    between atoms: N8_25  and  C10_27 
REMARK       I    between atoms: C10_27  and  N9_29 
REMARK       I    between atoms: N9_29  and  C11_31 
REMARK    7  A    between atoms: C13_36  and  S1_37 
REMARK    8  A    between atoms: S1_37  and  C14_38 
ROOT
HETATM    1  C3  UNL     1     -11.103 -12.991 -30.223  1.00  0.00     0.144 A 
HETATM    2  N1  UNL     1     -12.278 -13.542 -30.574  1.00  0.00    -0.331 N 
ATOM      3  H1  UNL     1     -12.860 -13.963 -29.849  1.00  0.00     0.168 HD
HETATM    4  C4  UNL     1     -12.716 -13.560 -31.847  1.00  0.00     0.175 A 
HETATM    5  C9  UNL     1     -11.965 -13.003 -32.859  1.00  0.00     0.168 A 
HETATM    6  N10 UNL     1     -10.786 -12.448 -32.523  1.00  0.00    -0.331 N 
ATOM      7  H10 UNL     1     -10.208 -12.029 -33.251  1.00  0.00     0.168 HD
HETATM    8  C13 UNL     1     -10.351 -12.434 -31.238  1.00  0.00     0.111 A 
ENDROOT
BRANCH   4   9
HETATM    9  N2  UNL     1     -13.962 -14.149 -32.189  1.00  0.00    -0.218 N 
HETATM   10  N3  UNL     1     -14.776 -13.641 -33.092  1.00  0.00    -0.277 N 
HETATM   11  C5  UNL     1     -15.877 -14.399 -33.213  1.00  0.00     0.150 A 
ATOM     12  H3  UNL     1     -14.594 -12.790 -33.624  1.00  0.00     0.189 HD
HETATM   13  N4  UNL     1     -16.969 -14.167 -34.083  1.00  0.00    -0.080 NA
HETATM   14  C6  UNL     1     -15.726 -15.449 -32.320  1.00  0.00     0.117 A 
HETATM   15  C8  UNL     1     -14.521 -15.275 -31.687  1.00  0.00     0.141 A 
HETATM   16  N6  UNL     1     -13.948 -15.972 -30.793  1.00  0.00    -0.383 N 
ATOM     17  H62 UNL     1     -13.052 -15.842 -30.324  1.00  0.00     0.157 HD
ATOM     18  H61 UNL     1     -14.369 -16.820 -30.415  1.00  0.00     0.157 HD
BRANCH  14  19
HETATM   19  C7  UNL     1     -16.688 -16.505 -32.126  1.00  0.00     0.272 C 
HETATM   20  N5  UNL     1     -18.029 -16.269 -31.764  1.00  0.00    -0.057 NA
HETATM   21  O3  UNL     1     -16.352 -17.715 -32.276  1.00  0.00    -0.271 OA
ENDBRANCH  14  19
ENDBRANCH   4   9
BRANCH   5  22
HETATM   22  N7  UNL     1     -12.409 -13.033 -34.077  1.00  0.00    -0.278 N 
ATOM     23  H7  UNL     1     -12.839 -13.886 -34.435  1.00  0.00     0.189 HD
BRANCH  22  24
HETATM   24  N8  UNL     1     -12.304 -11.901 -34.915  1.00  0.00    -0.250 N 
HETATM   25  C10 UNL     1     -11.261 -11.855 -35.840  1.00  0.00     0.341 C 
HETATM   26  O4  UNL     1     -10.461 -12.861 -35.861  1.00  0.00    -0.245 OA
HETATM   27  N9  UNL     1     -11.019 -10.825 -36.728  1.00  0.00    -0.278 N 
HETATM   28  C11 UNL     1     -11.760  -9.656 -36.865  1.00  0.00     0.221 C 
ATOM     29  H9  UNL     1     -10.215 -10.934 -37.347  1.00  0.00     0.173 HD
HETATM   30  C12 UNL     1     -11.332  -8.635 -37.906  1.00  0.00     0.117 C 
HETATM   31  O5  UNL     1     -12.773  -9.316 -36.220  1.00  0.00    -0.274 OA
ATOM     32  H8  UNL     1     -12.974 -11.135 -34.846  1.00  0.00     0.192 HD
ENDBRANCH  22  24
ENDBRANCH   5  22
BRANCH   1  33
HETATM   33  C2  UNL     1     -10.648 -12.984 -28.829  1.00  0.00     0.312 C 
HETATM   34  O2  UNL     1     -10.207 -14.068 -28.353  1.00  0.00    -0.258 OA
BRANCH  33  35
HETATM   35  O1  UNL     1     -10.682 -11.870 -28.035  1.00  0.00    -0.321 OA
HETATM   36  C1  UNL     1     -11.918 -11.291 -27.689  1.00  0.00     0.213 C 
ENDBRANCH  33  35
ENDBRANCH   1  33
BRANCH   8  37
HETATM   37  S1  UNL     1      -8.790 -11.691 -30.837  1.00  0.00    -0.041 SA
BRANCH  37  38
HETATM   38  C14 UNL     1      -8.170 -10.664 -32.140  1.00  0.00     0.310 C 
HETATM   39  O6  UNL     1      -8.361 -10.988 -33.293  1.00  0.00    -0.295 OA
ENDBRANCH  37  38
ENDBRANCH   8  37
TORSDOF 8
ENDMDL
MODEL 3
REMARK VINA RESULT: -8.138075473      2.954      7.262
REMARK  8 active torsions:
REMARK  status: ('A' for Active; 'I' for Inactive)
REMARK    1  A    between atoms: O1_2  and  C2_3 
REMARK    2  A    between atoms: C2_3  and  C3_5 
REMARK    3  A    between atoms: C4_8  and  N2_9 
REMARK    4  A    between atoms: C6_14  and  C7_15 
REMARK    5  A    between atoms: C9_22  and  N7_23 
REMARK    6  A    between atoms: N7_23  and  N8_25 
REMARK       I    between atoms: N8_25  and  C10_27 
REMARK       I    between atoms: C10_27  and  N9_29 
REMARK       I    between atoms: N9_29  and  C11_31 
REMARK    7  A    between atoms: C13_36  and  S1_37 
REMARK    8  A    between atoms: S1_37  and  C14_38 
ROOT
HETATM    1  C3  UNL     1     -11.128 -17.384 -31.742  1.00  0.00     0.144 A 
HETATM    2  N1  UNL     1     -11.202 -16.281 -30.976  1.00  0.00    -0.331 N 
ATOM      3  H1  UNL     1     -10.339 -15.871 -30.620  1.00  0.00     0.168 HD
HETATM    4  C4  UNL     1     -12.374 -15.699 -30.661  1.00  0.00     0.175 A 
HETATM    5  C9  UNL     1     -13.565 -16.217 -31.119  1.00  0.00     0.168 A 
HETATM    6  N10 UNL     1     -13.508 -17.321 -31.886  1.00  0.00    -0.331 N 
ATOM      7  H10 UNL     1     -14.373 -17.728 -32.239  1.00  0.00     0.168 HD
HETATM    8  C13 UNL     1     -12.322 -17.903 -32.200  1.00  0.00     0.111 A 
ENDROOT
BRANCH   4   9
HETATM    9  N2  UNL     1     -12.422 -14.534 -29.849  1.00  0.00    -0.218 N 
HETATM   10  N3  UNL     1     -12.780 -14.554 -28.581  1.00  0.00    -0.277 N 
HETATM   11  C5  UNL     1     -12.736 -13.317 -28.060  1.00  0.00     0.150 A 
ATOM     12  H3  UNL     1     -13.052 -15.392 -28.067  1.00  0.00     0.189 HD
HETATM   13  N4  UNL     1     -13.051 -12.951 -26.730  1.00  0.00    -0.080 NA
HETATM   14  C6  UNL     1     -12.321 -12.479 -29.084  1.00  0.00     0.117 A 
HETATM   15  C8  UNL     1     -12.130 -13.260 -30.197  1.00  0.00     0.141 A 
HETATM   16  N6  UNL     1     -11.755 -12.949 -31.370  1.00  0.00    -0.383 N 
ATOM     17  H62 UNL     1     -11.613 -13.530 -32.196  1.00  0.00     0.157 HD
ATOM     18  H61 UNL     1     -11.534 -11.989 -31.631  1.00  0.00     0.157 HD
BRANCH  14  19
HETATM   19  C7  UNL     1     -12.139 -11.056 -28.955  1.00  0.00     0.272 C 
HETATM   20  N5  UNL     1     -10.921 -10.466 -28.564  1.00  0.00    -0.057 NA
HETATM   21  O3  UNL     1     -13.095 -10.262 -29.194  1.00  0.00    -0.271 OA
ENDBRANCH  14  19
ENDBRANCH   4   9
BRANCH   5  22
HETATM   22  N7  UNL     1     -14.681 -15.638 -30.802  1.00  0.00    -0.278 N 
ATOM     23  H7  UNL     1     -14.746 -14.620 -30.833  1.00  0.00     0.189 HD
BRANCH  22  24
HETATM   24  N8  UNL     1     -15.808 -16.396 -30.412  1.00  0.00    -0.250 N 
HETATM   25  C10 UNL     1     -16.722 -16.775 -31.394  1.00  0.00     0.341 C 
HETATM   26  O4  UNL     1     -16.469 -16.402 -32.597  1.00  0.00    -0.245 OA
HETATM   27  N9  UNL     1     -17.870 -17.514 -31.181  1.00  0.00    -0.278 N 
HETATM   28  C11 UNL     1     -18.323 -18.011 -29.963  1.00  0.00     0.221 C 
ATOM     29  H9  UNL     1     -18.443 -17.716 -32.000  1.00  0.00     0.173 HD
HETATM   30  C12 UNL     1     -19.617 -18.805 -29.931  1.00  0.00     0.117 C 
HETATM   31  O5  UNL     1     -17.787 -17.886 -28.842  1.00  0.00    -0.274 OA
ATOM     32  H8  UNL     1     -15.949 -16.659 -29.437  1.00  0.00     0.192 HD
ENDBRANCH  22  24
ENDBRANCH   5  22
BRANCH   1  33
HETATM   33  C2  UNL     1      -9.839 -18.000 -32.071  1.00  0.00     0.312 C 
HETATM   34  O2  UNL     1      -9.265 -17.623 -33.132  1.00  0.00    -0.258 OA
BRANCH  33  35
HETATM   35  O1  UNL     1      -9.241 -18.951 -31.290  1.00  0.00    -0.321 OA
HETATM   36  C1  UNL     1      -7.861 -19.200 -31.418  1.00  0.00     0.213 C 
ENDBRANCH  33  35
ENDBRANCH   1  33
BRANCH   8  37
HETATM   37  S1  UNL     1     -12.289 -19.358 -33.216  1.00  0.00    -0.041 SA
BRANCH  37  38
HETATM   38  C14 UNL     1     -13.890 -20.090 -33.409  1.00  0.00     0.310 C 
HETATM   39  O6  UNL     1     -14.875 -19.383 -33.370  1.00  0.00    -0.295 OA
ENDBRANCH  37  38
ENDBRANCH   8  37
TORSDOF 8
ENDMDL
MODEL 4
REMARK VINA RESULT: -8.123291787      3.183      6.481
REMARK  8 active torsions:
REMARK  status: ('A' for Active; 'I' for Inactive)
REMARK    1  A    between atoms: O1_2  and  C2_3 
REMARK    2  A    between atoms: C2_3  and  C3_5 
REMARK    3  A    between atoms: C4_8  and  N2_9 
REMARK    4  A    between atoms: C6_14  and  C7_15 
REMARK    5  A    between atoms: C9_22  and  N7_23 
REMARK    6  A    between atoms: N7_23  and  N8_25 
REMARK       I    between atoms: N8_25  and  C10_27 
REMARK       I    between atoms: C10_27  and  N9_29 
REMARK       I    between atoms: N9_29  and  C11_31 
REMARK    7  A    between atoms: C13_36  and  S1_37 
REMARK    8  A    between atoms: S1_37  and  C14_38 
ROOT
HETATM    1  C3  UNL     1     -15.143 -16.806 -31.367  1.00  0.00     0.144 A 
HETATM    2  N1  UNL     1     -14.808 -15.719 -30.650  1.00  0.00    -0.331 N 
ATOM      3  H1  UNL     1     -15.550 -15.149 -30.246  1.00  0.00     0.168 HD
HETATM    4  C4  UNL     1     -13.528 -15.355 -30.448  1.00  0.00     0.175 A 
HETATM    5  C9  UNL     1     -12.492 -16.095 -30.973  1.00  0.00     0.168 A 
HETATM    6  N10 UNL     1     -12.812 -17.186 -31.693  1.00  0.00    -0.331 N 
ATOM      7  H10 UNL     1     -12.067 -17.754 -32.096  1.00  0.00     0.168 HD
HETATM    8  C13 UNL     1     -14.105 -17.548 -31.894  1.00  0.00     0.111 A 
ENDROOT
BRANCH   4   9
HETATM    9  N2  UNL     1     -13.203 -14.201 -29.686  1.00  0.00    -0.218 N 
HETATM   10  N3  UNL     1     -13.201 -14.184 -28.368  1.00  0.00    -0.277 N 
HETATM   11  C5  UNL     1     -12.858 -12.968 -27.913  1.00  0.00     0.150 A 
ATOM     12  H3  UNL     1     -13.429 -14.983 -27.777  1.00  0.00     0.189 HD
HETATM   13  N4  UNL     1     -12.749 -12.576 -26.559  1.00  0.00    -0.080 NA
HETATM   14  C6  UNL     1     -12.633 -12.183 -29.035  1.00  0.00     0.117 A 
HETATM   15  C8  UNL     1     -12.854 -12.973 -30.135  1.00  0.00     0.141 A 
HETATM   16  N6  UNL     1     -12.776 -12.705 -31.374  1.00  0.00    -0.383 N 
ATOM     17  H62 UNL     1     -12.941 -13.293 -32.192  1.00  0.00     0.157 HD
ATOM     18  H61 UNL     1     -12.513 -11.780 -31.712  1.00  0.00     0.157 HD
BRANCH  14  19
HETATM   19  C7  UNL     1     -12.241 -10.798 -28.999  1.00  0.00     0.272 C 
HETATM   20  N5  UNL     1     -10.897 -10.377 -28.939  1.00  0.00    -0.057 NA
HETATM   21  O3  UNL     1     -13.114  -9.883 -29.020  1.00  0.00    -0.271 OA
ENDBRANCH  14  19
ENDBRANCH   4   9
BRANCH   5  22
HETATM   22  N7  UNL     1     -11.268 -15.724 -30.763  1.00  0.00    -0.278 N 
ATOM     23  H7  UNL     1     -11.075 -14.762 -30.483  1.00  0.00     0.189 HD
BRANCH  22  24
HETATM   24  N8  UNL     1     -10.197 -16.633 -30.917  1.00  0.00    -0.250 N 
HETATM   25  C10 UNL     1      -8.985 -16.152 -31.411  1.00  0.00     0.341 C 
HETATM   26  O4  UNL     1      -8.932 -14.899 -31.694  1.00  0.00    -0.245 OA
HETATM   27  N9  UNL     1      -7.846 -16.905 -31.620  1.00  0.00    -0.278 N 
HETATM   28  C11 UNL     1      -7.697 -18.267 -31.381  1.00  0.00     0.221 C 
ATOM     29  H9  UNL     1      -7.032 -16.412 -31.987  1.00  0.00     0.173 HD
HETATM   30  C12 UNL     1      -6.358 -18.920 -31.677  1.00  0.00     0.117 C 
HETATM   31  O5  UNL     1      -8.552 -19.061 -30.937  1.00  0.00    -0.274 OA
ATOM     32  H8  UNL     1     -10.307 -17.617 -30.673  1.00  0.00     0.192 HD
ENDBRANCH  22  24
ENDBRANCH   5  22
BRANCH   1  33
HETATM   33  C2  UNL     1     -16.546 -17.182 -31.574  1.00  0.00     0.312 C 
HETATM   34  O2  UNL     1     -17.186 -16.575 -32.479  1.00  0.00    -0.258 OA
BRANCH  33  35
HETATM   35  O1  UNL     1     -17.179 -18.147 -30.840  1.00  0.00    -0.321 OA
HETATM   36  C1  UNL     1     -17.960 -17.783 -29.726  1.00  0.00     0.213 C 
ENDBRANCH  33  35
ENDBRANCH   1  33
BRANCH   8  37
HETATM   37  S1  UNL     1     -14.485 -18.994 -32.849  1.00  0.00    -0.041 SA
BRANCH  37  38
HETATM   38  C14 UNL     1     -13.286 -20.281 -32.642  1.00  0.00     0.310 C 
HETATM   39  O6  UNL     1     -12.382 -20.128 -31.846  1.00  0.00    -0.295 OA
ENDBRANCH  37  38
ENDBRANCH   8  37
TORSDOF 8
ENDMDL
MODEL 5
REMARK VINA RESULT: -7.941629465      1.419      2.106
REMARK  8 active torsions:
REMARK  status: ('A' for Active; 'I' for Inactive)
REMARK    1  A    between atoms: O1_2  and  C2_3 
REMARK    2  A    between atoms: C2_3  and  C3_5 
REMARK    3  A    between atoms: C4_8  and  N2_9 
REMARK    4  A    between atoms: C6_14  and  C7_15 
REMARK    5  A    between atoms: C9_22  and  N7_23 
REMARK    6  A    between atoms: N7_23  and  N8_25 
REMARK       I    between atoms: N8_25  and  C10_27 
REMARK       I    between atoms: C10_27  and  N9_29 
REMARK       I    between atoms: N9_29  and  C11_31 
REMARK    7  A    between atoms: C13_36  and  S1_37 
REMARK    8  A    between atoms: S1_37  and  C14_38 
ROOT
HETATM    1  C3  UNL     1     -11.974 -12.037 -29.875  1.00  0.00     0.144 A 
HETATM    2  N1  UNL     1     -13.069 -12.676 -30.324  1.00  0.00    -0.331 N 
ATOM      3  H1  UNL     1     -13.946 -12.563 -29.816  1.00  0.00     0.168 HD
HETATM    4  C4  UNL     1     -13.050 -13.458 -31.418  1.00  0.00     0.175 A 
HETATM    5  C9  UNL     1     -11.889 -13.639 -32.137  1.00  0.00     0.168 A 
HETATM    6  N10 UNL     1     -10.785 -13.007 -31.700  1.00  0.00    -0.331 N 
ATOM      7  H10 UNL     1      -9.909 -13.122 -32.210  1.00  0.00     0.168 HD
HETATM    8  C13 UNL     1     -10.810 -12.219 -30.595  1.00  0.00     0.111 A 
ENDROOT
BRANCH   4   9
HETATM    9  N2  UNL     1     -14.223 -14.121 -31.870  1.00  0.00    -0.218 N 
HETATM   10  N3  UNL     1     -14.977 -13.663 -32.849  1.00  0.00    -0.277 N 
HETATM   11  C5  UNL     1     -16.017 -14.486 -33.065  1.00  0.00     0.150 A 
ATOM     12  H3  UNL     1     -14.797 -12.805 -33.368  1.00  0.00     0.189 HD
HETATM   13  N4  UNL     1     -17.034 -14.320 -34.035  1.00  0.00    -0.080 NA
HETATM   14  C6  UNL     1     -15.889 -15.523 -32.153  1.00  0.00     0.117 A 
HETATM   15  C8  UNL     1     -14.759 -15.276 -31.413  1.00  0.00     0.141 A 
HETATM   16  N6  UNL     1     -14.233 -15.936 -30.464  1.00  0.00    -0.383 N 
ATOM     17  H62 UNL     1     -13.393 -15.752 -29.914  1.00  0.00     0.157 HD
ATOM     18  H61 UNL     1     -14.638 -16.806 -30.120  1.00  0.00     0.157 HD
BRANCH  14  19
HETATM   19  C7  UNL     1     -16.801 -16.632 -32.041  1.00  0.00     0.272 C 
HETATM   20  N5  UNL     1     -18.174 -16.477 -31.764  1.00  0.00    -0.057 NA
HETATM   21  O3  UNL     1     -16.390 -17.819 -32.189  1.00  0.00    -0.271 OA
ENDBRANCH  14  19
ENDBRANCH   4   9
BRANCH   5  22
HETATM   22  N7  UNL     1     -11.897 -14.398 -33.188  1.00  0.00    -0.278 N 
ATOM     23  H7  UNL     1     -12.641 -15.086 -33.306  1.00  0.00     0.189 HD
BRANCH  22  24
HETATM   24  N8  UNL     1     -10.889 -14.286 -34.172  1.00  0.00    -0.250 N 
HETATM   25  C10 UNL     1      -9.965 -15.322 -34.295  1.00  0.00     0.341 C 
HETATM   26  O4  UNL     1     -10.100 -16.317 -33.492  1.00  0.00    -0.245 OA
HETATM   27  N9  UNL     1      -8.924 -15.367 -35.201  1.00  0.00    -0.278 N 
HETATM   28  C11 UNL     1      -8.605 -14.400 -36.148  1.00  0.00     0.221 C 
ATOM     29  H9  UNL     1      -8.328 -16.195 -35.173  1.00  0.00     0.173 HD
HETATM   30  C12 UNL     1      -7.414 -14.632 -37.062  1.00  0.00     0.117 C 
HETATM   31  O5  UNL     1      -9.192 -13.318 -36.359  1.00  0.00    -0.274 OA
ATOM     32  H8  UNL     1     -10.839 -13.466 -34.777  1.00  0.00     0.192 HD
ENDBRANCH  22  24
ENDBRANCH   5  22
BRANCH   1  33
HETATM   33  C2  UNL     1     -12.020 -11.190 -28.679  1.00  0.00     0.312 C 
HETATM   34  O2  UNL     1     -12.364  -9.983 -28.830  1.00  0.00    -0.258 OA
BRANCH  33  35
HETATM   35  O1  UNL     1     -11.712 -11.644 -27.426  1.00  0.00    -0.321 OA
HETATM   36  C1  UNL     1     -12.705 -11.686 -26.429  1.00  0.00     0.213 C 
ENDBRANCH  33  35
ENDBRANCH   1  33
BRANCH   8  37
HETATM   37  S1  UNL     1      -9.332 -11.402 -30.051  1.00  0.00    -0.041 SA
BRANCH  37  38
HETATM   38  C14 UNL     1      -8.449 -10.636 -31.382  1.00  0.00     0.310 C 
HETATM   39  O6  UNL     1      -9.035 -10.379 -32.414  1.00  0.00    -0.295 OA
ENDBRANCH  37  38
ENDBRANCH   8  37
TORSDOF 8
ENDMDL
