MODEL 1
REMARK VINA RESULT: -6.802087648      0.000      0.000
REMARK  13 active torsions:
REMARK  status: ('A' for Active; 'I' for Inactive)
REMARK    1  A    between atoms: C2_2  and  N1_4 
REMARK    2  A    between atoms: C2_2  and  C28_50 
REMARK       I    between atoms: N1_4  and  C4_5 
REMARK    3  A    between atoms: N1_4  and  C5_14 
REMARK       I    between atoms: C4_5  and  N2_7 
REMARK    4  A    between atoms: N2_7  and  N3_9 
REMARK    5  A    between atoms: N3_9  and  N4_11 
REMARK    6  A    between atoms: C9_20  and  O2_21 
REMARK    7  A    between atoms: O2_21  and  C10_22 
REMARK    8  A    between atoms: C10_22  and  C11_23 
REMARK    9  A    between atoms: C11_23  and  C12_24 
REMARK   10  A    between atoms: C12_24  and  C13_25 
REMARK   11  A    between atoms: C13_25  and  C14_26 
REMARK   12  A    between atoms: C14_26  and  N6_27 
REMARK   13  A    between atoms: C23_40  and  N9_41 
ROOT
HETATM    1  C5  UNL     1       2.027   3.854  22.547  1.00  0.00     0.068 A 
HETATM    2  C6  UNL     1       3.226   3.131  22.510  1.00  0.00     0.119 A 
HETATM    3  N5  UNL     1       4.210   4.017  22.717  1.00  0.00    -0.363 N 
ATOM      4  H5  UNL     1       5.204   3.789  22.747  1.00  0.00     0.165 HD
HETATM    5  C7  UNL     1       3.702   5.246  22.878  1.00  0.00     0.047 A 
HETATM    6  C8  UNL     1       4.249   6.506  23.112  1.00  0.00     0.067 A 
HETATM    7  C9  UNL     1       3.477   7.644  23.238  1.00  0.00     0.070 A 
HETATM    8  C25 UNL     1       2.101   7.541  23.131  1.00  0.00     0.038 A 
HETATM    9  C26 UNL     1       1.529   6.302  22.900  1.00  0.00     0.019 A 
HETATM   10  C27 UNL     1       2.311   5.176  22.776  1.00  0.00     0.019 A 
ENDROOT
BRANCH   7  11
HETATM   11  O2  UNL     1       4.020   8.896  23.469  1.00  0.00    -0.351 OA
BRANCH  11  12
HETATM   12  C10 UNL     1       4.759   9.531  22.447  1.00  0.00     0.175 C 
BRANCH  12  13
HETATM   13  C11 UNL     1       5.366  10.777  23.045  1.00  0.00     0.027 C 
BRANCH  13  14
HETATM   14  C12 UNL     1       5.354  11.886  22.050  1.00  0.00     0.004 C 
BRANCH  14  15
HETATM   15  C13 UNL     1       4.891  13.209  22.593  1.00  0.00     0.020 C 
BRANCH  15  16
HETATM   16  C14 UNL     1       4.729  13.048  24.096  1.00  0.00     0.130 C 
BRANCH  16  17
HETATM   17  N6  UNL     1       5.279  14.230  24.717  1.00  0.00    -0.344 N 
HETATM   18  C15 UNL     1       4.686  15.389  25.029  1.00  0.00     0.183 A 
HETATM   19  N7  UNL     1       5.583  16.238  25.608  1.00  0.00    -0.349 N 
HETATM   20  C16 UNL     1       6.760  15.603  25.662  1.00  0.00     0.084 A 
ATOM     21  H7  UNL     1       5.392  17.183  25.939  1.00  0.00     0.167 HD
HETATM   22  C17 UNL     1       6.557  14.358  25.105  1.00  0.00     0.041 A 
HETATM   23  C24 UNL     1       7.973  16.201  26.222  1.00  0.00     0.085 A 
HETATM   24  C18 UNL     1       7.636  13.321  24.972  1.00  0.00     0.060 C 
HETATM   25  C19 UNL     1       8.269  13.141  26.325  1.00  0.00     0.011 C 
HETATM   26  C20 UNL     1       9.429  14.062  26.570  1.00  0.00     0.043 C 
HETATM   27  C21 UNL     1       9.092  15.485  26.593  1.00  0.00    -0.013 A 
HETATM   28  C22 UNL     1      10.143  16.216  27.101  1.00  0.00     0.115 A 
HETATM   29  N8  UNL     1      10.021  17.550  27.203  1.00  0.00    -0.202 N 
HETATM   30  C23 UNL     1       8.915  18.233  26.833  1.00  0.00     0.676 A 
ATOM     31  H8  UNL     1      10.808  18.077  27.581  1.00  0.00     0.183 HD
HETATM   32  N10 UNL     1       7.882  17.531  26.335  1.00  0.00    -0.189 N 
ATOM     33  H10 UNL     1       7.031  18.012  26.044  1.00  0.00     0.184 HD
BRANCH  30  34
HETATM   34  N9  UNL     1       8.884  19.516  26.965  1.00  0.00    -0.234 N 
ATOM     35  H92 UNL     1       9.513  20.136  26.454  1.00  0.00     0.174 HD
ATOM     36  H91 UNL     1       8.211  19.942  27.602  1.00  0.00     0.174 HD
ENDBRANCH  30  34
ENDBRANCH  16  17
ENDBRANCH  15  16
ENDBRANCH  14  15
ENDBRANCH  13  14
ENDBRANCH  12  13
ENDBRANCH  11  12
ENDBRANCH   7  11
BRANCH   1  37
HETATM   37  N1  UNL     1       0.729   3.240  22.353  1.00  0.00    -0.278 N 
HETATM   38  C4  UNL     1       0.314   3.054  21.022  1.00  0.00     0.343 C 
HETATM   39  O1  UNL     1       1.141   3.362  20.089  1.00  0.00    -0.245 OA
HETATM   40  N2  UNL     1      -0.931   2.561  20.583  1.00  0.00    -0.237 N 
ATOM     41  H2  UNL     1      -1.288   1.702  20.998  1.00  0.00     0.193 HD
BRANCH  37  42
HETATM   42  C2  UNL     1      -0.061   2.820  23.473  1.00  0.00     0.132 C 
HETATM   43  C1  UNL     1      -0.993   1.670  23.026  1.00  0.00     0.048 C 
HETATM   44  C3  UNL     1       0.772   2.404  24.650  1.00  0.00     0.048 C 
BRANCH  42  45
HETATM   45  C28 UNL     1      -1.042   3.887  23.955  1.00  0.00     0.412 C 
HETATM   46  F1  UNL     1      -1.454   4.760  23.009  1.00  0.00    -0.168 F 
HETATM   47  F2  UNL     1      -2.149   3.316  24.573  1.00  0.00    -0.168 F 
HETATM   48  F3  UNL     1      -0.372   4.552  24.995  1.00  0.00    -0.168 F 
ENDBRANCH  42  45
ENDBRANCH  37  42
BRANCH  40  49
HETATM   49  N3  UNL     1      -1.617   3.132  19.708  1.00  0.00    -0.245 N 
ATOM     50  H3  UNL     1      -2.475   3.371  20.206  1.00  0.00     0.208 HD
BRANCH  49  51
HETATM   51  N4  UNL     1      -1.829   3.570  18.559  1.00  0.00    -0.331 N 
ATOM     52  H42 UNL     1      -0.924   3.991  18.349  1.00  0.00     0.178 HD
ATOM     53  H41 UNL     1      -2.403   3.733  17.732  1.00  0.00     0.178 HD
ENDBRANCH  49  51
ENDBRANCH  40  49
ENDBRANCH   1  37
TORSDOF 13
ENDMDL
MODEL 2
REMARK VINA RESULT: -6.689977563     11.709     15.383
REMARK  13 active torsions:
REMARK  status: ('A' for Active; 'I' for Inactive)
REMARK    1  A    between atoms: C2_2  and  N1_4 
REMARK    2  A    between atoms: C2_2  and  C28_50 
REMARK       I    between atoms: N1_4  and  C4_5 
REMARK    3  A    between atoms: N1_4  and  C5_14 
REMARK       I    between atoms: C4_5  and  N2_7 
REMARK    4  A    between atoms: N2_7  and  N3_9 
REMARK    5  A    between atoms: N3_9  and  N4_11 
REMARK    6  A    between atoms: C9_20  and  O2_21 
REMARK    7  A    between atoms: O2_21  and  C10_22 
REMARK    8  A    between atoms: C10_22  and  C11_23 
REMARK    9  A    between atoms: C11_23  and  C12_24 
REMARK   10  A    between atoms: C12_24  and  C13_25 
REMARK   11  A    between atoms: C13_25  and  C14_26 
REMARK   12  A    between atoms: C14_26  and  N6_27 
REMARK   13  A    between atoms: C23_40  and  N9_41 
ROOT
HETATM    1  C5  UNL     1      12.332  15.723  24.559  1.00  0.00     0.068 A 
HETATM    2  C6  UNL     1      11.056  15.402  25.037  1.00  0.00     0.119 A 
HETATM    3  N5  UNL     1      10.899  14.085  24.847  1.00  0.00    -0.363 N 
ATOM      4  H5  UNL     1      10.065  13.555  25.099  1.00  0.00     0.165 HD
HETATM    5  C7  UNL     1      11.995  13.564  24.280  1.00  0.00     0.047 A 
HETATM    6  C8  UNL     1      12.367  12.287  23.868  1.00  0.00     0.067 A 
HETATM    7  C9  UNL     1      13.592  12.015  23.291  1.00  0.00     0.070 A 
HETATM    8  C25 UNL     1      14.496  13.047  23.109  1.00  0.00     0.038 A 
HETATM    9  C26 UNL     1      14.153  14.327  23.508  1.00  0.00     0.019 A 
HETATM   10  C27 UNL     1      12.929  14.584  24.082  1.00  0.00     0.019 A 
ENDROOT
BRANCH   7  11
HETATM   11  O2  UNL     1      13.963  10.746  22.881  1.00  0.00    -0.351 OA
BRANCH  11  12
HETATM   12  C10 UNL     1      15.262  10.275  23.173  1.00  0.00     0.175 C 
BRANCH  12  13
HETATM   13  C11 UNL     1      15.870   9.812  21.872  1.00  0.00     0.027 C 
BRANCH  13  14
HETATM   14  C12 UNL     1      16.948  10.746  21.443  1.00  0.00     0.004 C 
BRANCH  14  15
HETATM   15  C13 UNL     1      16.601  11.602  20.258  1.00  0.00     0.020 C 
BRANCH  15  16
HETATM   16  C14 UNL     1      17.909  12.070  19.641  1.00  0.00     0.130 C 
BRANCH  16  17
HETATM   17  N6  UNL     1      17.835  13.507  19.511  1.00  0.00    -0.344 N 
HETATM   18  C15 UNL     1      17.446  14.255  18.471  1.00  0.00     0.183 A 
HETATM   19  N7  UNL     1      17.533  15.579  18.783  1.00  0.00    -0.349 N 
HETATM   20  C16 UNL     1      17.983  15.668  20.040  1.00  0.00     0.084 A 
ATOM     21  H7  UNL     1      17.297  16.360  18.171  1.00  0.00     0.167 HD
HETATM   22  C17 UNL     1      18.167  14.373  20.480  1.00  0.00     0.041 A 
HETATM   23  C24 UNL     1      18.207  16.940  20.728  1.00  0.00     0.085 A 
HETATM   24  C18 UNL     1      18.668  14.025  21.853  1.00  0.00     0.060 C 
HETATM   25  C19 UNL     1      17.808  14.751  22.852  1.00  0.00     0.011 C 
HETATM   26  C20 UNL     1      18.322  16.117  23.203  1.00  0.00     0.043 C 
HETATM   27  C21 UNL     1      18.347  17.070  22.095  1.00  0.00    -0.013 A 
HETATM   28  C22 UNL     1      18.554  18.347  22.567  1.00  0.00     0.115 A 
HETATM   29  N8  UNL     1      18.607  19.366  21.694  1.00  0.00    -0.202 N 
HETATM   30  C23 UNL     1      18.468  19.217  20.358  1.00  0.00     0.676 A 
ATOM     31  H8  UNL     1      18.761  20.305  22.059  1.00  0.00     0.183 HD
HETATM   32  N10 UNL     1      18.266  17.975  19.883  1.00  0.00    -0.189 N 
ATOM     33  H10 UNL     1      18.158  17.823  18.880  1.00  0.00     0.184 HD
BRANCH  30  34
HETATM   34  N9  UNL     1      18.534  20.252  19.591  1.00  0.00    -0.234 N 
ATOM     35  H92 UNL     1      19.082  21.079  19.829  1.00  0.00     0.174 HD
ATOM     36  H91 UNL     1      18.022  20.259  18.708  1.00  0.00     0.174 HD
ENDBRANCH  30  34
ENDBRANCH  16  17
ENDBRANCH  15  16
ENDBRANCH  14  15
ENDBRANCH  13  14
ENDBRANCH  12  13
ENDBRANCH  11  12
ENDBRANCH   7  11
BRANCH   1  37
HETATM   37  N1  UNL     1      12.869  17.069  24.582  1.00  0.00    -0.278 N 
HETATM   38  C4  UNL     1      12.349  17.969  23.634  1.00  0.00     0.343 C 
HETATM   39  O1  UNL     1      11.392  17.561  22.883  1.00  0.00    -0.245 OA
HETATM   40  N2  UNL     1      12.769  19.295  23.405  1.00  0.00    -0.237 N 
ATOM     41  H2  UNL     1      12.864  19.920  24.205  1.00  0.00     0.193 HD
BRANCH  37  42
HETATM   42  C2  UNL     1      13.853  17.452  25.551  1.00  0.00     0.132 C 
HETATM   43  C1  UNL     1      13.571  18.903  26.006  1.00  0.00     0.048 C 
HETATM   44  C3  UNL     1      13.901  16.524  26.729  1.00  0.00     0.048 C 
BRANCH  42  45
HETATM   45  C28 UNL     1      15.265  17.543  24.977  1.00  0.00     0.412 C 
HETATM   46  F1  UNL     1      15.348  17.427  23.633  1.00  0.00    -0.168 F 
HETATM   47  F2  UNL     1      15.903  18.710  25.382  1.00  0.00    -0.168 F 
HETATM   48  F3  UNL     1      15.983  16.518  25.615  1.00  0.00    -0.168 F 
ENDBRANCH  42  45
ENDBRANCH  37  42
BRANCH  40  49
HETATM   49  N3  UNL     1      13.030  19.738  22.266  1.00  0.00    -0.245 N 
ATOM     50  H3  UNL     1      13.116  20.742  22.423  1.00  0.00     0.208 HD
BRANCH  49  51
HETATM   51  N4  UNL     1      13.243  19.626  21.042  1.00  0.00    -0.331 N 
ATOM     52  H42 UNL     1      12.695  18.792  20.832  1.00  0.00     0.178 HD
ATOM     53  H41 UNL     1      13.660  19.908  20.155  1.00  0.00     0.178 HD
ENDBRANCH  49  51
ENDBRANCH  40  49
ENDBRANCH   1  37
TORSDOF 13
ENDMDL
MODEL 3
REMARK VINA RESULT: -6.654404659      7.516      9.742
REMARK  13 active torsions:
REMARK  status: ('A' for Active; 'I' for Inactive)
REMARK    1  A    between atoms: C2_2  and  N1_4 
REMARK    2  A    between atoms: C2_2  and  C28_50 
REMARK       I    between atoms: N1_4  and  C4_5 
REMARK    3  A    between atoms: N1_4  and  C5_14 
REMARK       I    between atoms: C4_5  and  N2_7 
REMARK    4  A    between atoms: N2_7  and  N3_9 
REMARK    5  A    between atoms: N3_9  and  N4_11 
REMARK    6  A    between atoms: C9_20  and  O2_21 
REMARK    7  A    between atoms: O2_21  and  C10_22 
REMARK    8  A    between atoms: C10_22  and  C11_23 
REMARK    9  A    between atoms: C11_23  and  C12_24 
REMARK   10  A    between atoms: C12_24  and  C13_25 
REMARK   11  A    between atoms: C13_25  and  C14_26 
REMARK   12  A    between atoms: C14_26  and  N6_27 
REMARK   13  A    between atoms: C23_40  and  N9_41 
ROOT
HETATM    1  C5  UNL     1       3.333  16.842  25.193  1.00  0.00     0.068 A 
HETATM    2  C6  UNL     1       4.392  17.598  25.711  1.00  0.00     0.119 A 
HETATM    3  N5  UNL     1       5.508  16.893  25.484  1.00  0.00    -0.363 N 
ATOM      4  H5  UNL     1       6.448  17.187  25.749  1.00  0.00     0.165 HD
HETATM    5  C7  UNL     1       5.214  15.744  24.860  1.00  0.00     0.047 A 
HETATM    6  C8  UNL     1       5.962  14.663  24.401  1.00  0.00     0.067 A 
HETATM    7  C9  UNL     1       5.391  13.571  23.777  1.00  0.00     0.070 A 
HETATM    8  C25 UNL     1       4.020  13.539  23.593  1.00  0.00     0.038 A 
HETATM    9  C26 UNL     1       3.251  14.600  24.039  1.00  0.00     0.019 A 
HETATM   10  C27 UNL     1       3.833  15.682  24.660  1.00  0.00     0.019 A 
ENDROOT
BRANCH   7  11
HETATM   11  O2  UNL     1       6.134  12.496  23.320  1.00  0.00    -0.351 OA
BRANCH  11  12
HETATM   12  C10 UNL     1       5.553  11.209  23.303  1.00  0.00     0.175 C 
BRANCH  12  13
HETATM   13  C11 UNL     1       6.061  10.475  24.521  1.00  0.00     0.027 C 
BRANCH  13  14
HETATM   14  C12 UNL     1       7.543  10.594  24.614  1.00  0.00     0.004 C 
BRANCH  14  15
HETATM   15  C13 UNL     1       8.045  11.166  25.910  1.00  0.00     0.020 C 
BRANCH  15  16
HETATM   16  C14 UNL     1       9.350  11.885  25.610  1.00  0.00     0.130 C 
BRANCH  16  17
HETATM   17  N6  UNL     1       9.244  13.217  26.158  1.00  0.00    -0.344 N 
HETATM   18  C15 UNL     1       8.814  13.618  27.360  1.00  0.00     0.183 A 
HETATM   19  N7  UNL     1       8.883  14.976  27.458  1.00  0.00    -0.349 N 
HETATM   20  C16 UNL     1       9.364  15.439  26.299  1.00  0.00     0.084 A 
ATOM     21  H7  UNL     1       8.616  15.537  28.267  1.00  0.00     0.167 HD
HETATM   22  C17 UNL     1       9.584  14.336  25.499  1.00  0.00     0.041 A 
HETATM   23  C24 UNL     1       9.580  16.861  26.026  1.00  0.00     0.085 A 
HETATM   24  C18 UNL     1      10.128  14.417  24.101  1.00  0.00     0.060 C 
HETATM   25  C19 UNL     1      11.391  15.232  24.148  1.00  0.00     0.011 C 
HETATM   26  C20 UNL     1      11.162  16.703  23.955  1.00  0.00     0.043 C 
HETATM   27  C21 UNL     1      10.365  17.345  25.000  1.00  0.00    -0.013 A 
HETATM   28  C22 UNL     1      10.452  18.715  24.893  1.00  0.00     0.115 A 
HETATM   29  N8  UNL     1       9.784  19.482  25.770  1.00  0.00    -0.202 N 
HETATM   30  C23 UNL     1       9.019  18.988  26.768  1.00  0.00     0.676 A 
ATOM     31  H8  UNL     1       9.858  20.495  25.677  1.00  0.00     0.183 HD
HETATM   32  N10 UNL     1       8.926  17.652  26.884  1.00  0.00    -0.189 N 
ATOM     33  H10 UNL     1       8.357  17.241  27.624  1.00  0.00     0.184 HD
BRANCH  30  34
HETATM   34  N9  UNL     1       8.411  19.799  27.567  1.00  0.00    -0.234 N 
ATOM     35  H92 UNL     1       8.885  20.575  28.027  1.00  0.00     0.174 HD
ATOM     36  H91 UNL     1       7.416  19.670  27.755  1.00  0.00     0.174 HD
ENDBRANCH  30  34
ENDBRANCH  16  17
ENDBRANCH  15  16
ENDBRANCH  14  15
ENDBRANCH  13  14
ENDBRANCH  12  13
ENDBRANCH  11  12
ENDBRANCH   7  11
BRANCH   1  37
HETATM   37  N1  UNL     1       1.951  17.272  25.258  1.00  0.00    -0.278 N 
HETATM   38  C4  UNL     1       1.440  17.921  24.119  1.00  0.00     0.343 C 
HETATM   39  O1  UNL     1       2.201  18.009  23.089  1.00  0.00    -0.245 OA
HETATM   40  N2  UNL     1       0.164  18.501  23.974  1.00  0.00    -0.237 N 
ATOM     41  H2  UNL     1      -0.653  17.954  24.243  1.00  0.00     0.193 HD
BRANCH  37  42
HETATM   42  C2  UNL     1       1.152  17.011  26.420  1.00  0.00     0.132 C 
HETATM   43  C1  UNL     1       2.006  16.233  27.449  1.00  0.00     0.048 C 
HETATM   44  C3  UNL     1       0.587  18.259  27.030  1.00  0.00     0.048 C 
BRANCH  42  45
HETATM   45  C28 UNL     1      -0.011  16.059  26.153  1.00  0.00     0.412 C 
HETATM   46  F1  UNL     1      -1.226  16.644  26.069  1.00  0.00    -0.168 F 
HETATM   47  F2  UNL     1       0.213  15.289  25.017  1.00  0.00    -0.168 F 
HETATM   48  F3  UNL     1       0.028  15.134  27.209  1.00  0.00    -0.168 F 
ENDBRANCH  42  45
ENDBRANCH  37  42
BRANCH  40  49
HETATM   49  N3  UNL     1      -0.011  19.657  23.531  1.00  0.00    -0.245 N 
ATOM     50  H3  UNL     1      -0.778  20.010  24.103  1.00  0.00     0.208 HD
BRANCH  49  51
HETATM   51  N4  UNL     1       0.239  20.615  22.773  1.00  0.00    -0.331 N 
ATOM     52  H42 UNL     1      -0.389  20.409  21.996  1.00  0.00     0.178 HD
ATOM     53  H41 UNL     1       0.720  21.476  22.512  1.00  0.00     0.178 HD
ENDBRANCH  49  51
ENDBRANCH  40  49
ENDBRANCH   1  37
TORSDOF 13
ENDMDL
MODEL 4
REMARK VINA RESULT: -6.647509627      9.008     12.770
REMARK  13 active torsions:
REMARK  status: ('A' for Active; 'I' for Inactive)
REMARK    1  A    between atoms: C2_2  and  N1_4 
REMARK    2  A    between atoms: C2_2  and  C28_50 
REMARK       I    between atoms: N1_4  and  C4_5 
REMARK    3  A    between atoms: N1_4  and  C5_14 
REMARK       I    between atoms: C4_5  and  N2_7 
REMARK    4  A    between atoms: N2_7  and  N3_9 
REMARK    5  A    between atoms: N3_9  and  N4_11 
REMARK    6  A    between atoms: C9_20  and  O2_21 
REMARK    7  A    between atoms: O2_21  and  C10_22 
REMARK    8  A    between atoms: C10_22  and  C11_23 
REMARK    9  A    between atoms: C11_23  and  C12_24 
REMARK   10  A    between atoms: C12_24  and  C13_25 
REMARK   11  A    between atoms: C13_25  and  C14_26 
REMARK   12  A    between atoms: C14_26  and  N6_27 
REMARK   13  A    between atoms: C23_40  and  N9_41 
ROOT
HETATM    1  C5  UNL     1      10.210  15.592  25.977  1.00  0.00     0.068 A 
HETATM    2  C6  UNL     1       9.538  15.106  24.850  1.00  0.00     0.119 A 
HETATM    3  N5  UNL     1       9.564  13.769  24.939  1.00  0.00    -0.363 N 
ATOM      4  H5  UNL     1       9.150  13.131  24.260  1.00  0.00     0.165 HD
HETATM    5  C7  UNL     1      10.210  13.390  26.050  1.00  0.00     0.047 A 
HETATM    6  C8  UNL     1      10.527  12.162  26.624  1.00  0.00     0.067 A 
HETATM    7  C9  UNL     1      11.227  12.049  27.810  1.00  0.00     0.070 A 
HETATM    8  C25 UNL     1      11.634  13.198  28.464  1.00  0.00     0.038 A 
HETATM    9  C26 UNL     1      11.333  14.433  27.917  1.00  0.00     0.019 A 
HETATM   10  C27 UNL     1      10.635  14.531  26.735  1.00  0.00     0.019 A 
ENDROOT
BRANCH   7  11
HETATM   11  O2  UNL     1      11.543  10.828  28.381  1.00  0.00    -0.351 OA
BRANCH  11  12
HETATM   12  C10 UNL     1      11.459  10.676  29.782  1.00  0.00     0.175 C 
BRANCH  12  13
HETATM   13  C11 UNL     1      10.988   9.267  30.049  1.00  0.00     0.027 C 
BRANCH  13  14
HETATM   14  C12 UNL     1       9.541   9.265  30.404  1.00  0.00     0.004 C 
BRANCH  14  15
HETATM   15  C13 UNL     1       8.874  10.609  30.321  1.00  0.00     0.020 C 
BRANCH  15  16
HETATM   16  C14 UNL     1       7.839  10.531  29.210  1.00  0.00     0.130 C 
BRANCH  16  17
HETATM   17  N6  UNL     1       7.599  11.878  28.750  1.00  0.00    -0.344 N 
HETATM   18  C15 UNL     1       7.959  13.048  29.294  1.00  0.00     0.183 A 
HETATM   19  N7  UNL     1       7.522  14.083  28.522  1.00  0.00    -0.349 N 
HETATM   20  C16 UNL     1       6.877  13.558  27.473  1.00  0.00     0.084 A 
ATOM     21  H7  UNL     1       7.662  15.075  28.708  1.00  0.00     0.167 HD
HETATM   22  C17 UNL     1       6.931  12.188  27.627  1.00  0.00     0.041 A 
HETATM   23  C24 UNL     1       6.263  14.366  26.418  1.00  0.00     0.085 A 
HETATM   24  C18 UNL     1       6.321  11.217  26.657  1.00  0.00     0.060 C 
HETATM   25  C19 UNL     1       6.827  11.563  25.283  1.00  0.00     0.011 C 
HETATM   26  C20 UNL     1       5.964  12.556  24.560  1.00  0.00     0.043 C 
HETATM   27  C21 UNL     1       5.890  13.877  25.183  1.00  0.00    -0.013 A 
HETATM   28  C22 UNL     1       5.325  14.783  24.314  1.00  0.00     0.115 A 
HETATM   29  N8  UNL     1       5.172  16.058  24.709  1.00  0.00    -0.202 N 
HETATM   30  C23 UNL     1       5.543  16.517  25.924  1.00  0.00     0.676 A 
ATOM     31  H8  UNL     1       4.751  16.717  24.054  1.00  0.00     0.183 HD
HETATM   32  N10 UNL     1       6.097  15.642  26.782  1.00  0.00    -0.189 N 
ATOM     33  H10 UNL     1       6.389  15.951  27.709  1.00  0.00     0.184 HD
BRANCH  30  34
HETATM   34  N9  UNL     1       5.359  17.759  26.221  1.00  0.00    -0.234 N 
ATOM     35  H92 UNL     1       4.469  18.234  26.068  1.00  0.00     0.174 HD
ATOM     36  H91 UNL     1       6.124  18.301  26.623  1.00  0.00     0.174 HD
ENDBRANCH  30  34
ENDBRANCH  16  17
ENDBRANCH  15  16
ENDBRANCH  14  15
ENDBRANCH  13  14
ENDBRANCH  12  13
ENDBRANCH  11  12
ENDBRANCH   7  11
BRANCH   1  37
HETATM   37  N1  UNL     1      10.402  17.006  26.234  1.00  0.00    -0.278 N 
HETATM   38  C4  UNL     1       9.463  17.624  27.080  1.00  0.00     0.343 C 
HETATM   39  O1  UNL     1       8.566  16.883  27.621  1.00  0.00    -0.245 OA
HETATM   40  N2  UNL     1       9.389  18.993  27.406  1.00  0.00    -0.237 N 
ATOM     41  H2  UNL     1      10.238  19.467  27.712  1.00  0.00     0.193 HD
BRANCH  37  42
HETATM   42  C2  UNL     1      11.516  17.711  25.671  1.00  0.00     0.132 C 
HETATM   43  C1  UNL     1      12.209  18.525  26.789  1.00  0.00     0.048 C 
HETATM   44  C3  UNL     1      12.495  16.802  24.988  1.00  0.00     0.048 C 
BRANCH  42  45
HETATM   45  C28 UNL     1      11.107  18.788  24.668  1.00  0.00     0.412 C 
HETATM   46  F1  UNL     1       9.840  18.695  24.210  1.00  0.00    -0.168 F 
HETATM   47  F2  UNL     1      11.325  20.063  25.176  1.00  0.00    -0.168 F 
HETATM   48  F3  UNL     1      12.031  18.672  23.617  1.00  0.00    -0.168 F 
ENDBRANCH  42  45
ENDBRANCH  37  42
BRANCH  40  49
HETATM   49  N3  UNL     1       8.329  19.651  27.336  1.00  0.00    -0.245 N 
ATOM     50  H3  UNL     1       7.944  19.375  26.433  1.00  0.00     0.208 HD
BRANCH  49  51
HETATM   51  N4  UNL     1       7.483  20.461  27.766  1.00  0.00    -0.331 N 
ATOM     52  H42 UNL     1       6.994  19.879  28.445  1.00  0.00     0.178 HD
ATOM     53  H41 UNL     1       7.023  21.371  27.805  1.00  0.00     0.178 HD
ENDBRANCH  49  51
ENDBRANCH  40  49
ENDBRANCH   1  37
TORSDOF 13
ENDMDL
MODEL 5
REMARK VINA RESULT: -6.635818868      6.330      9.846
REMARK  13 active torsions:
REMARK  status: ('A' for Active; 'I' for Inactive)
REMARK    1  A    between atoms: C2_2  and  N1_4 
REMARK    2  A    between atoms: C2_2  and  C28_50 
REMARK       I    between atoms: N1_4  and  C4_5 
REMARK    3  A    between atoms: N1_4  and  C5_14 
REMARK       I    between atoms: C4_5  and  N2_7 
REMARK    4  A    between atoms: N2_7  and  N3_9 
REMARK    5  A    between atoms: N3_9  and  N4_11 
REMARK    6  A    between atoms: C9_20  and  O2_21 
REMARK    7  A    between atoms: O2_21  and  C10_22 
REMARK    8  A    between atoms: C10_22  and  C11_23 
REMARK    9  A    between atoms: C11_23  and  C12_24 
REMARK   10  A    between atoms: C12_24  and  C13_25 
REMARK   11  A    between atoms: C13_25  and  C14_26 
REMARK   12  A    between atoms: C14_26  and  N6_27 
REMARK   13  A    between atoms: C23_40  and  N9_41 
ROOT
HETATM    1  C5  UNL     1       3.125  16.969  25.201  1.00  0.00     0.068 A 
HETATM    2  C6  UNL     1       4.181  17.713  25.742  1.00  0.00     0.119 A 
HETATM    3  N5  UNL     1       5.304  17.040  25.457  1.00  0.00    -0.363 N 
ATOM      4  H5  UNL     1       6.244  17.336  25.722  1.00  0.00     0.165 HD
HETATM    5  C7  UNL     1       5.017  15.924  24.775  1.00  0.00     0.047 A 
HETATM    6  C8  UNL     1       5.774  14.883  24.243  1.00  0.00     0.067 A 
HETATM    7  C9  UNL     1       5.210  13.818  23.568  1.00  0.00     0.070 A 
HETATM    8  C25 UNL     1       3.836  13.773  23.406  1.00  0.00     0.038 A 
HETATM    9  C26 UNL     1       3.059  14.794  23.924  1.00  0.00     0.019 A 
HETATM   10  C27 UNL     1       3.634  15.849  24.595  1.00  0.00     0.019 A 
ENDROOT
BRANCH   7  11
HETATM   11  O2  UNL     1       5.962  12.782  23.039  1.00  0.00    -0.351 OA
BRANCH  11  12
HETATM   12  C10 UNL     1       5.392  11.945  22.056  1.00  0.00     0.175 C 
BRANCH  12  13
HETATM   13  C11 UNL     1       5.804  10.530  22.384  1.00  0.00     0.027 C 
BRANCH  13  14
HETATM   14  C12 UNL     1       4.601   9.669  22.563  1.00  0.00     0.004 C 
BRANCH  14  15
HETATM   15  C13 UNL     1       3.876   9.869  23.864  1.00  0.00     0.020 C 
BRANCH  15  16
HETATM   16  C14 UNL     1       4.911   9.787  24.974  1.00  0.00     0.130 C 
BRANCH  16  17
HETATM   17  N6  UNL     1       4.725  10.941  25.823  1.00  0.00    -0.344 N 
HETATM   18  C15 UNL     1       3.595  11.517  26.252  1.00  0.00     0.183 A 
HETATM   19  N7  UNL     1       3.882  12.592  27.040  1.00  0.00    -0.349 N 
HETATM   20  C16 UNL     1       5.214  12.695  27.110  1.00  0.00     0.084 A 
ATOM     21  H7  UNL     1       3.205  13.204  27.494  1.00  0.00     0.167 HD
HETATM   22  C17 UNL     1       5.726  11.664  26.349  1.00  0.00     0.041 A 
HETATM   23  C24 UNL     1       5.903  13.737  27.872  1.00  0.00     0.085 A 
HETATM   24  C18 UNL     1       7.196  11.418  26.162  1.00  0.00     0.060 C 
HETATM   25  C19 UNL     1       7.828  11.363  27.526  1.00  0.00     0.011 C 
HETATM   26  C20 UNL     1       8.295  12.700  28.023  1.00  0.00     0.043 C 
HETATM   27  C21 UNL     1       7.234  13.684  28.235  1.00  0.00    -0.013 A 
HETATM   28  C22 UNL     1       7.713  14.758  28.951  1.00  0.00     0.115 A 
HETATM   29  N8  UNL     1       6.881  15.770  29.246  1.00  0.00    -0.202 N 
HETATM   30  C23 UNL     1       5.581  15.803  28.881  1.00  0.00     0.676 A 
ATOM     31  H8  UNL     1       7.252  16.558  29.777  1.00  0.00     0.183 HD
HETATM   32  N10 UNL     1       5.099  14.761  28.181  1.00  0.00    -0.189 N 
ATOM     33  H10 UNL     1       4.123  14.750  27.887  1.00  0.00     0.184 HD
BRANCH  30  34
HETATM   34  N9  UNL     1       4.852  16.817  29.207  1.00  0.00    -0.234 N 
ATOM     35  H92 UNL     1       4.587  17.015  30.172  1.00  0.00     0.174 HD
ATOM     36  H91 UNL     1       4.520  17.454  28.482  1.00  0.00     0.174 HD
ENDBRANCH  30  34
ENDBRANCH  16  17
ENDBRANCH  15  16
ENDBRANCH  14  15
ENDBRANCH  13  14
ENDBRANCH  12  13
ENDBRANCH  11  12
ENDBRANCH   7  11
BRANCH   1  37
HETATM   37  N1  UNL     1       1.737  17.372  25.313  1.00  0.00    -0.278 N 
HETATM   38  C4  UNL     1       1.236  18.192  24.286  1.00  0.00     0.343 C 
HETATM   39  O1  UNL     1       2.011  18.453  23.296  1.00  0.00    -0.245 OA
HETATM   40  N2  UNL     1      -0.044  18.778  24.217  1.00  0.00    -0.237 N 
ATOM     41  H2  UNL     1      -0.859  18.187  24.381  1.00  0.00     0.193 HD
BRANCH  37  42
HETATM   42  C2  UNL     1       0.926  16.918  26.404  1.00  0.00     0.132 C 
HETATM   43  C1  UNL     1       1.780  16.009  27.319  1.00  0.00     0.048 C 
HETATM   44  C3  UNL     1       0.321  18.046  27.187  1.00  0.00     0.048 C 
BRANCH  42  45
HETATM   45  C28 UNL     1      -0.210  15.995  25.970  1.00  0.00     0.412 C 
HETATM   46  F1  UNL     1      -1.444  16.545  26.006  1.00  0.00    -0.168 F 
HETATM   47  F2  UNL     1       0.024  15.460  24.709  1.00  0.00    -0.168 F 
HETATM   48  F3  UNL     1      -0.128  14.890  26.834  1.00  0.00    -0.168 F 
ENDBRANCH  42  45
ENDBRANCH  37  42
BRANCH  40  49
HETATM   49  N3  UNL     1      -0.225  19.989  23.965  1.00  0.00    -0.245 N 
ATOM     50  H3  UNL     1      -0.689  20.333  24.806  1.00  0.00     0.208 HD
BRANCH  49  51
HETATM   51  N4  UNL     1      -0.149  21.007  23.249  1.00  0.00    -0.331 N 
ATOM     52  H42 UNL     1       0.353  21.638  23.873  1.00  0.00     0.178 HD
ATOM     53  H41 UNL     1      -0.313  21.541  22.396  1.00  0.00     0.178 HD
ENDBRANCH  49  51
ENDBRANCH  40  49
ENDBRANCH   1  37
TORSDOF 13
ENDMDL
