MODEL 1
REMARK VINA RESULT: -6.788953783      0.000      0.000
REMARK  9 active torsions:
REMARK  status: ('A' for Active; 'I' for Inactive)
REMARK    1  A    between atoms: C2_2  and  O1_3 
REMARK    2  A    between atoms: O1_3  and  C3_4 
REMARK    3  A    between atoms: C6_8  and  C7_9 
REMARK    4  A    between atoms: C8_10  and  C9_11 
REMARK    5  A    between atoms: C9_11  and  C10_15 
REMARK    6  A    between atoms: C11_16  and  N2_17 
REMARK    7  A    between atoms: N2_17  and  C12_19 
REMARK    8  A    between atoms: C20_31  and  C21_32 
REMARK    9  A    between atoms: C27_40  and  O2_41 
ROOT
HETATM    1  C10 UNL     1       0.978   3.397  21.665  1.00  0.00     0.041 C 
HETATM    2  C11 UNL     1       0.420   2.887  22.736  1.00  0.00     0.088 C 
HETATM    3  S2  UNL     1      -1.103   2.045  22.168  1.00  0.00    -0.073 SA
HETATM    4  C19 UNL     1      -1.204   2.984  20.673  1.00  0.00     0.024 C 
HETATM    5  C20 UNL     1      -2.223   3.370  20.018  1.00  0.00     0.036 C 
HETATM    6  C25 UNL     1       0.243   3.216  20.396  1.00  0.00     0.248 C 
HETATM    7  F1  UNL     1       0.687   1.987  19.894  1.00  0.00    -0.238 F 
ENDROOT
BRANCH   1   8
HETATM    8  C9  UNL     1       2.238   4.165  21.697  1.00  0.00     0.038 C 
HETATM    9  N1  UNL     1       3.312   3.533  21.274  1.00  0.00    -0.399 N 
ATOM     10  H12 UNL     1       4.182   4.064  21.296  1.00  0.00     0.156 HD
ATOM     11  H11 UNL     1       3.139   2.604  20.890  1.00  0.00     0.156 HD
BRANCH   8  12
HETATM   12  C8  UNL     1       2.482   5.479  22.241  1.00  0.00     0.030 C 
HETATM   13  C7  UNL     1       3.199   5.905  23.215  1.00  0.00     0.014 C 
BRANCH  13  14
HETATM   14  C6  UNL     1       3.270   7.357  23.556  1.00  0.00    -0.032 A 
HETATM   15  C5  UNL     1       4.448   7.988  23.823  1.00  0.00     0.033 A 
HETATM   16  C4  UNL     1       4.512   9.356  24.140  1.00  0.00     0.048 A 
HETATM   17  C3  UNL     1       3.346  10.077  24.179  1.00  0.00     0.119 A 
HETATM   18 BR1  UNL     1       6.181  10.169  24.502  1.00  0.00    -0.048 Br
HETATM   19  C27 UNL     1       2.143   9.443  23.909  1.00  0.00     0.103 A 
HETATM   20  C26 UNL     1       2.105   8.103  23.601  1.00  0.00     0.051 A 
BRANCH  17  21
HETATM   21  O1  UNL     1       3.329  11.428  24.484  1.00  0.00    -0.347 OA
BRANCH  21  22
HETATM   22  C2  UNL     1       3.200  11.796  25.850  1.00  0.00     0.171 C 
HETATM   23  C1  UNL     1       4.088  12.968  26.191  1.00  0.00     0.034 C 
ENDBRANCH  21  22
ENDBRANCH  17  21
BRANCH  19  24
HETATM   24  O2  UNL     1       0.984  10.202  23.957  1.00  0.00    -0.353 OA
HETATM   25  C28 UNL     1      -0.239   9.582  24.285  1.00  0.00     0.210 C 
ENDBRANCH  19  24
ENDBRANCH  13  14
ENDBRANCH   8  12
ENDBRANCH   1   8
BRANCH   2  26
HETATM   26  N2  UNL     1       0.760   2.881  24.101  1.00  0.00    -0.330 N 
ATOM     27  H2  UNL     1       1.502   2.275  24.449  1.00  0.00     0.168 HD
BRANCH  26  28
HETATM   28  C12 UNL     1       0.100   3.675  24.921  1.00  0.00     0.150 A 
HETATM   29  N3  UNL     1      -0.275   3.417  26.170  1.00  0.00    -0.335 N 
HETATM   30  C13 UNL     1      -0.928   4.342  26.834  1.00  0.00     0.051 A 
ATOM     31  H3  UNL     1      -0.060   2.518  26.603  1.00  0.00     0.168 HD
HETATM   32  C14 UNL     1      -1.402   4.247  28.163  1.00  0.00     0.031 A 
HETATM   33  C18 UNL     1      -1.184   5.522  26.193  1.00  0.00     0.035 A 
HETATM   34  C15 UNL     1      -2.071   5.292  28.736  1.00  0.00     0.002 A 
HETATM   35  C16 UNL     1      -2.335   6.484  28.101  1.00  0.00     0.002 A 
HETATM   36  C17 UNL     1      -1.877   6.584  26.807  1.00  0.00     0.021 A 
HETATM   37  S1  UNL     1      -0.477   5.258  24.661  1.00  0.00    -0.052 SA
ENDBRANCH  26  28
ENDBRANCH   2  26
BRANCH   5  38
HETATM   38  C21 UNL     1      -2.219   4.161  18.762  1.00  0.00     0.005 A 
HETATM   39  C22 UNL     1      -1.679   3.856  17.546  1.00  0.00     0.019 A 
HETATM   40  C23 UNL     1      -1.803   4.752  16.561  1.00  0.00     0.008 A 
HETATM   41  C24 UNL     1      -2.466   5.917  16.848  1.00  0.00     0.050 A 
HETATM   42  S3  UNL     1      -2.895   5.719  18.486  1.00  0.00    -0.102 SA
ENDBRANCH   5  38
TORSDOF 9
ENDMDL
MODEL 2
REMARK VINA RESULT: -6.674400836      9.407     14.279
REMARK  9 active torsions:
REMARK  status: ('A' for Active; 'I' for Inactive)
REMARK    1  A    between atoms: C2_2  and  O1_3 
REMARK    2  A    between atoms: O1_3  and  C3_4 
REMARK    3  A    between atoms: C6_8  and  C7_9 
REMARK    4  A    between atoms: C8_10  and  C9_11 
REMARK    5  A    between atoms: C9_11  and  C10_15 
REMARK    6  A    between atoms: C11_16  and  N2_17 
REMARK    7  A    between atoms: N2_17  and  C12_19 
REMARK    8  A    between atoms: C20_31  and  C21_32 
REMARK    9  A    between atoms: C27_40  and  O2_41 
ROOT
HETATM    1  C10 UNL     1       7.030  15.308  26.632  1.00  0.00     0.041 C 
HETATM    2  C11 UNL     1       6.764  16.592  26.623  1.00  0.00     0.088 C 
HETATM    3  S2  UNL     1       5.065  16.758  25.963  1.00  0.00    -0.073 SA
HETATM    4  C19 UNL     1       5.097  15.182  25.161  1.00  0.00     0.024 C 
HETATM    5  C20 UNL     1       4.537  14.800  24.086  1.00  0.00     0.036 C 
HETATM    6  C25 UNL     1       5.982  14.419  26.090  1.00  0.00     0.248 C 
HETATM    7  F1  UNL     1       5.151  14.132  27.180  1.00  0.00    -0.238 F 
ENDROOT
BRANCH   1   8
HETATM    8  C9  UNL     1       8.316  14.751  27.098  1.00  0.00     0.038 C 
HETATM    9  N1  UNL     1       8.505  14.742  28.400  1.00  0.00    -0.399 N 
ATOM     10  H12 UNL     1       9.393  14.357  28.721  1.00  0.00     0.156 HD
ATOM     11  H11 UNL     1       7.703  15.045  28.952  1.00  0.00     0.156 HD
BRANCH   8  12
HETATM   12  C8  UNL     1       9.450  14.323  26.317  1.00  0.00     0.030 C 
HETATM   13  C7  UNL     1       9.792  14.506  25.094  1.00  0.00     0.014 C 
BRANCH  13  14
HETATM   14  C6  UNL     1      11.057  13.935  24.543  1.00  0.00    -0.032 A 
HETATM   15  C5  UNL     1      11.221  12.600  24.324  1.00  0.00     0.033 A 
HETATM   16  C4  UNL     1      12.412  12.066  23.801  1.00  0.00     0.048 A 
HETATM   17  C3  UNL     1      13.441  12.923  23.501  1.00  0.00     0.119 A 
HETATM   18 BR1  UNL     1      12.574  10.203  23.523  1.00  0.00    -0.048 Br
HETATM   19  C27 UNL     1      13.282  14.282  23.722  1.00  0.00     0.103 A 
HETATM   20  C26 UNL     1      12.108  14.782  24.234  1.00  0.00     0.051 A 
BRANCH  17  21
HETATM   21  O1  UNL     1      14.644  12.471  22.984  1.00  0.00    -0.347 OA
BRANCH  21  22
HETATM   22  C2  UNL     1      14.782  12.432  21.571  1.00  0.00     0.171 C 
HETATM   23  C1  UNL     1      15.778  11.381  21.144  1.00  0.00     0.034 C 
ENDBRANCH  21  22
ENDBRANCH  17  21
BRANCH  19  24
HETATM   24  O2  UNL     1      14.342  15.118  23.408  1.00  0.00    -0.353 OA
HETATM   25  C28 UNL     1      15.194  15.575  24.434  1.00  0.00     0.210 C 
ENDBRANCH  19  24
ENDBRANCH  13  14
ENDBRANCH   8  12
ENDBRANCH   1   8
BRANCH   2  26
HETATM   26  N2  UNL     1       7.490  17.738  26.993  1.00  0.00    -0.330 N 
ATOM     27  H2  UNL     1       7.085  18.428  27.626  1.00  0.00     0.168 HD
BRANCH  26  28
HETATM   28  C12 UNL     1       8.704  17.903  26.507  1.00  0.00     0.150 A 
HETATM   29  N3  UNL     1       9.055  18.021  25.231  1.00  0.00    -0.335 N 
HETATM   30  C13 UNL     1      10.326  18.183  24.941  1.00  0.00     0.051 A 
ATOM     31  H3  UNL     1       8.353  17.986  24.492  1.00  0.00     0.168 HD
HETATM   32  C14 UNL     1      10.882  18.326  23.648  1.00  0.00     0.031 A 
HETATM   33  C18 UNL     1      11.214  18.220  25.979  1.00  0.00     0.035 A 
HETATM   34  C15 UNL     1      12.230  18.488  23.488  1.00  0.00     0.002 A 
HETATM   35  C16 UNL     1      13.133  18.526  24.524  1.00  0.00     0.002 A 
HETATM   36  C17 UNL     1      12.599  18.388  25.786  1.00  0.00     0.021 A 
HETATM   37  S1  UNL     1      10.192  18.021  27.332  1.00  0.00    -0.052 SA
ENDBRANCH  26  28
ENDBRANCH   2  26
BRANCH   5  38
HETATM   38  C21 UNL     1       4.617  13.448  23.478  1.00  0.00     0.005 A 
HETATM   39  C22 UNL     1       5.209  13.055  22.313  1.00  0.00     0.019 A 
HETATM   40  C23 UNL     1       5.135  11.762  21.976  1.00  0.00     0.008 A 
HETATM   41  C24 UNL     1       4.464  10.925  22.829  1.00  0.00     0.050 A 
HETATM   42  S3  UNL     1       3.962  11.974  24.076  1.00  0.00    -0.102 SA
ENDBRANCH   5  38
TORSDOF 9
ENDMDL
MODEL 3
REMARK VINA RESULT: -6.547292787      7.144     10.959
REMARK  9 active torsions:
REMARK  status: ('A' for Active; 'I' for Inactive)
REMARK    1  A    between atoms: C2_2  and  O1_3 
REMARK    2  A    between atoms: O1_3  and  C3_4 
REMARK    3  A    between atoms: C6_8  and  C7_9 
REMARK    4  A    between atoms: C8_10  and  C9_11 
REMARK    5  A    between atoms: C9_11  and  C10_15 
REMARK    6  A    between atoms: C11_16  and  N2_17 
REMARK    7  A    between atoms: N2_17  and  C12_19 
REMARK    8  A    between atoms: C20_31  and  C21_32 
REMARK    9  A    between atoms: C27_40  and  O2_41 
ROOT
HETATM    1  C10 UNL     1       6.589  11.975  24.126  1.00  0.00     0.041 C 
HETATM    2  C11 UNL     1       5.998  11.247  23.211  1.00  0.00     0.088 C 
HETATM    3  S2  UNL     1       4.931  12.389  22.258  1.00  0.00    -0.073 SA
HETATM    4  C19 UNL     1       4.868  13.595  23.551  1.00  0.00     0.024 C 
HETATM    5  C20 UNL     1       3.936  14.396  23.876  1.00  0.00     0.036 C 
HETATM    6  C25 UNL     1       6.212  13.404  24.170  1.00  0.00     0.248 C 
HETATM    7  F1  UNL     1       7.084  14.036  23.276  1.00  0.00    -0.238 F 
ENDROOT
BRANCH   1   8
HETATM    8  C9  UNL     1       7.541  11.423  25.111  1.00  0.00     0.038 C 
HETATM    9  N1  UNL     1       7.086  11.277  26.337  1.00  0.00    -0.399 N 
ATOM     10  H12 UNL     1       7.743  10.895  27.016  1.00  0.00     0.156 HD
ATOM     11  H11 UNL     1       6.094  11.485  26.454  1.00  0.00     0.156 HD
BRANCH   8  12
HETATM   12  C8  UNL     1       8.943  11.129  24.946  1.00  0.00     0.030 C 
HETATM   13  C7  UNL     1       9.709  11.061  23.919  1.00  0.00     0.014 C 
BRANCH  13  14
HETATM   14  C6  UNL     1      11.161  10.735  24.048  1.00  0.00    -0.032 A 
HETATM   15  C5  UNL     1      11.634   9.868  24.987  1.00  0.00     0.033 A 
HETATM   16  C4  UNL     1      13.001   9.560  25.104  1.00  0.00     0.048 A 
HETATM   17  C3  UNL     1      13.885  10.154  24.239  1.00  0.00     0.119 A 
HETATM   18 BR1  UNL     1      13.591   8.348  26.430  1.00  0.00    -0.048 Br
HETATM   19  C27 UNL     1      13.411  11.038  23.282  1.00  0.00     0.103 A 
HETATM   20  C26 UNL     1      12.070  11.324  23.186  1.00  0.00     0.051 A 
BRANCH  17  21
HETATM   21  O1  UNL     1      15.245   9.901  24.293  1.00  0.00    -0.347 OA
BRANCH  21  22
HETATM   22  C2  UNL     1      16.040  10.731  25.127  1.00  0.00     0.171 C 
HETATM   23  C1  UNL     1      17.273  11.220  24.406  1.00  0.00     0.034 C 
ENDBRANCH  21  22
ENDBRANCH  17  21
BRANCH  19  24
HETATM   24  O2  UNL     1      14.333  11.621  22.425  1.00  0.00    -0.353 OA
HETATM   25  C28 UNL     1      14.465  13.024  22.398  1.00  0.00     0.210 C 
ENDBRANCH  19  24
ENDBRANCH  13  14
ENDBRANCH   8  12
ENDBRANCH   1   8
BRANCH   2  26
HETATM   26  N2  UNL     1       6.041   9.881  22.878  1.00  0.00    -0.330 N 
ATOM     27  H2  UNL     1       6.894   9.463  22.509  1.00  0.00     0.168 HD
BRANCH  26  28
HETATM   28  C12 UNL     1       4.955   9.153  23.051  1.00  0.00     0.150 A 
HETATM   29  N3  UNL     1       4.811   7.850  22.830  1.00  0.00    -0.335 N 
HETATM   30  C13 UNL     1       3.643   7.298  23.066  1.00  0.00     0.051 A 
ATOM     31  H3  UNL     1       5.592   7.291  22.485  1.00  0.00     0.168 HD
HETATM   32  C14 UNL     1       3.307   5.935  22.891  1.00  0.00     0.031 A 
HETATM   33  C18 UNL     1       2.641   8.105  23.527  1.00  0.00     0.035 A 
HETATM   34  C15 UNL     1       2.045   5.492  23.177  1.00  0.00     0.002 A 
HETATM   35  C16 UNL     1       1.029   6.294  23.640  1.00  0.00     0.002 A 
HETATM   36  C17 UNL     1       1.349   7.622  23.813  1.00  0.00     0.021 A 
HETATM   37  S1  UNL     1       3.413   9.627  23.604  1.00  0.00    -0.052 SA
ENDBRANCH  26  28
ENDBRANCH   2  26
BRANCH   5  38
HETATM   38  C21 UNL     1       3.966  15.384  24.984  1.00  0.00     0.005 A 
HETATM   39  C22 UNL     1       4.290  16.710  24.955  1.00  0.00     0.019 A 
HETATM   40  C23 UNL     1       4.248  17.392  26.105  1.00  0.00     0.008 A 
HETATM   41  C24 UNL     1       3.882  16.704  27.232  1.00  0.00     0.050 A 
HETATM   42  S3  UNL     1       3.606  15.127  26.646  1.00  0.00    -0.102 SA
ENDBRANCH   5  38
TORSDOF 9
ENDMDL
MODEL 4
REMARK VINA RESULT: -6.541987451      7.122     10.952
REMARK  9 active torsions:
REMARK  status: ('A' for Active; 'I' for Inactive)
REMARK    1  A    between atoms: C2_2  and  O1_3 
REMARK    2  A    between atoms: O1_3  and  C3_4 
REMARK    3  A    between atoms: C6_8  and  C7_9 
REMARK    4  A    between atoms: C8_10  and  C9_11 
REMARK    5  A    between atoms: C9_11  and  C10_15 
REMARK    6  A    between atoms: C11_16  and  N2_17 
REMARK    7  A    between atoms: N2_17  and  C12_19 
REMARK    8  A    between atoms: C20_31  and  C21_32 
REMARK    9  A    between atoms: C27_40  and  O2_41 
ROOT
HETATM    1  C10 UNL     1       6.625  12.045  24.045  1.00  0.00     0.041 C 
HETATM    2  C11 UNL     1       6.017  11.319  23.140  1.00  0.00     0.088 C 
HETATM    3  S2  UNL     1       4.901  12.454  22.237  1.00  0.00    -0.073 SA
HETATM    4  C19 UNL     1       4.859  13.642  23.546  1.00  0.00     0.024 C 
HETATM    5  C20 UNL     1       3.925  14.423  23.912  1.00  0.00     0.036 C 
HETATM    6  C25 UNL     1       6.225  13.467  24.120  1.00  0.00     0.248 C 
HETATM    7  F1  UNL     1       7.057  14.125  23.206  1.00  0.00    -0.238 F 
ENDROOT
BRANCH   1   8
HETATM    8  C9  UNL     1       7.617  11.497  24.991  1.00  0.00     0.038 C 
HETATM    9  N1  UNL     1       7.201  11.317  26.226  1.00  0.00    -0.399 N 
ATOM     10  H12 UNL     1       7.886  10.938  26.879  1.00  0.00     0.156 HD
ATOM     11  H11 UNL     1       6.208  11.499  26.375  1.00  0.00     0.156 HD
BRANCH   8  12
HETATM   12  C8  UNL     1       9.021  11.239  24.780  1.00  0.00     0.030 C 
HETATM   13  C7  UNL     1       9.749  11.163  23.727  1.00  0.00     0.014 C 
BRANCH  13  14
HETATM   14  C6  UNL     1      11.213  10.884  23.810  1.00  0.00    -0.032 A 
HETATM   15  C5  UNL     1      12.128  11.545  23.045  1.00  0.00     0.033 A 
HETATM   16  C4  UNL     1      13.506  11.282  23.127  1.00  0.00     0.048 A 
HETATM   17  C3  UNL     1      13.942  10.327  24.011  1.00  0.00     0.119 A 
HETATM   18 BR1  UNL     1      14.720  12.235  22.035  1.00  0.00    -0.048 Br
HETATM   19  C27 UNL     1      13.018   9.650  24.792  1.00  0.00     0.103 A 
HETATM   20  C26 UNL     1      11.674   9.924  24.694  1.00  0.00     0.051 A 
BRANCH  17  21
HETATM   21  O1  UNL     1      15.284  10.013  24.148  1.00  0.00    -0.347 OA
BRANCH  21  22
HETATM   22  C2  UNL     1      16.041  10.748  25.098  1.00  0.00     0.171 C 
HETATM   23  C1  UNL     1      16.935   9.843  25.910  1.00  0.00     0.034 C 
ENDBRANCH  21  22
ENDBRANCH  17  21
BRANCH  19  24
HETATM   24  O2  UNL     1      13.494   8.691  25.674  1.00  0.00    -0.353 OA
HETATM   25  C28 UNL     1      13.396   8.915  27.062  1.00  0.00     0.210 C 
ENDBRANCH  19  24
ENDBRANCH  13  14
ENDBRANCH   8  12
ENDBRANCH   1   8
BRANCH   2  26
HETATM   26  N2  UNL     1       6.071   9.958  22.787  1.00  0.00    -0.330 N 
ATOM     27  H2  UNL     1       6.920   9.558  22.389  1.00  0.00     0.168 HD
BRANCH  26  28
HETATM   28  C12 UNL     1       5.003   9.210  22.981  1.00  0.00     0.150 A 
HETATM   29  N3  UNL     1       4.884   7.902  22.781  1.00  0.00    -0.335 N 
HETATM   30  C13 UNL     1       3.730   7.329  23.035  1.00  0.00     0.051 A 
ATOM     31  H3  UNL     1       5.673   7.354  22.437  1.00  0.00     0.168 HD
HETATM   32  C14 UNL     1       3.421   5.957  22.884  1.00  0.00     0.031 A 
HETATM   33  C18 UNL     1       2.715   8.122  23.493  1.00  0.00     0.035 A 
HETATM   34  C15 UNL     1       2.171   5.492  23.188  1.00  0.00     0.002 A 
HETATM   35  C16 UNL     1       1.142   6.280  23.648  1.00  0.00     0.002 A 
HETATM   36  C17 UNL     1       1.436   7.617  23.798  1.00  0.00     0.021 A 
HETATM   37  S1  UNL     1       3.456   9.660  23.540  1.00  0.00    -0.052 SA
ENDBRANCH  26  28
ENDBRANCH   2  26
BRANCH   5  38
HETATM   38  C21 UNL     1       3.974  15.398  25.031  1.00  0.00     0.005 A 
HETATM   39  C22 UNL     1       4.343  16.712  25.021  1.00  0.00     0.019 A 
HETATM   40  C23 UNL     1       4.310  17.382  26.178  1.00  0.00     0.008 A 
HETATM   41  C24 UNL     1       3.906  16.695  27.293  1.00  0.00     0.050 A 
HETATM   42  S3  UNL     1       3.585  15.135  26.686  1.00  0.00    -0.102 SA
ENDBRANCH   5  38
TORSDOF 9
ENDMDL
MODEL 5
REMARK VINA RESULT: -6.470359754      8.330     12.684
REMARK  9 active torsions:
REMARK  status: ('A' for Active; 'I' for Inactive)
REMARK    1  A    between atoms: C2_2  and  O1_3 
REMARK    2  A    between atoms: O1_3  and  C3_4 
REMARK    3  A    between atoms: C6_8  and  C7_9 
REMARK    4  A    between atoms: C8_10  and  C9_11 
REMARK    5  A    between atoms: C9_11  and  C10_15 
REMARK    6  A    between atoms: C11_16  and  N2_17 
REMARK    7  A    between atoms: N2_17  and  C12_19 
REMARK    8  A    between atoms: C20_31  and  C21_32 
REMARK    9  A    between atoms: C27_40  and  O2_41 
ROOT
HETATM    1  C10 UNL     1       6.731  12.411  26.779  1.00  0.00     0.041 C 
HETATM    2  C11 UNL     1       6.455  13.659  27.069  1.00  0.00     0.088 C 
HETATM    3  S2  UNL     1       4.807  14.000  26.349  1.00  0.00    -0.073 SA
HETATM    4  C19 UNL     1       4.912  12.672  25.186  1.00  0.00     0.024 C 
HETATM    5  C20 UNL     1       4.434  12.575  24.012  1.00  0.00     0.036 C 
HETATM    6  C25 UNL     1       5.733  11.694  25.958  1.00  0.00     0.248 C 
HETATM    7  F1  UNL     1       4.828  11.154  26.880  1.00  0.00    -0.238 F 
ENDROOT
BRANCH   1   8
HETATM    8  C9  UNL     1       7.984  11.744  27.184  1.00  0.00     0.038 C 
HETATM    9  N1  UNL     1       8.079  11.411  28.454  1.00  0.00    -0.399 N 
ATOM     10  H12 UNL     1       8.945  10.950  28.733  1.00  0.00     0.156 HD
ATOM     11  H11 UNL     1       7.237  11.577  29.005  1.00  0.00     0.156 HD
BRANCH   8  12
HETATM   12  C8  UNL     1       9.176  11.510  26.405  1.00  0.00     0.030 C 
HETATM   13  C7  UNL     1      10.427  11.547  26.685  1.00  0.00     0.014 C 
BRANCH  13  14
HETATM   14  C6  UNL     1      11.466  11.246  25.656  1.00  0.00    -0.032 A 
HETATM   15  C5  UNL     1      11.535  11.914  24.469  1.00  0.00     0.033 A 
HETATM   16  C4  UNL     1      12.517  11.631  23.504  1.00  0.00     0.048 A 
HETATM   17  C3  UNL     1      13.437  10.648  23.771  1.00  0.00     0.119 A 
HETATM   18 BR1  UNL     1      12.554  12.594  21.877  1.00  0.00    -0.048 Br
HETATM   19  C27 UNL     1      13.373   9.964  24.975  1.00  0.00     0.103 A 
HETATM   20  C26 UNL     1      12.404  10.259  25.904  1.00  0.00     0.051 A 
BRANCH  17  21
HETATM   21  O1  UNL     1      14.433  10.312  22.869  1.00  0.00    -0.347 OA
BRANCH  21  22
HETATM   22  C2  UNL     1      15.614  11.101  22.865  1.00  0.00     0.171 C 
HETATM   23  C1  UNL     1      16.236  11.156  21.490  1.00  0.00     0.034 C 
ENDBRANCH  21  22
ENDBRANCH  17  21
BRANCH  19  24
HETATM   24  O2  UNL     1      14.319   8.978  25.211  1.00  0.00    -0.353 OA
HETATM   25  C28 UNL     1      14.368   8.351  26.472  1.00  0.00     0.210 C 
ENDBRANCH  19  24
ENDBRANCH  13  14
ENDBRANCH   8  12
ENDBRANCH   1   8
BRANCH   2  26
HETATM   26  N2  UNL     1       7.142  14.671  27.765  1.00  0.00    -0.330 N 
ATOM     27  H2  UNL     1       7.062  14.752  28.778  1.00  0.00     0.168 HD
BRANCH  26  28
HETATM   28  C12 UNL     1       7.892  15.513  27.080  1.00  0.00     0.150 A 
HETATM   29  N3  UNL     1       8.795  15.219  26.150  1.00  0.00    -0.335 N 
HETATM   30  C13 UNL     1       9.445  16.203  25.574  1.00  0.00     0.051 A 
ATOM     31  H3  UNL     1       8.979  14.250  25.891  1.00  0.00     0.168 HD
HETATM   32  C14 UNL     1      10.434  16.083  24.569  1.00  0.00     0.031 A 
HETATM   33  C18 UNL     1       9.150  17.478  25.970  1.00  0.00     0.035 A 
HETATM   34  C15 UNL     1      11.035  17.197  24.053  1.00  0.00     0.002 A 
HETATM   35  C16 UNL     1      10.747  18.484  24.444  1.00  0.00     0.002 A 
HETATM   36  C17 UNL     1       9.784  18.609  25.420  1.00  0.00     0.021 A 
HETATM   37  S1  UNL     1       7.949  17.215  27.156  1.00  0.00    -0.052 SA
ENDBRANCH  26  28
ENDBRANCH   2  26
BRANCH   5  38
HETATM   38  C21 UNL     1       4.570  11.415  23.095  1.00  0.00     0.005 A 
HETATM   39  C22 UNL     1       5.239  11.321  21.909  1.00  0.00     0.019 A 
HETATM   40  C23 UNL     1       5.203  10.153  21.258  1.00  0.00     0.008 A 
HETATM   41  C24 UNL     1       4.493   9.132  21.834  1.00  0.00     0.050 A 
HETATM   42  S3  UNL     1       3.900   9.840  23.268  1.00  0.00    -0.102 SA
ENDBRANCH   5  38
TORSDOF 9
ENDMDL
