MODEL 1
REMARK VINA RESULT: -7.824737696      0.000      0.000
REMARK  8 active torsions:
REMARK  status: ('A' for Active; 'I' for Inactive)
REMARK    1  A    between atoms: S1_2  and  C2_3 
REMARK    2  A    between atoms: C3_6  and  C4_7 
REMARK    3  A    between atoms: C4_7  and  O1_8 
REMARK    4  A    between atoms: C4_7  and  C5_10 
REMARK    5  A    between atoms: C12_19  and  N2_20 
REMARK    6  A    between atoms: N2_20  and  C13_22 
REMARK    7  A    between atoms: N3_29  and  C19_30 
REMARK    8  A    between atoms: C19_30  and  C20_31 
ROOT
HETATM    1  C2  UNL     1       2.539   8.431  23.514  1.00  0.00     0.148 A 
HETATM    2  N1  UNL     1       3.069   9.592  23.128  1.00  0.00    -0.334 N 
ATOM      3  H1  UNL     1       2.633  10.508  23.240  1.00  0.00     0.168 HD
HETATM    4  C3  UNL     1       4.264   9.366  22.572  1.00  0.00     0.103 A 
HETATM    5  C18 UNL     1       4.447   7.983  22.635  1.00  0.00     0.218 A 
HETATM    6  F2  UNL     1       5.585   7.426  22.119  1.00  0.00    -0.184 F 
HETATM    7  N3  UNL     1       3.393   7.411  23.210  1.00  0.00    -0.302 N 
ENDROOT
BRANCH   4   8
HETATM    8  C4  UNL     1       5.162  10.391  22.028  1.00  0.00     0.232 C 
BRANCH   8   9
HETATM    9  O1  UNL     1       6.472   9.954  22.125  1.00  0.00    -0.383 OA
ATOM     10  H1  UNL     1       6.920  10.114  21.303  1.00  0.00     0.211 HD
ENDBRANCH   8   9
BRANCH   8  11
HETATM   11  C5  UNL     1       4.987  11.716  22.724  1.00  0.00     0.115 A 
HETATM   12  O2  UNL     1       3.944  12.498  22.592  1.00  0.00    -0.309 OA
HETATM   13  C6  UNL     1       4.054  13.592  23.313  1.00  0.00     0.088 A 
HETATM   14  C7  UNL     1       3.236  14.694  23.503  1.00  0.00     0.041 A 
HETATM   15  C11 UNL     1       5.254  13.559  23.987  1.00  0.00     0.030 A 
HETATM   16  C8  UNL     1       3.614  15.718  24.336  1.00  0.00     0.045 A 
HETATM   17  C9  UNL     1       4.812  15.701  25.018  1.00  0.00     0.117 A 
HETATM   18  F1  UNL     1       5.168  16.720  25.838  1.00  0.00    -0.206 F 
HETATM   19  C10 UNL     1       5.614  14.601  24.819  1.00  0.00     0.059 A 
HETATM   20  C12 UNL     1       5.835  12.360  23.601  1.00  0.00     0.074 A 
BRANCH  20  21
HETATM   21  N2  UNL     1       7.093  11.867  24.012  1.00  0.00    -0.382 N 
ATOM     22  H2  UNL     1       7.892  12.145  23.442  1.00  0.00     0.160 HD
BRANCH  21  23
HETATM   23  C13 UNL     1       7.380  11.030  25.124  1.00  0.00     0.082 C 
HETATM   24  C14 UNL     1       8.879  10.998  25.387  1.00  0.00     0.025 C 
HETATM   25  C15 UNL     1       9.110  12.044  26.458  1.00  0.00     0.002 C 
HETATM   26  C16 UNL     1       7.779  12.308  27.127  1.00  0.00     0.002 C 
HETATM   27  C17 UNL     1       6.757  11.430  26.433  1.00  0.00     0.025 C 
ENDBRANCH  21  23
ENDBRANCH  20  21
ENDBRANCH   8  11
ENDBRANCH   4   8
BRANCH   1  28
HETATM   28  S1  UNL     1       0.924   8.279  24.312  1.00  0.00    -0.098 SA
HETATM   29  C1  UNL     1       0.061   9.874  24.307  1.00  0.00     0.099 C 
ENDBRANCH   1  28
BRANCH   7  30
HETATM   30  C19 UNL     1       3.140   6.015  23.446  1.00  0.00     0.139 C 
BRANCH  30  31
HETATM   31  C20 UNL     1       2.593   5.236  22.287  1.00  0.00     0.013 C 
HETATM   32  C21 UNL     1       1.521   5.865  21.515  1.00  0.00     0.024 C 
HETATM   33  C22 UNL     1       0.472   5.003  20.945  1.00  0.00     0.026 C 
HETATM   34  C23 UNL     1      -0.926   5.640  21.002  1.00  0.00     0.023 C 
HETATM   35  C29 UNL     1       0.308   3.621  21.435  1.00  0.00     0.003 C 
HETATM   36  C34 UNL     1       0.561   4.775  19.473  1.00  0.00     0.144 C 
HETATM   37  C24 UNL     1      -1.702   4.931  19.884  1.00  0.00    -0.002 C 
HETATM   38  C25 UNL     1      -2.925   4.239  20.415  1.00  0.00     0.011 C 
HETATM   39  C26 UNL     1      -0.692   3.964  19.302  1.00  0.00     0.021 C 
HETATM   40  C27 UNL     1      -0.967   3.496  17.946  1.00  0.00     0.024 C 
HETATM   41  C28 UNL     1      -0.431   2.864  20.320  1.00  0.00     0.023 C 
HETATM   42  C30 UNL     1       1.665   3.004  21.674  1.00  0.00     0.015 C 
HETATM   43  C31 UNL     1       2.300   3.837  22.772  1.00  0.00    -0.042 C 
HETATM   44  C32 UNL     1       3.583   3.110  23.158  1.00  0.00     0.015 C 
HETATM   45  C33 UNL     1       1.379   3.803  23.964  1.00  0.00     0.015 C 
HETATM   46  O3  UNL     1       1.356   5.110  18.649  1.00  0.00    -0.296 OA
ENDBRANCH  30  31
ENDBRANCH   7  30
TORSDOF 8
ENDMDL
MODEL 2
REMARK VINA RESULT: -7.661725168      1.715      2.961
REMARK  8 active torsions:
REMARK  status: ('A' for Active; 'I' for Inactive)
REMARK    1  A    between atoms: S1_2  and  C2_3 
REMARK    2  A    between atoms: C3_6  and  C4_7 
REMARK    3  A    between atoms: C4_7  and  O1_8 
REMARK    4  A    between atoms: C4_7  and  C5_10 
REMARK    5  A    between atoms: C12_19  and  N2_20 
REMARK    6  A    between atoms: N2_20  and  C13_22 
REMARK    7  A    between atoms: N3_29  and  C19_30 
REMARK    8  A    between atoms: C19_30  and  C20_31 
ROOT
HETATM    1  C2  UNL     1       2.222   7.879  23.681  1.00  0.00     0.148 A 
HETATM    2  N1  UNL     1       2.524   9.162  23.482  1.00  0.00    -0.334 N 
ATOM      3  H1  UNL     1       1.905   9.951  23.671  1.00  0.00     0.168 HD
HETATM    4  C3  UNL     1       3.765   9.251  22.992  1.00  0.00     0.103 A 
HETATM    5  C18 UNL     1       4.222   7.935  22.899  1.00  0.00     0.218 A 
HETATM    6  F2  UNL     1       5.473   7.686  22.404  1.00  0.00    -0.184 F 
HETATM    7  N3  UNL     1       3.280   7.095  23.319  1.00  0.00    -0.302 N 
ENDROOT
BRANCH   4   8
HETATM    8  C4  UNL     1       4.461  10.496  22.646  1.00  0.00     0.232 C 
BRANCH   8   9
HETATM    9  O1  UNL     1       4.859  10.448  21.322  1.00  0.00    -0.383 OA
ATOM     10  H1  UNL     1       4.638  11.268  20.896  1.00  0.00     0.211 HD
ENDBRANCH   8   9
BRANCH   8  11
HETATM   11  C5  UNL     1       5.639  10.748  23.551  1.00  0.00     0.115 A 
HETATM   12  O2  UNL     1       6.880  10.869  23.146  1.00  0.00    -0.309 OA
HETATM   13  C6  UNL     1       7.706  11.085  24.146  1.00  0.00     0.088 A 
HETATM   14  C7  UNL     1       9.076  11.274  24.227  1.00  0.00     0.041 A 
HETATM   15  C11 UNL     1       6.983  11.117  25.318  1.00  0.00     0.030 A 
HETATM   16  C8  UNL     1       9.689  11.485  25.438  1.00  0.00     0.045 A 
HETATM   17  C9  UNL     1       8.981  11.518  26.620  1.00  0.00     0.117 A 
HETATM   18  F1  UNL     1       9.602  11.730  27.805  1.00  0.00    -0.206 F 
HETATM   19  C10 UNL     1       7.622  11.329  26.524  1.00  0.00     0.059 A 
HETATM   20  C12 UNL     1       5.671  10.901  24.921  1.00  0.00     0.074 A 
BRANCH  20  21
HETATM   21  N2  UNL     1       4.541  10.828  25.765  1.00  0.00    -0.382 N 
ATOM     22  H2  UNL     1       4.359   9.920  26.193  1.00  0.00     0.160 HD
BRANCH  21  23
HETATM   23  C13 UNL     1       3.628  11.867  26.090  1.00  0.00     0.082 C 
HETATM   24  C14 UNL     1       3.407  11.924  27.595  1.00  0.00     0.025 C 
HETATM   25  C15 UNL     1       4.370  12.983  28.090  1.00  0.00     0.002 C 
HETATM   26  C16 UNL     1       4.759  13.833  26.901  1.00  0.00     0.002 C 
HETATM   27  C17 UNL     1       4.040  13.258  25.697  1.00  0.00     0.025 C 
ENDBRANCH  21  23
ENDBRANCH  20  21
ENDBRANCH   8  11
ENDBRANCH   4   8
BRANCH   1  28
HETATM   28  S1  UNL     1       0.635   7.307  24.332  1.00  0.00    -0.098 SA
HETATM   29  C1  UNL     1      -0.725   8.279  23.630  1.00  0.00     0.099 C 
ENDBRANCH   1  28
BRANCH   7  30
HETATM   30  C19 UNL     1       3.305   5.659  23.363  1.00  0.00     0.139 C 
BRANCH  30  31
HETATM   31  C20 UNL     1       2.683   4.950  22.196  1.00  0.00     0.013 C 
HETATM   32  C21 UNL     1       1.620   5.659  21.482  1.00  0.00     0.024 C 
HETATM   33  C22 UNL     1       0.511   4.871  20.919  1.00  0.00     0.026 C 
HETATM   34  C23 UNL     1      -0.850   5.574  21.045  1.00  0.00     0.023 C 
HETATM   35  C29 UNL     1       0.293   3.482  21.366  1.00  0.00     0.003 C 
HETATM   36  C34 UNL     1       0.542   4.691  19.437  1.00  0.00     0.144 C 
HETATM   37  C24 UNL     1      -1.696   4.945  19.929  1.00  0.00    -0.002 C 
HETATM   38  C25 UNL     1      -2.935   4.296  20.477  1.00  0.00     0.011 C 
HETATM   39  C26 UNL     1      -0.756   3.950  19.281  1.00  0.00     0.021 C 
HETATM   40  C27 UNL     1      -1.097   3.545  17.920  1.00  0.00     0.024 C 
HETATM   41  C28 UNL     1      -0.518   2.803  20.252  1.00  0.00     0.023 C 
HETATM   42  C30 UNL     1       1.623   2.790  21.539  1.00  0.00     0.015 C 
HETATM   43  C31 UNL     1       2.335   3.550  22.642  1.00  0.00    -0.042 C 
HETATM   44  C32 UNL     1       3.591   2.747  22.960  1.00  0.00     0.015 C 
HETATM   45  C33 UNL     1       1.451   3.519  23.863  1.00  0.00     0.015 C 
HETATM   46  O3  UNL     1       1.326   5.016  18.599  1.00  0.00    -0.296 OA
ENDBRANCH  30  31
ENDBRANCH   7  30
TORSDOF 8
ENDMDL
MODEL 3
REMARK VINA RESULT: -7.218631999      1.524      1.814
REMARK  8 active torsions:
REMARK  status: ('A' for Active; 'I' for Inactive)
REMARK    1  A    between atoms: S1_2  and  C2_3 
REMARK    2  A    between atoms: C3_6  and  C4_7 
REMARK    3  A    between atoms: C4_7  and  O1_8 
REMARK    4  A    between atoms: C4_7  and  C5_10 
REMARK    5  A    between atoms: C12_19  and  N2_20 
REMARK    6  A    between atoms: N2_20  and  C13_22 
REMARK    7  A    between atoms: N3_29  and  C19_30 
REMARK    8  A    between atoms: C19_30  and  C20_31 
ROOT
HETATM    1  C2  UNL     1       0.834   8.223  23.987  1.00  0.00     0.148 A 
HETATM    2  N1  UNL     1       1.796   9.131  23.814  1.00  0.00    -0.334 N 
ATOM      3  H1  UNL     1       1.673  10.142  23.876  1.00  0.00     0.168 HD
HETATM    4  C3  UNL     1       2.948   8.506  23.545  1.00  0.00     0.103 A 
HETATM    5  C18 UNL     1       2.643   7.143  23.561  1.00  0.00     0.218 A 
HETATM    6  F2  UNL     1       3.622   6.227  23.296  1.00  0.00    -0.184 F 
HETATM    7  N3  UNL     1       1.351   6.969  23.830  1.00  0.00    -0.302 N 
ENDROOT
BRANCH   4   8
HETATM    8  C4  UNL     1       4.238   9.159  23.298  1.00  0.00     0.232 C 
BRANCH   8   9
HETATM    9  O1  UNL     1       5.218   8.545  24.059  1.00  0.00    -0.383 OA
ATOM     10  H1  UNL     1       6.045   8.994  23.929  1.00  0.00     0.211 HD
ENDBRANCH   8   9
BRANCH   8  11
HETATM   11  C5  UNL     1       4.183  10.636  23.587  1.00  0.00     0.115 A 
HETATM   12  O2  UNL     1       3.081  11.321  23.779  1.00  0.00    -0.309 OA
HETATM   13  C6  UNL     1       3.324  12.592  24.011  1.00  0.00     0.088 A 
HETATM   14  C7  UNL     1       2.514  13.686  24.266  1.00  0.00     0.041 A 
HETATM   15  C11 UNL     1       4.687  12.795  23.979  1.00  0.00     0.030 A 
HETATM   16  C8  UNL     1       3.055  14.930  24.478  1.00  0.00     0.045 A 
HETATM   17  C9  UNL     1       4.415  15.151  24.448  1.00  0.00     0.117 A 
HETATM   18  F1  UNL     1       4.931  16.386  24.661  1.00  0.00    -0.206 F 
HETATM   19  C10 UNL     1       5.207  14.055  24.194  1.00  0.00     0.059 A 
HETATM   20  C12 UNL     1       5.217  11.541  23.708  1.00  0.00     0.074 A 
BRANCH  20  21
HETATM   21  N2  UNL     1       6.585  11.225  23.559  1.00  0.00    -0.382 N 
ATOM     22  H2  UNL     1       6.958  11.283  22.611  1.00  0.00     0.160 HD
BRANCH  21  23
HETATM   23  C13 UNL     1       7.504  10.835  24.569  1.00  0.00     0.082 C 
HETATM   24  C14 UNL     1       8.903  11.331  24.231  1.00  0.00     0.025 C 
HETATM   25  C15 UNL     1       9.045  12.639  24.983  1.00  0.00     0.002 C 
HETATM   26  C16 UNL     1       8.000  12.648  26.077  1.00  0.00     0.002 C 
HETATM   27  C17 UNL     1       7.225  11.351  25.954  1.00  0.00     0.025 C 
ENDBRANCH  21  23
ENDBRANCH  20  21
ENDBRANCH   8  11
ENDBRANCH   4   8
BRANCH   1  28
HETATM   28  S1  UNL     1      -0.884   8.637  24.365  1.00  0.00    -0.098 SA
HETATM   29  C1  UNL     1      -1.829   8.883  22.837  1.00  0.00     0.099 C 
ENDBRANCH   1  28
BRANCH   7  30
HETATM   30  C19 UNL     1       0.603   5.744  23.909  1.00  0.00     0.139 C 
BRANCH  30  31
HETATM   31  C20 UNL     1       0.369   5.027  22.613  1.00  0.00     0.013 C 
HETATM   32  C21 UNL     1      -0.206   5.809  21.518  1.00  0.00     0.024 C 
HETATM   33  C22 UNL     1      -1.127   5.135  20.587  1.00  0.00     0.026 C 
HETATM   34  C23 UNL     1      -2.297   6.030  20.146  1.00  0.00     0.023 C 
HETATM   35  C29 UNL     1      -1.724   3.837  20.952  1.00  0.00     0.003 C 
HETATM   36  C34 UNL     1      -0.559   4.820  19.243  1.00  0.00     0.144 C 
HETATM   37  C24 UNL     1      -2.740   5.426  18.806  1.00  0.00    -0.002 C 
HETATM   38  C25 UNL     1      -4.182   5.008  18.841  1.00  0.00     0.011 C 
HETATM   39  C26 UNL     1      -1.799   4.255  18.610  1.00  0.00     0.021 C 
HETATM   40  C27 UNL     1      -1.653   3.780  17.236  1.00  0.00     0.024 C 
HETATM   41  C28 UNL     1      -2.144   3.179  19.628  1.00  0.00     0.023 C 
HETATM   42  C30 UNL     1      -0.694   2.984  21.654  1.00  0.00     0.015 C 
HETATM   43  C31 UNL     1      -0.347   3.735  22.926  1.00  0.00    -0.042 C 
HETATM   44  C32 UNL     1       0.540   2.797  23.736  1.00  0.00     0.015 C 
HETATM   45  C33 UNL     1      -1.624   3.938  23.701  1.00  0.00     0.015 C 
HETATM   46  O3  UNL     1       0.529   4.954  18.772  1.00  0.00    -0.296 OA
ENDBRANCH  30  31
ENDBRANCH   7  30
TORSDOF 8
ENDMDL
MODEL 4
REMARK VINA RESULT: -7.216664930      2.258      3.142
REMARK  8 active torsions:
REMARK  status: ('A' for Active; 'I' for Inactive)
REMARK    1  A    between atoms: S1_2  and  C2_3 
REMARK    2  A    between atoms: C3_6  and  C4_7 
REMARK    3  A    between atoms: C4_7  and  O1_8 
REMARK    4  A    between atoms: C4_7  and  C5_10 
REMARK    5  A    between atoms: C12_19  and  N2_20 
REMARK    6  A    between atoms: N2_20  and  C13_22 
REMARK    7  A    between atoms: N3_29  and  C19_30 
REMARK    8  A    between atoms: C19_30  and  C20_31 
ROOT
HETATM    1  C2  UNL     1       0.070   7.146  24.022  1.00  0.00     0.148 A 
HETATM    2  N1  UNL     1       0.755   8.291  24.021  1.00  0.00    -0.334 N 
ATOM      3  H1  UNL     1       0.363   9.214  24.209  1.00  0.00     0.168 HD
HETATM    4  C3  UNL     1       2.036   8.037  23.736  1.00  0.00     0.103 A 
HETATM    5  C18 UNL     1       2.109   6.653  23.557  1.00  0.00     0.218 A 
HETATM    6  F2  UNL     1       3.304   6.075  23.228  1.00  0.00    -0.184 F 
HETATM    7  N3  UNL     1       0.908   6.108  23.731  1.00  0.00    -0.302 N 
ENDROOT
BRANCH   4   8
HETATM    8  C4  UNL     1       3.107   9.036  23.645  1.00  0.00     0.232 C 
BRANCH   8   9
HETATM    9  O1  UNL     1       4.238   8.556  24.282  1.00  0.00    -0.383 OA
ATOM     10  H1  UNL     1       4.027   7.749  24.736  1.00  0.00     0.211 HD
ENDBRANCH   8   9
BRANCH   8  11
HETATM   11  C5  UNL     1       2.687  10.361  24.226  1.00  0.00     0.115 A 
HETATM   12  O2  UNL     1       1.445  10.748  24.386  1.00  0.00    -0.309 OA
HETATM   13  C6  UNL     1       1.367  11.949  24.914  1.00  0.00     0.088 A 
HETATM   14  C7  UNL     1       0.307  12.769  25.266  1.00  0.00     0.041 A 
HETATM   15  C11 UNL     1       2.643  12.420  25.136  1.00  0.00     0.030 A 
HETATM   16  C8  UNL     1       0.526  14.009  25.815  1.00  0.00     0.045 A 
HETATM   17  C9  UNL     1       1.795  14.495  26.042  1.00  0.00     0.117 A 
HETATM   18  F1  UNL     1       1.992  15.720  26.586  1.00  0.00    -0.206 F 
HETATM   19  C10 UNL     1       2.838  13.670  25.688  1.00  0.00     0.059 A 
HETATM   20  C12 UNL     1       3.470  11.397  24.692  1.00  0.00     0.074 A 
BRANCH  20  21
HETATM   21  N2  UNL     1       4.882  11.401  24.692  1.00  0.00    -0.382 N 
ATOM     22  H2  UNL     1       5.332  10.930  25.476  1.00  0.00     0.160 HD
BRANCH  21  23
HETATM   23  C13 UNL     1       5.751  11.983  23.730  1.00  0.00     0.082 C 
HETATM   24  C14 UNL     1       6.857  11.005  23.358  1.00  0.00     0.025 C 
HETATM   25  C15 UNL     1       6.363  10.319  22.100  1.00  0.00     0.002 C 
HETATM   26  C16 UNL     1       5.282  11.192  21.504  1.00  0.00     0.002 C 
HETATM   27  C17 UNL     1       5.122  12.385  22.425  1.00  0.00     0.025 C 
ENDBRANCH  21  23
ENDBRANCH  20  21
ENDBRANCH   8  11
ENDBRANCH   4   8
BRANCH   1  28
HETATM   28  S1  UNL     1      -1.703   7.034  24.359  1.00  0.00    -0.098 SA
HETATM   29  C1  UNL     1      -1.998   6.155  25.917  1.00  0.00     0.099 C 
ENDBRANCH   1  28
BRANCH   7  30
HETATM   30  C19 UNL     1       0.516   4.731  23.609  1.00  0.00     0.139 C 
BRANCH  30  31
HETATM   31  C20 UNL     1       0.168   4.262  22.228  1.00  0.00     0.013 C 
HETATM   32  C21 UNL     1      -0.267   5.282  21.273  1.00  0.00     0.024 C 
HETATM   33  C22 UNL     1      -1.286   4.916  20.274  1.00  0.00     0.026 C 
HETATM   34  C23 UNL     1      -2.290   6.047  19.997  1.00  0.00     0.023 C 
HETATM   35  C29 UNL     1      -2.092   3.694  20.459  1.00  0.00     0.003 C 
HETATM   36  C34 UNL     1      -0.777   4.714  18.886  1.00  0.00     0.144 C 
HETATM   37  C24 UNL     1      -2.825   5.730  18.593  1.00  0.00    -0.002 C 
HETATM   38  C25 UNL     1      -4.317   5.556  18.600  1.00  0.00     0.011 C 
HETATM   39  C26 UNL     1      -2.093   4.462  18.206  1.00  0.00     0.021 C 
HETATM   40  C27 UNL     1      -2.025   4.179  16.775  1.00  0.00     0.024 C 
HETATM   41  C28 UNL     1      -2.614   3.319  19.063  1.00  0.00     0.023 C 
HETATM   42  C30 UNL     1      -1.221   2.589  21.004  1.00  0.00     0.015 C 
HETATM   43  C31 UNL     1      -0.755   3.075  22.364  1.00  0.00    -0.042 C 
HETATM   44  C32 UNL     1      -0.038   1.893  23.007  1.00  0.00     0.015 C 
HETATM   45  C33 UNL     1      -1.981   3.369  23.190  1.00  0.00     0.015 C 
HETATM   46  O3  UNL     1       0.319   4.735  18.415  1.00  0.00    -0.296 OA
ENDBRANCH  30  31
ENDBRANCH   7  30
TORSDOF 8
ENDMDL
MODEL 5
REMARK VINA RESULT: -7.117504728      2.968      9.677
REMARK  8 active torsions:
REMARK  status: ('A' for Active; 'I' for Inactive)
REMARK    1  A    between atoms: S1_2  and  C2_3 
REMARK    2  A    between atoms: C3_6  and  C4_7 
REMARK    3  A    between atoms: C4_7  and  O1_8 
REMARK    4  A    between atoms: C4_7  and  C5_10 
REMARK    5  A    between atoms: C12_19  and  N2_20 
REMARK    6  A    between atoms: N2_20  and  C13_22 
REMARK    7  A    between atoms: N3_29  and  C19_30 
REMARK    8  A    between atoms: C19_30  and  C20_31 
ROOT
HETATM    1  C2  UNL     1       4.952   9.063  22.363  1.00  0.00     0.148 A 
HETATM    2  N1  UNL     1       4.216   7.973  22.137  1.00  0.00    -0.334 N 
ATOM      3  H1  UNL     1       3.786   7.725  21.246  1.00  0.00     0.168 HD
HETATM    4  C3  UNL     1       4.133   7.258  23.264  1.00  0.00     0.103 A 
HETATM    5  C18 UNL     1       4.866   7.973  24.213  1.00  0.00     0.218 A 
HETATM    6  F2  UNL     1       4.955   7.504  25.494  1.00  0.00    -0.184 F 
HETATM    7  N3  UNL     1       5.367   9.077  23.664  1.00  0.00    -0.302 N 
ENDROOT
BRANCH   4   8
HETATM    8  C4  UNL     1       3.413   5.989  23.420  1.00  0.00     0.232 C 
BRANCH   8   9
HETATM    9  O1  UNL     1       4.163   4.964  22.869  1.00  0.00    -0.383 OA
ATOM     10  H1  UNL     1       4.270   4.271  23.511  1.00  0.00     0.211 HD
ENDBRANCH   8   9
BRANCH   8  11
HETATM   11  C5  UNL     1       2.042   6.042  22.798  1.00  0.00     0.115 A 
HETATM   12  O2  UNL     1       1.199   7.037  22.930  1.00  0.00    -0.309 OA
HETATM   13  C6  UNL     1       0.075   6.821  22.283  1.00  0.00     0.088 A 
HETATM   14  C7  UNL     1      -1.090   7.554  22.124  1.00  0.00     0.041 A 
HETATM   15  C11 UNL     1       0.152   5.593  21.661  1.00  0.00     0.030 A 
HETATM   16  C8  UNL     1      -2.131   7.069  21.371  1.00  0.00     0.045 A 
HETATM   17  C9  UNL     1      -2.071   5.843  20.743  1.00  0.00     0.117 A 
HETATM   18  F1  UNL     1      -3.108   5.382  20.003  1.00  0.00    -0.206 F 
HETATM   19  C10 UNL     1      -0.909   5.126  20.911  1.00  0.00     0.059 A 
HETATM   20  C12 UNL     1       1.409   5.112  22.000  1.00  0.00     0.074 A 
BRANCH  20  21
HETATM   21  N2  UNL     1       1.962   3.871  21.616  1.00  0.00    -0.382 N 
ATOM     22  H2  UNL     1       2.779   3.914  21.006  1.00  0.00     0.160 HD
BRANCH  21  23
HETATM   23  C13 UNL     1       1.519   2.571  21.977  1.00  0.00     0.082 C 
HETATM   24  C14 UNL     1       2.707   1.631  22.128  1.00  0.00     0.025 C 
HETATM   25  C15 UNL     1       3.026   1.641  23.610  1.00  0.00     0.002 C 
HETATM   26  C16 UNL     1       1.799   2.151  24.333  1.00  0.00     0.002 C 
HETATM   27  C17 UNL     1       0.763   2.464  23.273  1.00  0.00     0.025 C 
ENDBRANCH  21  23
ENDBRANCH  20  21
ENDBRANCH   8  11
ENDBRANCH   4   8
BRANCH   1  28
HETATM   28  S1  UNL     1       5.315  10.310  21.106  1.00  0.00    -0.098 SA
HETATM   29  C1  UNL     1       4.960  11.972  21.740  1.00  0.00     0.099 C 
ENDBRANCH   1  28
BRANCH   7  30
HETATM   30  C19 UNL     1       6.148  10.116  24.277  1.00  0.00     0.139 C 
BRANCH  30  31
HETATM   31  C20 UNL     1       5.508  10.835  25.426  1.00  0.00     0.013 C 
HETATM   32  C21 UNL     1       4.108  11.228  25.263  1.00  0.00     0.024 C 
HETATM   33  C22 UNL     1       3.659  12.486  25.883  1.00  0.00     0.026 C 
HETATM   34  C23 UNL     1       2.652  13.259  25.016  1.00  0.00     0.023 C 
HETATM   35  C29 UNL     1       4.651  13.480  26.335  1.00  0.00     0.003 C 
HETATM   36  C34 UNL     1       2.830  12.332  27.115  1.00  0.00     0.144 C 
HETATM   37  C24 UNL     1       1.886  14.128  26.022  1.00  0.00    -0.002 C 
HETATM   38  C25 UNL     1       2.004  15.588  25.688  1.00  0.00     0.011 C 
HETATM   39  C26 UNL     1       2.521  13.783  27.353  1.00  0.00     0.021 C 
HETATM   40  C27 UNL     1       1.716  14.076  28.536  1.00  0.00     0.024 C 
HETATM   41  C28 UNL     1       3.932  14.348  27.379  1.00  0.00     0.023 C 
HETATM   42  C30 UNL     1       5.827  12.773  26.964  1.00  0.00     0.015 C 
HETATM   43  C31 UNL     1       6.441  11.942  25.853  1.00  0.00    -0.042 C 
HETATM   44  C32 UNL     1       7.739  11.379  26.421  1.00  0.00     0.015 C 
HETATM   45  C33 UNL     1       6.803  12.878  24.728  1.00  0.00     0.015 C 
HETATM   46  O3  UNL     1       2.492  11.379  27.749  1.00  0.00    -0.296 OA
ENDBRANCH  30  31
ENDBRANCH   7  30
TORSDOF 8
ENDMDL
