MODEL 1
REMARK VINA RESULT: -6.897399242      0.000      0.000
REMARK  10 active torsions:
REMARK  status: ('A' for Active; 'I' for Inactive)
REMARK    1  A    between atoms: C12_13  and  O1_14 
REMARK    2  A    between atoms: O1_14  and  C13_15 
REMARK    3  A    between atoms: C13_15  and  C14_17 
REMARK    4  A    between atoms: C14_17  and  O3_18 
REMARK    5  A    between atoms: C14_17  and  C21_30 
REMARK    6  A    between atoms: O3_18  and  C15_19 
REMARK    7  A    between atoms: C15_19  and  O4_20 
REMARK    8  A    between atoms: C15_19  and  C16_22 
REMARK    9  A    between atoms: C18_25  and  O6_26 
REMARK   10  A    between atoms: C30_39  and  C31_40 
ROOT
HETATM    1  C1  UNL     1       3.206  16.304  24.505  1.00  0.00     0.052 C 
HETATM    2  C2  UNL     1       4.192  15.195  24.370  1.00  0.00    -0.008 C 
HETATM    3  C3  UNL     1       5.330  15.252  25.025  1.00  0.00    -0.056 C 
HETATM    4  C4  UNL     1       5.919  16.268  25.939  1.00  0.00     0.027 C 
HETATM    5  C5  UNL     1       5.165  16.582  27.153  1.00  0.00     0.012 C 
HETATM    6  C6  UNL     1       5.675  15.649  28.195  1.00  0.00     0.027 C 
HETATM    7  C7  UNL     1       7.125  15.470  27.809  1.00  0.00     0.042 C 
HETATM    8  C8  UNL     1       7.836  16.508  28.716  1.00  0.00     0.033 C 
HETATM    9 CL1  UNL     1       7.646  13.942  28.507  1.00  0.00    -0.119 Cl
HETATM   10  C9  UNL     1       7.242  15.722  26.408  1.00  0.00    -0.007 C 
HETATM   11  C10 UNL     1       8.363  16.757  26.171  1.00  0.00     0.015 C 
HETATM   12  C11 UNL     1       9.704  16.204  25.947  1.00  0.00     0.033 C 
HETATM   13  C12 UNL     1       9.884  14.915  25.252  1.00  0.00     0.132 C 
HETATM   14  C24 UNL     1       8.738  13.927  25.434  1.00  0.00     0.039 C 
HETATM   15  C25 UNL     1       7.502  14.712  25.355  1.00  0.00     0.012 C 
HETATM   16  C26 UNL     1       6.235  14.065  24.942  1.00  0.00    -0.011 C 
HETATM   17  C27 UNL     1       5.788  12.878  25.717  1.00  0.00     0.021 C 
HETATM   18  C28 UNL     1       6.274  13.576  23.481  1.00  0.00     0.057 C 
HETATM   19  C29 UNL     1       4.912  13.170  23.089  1.00  0.00    -0.006 C 
HETATM   20  C30 UNL     1       4.652  12.026  22.512  1.00  0.00     0.012 C 
HETATM   21  C33 UNL     1       3.884  14.175  23.375  1.00  0.00     0.184 C 
HETATM   22  O7  UNL     1       2.782  14.148  22.779  1.00  0.00    -0.287 OA
ENDROOT
BRANCH  13  23
HETATM   23  O1  UNL     1      11.090  14.296  25.594  1.00  0.00    -0.314 OA
BRANCH  23  24
HETATM   24  C13 UNL     1      11.220  12.932  25.824  1.00  0.00     0.288 C 
HETATM   25  O2  UNL     1      10.777  12.497  26.918  1.00  0.00    -0.262 OA
BRANCH  24  26
HETATM   26  C14 UNL     1      11.841  11.984  24.865  1.00  0.00     0.227 C 
BRANCH  26  27
HETATM   27  O3  UNL     1      12.161  12.604  23.662  1.00  0.00    -0.342 OA
BRANCH  27  28
HETATM   28  C15 UNL     1      13.454  13.068  23.586  1.00  0.00     0.295 C 
BRANCH  28  29
HETATM   29  O4  UNL     1      13.365  14.425  23.239  1.00  0.00    -0.367 OA
ATOM     30  H4  UNL     1      14.020  14.876  23.758  1.00  0.00     0.213 HD
ENDBRANCH  28  29
BRANCH  28  31
HETATM   31  C16 UNL     1      14.337  12.347  22.673  1.00  0.00     0.029 A 
HETATM   32  C17 UNL     1      14.557  12.532  21.331  1.00  0.00     0.157 A 
HETATM   33  O5  UNL     1      15.445  11.648  20.897  1.00  0.00    -0.299 OA
HETATM   34  C18 UNL     1      15.828  10.887  21.870  1.00  0.00     0.189 A 
HETATM   35  C19 UNL     1      15.159  11.282  23.022  1.00  0.00     0.009 A 
HETATM   36  C20 UNL     1      15.301  10.680  24.360  1.00  0.00     0.054 C 
BRANCH  34  37
HETATM   37  O6  UNL     1      16.762   9.850  21.743  1.00  0.00    -0.340 OA
ATOM     38  H6  UNL     1      16.654   8.981  22.114  1.00  0.00     0.220 HD
ENDBRANCH  34  37
ENDBRANCH  28  31
ENDBRANCH  27  28
ENDBRANCH  26  27
BRANCH  26  39
HETATM   39  C21 UNL     1      11.008  10.764  24.637  1.00  0.00     0.016 C 
HETATM   40  C22 UNL     1      11.773   9.611  24.061  1.00  0.00     0.012 C 
HETATM   41  C23 UNL     1       9.800  11.124  23.782  1.00  0.00     0.012 C 
ENDBRANCH  26  39
ENDBRANCH  24  26
ENDBRANCH  23  24
ENDBRANCH  13  23
BRANCH  20  42
HETATM   42  C31 UNL     1       5.626  11.020  22.180  1.00  0.00     0.012 C 
HETATM   43  C32 UNL     1       5.764   9.930  22.932  1.00  0.00     0.084 C 
HETATM   44 CL2  UNL     1       4.756   9.695  24.349  1.00  0.00    -0.097 Cl
ENDBRANCH  20  42
TORSDOF 10
ENDMDL
MODEL 2
REMARK VINA RESULT: -6.796445924      1.397      2.174
REMARK  10 active torsions:
REMARK  status: ('A' for Active; 'I' for Inactive)
REMARK    1  A    between atoms: C12_13  and  O1_14 
REMARK    2  A    between atoms: O1_14  and  C13_15 
REMARK    3  A    between atoms: C13_15  and  C14_17 
REMARK    4  A    between atoms: C14_17  and  O3_18 
REMARK    5  A    between atoms: C14_17  and  C21_30 
REMARK    6  A    between atoms: O3_18  and  C15_19 
REMARK    7  A    between atoms: C15_19  and  O4_20 
REMARK    8  A    between atoms: C15_19  and  C16_22 
REMARK    9  A    between atoms: C18_25  and  O6_26 
REMARK   10  A    between atoms: C30_39  and  C31_40 
ROOT
HETATM    1  C1  UNL     1       2.965  16.480  24.016  1.00  0.00     0.052 C 
HETATM    2  C2  UNL     1       3.947  15.373  24.200  1.00  0.00    -0.008 C 
HETATM    3  C3  UNL     1       4.939  15.517  25.050  1.00  0.00    -0.056 C 
HETATM    4  C4  UNL     1       5.354  16.638  25.936  1.00  0.00     0.027 C 
HETATM    5  C5  UNL     1       4.386  17.082  26.939  1.00  0.00     0.012 C 
HETATM    6  C6  UNL     1       4.676  16.281  28.160  1.00  0.00     0.027 C 
HETATM    7  C7  UNL     1       6.171  16.074  28.081  1.00  0.00     0.042 C 
HETATM    8  C8  UNL     1       6.708  17.217  28.982  1.00  0.00     0.033 C 
HETATM    9 CL1  UNL     1       6.531  14.643  29.037  1.00  0.00    -0.119 Cl
HETATM   10  C9  UNL     1       6.557  16.164  26.709  1.00  0.00    -0.007 C 
HETATM   11  C10 UNL     1       7.714  17.177  26.573  1.00  0.00     0.015 C 
HETATM   12  C11 UNL     1       9.067  16.617  26.674  1.00  0.00     0.033 C 
HETATM   13  C12 UNL     1       9.362  15.258  26.179  1.00  0.00     0.132 C 
HETATM   14  C24 UNL     1       8.191  14.285  26.253  1.00  0.00     0.039 C 
HETATM   15  C25 UNL     1       7.001  15.043  25.848  1.00  0.00     0.012 C 
HETATM   16  C26 UNL     1       5.830  14.338  25.279  1.00  0.00    -0.011 C 
HETATM   17  C27 UNL     1       5.229  13.244  26.085  1.00  0.00     0.021 C 
HETATM   18  C28 UNL     1       6.141  13.685  23.919  1.00  0.00     0.057 C 
HETATM   19  C29 UNL     1       4.875  13.221  23.323  1.00  0.00    -0.006 C 
HETATM   20  C30 UNL     1       4.717  12.015  22.843  1.00  0.00     0.012 C 
HETATM   21  C33 UNL     1       3.823  14.241  23.289  1.00  0.00     0.184 C 
HETATM   22  O7  UNL     1       2.855  14.133  22.500  1.00  0.00    -0.287 OA
ENDROOT
BRANCH  13  23
HETATM   23  O1  UNL     1      10.473  14.695  26.815  1.00  0.00    -0.314 OA
BRANCH  23  24
HETATM   24  C13 UNL     1      11.392  13.871  26.178  1.00  0.00     0.288 C 
HETATM   25  O2  UNL     1      12.291  14.436  25.504  1.00  0.00    -0.262 OA
BRANCH  24  26
HETATM   26  C14 UNL     1      11.367  12.388  26.251  1.00  0.00     0.227 C 
BRANCH  26  27
HETATM   27  O3  UNL     1      10.310  11.854  25.522  1.00  0.00    -0.342 OA
BRANCH  27  28
HETATM   28  C15 UNL     1      10.568  11.691  24.180  1.00  0.00     0.295 C 
BRANCH  28  29
HETATM   29  O4  UNL     1       9.422  11.101  23.627  1.00  0.00    -0.367 OA
ATOM     30  H4  UNL     1       9.590  11.013  22.696  1.00  0.00     0.213 HD
ENDBRANCH  28  29
BRANCH  28  31
HETATM   31  C16 UNL     1      11.767  10.922  23.852  1.00  0.00     0.029 A 
HETATM   32  C17 UNL     1      12.095   9.626  24.163  1.00  0.00     0.157 A 
HETATM   33  O5  UNL     1      13.288   9.335  23.661  1.00  0.00    -0.299 OA
HETATM   34  C18 UNL     1      13.771  10.359  23.037  1.00  0.00     0.189 A 
HETATM   35  C19 UNL     1      12.852  11.397  23.123  1.00  0.00     0.009 A 
HETATM   36  C20 UNL     1      13.005  12.745  22.548  1.00  0.00     0.054 C 
BRANCH  34  37
HETATM   37  O6  UNL     1      15.017  10.378  22.394  1.00  0.00    -0.340 OA
ATOM     38  H6  UNL     1      15.729  10.965  22.620  1.00  0.00     0.220 HD
ENDBRANCH  34  37
ENDBRANCH  28  31
ENDBRANCH  27  28
ENDBRANCH  26  27
BRANCH  26  39
HETATM   39  C21 UNL     1      11.362  11.879  27.657  1.00  0.00     0.016 C 
HETATM   40  C22 UNL     1      12.351  10.779  27.903  1.00  0.00     0.012 C 
HETATM   41  C23 UNL     1       9.948  11.465  28.044  1.00  0.00     0.012 C 
ENDBRANCH  26  39
ENDBRANCH  24  26
ENDBRANCH  23  24
ENDBRANCH  13  23
BRANCH  20  42
HETATM   42  C31 UNL     1       5.724  10.988  22.821  1.00  0.00     0.012 C 
HETATM   43  C32 UNL     1       5.701   9.991  23.703  1.00  0.00     0.084 C 
HETATM   44 CL2  UNL     1       4.434   9.907  24.915  1.00  0.00    -0.097 Cl
ENDBRANCH  20  42
TORSDOF 10
ENDMDL
MODEL 3
REMARK VINA RESULT: -6.753317255      1.962      3.360
REMARK  10 active torsions:
REMARK  status: ('A' for Active; 'I' for Inactive)
REMARK    1  A    between atoms: C12_13  and  O1_14 
REMARK    2  A    between atoms: O1_14  and  C13_15 
REMARK    3  A    between atoms: C13_15  and  C14_17 
REMARK    4  A    between atoms: C14_17  and  O3_18 
REMARK    5  A    between atoms: C14_17  and  C21_30 
REMARK    6  A    between atoms: O3_18  and  C15_19 
REMARK    7  A    between atoms: C15_19  and  O4_20 
REMARK    8  A    between atoms: C15_19  and  C16_22 
REMARK    9  A    between atoms: C18_25  and  O6_26 
REMARK   10  A    between atoms: C30_39  and  C31_40 
ROOT
HETATM    1  C1  UNL     1       5.259  14.806  23.985  1.00  0.00     0.052 C 
HETATM    2  C2  UNL     1       5.699  13.383  23.911  1.00  0.00    -0.008 C 
HETATM    3  C3  UNL     1       6.821  13.018  24.490  1.00  0.00    -0.056 C 
HETATM    4  C4  UNL     1       7.852  13.769  25.257  1.00  0.00     0.027 C 
HETATM    5  C5  UNL     1       7.406  14.450  26.473  1.00  0.00     0.012 C 
HETATM    6  C6  UNL     1       7.595  13.469  27.576  1.00  0.00     0.027 C 
HETATM    7  C7  UNL     1       8.808  12.686  27.128  1.00  0.00     0.042 C 
HETATM    8  C8  UNL     1       9.958  13.405  27.879  1.00  0.00     0.033 C 
HETATM    9 CL1  UNL     1       8.735  11.133  27.952  1.00  0.00    -0.119 Cl
HETATM   10  C9  UNL     1       8.882  12.765  25.704  1.00  0.00    -0.007 C 
HETATM   11  C10 UNL     1      10.296  13.231  25.296  1.00  0.00     0.015 C 
HETATM   12  C11 UNL     1      11.275  12.165  25.054  1.00  0.00     0.033 C 
HETATM   13  C12 UNL     1      10.855  10.868  24.489  1.00  0.00     0.132 C 
HETATM   14  C24 UNL     1       9.432  10.450  24.840  1.00  0.00     0.039 C 
HETATM   15  C25 UNL     1       8.614  11.664  24.750  1.00  0.00     0.012 C 
HETATM   16  C26 UNL     1       7.161  11.562  24.481  1.00  0.00    -0.011 C 
HETATM   17  C27 UNL     1       6.350  10.721  25.400  1.00  0.00     0.021 C 
HETATM   18  C28 UNL     1       6.861  10.995  23.080  1.00  0.00     0.057 C 
HETATM   19  C29 UNL     1       5.420  11.153  22.811  1.00  0.00    -0.006 C 
HETATM   20  C30 UNL     1       4.669  10.177  22.373  1.00  0.00     0.012 C 
HETATM   21  C33 UNL     1       4.914  12.509  23.048  1.00  0.00     0.184 C 
HETATM   22  O7  UNL     1       3.843  12.891  22.522  1.00  0.00    -0.287 OA
ENDROOT
BRANCH  13  23
HETATM   23  O1  UNL     1      11.738   9.836  24.825  1.00  0.00    -0.314 OA
BRANCH  23  24
HETATM   24  C13 UNL     1      13.037   9.743  24.342  1.00  0.00     0.288 C 
HETATM   25  O2  UNL     1      13.172   9.508  23.114  1.00  0.00    -0.262 OA
BRANCH  24  26
HETATM   26  C14 UNL     1      14.249   9.906  25.186  1.00  0.00     0.227 C 
BRANCH  26  27
HETATM   27  O3  UNL     1      15.415   9.824  24.433  1.00  0.00    -0.342 OA
BRANCH  27  28
HETATM   28  C15 UNL     1      16.080  11.019  24.281  1.00  0.00     0.295 C 
BRANCH  28  29
HETATM   29  O4  UNL     1      15.950  11.700  25.500  1.00  0.00    -0.367 OA
ATOM     30  H4  UNL     1      15.280  12.361  25.366  1.00  0.00     0.213 HD
ENDBRANCH  28  29
BRANCH  28  31
HETATM   31  C16 UNL     1      15.644  11.852  23.162  1.00  0.00     0.029 A 
HETATM   32  C17 UNL     1      14.864  12.982  23.156  1.00  0.00     0.157 A 
HETATM   33  O5  UNL     1      14.718  13.418  21.913  1.00  0.00    -0.299 OA
HETATM   34  C18 UNL     1      15.352  12.645  21.092  1.00  0.00     0.189 A 
HETATM   35  C19 UNL     1      15.959  11.634  21.826  1.00  0.00     0.009 A 
HETATM   36  C20 UNL     1      16.783  10.539  21.282  1.00  0.00     0.054 C 
BRANCH  34  37
HETATM   37  O6  UNL     1      15.396  12.831  19.704  1.00  0.00    -0.340 OA
ATOM     38  H6  UNL     1      15.391  12.126  19.067  1.00  0.00     0.220 HD
ENDBRANCH  34  37
ENDBRANCH  28  31
ENDBRANCH  27  28
ENDBRANCH  26  27
BRANCH  26  39
HETATM   39  C21 UNL     1      14.284   8.954  26.337  1.00  0.00     0.016 C 
HETATM   40  C22 UNL     1      13.912   9.579  27.648  1.00  0.00     0.012 C 
HETATM   41  C23 UNL     1      15.648   8.279  26.399  1.00  0.00     0.012 C 
ENDBRANCH  26  39
ENDBRANCH  24  26
ENDBRANCH  23  24
ENDBRANCH  13  23
BRANCH  20  42
HETATM   42  C31 UNL     1       5.120   8.840  22.093  1.00  0.00     0.012 C 
HETATM   43  C32 UNL     1       4.891   7.849  22.953  1.00  0.00     0.084 C 
HETATM   44 CL2  UNL     1       4.029   8.153  24.451  1.00  0.00    -0.097 Cl
ENDBRANCH  20  42
TORSDOF 10
ENDMDL
MODEL 4
REMARK VINA RESULT: -6.742696088      2.413      4.112
REMARK  10 active torsions:
REMARK  status: ('A' for Active; 'I' for Inactive)
REMARK    1  A    between atoms: C12_13  and  O1_14 
REMARK    2  A    between atoms: O1_14  and  C13_15 
REMARK    3  A    between atoms: C13_15  and  C14_17 
REMARK    4  A    between atoms: C14_17  and  O3_18 
REMARK    5  A    between atoms: C14_17  and  C21_30 
REMARK    6  A    between atoms: O3_18  and  C15_19 
REMARK    7  A    between atoms: C15_19  and  O4_20 
REMARK    8  A    between atoms: C15_19  and  C16_22 
REMARK    9  A    between atoms: C18_25  and  O6_26 
REMARK   10  A    between atoms: C30_39  and  C31_40 
ROOT
HETATM    1  C1  UNL     1       5.057  14.841  24.105  1.00  0.00     0.052 C 
HETATM    2  C2  UNL     1       5.573  13.448  23.984  1.00  0.00    -0.008 C 
HETATM    3  C3  UNL     1       6.729  13.132  24.523  1.00  0.00    -0.056 C 
HETATM    4  C4  UNL     1       7.739  13.922  25.279  1.00  0.00     0.027 C 
HETATM    5  C5  UNL     1       7.292  14.550  26.523  1.00  0.00     0.012 C 
HETATM    6  C6  UNL     1       7.567  13.556  27.596  1.00  0.00     0.027 C 
HETATM    7  C7  UNL     1       8.807  12.852  27.096  1.00  0.00     0.042 C 
HETATM    8  C8  UNL     1       9.938  13.617  27.832  1.00  0.00     0.033 C 
HETATM    9 CL1  UNL     1       8.844  11.279  27.884  1.00  0.00    -0.119 Cl
HETATM   10  C9  UNL     1       8.836  12.967  25.673  1.00  0.00    -0.007 C 
HETATM   11  C10 UNL     1      10.209  13.521  25.237  1.00  0.00     0.015 C 
HETATM   12  C11 UNL     1      11.238  12.516  24.943  1.00  0.00     0.033 C 
HETATM   13  C12 UNL     1      10.874  11.211  24.358  1.00  0.00     0.132 C 
HETATM   14  C24 UNL     1       9.487  10.706  24.738  1.00  0.00     0.039 C 
HETATM   15  C25 UNL     1       8.601  11.875  24.700  1.00  0.00     0.012 C 
HETATM   16  C26 UNL     1       7.149  11.698  24.469  1.00  0.00    -0.011 C 
HETATM   17  C27 UNL     1       6.413  10.793  25.390  1.00  0.00     0.021 C 
HETATM   18  C28 UNL     1       6.840  11.148  23.063  1.00  0.00     0.057 C 
HETATM   19  C29 UNL     1       5.385  11.231  22.838  1.00  0.00    -0.006 C 
HETATM   20  C30 UNL     1       4.677  10.224  22.398  1.00  0.00     0.012 C 
HETATM   21  C33 UNL     1       4.813  12.551  23.122  1.00  0.00     0.184 C 
HETATM   22  O7  UNL     1       3.707  12.884  22.635  1.00  0.00    -0.287 OA
ENDROOT
BRANCH  13  23
HETATM   23  O1  UNL     1      11.822  10.223  24.644  1.00  0.00    -0.314 OA
BRANCH  23  24
HETATM   24  C13 UNL     1      12.854   9.870  23.784  1.00  0.00     0.288 C 
HETATM   25  O2  UNL     1      12.615   8.953  22.957  1.00  0.00    -0.262 OA
BRANCH  24  26
HETATM   26  C14 UNL     1      14.194  10.508  23.790  1.00  0.00     0.227 C 
BRANCH  26  27
HETATM   27  O3  UNL     1      14.507  11.036  25.038  1.00  0.00    -0.342 OA
BRANCH  27  28
HETATM   28  C15 UNL     1      15.346  10.251  25.795  1.00  0.00     0.295 C 
BRANCH  28  29
HETATM   29  O4  UNL     1      16.250   9.662  24.898  1.00  0.00    -0.367 OA
ATOM     30  H4  UNL     1      16.838   9.130  25.422  1.00  0.00     0.213 HD
ENDBRANCH  28  29
BRANCH  28  31
HETATM   31  C16 UNL     1      14.695   9.241  26.626  1.00  0.00     0.029 A 
HETATM   32  C17 UNL     1      14.857   7.878  26.645  1.00  0.00     0.157 A 
HETATM   33  O5  UNL     1      14.061   7.346  27.563  1.00  0.00    -0.299 OA
HETATM   34  C18 UNL     1      13.380   8.273  28.153  1.00  0.00     0.189 A 
HETATM   35  C19 UNL     1      13.739   9.497  27.602  1.00  0.00     0.009 A 
HETATM   36  C20 UNL     1      13.203  10.815  27.986  1.00  0.00     0.054 C 
BRANCH  34  37
HETATM   37  O6  UNL     1      12.447   8.042  29.174  1.00  0.00    -0.340 OA
ATOM     38  H6  UNL     1      11.947   8.723  29.608  1.00  0.00     0.220 HD
ENDBRANCH  34  37
ENDBRANCH  28  31
ENDBRANCH  27  28
ENDBRANCH  26  27
BRANCH  26  39
HETATM   39  C21 UNL     1      14.351  11.536  22.717  1.00  0.00     0.016 C 
HETATM   40  C22 UNL     1      15.448  11.229  21.743  1.00  0.00     0.012 C 
HETATM   41  C23 UNL     1      14.525  12.911  23.349  1.00  0.00     0.012 C 
ENDBRANCH  26  39
ENDBRANCH  24  26
ENDBRANCH  23  24
ENDBRANCH  13  23
BRANCH  20  42
HETATM   42  C31 UNL     1       5.193   8.922  22.073  1.00  0.00     0.012 C 
HETATM   43  C32 UNL     1       5.023   7.895  22.904  1.00  0.00     0.084 C 
HETATM   44 CL2  UNL     1       4.161   8.109  24.417  1.00  0.00    -0.097 Cl
ENDBRANCH  20  42
TORSDOF 10
ENDMDL
MODEL 5
REMARK VINA RESULT: -6.683580459      1.235      1.748
REMARK  10 active torsions:
REMARK  status: ('A' for Active; 'I' for Inactive)
REMARK    1  A    between atoms: C12_13  and  O1_14 
REMARK    2  A    between atoms: O1_14  and  C13_15 
REMARK    3  A    between atoms: C13_15  and  C14_17 
REMARK    4  A    between atoms: C14_17  and  O3_18 
REMARK    5  A    between atoms: C14_17  and  C21_30 
REMARK    6  A    between atoms: O3_18  and  C15_19 
REMARK    7  A    between atoms: C15_19  and  O4_20 
REMARK    8  A    between atoms: C15_19  and  C16_22 
REMARK    9  A    between atoms: C18_25  and  O6_26 
REMARK   10  A    between atoms: C30_39  and  C31_40 
ROOT
HETATM    1  C1  UNL     1       3.686  16.119  24.771  1.00  0.00     0.052 C 
HETATM    2  C2  UNL     1       4.570  14.963  24.445  1.00  0.00    -0.008 C 
HETATM    3  C3  UNL     1       5.759  14.876  24.996  1.00  0.00    -0.056 C 
HETATM    4  C4  UNL     1       6.498  15.754  25.944  1.00  0.00     0.027 C 
HETATM    5  C5  UNL     1       5.875  15.996  27.245  1.00  0.00     0.012 C 
HETATM    6  C6  UNL     1       6.396  14.932  28.146  1.00  0.00     0.027 C 
HETATM    7  C7  UNL     1       7.791  14.693  27.615  1.00  0.00     0.042 C 
HETATM    8  C8  UNL     1       8.653  15.584  28.547  1.00  0.00     0.033 C 
HETATM    9 CL1  UNL     1       8.249  13.071  28.118  1.00  0.00    -0.119 Cl
HETATM   10  C9  UNL     1       7.810  15.074  26.239  1.00  0.00    -0.007 C 
HETATM   11  C10 UNL     1       8.983  16.048  25.998  1.00  0.00     0.015 C 
HETATM   12  C11 UNL     1      10.254  15.430  25.604  1.00  0.00     0.033 C 
HETATM   13  C12 UNL     1      10.276  14.207  24.778  1.00  0.00     0.132 C 
HETATM   14  C24 UNL     1       9.077  13.286  24.971  1.00  0.00     0.039 C 
HETATM   15  C25 UNL     1       7.902  14.159  25.077  1.00  0.00     0.012 C 
HETATM   16  C26 UNL     1       6.560  13.644  24.722  1.00  0.00    -0.011 C 
HETATM   17  C27 UNL     1       6.088  12.419  25.420  1.00  0.00     0.021 C 
HETATM   18  C28 UNL     1       6.439  13.301  23.225  1.00  0.00     0.057 C 
HETATM   19  C29 UNL     1       5.022  13.031  22.921  1.00  0.00    -0.006 C 
HETATM   20  C30 UNL     1       4.627  11.970  22.266  1.00  0.00     0.012 C 
HETATM   21  C33 UNL     1       4.102  14.071  23.391  1.00  0.00     0.184 C 
HETATM   22  O7  UNL     1       2.955  14.178  22.897  1.00  0.00    -0.287 OA
ENDROOT
BRANCH  13  23
HETATM   23  O1  UNL     1      11.455  13.475  24.950  1.00  0.00    -0.314 OA
BRANCH  23  24
HETATM   24  C13 UNL     1      12.037  12.701  23.954  1.00  0.00     0.288 C 
HETATM   25  O2  UNL     1      11.881  13.090  22.769  1.00  0.00    -0.262 OA
BRANCH  24  26
HETATM   26  C14 UNL     1      12.818  11.465  24.214  1.00  0.00     0.227 C 
BRANCH  26  27
HETATM   27  O3  UNL     1      13.352  10.937  23.043  1.00  0.00    -0.342 OA
BRANCH  27  28
HETATM   28  C15 UNL     1      14.727  10.936  22.994  1.00  0.00     0.295 C 
BRANCH  28  29
HETATM   29  O4  UNL     1      15.167  11.305  24.274  1.00  0.00    -0.367 OA
ATOM     30  H4  UNL     1      15.887  10.723  24.487  1.00  0.00     0.213 HD
ENDBRANCH  28  29
BRANCH  28  31
HETATM   31  C16 UNL     1      15.328  11.781  21.965  1.00  0.00     0.029 A 
HETATM   32  C17 UNL     1      15.174  13.124  21.728  1.00  0.00     0.157 A 
HETATM   33  O5  UNL     1      15.911  13.481  20.685  1.00  0.00    -0.299 OA
HETATM   34  C18 UNL     1      16.544  12.456  20.214  1.00  0.00     0.189 A 
HETATM   35  C19 UNL     1      16.214  11.348  20.985  1.00  0.00     0.009 A 
HETATM   36  C20 UNL     1      16.715   9.975  20.794  1.00  0.00     0.054 C 
BRANCH  34  37
HETATM   37  O6  UNL     1      17.408  12.497  19.112  1.00  0.00    -0.340 OA
ATOM     38  H6  UNL     1      18.280  12.119  19.099  1.00  0.00     0.220 HD
ENDBRANCH  34  37
ENDBRANCH  28  31
ENDBRANCH  27  28
ENDBRANCH  26  27
BRANCH  26  39
HETATM   39  C21 UNL     1      12.036  10.434  24.961  1.00  0.00     0.016 C 
HETATM   40  C22 UNL     1      12.530  10.197  26.357  1.00  0.00     0.012 C 
HETATM   41  C23 UNL     1      11.989   9.144  24.152  1.00  0.00     0.012 C 
ENDBRANCH  26  39
ENDBRANCH  24  26
ENDBRANCH  23  24
ENDBRANCH  13  23
BRANCH  20  42
HETATM   42  C31 UNL     1       5.489  10.938  21.755  1.00  0.00     0.012 C 
HETATM   43  C32 UNL     1       5.588   9.763  22.375  1.00  0.00     0.084 C 
HETATM   44 CL2  UNL     1       4.664   9.448  23.833  1.00  0.00    -0.097 Cl
ENDBRANCH  20  42
TORSDOF 10
ENDMDL
