MODEL 1
REMARK VINA RESULT: -6.620025681      0.000      0.000
REMARK  10 active torsions:
REMARK  status: ('A' for Active; 'I' for Inactive)
REMARK    1  A    between atoms: C2_2  and  O1_5 
REMARK    2  A    between atoms: O1_5  and  C5_6 
REMARK    3  A    between atoms: C5_6  and  C6_8 
REMARK    4  A    between atoms: C6_8  and  C7_9 
REMARK    5  A    between atoms: C7_9  and  C8_10 
REMARK    6  A    between atoms: C8_10  and  C9_11 
REMARK    7  A    between atoms: N1_14  and  C12_15 
REMARK    8  A    between atoms: C17_21  and  N2_22 
REMARK       I    between atoms: N2_22  and  C18_24 
REMARK       I    between atoms: C18_24  and  N3_26 
REMARK    9  A    between atoms: N3_26  and  C19_28 
REMARK   10  A    between atoms: C26_37  and  C27_38 
ROOT
HETATM    1  C19 UNL     1      11.693  12.779  24.932  1.00  0.00     0.102 A 
HETATM    2  S1  UNL     1      10.505  13.948  25.309  1.00  0.00    -0.045 SA
HETATM    3  C20 UNL     1       9.118  13.113  24.783  1.00  0.00     0.120 A 
HETATM    4  C21 UNL     1       9.621  11.932  24.322  1.00  0.00     0.006 A 
HETATM    5  C22 UNL     1      10.963  11.756  24.398  1.00  0.00     0.088 A 
HETATM    6  C23 UNL     1      11.627  10.524  23.931  1.00  0.00     0.103 C 
HETATM    7  N4  UNL     1      12.168   9.558  23.561  1.00  0.00    -0.191 NA
HETATM    8  C24 UNL     1       8.534  10.999  23.788  1.00  0.00     0.046 C 
HETATM    9  C25 UNL     1       7.416  10.979  24.792  1.00  0.00     0.038 C 
HETATM   10  C26 UNL     1       6.798  12.311  25.031  1.00  0.00     0.137 C 
HETATM   11  O4  UNL     1       7.728  13.330  24.719  1.00  0.00    -0.337 OA
ENDROOT
BRANCH   1  12
HETATM   12  N3  UNL     1      13.119  12.845  25.123  1.00  0.00    -0.301 N 
HETATM   13  C18 UNL     1      13.880  13.715  24.253  1.00  0.00     0.325 C 
HETATM   14  N2  UNL     1      15.266  13.767  24.443  1.00  0.00    -0.306 N 
HETATM   15  O3  UNL     1      13.196  14.332  23.415  1.00  0.00    -0.247 OA
ATOM     16  H2  UNL     1      15.650  13.184  25.185  1.00  0.00     0.170 HD
ATOM     17  H3  UNL     1      13.578  12.295  25.849  1.00  0.00     0.171 HD
BRANCH  14  18
HETATM   18  C17 UNL     1      16.180  14.545  23.711  1.00  0.00     0.064 A 
HETATM   19  C12 UNL     1      16.859  13.982  22.625  1.00  0.00     0.059 A 
HETATM   20  C13 UNL     1      17.738  14.776  21.891  1.00  0.00     0.033 A 
HETATM   21  C14 UNL     1      17.975  16.090  22.178  1.00  0.00     0.026 A 
HETATM   22  C15 UNL     1      17.311  16.635  23.239  1.00  0.00     0.036 A 
HETATM   23 CL1  UNL     1      17.592  18.335  23.650  1.00  0.00    -0.084 Cl
HETATM   24  C16 UNL     1      16.435  15.873  23.982  1.00  0.00     0.055 A 
BRANCH  19  25
HETATM   25  N1  UNL     1      16.699  12.608  22.270  1.00  0.00    -0.348 N 
HETATM   26  C11 UNL     1      17.355  11.445  22.775  1.00  0.00     0.126 C 
HETATM   27  C10 UNL     1      17.230  10.373  21.710  1.00  0.00     0.029 C 
HETATM   28  C9  UNL     1      16.509  11.051  20.575  1.00  0.00     0.041 C 
HETATM   29  C31 UNL     1      15.766  12.158  21.249  1.00  0.00     0.276 C 
HETATM   30  F1  UNL     1      14.662  11.588  21.860  1.00  0.00    -0.226 F 
BRANCH  28  31
HETATM   31  C8  UNL     1      17.549  11.535  19.572  1.00  0.00     0.010 C 
BRANCH  31  32
HETATM   32  C7  UNL     1      17.065  12.763  18.853  1.00  0.00     0.010 C 
BRANCH  32  33
HETATM   33  C6  UNL     1      18.149  13.659  18.340  1.00  0.00     0.111 C 
BRANCH  33  34
HETATM   34  C5  UNL     1      17.730  15.039  18.079  1.00  0.00     0.259 C 
HETATM   35  O2  UNL     1      16.719  15.517  18.639  1.00  0.00    -0.265 OA
BRANCH  34  36
HETATM   36  O1  UNL     1      18.434  15.869  17.207  1.00  0.00    -0.311 OA
BRANCH  36  37
HETATM   37  C2  UNL     1      19.791  16.222  17.428  1.00  0.00     0.060 C 
HETATM   38  C1  UNL     1      20.728  15.186  16.847  1.00  0.00     0.045 C 
HETATM   39  C3  UNL     1      20.116  16.401  18.882  1.00  0.00     0.045 C 
HETATM   40  C4  UNL     1      20.038  17.508  16.682  1.00  0.00     0.045 C 
ENDBRANCH  36  37
ENDBRANCH  34  36
ENDBRANCH  33  34
ENDBRANCH  32  33
ENDBRANCH  31  32
ENDBRANCH  28  31
ENDBRANCH  19  25
ENDBRANCH  14  18
ENDBRANCH   1  12
BRANCH  10  41
HETATM   41  C27 UNL     1       5.535  12.563  24.282  1.00  0.00    -0.025 C 
HETATM   42  C28 UNL     1       5.698  13.530  23.133  1.00  0.00     0.017 C 
HETATM   43  C29 UNL     1       4.925  11.293  23.737  1.00  0.00     0.017 C 
HETATM   44  C30 UNL     1       4.474  13.197  25.197  1.00  0.00     0.017 C 
ENDBRANCH  10  41
TORSDOF 10
ENDMDL
MODEL 2
REMARK VINA RESULT: -6.425290312     12.174     16.250
REMARK  10 active torsions:
REMARK  status: ('A' for Active; 'I' for Inactive)
REMARK    1  A    between atoms: C2_2  and  O1_5 
REMARK    2  A    between atoms: O1_5  and  C5_6 
REMARK    3  A    between atoms: C5_6  and  C6_8 
REMARK    4  A    between atoms: C6_8  and  C7_9 
REMARK    5  A    between atoms: C7_9  and  C8_10 
REMARK    6  A    between atoms: C8_10  and  C9_11 
REMARK    7  A    between atoms: N1_14  and  C12_15 
REMARK    8  A    between atoms: C17_21  and  N2_22 
REMARK       I    between atoms: N2_22  and  C18_24 
REMARK       I    between atoms: C18_24  and  N3_26 
REMARK    9  A    between atoms: N3_26  and  C19_28 
REMARK   10  A    between atoms: C26_37  and  C27_38 
ROOT
HETATM    1  C19 UNL     1      -2.119   8.700  23.296  1.00  0.00     0.102 A 
HETATM    2  S1  UNL     1      -2.529  10.283  22.795  1.00  0.00    -0.045 SA
HETATM    3  C20 UNL     1      -1.674  11.174  23.966  1.00  0.00     0.120 A 
HETATM    4  C21 UNL     1      -1.085  10.206  24.725  1.00  0.00     0.006 A 
HETATM    5  C22 UNL     1      -1.316   8.917  24.378  1.00  0.00     0.088 A 
HETATM    6  C23 UNL     1      -0.737   7.781  25.121  1.00  0.00     0.103 C 
HETATM    7  N4  UNL     1      -0.291   6.872  25.702  1.00  0.00    -0.191 NA
HETATM    8  C24 UNL     1      -0.245  10.783  25.865  1.00  0.00     0.046 C 
HETATM    9  C25 UNL     1       0.601  11.887  25.295  1.00  0.00     0.038 C 
HETATM   10  C26 UNL     1      -0.183  13.000  24.697  1.00  0.00     0.137 C 
HETATM   11  O4  UNL     1      -1.455  12.524  24.299  1.00  0.00    -0.337 OA
ENDROOT
BRANCH   1  12
HETATM   12  N3  UNL     1      -2.518   7.440  22.725  1.00  0.00    -0.301 N 
HETATM   13  C18 UNL     1      -2.096   7.144  21.374  1.00  0.00     0.325 C 
HETATM   14  N2  UNL     1      -2.495   5.919  20.826  1.00  0.00    -0.306 N 
HETATM   15  O3  UNL     1      -1.410   8.036  20.841  1.00  0.00    -0.247 OA
ATOM     16  H2  UNL     1      -3.061   5.313  21.418  1.00  0.00     0.170 HD
ATOM     17  H3  UNL     1      -3.082   6.777  23.257  1.00  0.00     0.171 HD
BRANCH  14  18
HETATM   18  C17 UNL     1      -2.191   5.442  19.539  1.00  0.00     0.064 A 
HETATM   19  C12 UNL     1      -1.140   4.534  19.364  1.00  0.00     0.059 A 
HETATM   20  C13 UNL     1      -0.873   4.047  18.086  1.00  0.00     0.033 A 
HETATM   21  C14 UNL     1      -1.589   4.412  16.982  1.00  0.00     0.026 A 
HETATM   22  C15 UNL     1      -2.613   5.299  17.157  1.00  0.00     0.036 A 
HETATM   23 CL1  UNL     1      -3.566   5.803  15.752  1.00  0.00    -0.084 Cl
HETATM   24  C16 UNL     1      -2.900   5.796  18.410  1.00  0.00     0.055 A 
BRANCH  19  25
HETATM   25  N1  UNL     1      -0.317   4.121  20.454  1.00  0.00    -0.348 N 
HETATM   26  C11 UNL     1      -0.678   3.656  21.755  1.00  0.00     0.126 C 
HETATM   27  C10 UNL     1       0.519   3.889  22.654  1.00  0.00     0.029 C 
HETATM   28  C9  UNL     1       1.533   4.561  21.765  1.00  0.00     0.041 C 
HETATM   29  C31 UNL     1       1.136   4.120  20.394  1.00  0.00     0.276 C 
HETATM   30  F1  UNL     1       1.585   2.819  20.243  1.00  0.00    -0.226 F 
BRANCH  28  31
HETATM   31  C8  UNL     1       1.430   6.066  21.977  1.00  0.00     0.010 C 
BRANCH  31  32
HETATM   32  C7  UNL     1       2.180   6.483  23.212  1.00  0.00     0.010 C 
BRANCH  32  33
HETATM   33  C6  UNL     1       3.382   7.338  22.958  1.00  0.00     0.111 C 
BRANCH  33  34
HETATM   34  C5  UNL     1       3.207   8.754  23.291  1.00  0.00     0.259 C 
HETATM   35  O2  UNL     1       2.639   9.098  24.351  1.00  0.00    -0.265 OA
BRANCH  34  36
HETATM   36  O1  UNL     1       3.660   9.770  22.448  1.00  0.00    -0.311 OA
BRANCH  36  37
HETATM   37  C2  UNL     1       5.010  10.209  22.452  1.00  0.00     0.060 C 
HETATM   38  C1  UNL     1       5.813   9.520  21.370  1.00  0.00     0.045 C 
HETATM   39  C3  UNL     1       5.690   9.986  23.770  1.00  0.00     0.045 C 
HETATM   40  C4  UNL     1       4.995  11.680  22.121  1.00  0.00     0.045 C 
ENDBRANCH  36  37
ENDBRANCH  34  36
ENDBRANCH  33  34
ENDBRANCH  32  33
ENDBRANCH  31  32
ENDBRANCH  28  31
ENDBRANCH  19  25
ENDBRANCH  14  18
ENDBRANCH   1  12
BRANCH  10  41
HETATM   41  C27 UNL     1      -0.365  14.187  25.578  1.00  0.00    -0.025 C 
HETATM   42  C28 UNL     1      -1.673  14.185  26.333  1.00  0.00     0.017 C 
HETATM   43  C29 UNL     1       0.752  14.335  26.584  1.00  0.00     0.017 C 
HETATM   44  C30 UNL     1      -0.379  15.484  24.751  1.00  0.00     0.017 C 
ENDBRANCH  10  41
TORSDOF 10
ENDMDL
MODEL 3
REMARK VINA RESULT: -6.257665387      3.868     11.683
REMARK  10 active torsions:
REMARK  status: ('A' for Active; 'I' for Inactive)
REMARK    1  A    between atoms: C2_2  and  O1_5 
REMARK    2  A    between atoms: O1_5  and  C5_6 
REMARK    3  A    between atoms: C5_6  and  C6_8 
REMARK    4  A    between atoms: C6_8  and  C7_9 
REMARK    5  A    between atoms: C7_9  and  C8_10 
REMARK    6  A    between atoms: C8_10  and  C9_11 
REMARK    7  A    between atoms: N1_14  and  C12_15 
REMARK    8  A    between atoms: C17_21  and  N2_22 
REMARK       I    between atoms: N2_22  and  C18_24 
REMARK       I    between atoms: C18_24  and  N3_26 
REMARK    9  A    between atoms: N3_26  and  C19_28 
REMARK   10  A    between atoms: C26_37  and  C27_38 
ROOT
HETATM    1  C19 UNL     1      11.833  11.196  23.343  1.00  0.00     0.102 A 
HETATM    2  S1  UNL     1      12.057  12.453  22.205  1.00  0.00    -0.045 SA
HETATM    3  C20 UNL     1      13.747  12.366  22.027  1.00  0.00     0.120 A 
HETATM    4  C21 UNL     1      14.098  11.351  22.867  1.00  0.00     0.006 A 
HETATM    5  C22 UNL     1      13.102  10.740  23.554  1.00  0.00     0.088 A 
HETATM    6  C23 UNL     1      13.353   9.631  24.493  1.00  0.00     0.103 C 
HETATM    7  N4  UNL     1      13.537   8.756  25.245  1.00  0.00    -0.191 NA
HETATM    8  C24 UNL     1      15.603  11.086  22.872  1.00  0.00     0.046 C 
HETATM    9  C25 UNL     1      16.066  11.050  21.442  1.00  0.00     0.038 C 
HETATM   10  C26 UNL     1      15.828  12.317  20.701  1.00  0.00     0.137 C 
HETATM   11  O4  UNL     1      14.757  13.023  21.298  1.00  0.00    -0.337 OA
ENDROOT
BRANCH   1  12
HETATM   12  N3  UNL     1      10.610  10.726  23.941  1.00  0.00    -0.301 N 
HETATM   13  C18 UNL     1      10.023  11.521  24.997  1.00  0.00     0.325 C 
HETATM   14  N2  UNL     1       8.838  11.053  25.577  1.00  0.00    -0.306 N 
HETATM   15  O3  UNL     1      10.655  12.558  25.274  1.00  0.00    -0.247 OA
ATOM     16  H2  UNL     1       8.465  10.175  25.215  1.00  0.00     0.170 HD
ATOM     17  H3  UNL     1      10.172   9.859  23.631  1.00  0.00     0.171 HD
BRANCH  14  18
HETATM   18  C17 UNL     1       8.111  11.673  26.607  1.00  0.00     0.064 A 
HETATM   19  C12 UNL     1       6.939  12.377  26.306  1.00  0.00     0.059 A 
HETATM   20  C13 UNL     1       6.214  12.958  27.343  1.00  0.00     0.033 A 
HETATM   21  C14 UNL     1       6.589  12.879  28.654  1.00  0.00     0.026 A 
HETATM   22  C15 UNL     1       7.734  12.192  28.944  1.00  0.00     0.036 A 
HETATM   23 CL1  UNL     1       8.260  12.068  30.631  1.00  0.00    -0.084 Cl
HETATM   24  C16 UNL     1       8.470  11.606  27.938  1.00  0.00     0.055 A 
BRANCH  19  25
HETATM   25  N1  UNL     1       6.487  12.539  24.962  1.00  0.00    -0.348 N 
HETATM   26  C11 UNL     1       6.774  13.566  24.012  1.00  0.00     0.126 C 
HETATM   27  C10 UNL     1       5.646  13.557  23.000  1.00  0.00     0.029 C 
HETATM   28  C9  UNL     1       4.702  12.493  23.496  1.00  0.00     0.041 C 
HETATM   29  C31 UNL     1       5.582  11.604  24.312  1.00  0.00     0.276 C 
HETATM   30  F1  UNL     1       6.299  10.821  23.423  1.00  0.00    -0.226 F 
BRANCH  28  31
HETATM   31  C8  UNL     1       3.602  13.171  24.302  1.00  0.00     0.010 C 
BRANCH  31  32
HETATM   32  C7  UNL     1       3.039  14.347  23.554  1.00  0.00     0.010 C 
BRANCH  32  33
HETATM   33  C6  UNL     1       2.059  15.174  24.327  1.00  0.00     0.111 C 
BRANCH  33  34
HETATM   34  C5  UNL     1       2.356  16.608  24.354  1.00  0.00     0.259 C 
HETATM   35  O2  UNL     1       2.289  17.296  23.311  1.00  0.00    -0.265 OA
BRANCH  34  36
HETATM   36  O1  UNL     1       2.721  17.262  25.531  1.00  0.00    -0.311 OA
BRANCH  36  37
HETATM   37  C2  UNL     1       3.883  16.907  26.264  1.00  0.00     0.060 C 
HETATM   38  C1  UNL     1       5.069  16.705  25.347  1.00  0.00     0.045 C 
HETATM   39  C3  UNL     1       3.695  15.665  27.086  1.00  0.00     0.045 C 
HETATM   40  C4  UNL     1       4.212  18.073  27.160  1.00  0.00     0.045 C 
ENDBRANCH  36  37
ENDBRANCH  34  36
ENDBRANCH  33  34
ENDBRANCH  32  33
ENDBRANCH  31  32
ENDBRANCH  28  31
ENDBRANCH  19  25
ENDBRANCH  14  18
ENDBRANCH   1  12
BRANCH  10  41
HETATM   41  C27 UNL     1      17.007  13.221  20.602  1.00  0.00    -0.025 C 
HETATM   42  C28 UNL     1      17.010  14.077  19.357  1.00  0.00     0.017 C 
HETATM   43  C29 UNL     1      17.133  14.138  21.796  1.00  0.00     0.017 C 
HETATM   44  C30 UNL     1      18.313  12.411  20.538  1.00  0.00     0.017 C 
ENDBRANCH  10  41
TORSDOF 10
ENDMDL
MODEL 4
REMARK VINA RESULT: -6.136340538      6.105     10.472
REMARK  10 active torsions:
REMARK  status: ('A' for Active; 'I' for Inactive)
REMARK    1  A    between atoms: C2_2  and  O1_5 
REMARK    2  A    between atoms: O1_5  and  C5_6 
REMARK    3  A    between atoms: C5_6  and  C6_8 
REMARK    4  A    between atoms: C6_8  and  C7_9 
REMARK    5  A    between atoms: C7_9  and  C8_10 
REMARK    6  A    between atoms: C8_10  and  C9_11 
REMARK    7  A    between atoms: N1_14  and  C12_15 
REMARK    8  A    between atoms: C17_21  and  N2_22 
REMARK       I    between atoms: N2_22  and  C18_24 
REMARK       I    between atoms: C18_24  and  N3_26 
REMARK    9  A    between atoms: N3_26  and  C19_28 
REMARK   10  A    between atoms: C26_37  and  C27_38 
ROOT
HETATM    1  C19 UNL     1       3.394   8.855  23.513  1.00  0.00     0.102 A 
HETATM    2  S1  UNL     1       4.499   7.582  23.229  1.00  0.00    -0.045 SA
HETATM    3  C20 UNL     1       3.413   6.272  23.207  1.00  0.00     0.120 A 
HETATM    4  C21 UNL     1       2.205   6.866  23.424  1.00  0.00     0.006 A 
HETATM    5  C22 UNL     1       2.192   8.211  23.585  1.00  0.00     0.088 A 
HETATM    6  C23 UNL     1       0.949   8.968  23.827  1.00  0.00     0.103 C 
HETATM    7  N4  UNL     1      -0.025   9.580  24.025  1.00  0.00    -0.191 NA
HETATM    8  C24 UNL     1       1.052   5.861  23.446  1.00  0.00     0.046 C 
HETATM    9  C25 UNL     1       1.221   4.948  22.264  1.00  0.00     0.038 C 
HETATM   10  C26 UNL     1       2.495   4.181  22.273  1.00  0.00     0.137 C 
HETATM   11  O4  UNL     1       3.462   4.876  23.037  1.00  0.00    -0.337 OA
ENDROOT
BRANCH   1  12
HETATM   12  N3  UNL     1       3.654  10.265  23.649  1.00  0.00    -0.301 N 
HETATM   13  C18 UNL     1       4.122  10.748  24.929  1.00  0.00     0.325 C 
HETATM   14  N2  UNL     1       4.366  12.121  25.053  1.00  0.00    -0.306 N 
HETATM   15  O3  UNL     1       4.257   9.864  25.796  1.00  0.00    -0.247 OA
ATOM     16  H2  UNL     1       4.195  12.694  24.227  1.00  0.00     0.170 HD
ATOM     17  H3  UNL     1       3.512  10.904  22.866  1.00  0.00     0.171 HD
BRANCH  14  18
HETATM   18  C17 UNL     1       4.823  12.788  26.203  1.00  0.00     0.064 A 
HETATM   19  C12 UNL     1       6.193  12.826  26.486  1.00  0.00     0.059 A 
HETATM   20  C13 UNL     1       6.632  13.517  27.613  1.00  0.00     0.033 A 
HETATM   21  C14 UNL     1       5.787  14.168  28.467  1.00  0.00     0.026 A 
HETATM   22  C15 UNL     1       4.451  14.127  28.187  1.00  0.00     0.036 A 
HETATM   23 CL1  UNL     1       3.319  14.953  29.270  1.00  0.00    -0.084 Cl
HETATM   24  C16 UNL     1       3.989  13.451  27.079  1.00  0.00     0.055 A 
BRANCH  19  25
HETATM   25  N1  UNL     1       7.147  12.148  25.668  1.00  0.00    -0.348 N 
HETATM   26  C11 UNL     1       7.933  10.987  25.940  1.00  0.00     0.126 C 
HETATM   27  C10 UNL     1       9.125  11.035  25.006  1.00  0.00     0.029 C 
HETATM   28  C9  UNL     1       8.960  12.326  24.249  1.00  0.00     0.041 C 
HETATM   29  C31 UNL     1       7.491  12.587  24.325  1.00  0.00     0.276 C 
HETATM   30  F1  UNL     1       6.886  11.749  23.403  1.00  0.00    -0.226 F 
BRANCH  28  31
HETATM   31  C8  UNL     1       9.806  13.392  24.934  1.00  0.00     0.010 C 
BRANCH  31  32
HETATM   32  C7  UNL     1      10.549  14.217  23.920  1.00  0.00     0.010 C 
BRANCH  32  33
HETATM   33  C6  UNL     1      12.005  13.892  23.791  1.00  0.00     0.111 C 
BRANCH  33  34
HETATM   34  C5  UNL     1      12.316  12.866  22.792  1.00  0.00     0.259 C 
HETATM   35  O2  UNL     1      12.866  13.171  21.711  1.00  0.00    -0.265 OA
BRANCH  34  36
HETATM   36  O1  UNL     1      12.017  11.519  23.002  1.00  0.00    -0.311 OA
BRANCH  36  37
HETATM   37  C2  UNL     1      12.847  10.673  23.783  1.00  0.00     0.060 C 
HETATM   38  C1  UNL     1      12.845  11.094  25.237  1.00  0.00     0.045 C 
HETATM   39  C3  UNL     1      14.265  10.638  23.295  1.00  0.00     0.045 C 
HETATM   40  C4  UNL     1      12.246   9.292  23.725  1.00  0.00     0.045 C 
ENDBRANCH  36  37
ENDBRANCH  34  36
ENDBRANCH  33  34
ENDBRANCH  32  33
ENDBRANCH  31  32
ENDBRANCH  28  31
ENDBRANCH  19  25
ENDBRANCH  14  18
ENDBRANCH   1  12
BRANCH  10  41
HETATM   41  C27 UNL     1       2.388   2.785  22.783  1.00  0.00    -0.025 C 
HETATM   42  C28 UNL     1       3.711   2.193  23.205  1.00  0.00     0.017 C 
HETATM   43  C29 UNL     1       1.433   2.669  23.948  1.00  0.00     0.017 C 
HETATM   44  C30 UNL     1       1.855   1.844  21.689  1.00  0.00     0.017 C 
ENDBRANCH  10  41
TORSDOF 10
ENDMDL
MODEL 5
REMARK VINA RESULT: -6.128948313      1.143      1.742
REMARK  10 active torsions:
REMARK  status: ('A' for Active; 'I' for Inactive)
REMARK    1  A    between atoms: C2_2  and  O1_5 
REMARK    2  A    between atoms: O1_5  and  C5_6 
REMARK    3  A    between atoms: C5_6  and  C6_8 
REMARK    4  A    between atoms: C6_8  and  C7_9 
REMARK    5  A    between atoms: C7_9  and  C8_10 
REMARK    6  A    between atoms: C8_10  and  C9_11 
REMARK    7  A    between atoms: N1_14  and  C12_15 
REMARK    8  A    between atoms: C17_21  and  N2_22 
REMARK       I    between atoms: N2_22  and  C18_24 
REMARK       I    between atoms: C18_24  and  N3_26 
REMARK    9  A    between atoms: N3_26  and  C19_28 
REMARK   10  A    between atoms: C26_37  and  C27_38 
ROOT
HETATM    1  C19 UNL     1      11.656  11.868  24.883  1.00  0.00     0.102 A 
HETATM    2  S1  UNL     1      10.841  11.022  23.640  1.00  0.00    -0.045 SA
HETATM    3  C20 UNL     1       9.233  11.322  24.110  1.00  0.00     0.120 A 
HETATM    4  C21 UNL     1       9.373  12.081  25.234  1.00  0.00     0.006 A 
HETATM    5  C22 UNL     1      10.634  12.366  25.639  1.00  0.00     0.088 A 
HETATM    6  C23 UNL     1      10.916  13.176  26.839  1.00  0.00     0.103 C 
HETATM    7  N4  UNL     1      11.156  13.810  27.791  1.00  0.00    -0.191 NA
HETATM    8  C24 UNL     1       8.029  12.479  25.846  1.00  0.00     0.046 C 
HETATM    9  C25 UNL     1       7.149  12.972  24.731  1.00  0.00     0.038 C 
HETATM   10  C26 UNL     1       6.888  11.956  23.677  1.00  0.00     0.137 C 
HETATM   11  O4  UNL     1       7.936  11.006  23.662  1.00  0.00    -0.337 OA
ENDROOT
BRANCH   1  12
HETATM   12  N3  UNL     1      13.072  12.023  25.092  1.00  0.00    -0.301 N 
HETATM   13  C18 UNL     1      13.768  13.019  24.308  1.00  0.00     0.325 C 
HETATM   14  N2  UNL     1      15.146  13.158  24.514  1.00  0.00    -0.306 N 
HETATM   15  O3  UNL     1      13.042  13.655  23.520  1.00  0.00    -0.247 OA
ATOM     16  H2  UNL     1      15.571  12.543  25.207  1.00  0.00     0.170 HD
ATOM     17  H3  UNL     1      13.569  11.448  25.772  1.00  0.00     0.171 HD
BRANCH  14  18
HETATM   18  C17 UNL     1      16.001  14.062  23.861  1.00  0.00     0.064 A 
HETATM   19  C12 UNL     1      16.747  13.639  22.755  1.00  0.00     0.059 A 
HETATM   20  C13 UNL     1      17.565  14.557  22.100  1.00  0.00     0.033 A 
HETATM   21  C14 UNL     1      17.681  15.862  22.484  1.00  0.00     0.026 A 
HETATM   22  C15 UNL     1      16.953  16.271  23.564  1.00  0.00     0.036 A 
HETATM   23 CL1  UNL     1      17.076  17.955  24.099  1.00  0.00    -0.084 Cl
HETATM   24  C16 UNL     1      16.134  15.385  24.230  1.00  0.00     0.055 A 
BRANCH  19  25
HETATM   25  N1  UNL     1      16.714  12.286  22.302  1.00  0.00    -0.348 N 
HETATM   26  C11 UNL     1      17.462  11.151  22.738  1.00  0.00     0.126 C 
HETATM   27  C10 UNL     1      17.449  10.151  21.598  1.00  0.00     0.029 C 
HETATM   28  C9  UNL     1      16.690  10.844  20.498  1.00  0.00     0.041 C 
HETATM   29  C31 UNL     1      15.841  11.831  21.231  1.00  0.00     0.276 C 
HETATM   30  F1  UNL     1      14.782  11.124  21.776  1.00  0.00    -0.226 F 
BRANCH  28  31
HETATM   31  C8  UNL     1      17.698  11.487  19.554  1.00  0.00     0.010 C 
BRANCH  31  32
HETATM   32  C7  UNL     1      17.148  12.759  18.972  1.00  0.00     0.010 C 
BRANCH  32  33
HETATM   33  C6  UNL     1      18.159  13.628  18.292  1.00  0.00     0.111 C 
BRANCH  33  34
HETATM   34  C5  UNL     1      17.740  15.019  18.098  1.00  0.00     0.259 C 
HETATM   35  O2  UNL     1      16.746  15.478  18.704  1.00  0.00    -0.265 OA
BRANCH  34  36
HETATM   36  O1  UNL     1      18.423  15.881  17.240  1.00  0.00    -0.311 OA
BRANCH  36  37
HETATM   37  C2  UNL     1      19.777  16.245  17.454  1.00  0.00     0.060 C 
HETATM   38  C1  UNL     1      20.720  15.226  16.851  1.00  0.00     0.045 C 
HETATM   39  C3  UNL     1      20.113  16.409  18.907  1.00  0.00     0.045 C 
HETATM   40  C4  UNL     1      20.005  17.543  16.722  1.00  0.00     0.045 C 
ENDBRANCH  36  37
ENDBRANCH  34  36
ENDBRANCH  33  34
ENDBRANCH  32  33
ENDBRANCH  31  32
ENDBRANCH  28  31
ENDBRANCH  19  25
ENDBRANCH  14  18
ENDBRANCH   1  12
BRANCH  10  41
HETATM   41  C27 UNL     1       5.588  11.239  23.800  1.00  0.00    -0.025 C 
HETATM   42  C28 UNL     1       5.709   9.871  24.427  1.00  0.00     0.017 C 
HETATM   43  C29 UNL     1       4.569  12.025  24.592  1.00  0.00     0.017 C 
HETATM   44  C30 UNL     1       4.966  10.994  22.415  1.00  0.00     0.017 C 
ENDBRANCH  10  41
TORSDOF 10
ENDMDL
