MODEL 1
REMARK VINA RESULT: -6.649070567      0.000      0.000
REMARK  9 active torsions:
REMARK  status: ('A' for Active; 'I' for Inactive)
REMARK    1  A    between atoms: C2_2  and  C4_4 
REMARK    2  A    between atoms: C2_2  and  C12_17 
REMARK    3  A    between atoms: C4_4  and  N1_5 
REMARK    4  A    between atoms: N1_5  and  C5_7 
REMARK    5  A    between atoms: C8_10  and  O1_11 
REMARK    6  A    between atoms: O1_11  and  C9_12 
REMARK    7  A    between atoms: C18_23  and  C20_25 
REMARK    8  A    between atoms: C20_25  and  C21_26 
REMARK    9  A    between atoms: C25_33  and  O5_34 
ROOT
HETATM    1  C12 UNL     1       1.551  12.436   1.460  1.00  0.00    -0.065 C 
HETATM    2  C13 UNL     1       1.140  12.354   2.732  1.00  0.00    -0.022 C 
HETATM    3  C14 UNL     1      -0.255  11.869   2.848  1.00  0.00     0.040 C 
HETATM    4  C15 UNL     1      -0.457  11.206   1.539  1.00  0.00     0.058 C 
HETATM    5  C16 UNL     1      -1.793  11.013   1.061  1.00  0.00     0.050 C 
HETATM    6  C17 UNL     1      -2.387  10.478   2.060  1.00  0.00     0.023 C 
HETATM    7  C18 UNL     1      -3.818  10.015   2.245  1.00  0.00     0.046 C 
HETATM    8  C19 UNL     1      -3.747   8.508   2.275  1.00  0.00     0.028 C 
HETATM    9  C22 UNL     1      -4.583  10.539   1.063  1.00  0.00     0.144 C 
HETATM   10  O4  UNL     1      -5.263   9.565   0.669  1.00  0.00    -0.296 OA
HETATM   11  C23 UNL     1      -4.887  11.644   0.175  1.00  0.00     0.069 C 
HETATM   12  C24 UNL     1      -6.320  12.079   0.374  1.00  0.00     0.044 C 
HETATM   13  C25 UNL     1      -6.554  13.013   1.493  1.00  0.00     0.119 C 
HETATM   14  C26 UNL     1      -5.529  14.034   1.784  1.00  0.00     0.032 C 
HETATM   15  C27 UNL     1      -4.136  13.703   1.381  1.00  0.00     0.015 C 
HETATM   16  C28 UNL     1      -4.058  12.870   0.145  1.00  0.00    -0.007 C 
HETATM   17  C29 UNL     1      -4.762  13.762  -0.926  1.00  0.00     0.018 C 
HETATM   18  C30 UNL     1      -2.671  12.730  -0.412  1.00  0.00     0.137 C 
HETATM   19  C31 UNL     1      -1.635  13.613   0.268  1.00  0.00     0.034 C 
HETATM   20  C32 UNL     1      -0.252  13.191  -0.025  1.00  0.00     0.017 C 
HETATM   21  C33 UNL     1       0.391  12.060   0.619  1.00  0.00    -0.010 C 
HETATM   22  C34 UNL     1       0.847  11.073  -0.487  1.00  0.00     0.021 C 
HETATM   23  O6  UNL     1      -2.281  11.358  -0.223  1.00  0.00    -0.349 OA
ENDROOT
BRANCH   1  24
HETATM   24  C2  UNL     1       2.924  12.893   1.071  1.00  0.00    -0.008 C 
HETATM   25  C1  UNL     1       3.970  11.808   1.080  1.00  0.00     0.021 C 
HETATM   26  C3  UNL     1       2.915  13.682  -0.189  1.00  0.00     0.021 C 
BRANCH  24  27
HETATM   27  C4  UNL     1       3.409  13.880   2.162  1.00  0.00     0.133 C 
BRANCH  27  28
HETATM   28  N1  UNL     1       2.883  15.199   1.858  1.00  0.00    -0.389 N 
ATOM     29  H1  UNL     1       3.132  15.645   0.975  1.00  0.00     0.159 HD
BRANCH  28  30
HETATM   30  C5  UNL     1       2.032  15.879   2.763  1.00  0.00     0.028 A 
HETATM   31  C6  UNL     1       2.508  16.446   3.907  1.00  0.00     0.032 A 
HETATM   32  C7  UNL     1       1.667  17.101   4.770  1.00  0.00     0.039 A 
HETATM   33  C8  UNL     1       0.292  17.216   4.516  1.00  0.00     0.075 A 
HETATM   34  C10 UNL     1      -0.184  16.647   3.367  1.00  0.00     0.039 A 
HETATM   35  C11 UNL     1       0.692  15.992   2.516  1.00  0.00     0.032 A 
BRANCH  33  36
HETATM   36  O1  UNL     1      -0.532  17.869   5.380  1.00  0.00    -0.290 OA
BRANCH  36  37
HETATM   37  C9  UNL     1      -1.875  18.117   5.186  1.00  0.00     0.505 C 
HETATM   38  F1  UNL     1      -2.625  16.948   5.415  1.00  0.00    -0.184 F 
HETATM   39  F2  UNL     1      -2.314  19.002   6.186  1.00  0.00    -0.184 F 
ENDBRANCH  36  37
ENDBRANCH  33  36
ENDBRANCH  28  30
ENDBRANCH  27  28
ENDBRANCH  24  27
ENDBRANCH   1  24
BRANCH   7  40
HETATM   40  C20 UNL     1      -4.329  10.464   3.576  1.00  0.00     0.134 C 
BRANCH  40  41
HETATM   41  C21 UNL     1      -5.599   9.882   3.957  1.00  0.00     0.173 C 
HETATM   42  O2  UNL     1      -6.712  10.276   3.594  1.00  0.00    -0.648 OA
HETATM   43  O3  UNL     1      -5.612   8.759   4.819  1.00  0.00    -0.648 OA
ENDBRANCH  40  41
ENDBRANCH   7  40
BRANCH  13  44
HETATM   44  O5  UNL     1      -7.748  13.722   1.157  1.00  0.00    -0.396 OA
ATOM     45  H5  UNL     1      -8.385  13.475   1.817  1.00  0.00     0.210 HD
ENDBRANCH  13  44
TORSDOF 9
ENDMDL
MODEL 2
REMARK VINA RESULT: -6.061579635      4.615      6.434
REMARK  9 active torsions:
REMARK  status: ('A' for Active; 'I' for Inactive)
REMARK    1  A    between atoms: C2_2  and  C4_4 
REMARK    2  A    between atoms: C2_2  and  C12_17 
REMARK    3  A    between atoms: C4_4  and  N1_5 
REMARK    4  A    between atoms: N1_5  and  C5_7 
REMARK    5  A    between atoms: C8_10  and  O1_11 
REMARK    6  A    between atoms: O1_11  and  C9_12 
REMARK    7  A    between atoms: C18_23  and  C20_25 
REMARK    8  A    between atoms: C20_25  and  C21_26 
REMARK    9  A    between atoms: C25_33  and  O5_34 
ROOT
HETATM    1  C12 UNL     1       1.684  12.135   1.457  1.00  0.00    -0.065 C 
HETATM    2  C13 UNL     1       1.262  12.087   2.727  1.00  0.00    -0.022 C 
HETATM    3  C14 UNL     1      -0.155  11.668   2.839  1.00  0.00     0.040 C 
HETATM    4  C15 UNL     1      -0.379  11.001   1.535  1.00  0.00     0.058 C 
HETATM    5  C16 UNL     1      -1.719  10.866   1.050  1.00  0.00     0.050 C 
HETATM    6  C17 UNL     1      -2.344  10.369   2.051  1.00  0.00     0.023 C 
HETATM    7  C18 UNL     1      -3.797   9.975   2.231  1.00  0.00     0.046 C 
HETATM    8  C19 UNL     1      -3.796   8.467   2.278  1.00  0.00     0.028 C 
HETATM    9  C22 UNL     1      -4.529  10.521   1.038  1.00  0.00     0.144 C 
HETATM   10  O4  UNL     1      -5.251   9.576   0.650  1.00  0.00    -0.296 OA
HETATM   11  C23 UNL     1      -4.775  11.630   0.136  1.00  0.00     0.069 C 
HETATM   12  C24 UNL     1      -6.188  12.133   0.321  1.00  0.00     0.044 C 
HETATM   13  C25 UNL     1      -6.385  13.089   1.428  1.00  0.00     0.119 C 
HETATM   14  C26 UNL     1      -5.316  14.064   1.716  1.00  0.00     0.032 C 
HETATM   15  C27 UNL     1      -3.937  13.665   1.326  1.00  0.00     0.015 C 
HETATM   16  C28 UNL     1      -3.890  12.816   0.099  1.00  0.00    -0.007 C 
HETATM   17  C29 UNL     1      -4.545  13.728  -0.987  1.00  0.00     0.018 C 
HETATM   18  C30 UNL     1      -2.508  12.605  -0.447  1.00  0.00     0.137 C 
HETATM   19  C31 UNL     1      -1.436  13.447   0.230  1.00  0.00     0.034 C 
HETATM   20  C32 UNL     1      -0.072  12.957  -0.048  1.00  0.00     0.017 C 
HETATM   21  C33 UNL     1       0.514  11.805   0.612  1.00  0.00    -0.010 C 
HETATM   22  C34 UNL     1       0.930  10.785  -0.481  1.00  0.00     0.021 C 
HETATM   23  O6  UNL     1      -2.183  11.219  -0.240  1.00  0.00    -0.349 OA
ENDROOT
BRANCH   1  24
HETATM   24  C2  UNL     1       3.079  12.524   1.073  1.00  0.00    -0.008 C 
HETATM   25  C1  UNL     1       3.172  13.376  -0.167  1.00  0.00     0.021 C 
HETATM   26  C3  UNL     1       3.840  13.084   2.221  1.00  0.00     0.021 C 
BRANCH  24  27
HETATM   27  C4  UNL     1       3.830  11.227   0.684  1.00  0.00     0.133 C 
BRANCH  27  28
HETATM   28  N1  UNL     1       4.088  10.462   1.893  1.00  0.00    -0.389 N 
ATOM     29  H1  UNL     1       3.572  10.686   2.745  1.00  0.00     0.159 HD
BRANCH  28  30
HETATM   30  C5  UNL     1       5.039   9.414   1.912  1.00  0.00     0.028 A 
HETATM   31  C6  UNL     1       5.124   8.503   0.902  1.00  0.00     0.032 A 
HETATM   32  C7  UNL     1       6.053   7.496   0.939  1.00  0.00     0.039 A 
HETATM   33  C8  UNL     1       6.951   7.359   2.008  1.00  0.00     0.075 A 
HETATM   34  C10 UNL     1       6.865   8.273   3.021  1.00  0.00     0.039 A 
HETATM   35  C11 UNL     1       5.915   9.280   2.954  1.00  0.00     0.032 A 
BRANCH  33  36
HETATM   36  O1  UNL     1       7.870   6.354   2.034  1.00  0.00    -0.290 OA
BRANCH  36  37
HETATM   37  C9  UNL     1       8.488   5.796   0.935  1.00  0.00     0.505 C 
HETATM   38  F1  UNL     1       9.745   5.274   1.296  1.00  0.00    -0.184 F 
HETATM   39  F2  UNL     1       7.754   4.666   0.536  1.00  0.00    -0.184 F 
ENDBRANCH  36  37
ENDBRANCH  33  36
ENDBRANCH  28  30
ENDBRANCH  27  28
ENDBRANCH  24  27
ENDBRANCH   1  24
BRANCH   7  40
HETATM   40  C20 UNL     1      -4.294  10.462   3.554  1.00  0.00     0.134 C 
BRANCH  40  41
HETATM   41  C21 UNL     1      -5.583   9.927   3.942  1.00  0.00     0.173 C 
HETATM   42  O2  UNL     1      -6.681  10.329   3.545  1.00  0.00    -0.648 OA
HETATM   43  O3  UNL     1      -5.633   8.845   4.853  1.00  0.00    -0.648 OA
ENDBRANCH  40  41
ENDBRANCH   7  40
BRANCH  13  44
HETATM   44  O5  UNL     1      -7.542  13.849   1.077  1.00  0.00    -0.396 OA
ATOM     45  H5  UNL     1      -8.278  13.255   1.177  1.00  0.00     0.210 HD
ENDBRANCH  13  44
TORSDOF 9
ENDMDL
MODEL 3
REMARK VINA RESULT: -5.789909884      4.901      9.233
REMARK  9 active torsions:
REMARK  status: ('A' for Active; 'I' for Inactive)
REMARK    1  A    between atoms: C2_2  and  C4_4 
REMARK    2  A    between atoms: C2_2  and  C12_17 
REMARK    3  A    between atoms: C4_4  and  N1_5 
REMARK    4  A    between atoms: N1_5  and  C5_7 
REMARK    5  A    between atoms: C8_10  and  O1_11 
REMARK    6  A    between atoms: O1_11  and  C9_12 
REMARK    7  A    between atoms: C18_23  and  C20_25 
REMARK    8  A    between atoms: C20_25  and  C21_26 
REMARK    9  A    between atoms: C25_33  and  O5_34 
ROOT
HETATM    1  C12 UNL     1       0.177  12.309   0.550  1.00  0.00    -0.065 C 
HETATM    2  C13 UNL     1       1.056  11.362   0.903  1.00  0.00    -0.022 C 
HETATM    3  C14 UNL     1       2.179  11.243  -0.056  1.00  0.00     0.040 C 
HETATM    4  C15 UNL     1       2.128  12.551  -0.748  1.00  0.00     0.058 C 
HETATM    5  C16 UNL     1       2.729  12.672  -2.042  1.00  0.00     0.050 C 
HETATM    6  C17 UNL     1       3.894  12.171  -1.871  1.00  0.00     0.023 C 
HETATM    7  C18 UNL     1       5.053  11.979  -2.830  1.00  0.00     0.046 C 
HETATM    8  C19 UNL     1       6.100  12.974  -2.390  1.00  0.00     0.028 C 
HETATM    9  C22 UNL     1       4.514  12.268  -4.202  1.00  0.00     0.144 C 
HETATM   10  O4  UNL     1       5.368  13.015  -4.727  1.00  0.00    -0.296 OA
HETATM   11  C23 UNL     1       3.463  12.084  -5.184  1.00  0.00     0.069 C 
HETATM   12  C24 UNL     1       3.993  11.288  -6.354  1.00  0.00     0.044 C 
HETATM   13  C25 UNL     1       3.986   9.822  -6.183  1.00  0.00     0.119 C 
HETATM   14  C26 UNL     1       2.869   9.204  -5.441  1.00  0.00     0.032 C 
HETATM   15  C27 UNL     1       2.190  10.064  -4.437  1.00  0.00     0.015 C 
HETATM   16  C28 UNL     1       2.149  11.507  -4.821  1.00  0.00    -0.007 C 
HETATM   17  C29 UNL     1       1.370  11.489  -6.174  1.00  0.00     0.018 C 
HETATM   18  C30 UNL     1       1.264  12.347  -3.948  1.00  0.00     0.137 C 
HETATM   19  C31 UNL     1       0.425  11.550  -2.961  1.00  0.00     0.034 C 
HETATM   20  C32 UNL     1      -0.132  12.391  -1.884  1.00  0.00     0.017 C 
HETATM   21  C33 UNL     1       0.644  12.852  -0.746  1.00  0.00    -0.010 C 
HETATM   22  C34 UNL     1       0.579  14.402  -0.717  1.00  0.00     0.021 C 
HETATM   23  O6  UNL     1       2.125  13.222  -3.198  1.00  0.00    -0.349 OA
ENDROOT
BRANCH   1  24
HETATM   24  C2  UNL     1      -1.044  12.632   1.355  1.00  0.00    -0.008 C 
HETATM   25  C1  UNL     1      -0.955  13.917   2.137  1.00  0.00     0.021 C 
HETATM   26  C3  UNL     1      -2.289  12.528   0.548  1.00  0.00     0.021 C 
BRANCH  24  27
HETATM   27  C4  UNL     1      -1.179  11.545   2.449  1.00  0.00     0.133 C 
BRANCH  27  28
HETATM   28  N1  UNL     1      -2.163  10.570   2.012  1.00  0.00    -0.389 N 
ATOM     29  H1  UNL     1      -2.143  10.236   1.048  1.00  0.00     0.159 HD
BRANCH  28  30
HETATM   30  C5  UNL     1      -3.150  10.074   2.898  1.00  0.00     0.028 A 
HETATM   31  C6  UNL     1      -3.423   8.742   2.995  1.00  0.00     0.032 A 
HETATM   32  C7  UNL     1      -4.382   8.282   3.860  1.00  0.00     0.039 A 
HETATM   33  C8  UNL     1      -5.120   9.152   4.676  1.00  0.00     0.075 A 
HETATM   34  C10 UNL     1      -4.845  10.488   4.578  1.00  0.00     0.039 A 
HETATM   35  C11 UNL     1      -3.869  10.922   3.694  1.00  0.00     0.032 A 
BRANCH  33  36
HETATM   36  O1  UNL     1      -6.070   8.683   5.531  1.00  0.00    -0.290 OA
BRANCH  36  37
HETATM   37  C9  UNL     1      -6.912   9.452   6.305  1.00  0.00     0.505 C 
HETATM   38  F1  UNL     1      -8.047   8.708   6.679  1.00  0.00    -0.184 F 
HETATM   39  F2  UNL     1      -6.271   9.728   7.525  1.00  0.00    -0.184 F 
ENDBRANCH  36  37
ENDBRANCH  33  36
ENDBRANCH  28  30
ENDBRANCH  27  28
ENDBRANCH  24  27
ENDBRANCH   1  24
BRANCH   7  40
HETATM   40  C20 UNL     1       5.635  10.614  -2.655  1.00  0.00     0.134 C 
BRANCH  40  41
HETATM   41  C21 UNL     1       6.975  10.463  -3.184  1.00  0.00     0.173 C 
HETATM   42  O2  UNL     1       8.020  10.495  -2.526  1.00  0.00    -0.648 OA
HETATM   43  O3  UNL     1       7.148  10.257  -4.574  1.00  0.00    -0.648 OA
ENDBRANCH  40  41
ENDBRANCH   7  40
BRANCH  13  44
HETATM   44  O5  UNL     1       3.942   9.282  -7.505  1.00  0.00    -0.396 OA
ATOM     45  H5  UNL     1       3.493   8.448  -7.425  1.00  0.00     0.210 HD
ENDBRANCH  13  44
TORSDOF 9
ENDMDL
MODEL 4
REMARK VINA RESULT: -5.771501544      5.299      8.893
REMARK  9 active torsions:
REMARK  status: ('A' for Active; 'I' for Inactive)
REMARK    1  A    between atoms: C2_2  and  C4_4 
REMARK    2  A    between atoms: C2_2  and  C12_17 
REMARK    3  A    between atoms: C4_4  and  N1_5 
REMARK    4  A    between atoms: N1_5  and  C5_7 
REMARK    5  A    between atoms: C8_10  and  O1_11 
REMARK    6  A    between atoms: O1_11  and  C9_12 
REMARK    7  A    between atoms: C18_23  and  C20_25 
REMARK    8  A    between atoms: C20_25  and  C21_26 
REMARK    9  A    between atoms: C25_33  and  O5_34 
ROOT
HETATM    1  C12 UNL     1      -1.303  12.552   0.353  1.00  0.00    -0.065 C 
HETATM    2  C13 UNL     1      -0.515  13.634   0.367  1.00  0.00    -0.022 C 
HETATM    3  C14 UNL     1      -0.054  14.018  -0.988  1.00  0.00     0.040 C 
HETATM    4  C15 UNL     1      -1.049  13.341  -1.851  1.00  0.00     0.058 C 
HETATM    5  C16 UNL     1      -0.710  13.071  -3.216  1.00  0.00     0.050 C 
HETATM    6  C17 UNL     1      -0.273  14.198  -3.637  1.00  0.00     0.023 C 
HETATM    7  C18 UNL     1       0.257  14.624  -4.992  1.00  0.00     0.046 C 
HETATM    8  C19 UNL     1      -0.806  15.527  -5.567  1.00  0.00     0.028 C 
HETATM    9  C22 UNL     1       0.442  13.362  -5.786  1.00  0.00     0.144 C 
HETATM   10  O4  UNL     1      -0.064  13.612  -6.902  1.00  0.00    -0.296 OA
HETATM   11  C23 UNL     1       0.928  11.997  -5.847  1.00  0.00     0.069 C 
HETATM   12  C24 UNL     1       2.086  11.911  -6.814  1.00  0.00     0.044 C 
HETATM   13  C25 UNL     1       3.405  12.277  -6.263  1.00  0.00     0.119 C 
HETATM   14  C26 UNL     1       3.711  11.914  -4.866  1.00  0.00     0.032 C 
HETATM   15  C27 UNL     1       2.546  11.773  -3.952  1.00  0.00     0.015 C 
HETATM   16  C28 UNL     1       1.320  11.254  -4.628  1.00  0.00    -0.007 C 
HETATM   17  C29 UNL     1       1.781   9.867  -5.177  1.00  0.00     0.018 C 
HETATM   18  C30 UNL     1       0.215  10.878  -3.685  1.00  0.00     0.137 C 
HETATM   19  C31 UNL     1       0.610  10.910  -2.216  1.00  0.00     0.034 C 
HETATM   20  C32 UNL     1      -0.558  10.913  -1.316  1.00  0.00     0.017 C 
HETATM   21  C33 UNL     1      -1.362  12.093  -1.053  1.00  0.00    -0.010 C 
HETATM   22  C34 UNL     1      -2.831  11.767  -1.434  1.00  0.00     0.021 C 
HETATM   23  O6  UNL     1      -0.846  11.830  -3.883  1.00  0.00    -0.349 OA
ENDROOT
BRANCH   1  24
HETATM   24  C2  UNL     1      -1.906  11.964   1.592  1.00  0.00    -0.008 C 
HETATM   25  C1  UNL     1      -3.009  12.789   2.203  1.00  0.00     0.021 C 
HETATM   26  C3  UNL     1      -2.281  10.536   1.409  1.00  0.00     0.021 C 
BRANCH  24  27
HETATM   27  C4  UNL     1      -0.807  11.955   2.683  1.00  0.00     0.133 C 
BRANCH  27  28
HETATM   28  N1  UNL     1      -0.159  10.655   2.677  1.00  0.00    -0.389 N 
ATOM     29  H1  UNL     1      -0.719   9.817   2.834  1.00  0.00     0.159 HD
BRANCH  28  30
HETATM   30  C5  UNL     1       1.234  10.528   2.457  1.00  0.00     0.028 A 
HETATM   31  C6  UNL     1       1.824  10.978   1.314  1.00  0.00     0.032 A 
HETATM   32  C7  UNL     1       3.175  10.847   1.121  1.00  0.00     0.039 A 
HETATM   33  C8  UNL     1       4.003  10.248   2.082  1.00  0.00     0.075 A 
HETATM   34  C10 UNL     1       3.410   9.796   3.228  1.00  0.00     0.039 A 
HETATM   35  C11 UNL     1       2.042   9.944   3.394  1.00  0.00     0.032 A 
BRANCH  33  36
HETATM   36  O1  UNL     1       5.343  10.122   1.879  1.00  0.00    -0.290 OA
BRANCH  36  37
HETATM   37  C9  UNL     1       6.014   8.949   1.606  1.00  0.00     0.505 C 
HETATM   38  F1  UNL     1       6.358   8.294   2.803  1.00  0.00    -0.184 F 
HETATM   39  F2  UNL     1       5.123   8.062   0.977  1.00  0.00    -0.184 F 
ENDBRANCH  36  37
ENDBRANCH  33  36
ENDBRANCH  28  30
ENDBRANCH  27  28
ENDBRANCH  24  27
ENDBRANCH   1  24
BRANCH   7  40
HETATM   40  C20 UNL     1       1.493  15.446  -4.818  1.00  0.00     0.134 C 
BRANCH  40  41
HETATM   41  C21 UNL     1       1.879  16.202  -5.991  1.00  0.00     0.173 C 
HETATM   42  O2  UNL     1       2.409  15.740  -7.006  1.00  0.00    -0.648 OA
HETATM   43  O3  UNL     1       1.646  17.598  -6.018  1.00  0.00    -0.648 OA
ENDBRANCH  40  41
ENDBRANCH   7  40
BRANCH  13  44
HETATM   44  O5  UNL     1       4.362  11.596  -7.076  1.00  0.00    -0.396 OA
ATOM     45  H5  UNL     1       5.116  12.172  -7.120  1.00  0.00     0.210 HD
ENDBRANCH  13  44
TORSDOF 9
ENDMDL
MODEL 5
REMARK VINA RESULT: -5.754252790      4.311      6.061
REMARK  9 active torsions:
REMARK  status: ('A' for Active; 'I' for Inactive)
REMARK    1  A    between atoms: C2_2  and  C4_4 
REMARK    2  A    between atoms: C2_2  and  C12_17 
REMARK    3  A    between atoms: C4_4  and  N1_5 
REMARK    4  A    between atoms: N1_5  and  C5_7 
REMARK    5  A    between atoms: C8_10  and  O1_11 
REMARK    6  A    between atoms: O1_11  and  C9_12 
REMARK    7  A    between atoms: C18_23  and  C20_25 
REMARK    8  A    between atoms: C20_25  and  C21_26 
REMARK    9  A    between atoms: C25_33  and  O5_34 
ROOT
HETATM    1  C12 UNL     1       1.404  12.973   0.808  1.00  0.00    -0.065 C 
HETATM    2  C13 UNL     1       1.091  13.084   2.106  1.00  0.00    -0.022 C 
HETATM    3  C14 UNL     1      -0.199  12.437   2.436  1.00  0.00     0.040 C 
HETATM    4  C15 UNL     1      -0.376  11.509   1.295  1.00  0.00     0.058 C 
HETATM    5  C16 UNL     1      -1.692  11.037   0.985  1.00  0.00     0.050 C 
HETATM    6  C17 UNL     1      -2.130  10.628   2.116  1.00  0.00     0.023 C 
HETATM    7  C18 UNL     1      -3.456  10.010   2.512  1.00  0.00     0.046 C 
HETATM    8  C19 UNL     1      -3.146   8.564   2.812  1.00  0.00     0.028 C 
HETATM    9  C22 UNL     1      -4.367  10.178   1.329  1.00  0.00     0.144 C 
HETATM   10  O4  UNL     1      -4.908   9.060   1.184  1.00  0.00    -0.296 OA
HETATM   11  C23 UNL     1      -4.896  11.034   0.285  1.00  0.00     0.069 C 
HETATM   12  C24 UNL     1      -6.365  11.290   0.531  1.00  0.00     0.044 C 
HETATM   13  C25 UNL     1      -6.672  12.381   1.475  1.00  0.00     0.119 C 
HETATM   14  C26 UNL     1      -5.805  13.575   1.479  1.00  0.00     0.032 C 
HETATM   15  C27 UNL     1      -4.405  13.375   1.018  1.00  0.00     0.015 C 
HETATM   16  C28 UNL     1      -4.274  12.336  -0.046  1.00  0.00    -0.007 C 
HETATM   17  C29 UNL     1      -5.176  12.892  -1.194  1.00  0.00     0.018 C 
HETATM   18  C30 UNL     1      -2.920  12.290  -0.692  1.00  0.00     0.137 C 
HETATM   19  C31 UNL     1      -1.996  13.427  -0.284  1.00  0.00     0.034 C 
HETATM   20  C32 UNL     1      -0.585  13.158  -0.619  1.00  0.00     0.017 C 
HETATM   21  C33 UNL     1       0.268  12.278   0.160  1.00  0.00    -0.010 C 
HETATM   22  C34 UNL     1       0.804  11.170  -0.783  1.00  0.00     0.021 C 
HETATM   23  O6  UNL     1      -2.307  11.051  -0.290  1.00  0.00    -0.349 OA
ENDROOT
BRANCH   1  24
HETATM   24  C2  UNL     1       2.661  13.537   0.218  1.00  0.00    -0.008 C 
HETATM   25  C1  UNL     1       2.820  13.295  -1.261  1.00  0.00     0.021 C 
HETATM   26  C3  UNL     1       2.870  14.958   0.601  1.00  0.00     0.021 C 
BRANCH  24  27
HETATM   27  C4  UNL     1       3.851  12.770   0.846  1.00  0.00     0.133 C 
BRANCH  27  28
HETATM   28  N1  UNL     1       4.469  11.954  -0.184  1.00  0.00    -0.389 N 
ATOM     29  H1  UNL     1       4.619  12.349  -1.113  1.00  0.00     0.159 HD
BRANCH  28  30
HETATM   30  C5  UNL     1       4.868  10.620   0.075  1.00  0.00     0.028 A 
HETATM   31  C6  UNL     1       3.973   9.665   0.457  1.00  0.00     0.032 A 
HETATM   32  C7  UNL     1       4.380   8.379   0.701  1.00  0.00     0.039 A 
HETATM   33  C8  UNL     1       5.722   7.990   0.571  1.00  0.00     0.075 A 
HETATM   34  C10 UNL     1       6.618   8.949   0.187  1.00  0.00     0.039 A 
HETATM   35  C11 UNL     1       6.176  10.241  -0.053  1.00  0.00     0.032 A 
BRANCH  33  36
HETATM   36  O1  UNL     1       6.113   6.710   0.817  1.00  0.00    -0.290 OA
BRANCH  36  37
HETATM   37  C9  UNL     1       7.351   6.174   0.533  1.00  0.00     0.505 C 
HETATM   38  F1  UNL     1       8.048   5.899   1.725  1.00  0.00    -0.184 F 
HETATM   39  F2  UNL     1       7.167   4.909  -0.051  1.00  0.00    -0.184 F 
ENDBRANCH  36  37
ENDBRANCH  33  36
ENDBRANCH  28  30
ENDBRANCH  27  28
ENDBRANCH  24  27
ENDBRANCH   1  24
BRANCH   7  40
HETATM   40  C20 UNL     1      -3.947  10.633   3.779  1.00  0.00     0.134 C 
BRANCH  40  41
HETATM   41  C21 UNL     1      -5.062   9.942   4.393  1.00  0.00     0.173 C 
HETATM   42  O2  UNL     1      -6.250  10.066   4.078  1.00  0.00    -0.648 OA
HETATM   43  O3  UNL     1      -4.813   9.034   5.450  1.00  0.00    -0.648 OA
ENDBRANCH  40  41
ENDBRANCH   7  40
BRANCH  13  44
HETATM   44  O5  UNL     1      -7.981  12.833   1.126  1.00  0.00    -0.396 OA
ATOM     45  H5  UNL     1      -7.988  13.765   1.311  1.00  0.00     0.210 HD
ENDBRANCH  13  44
TORSDOF 9
ENDMDL
