MODEL 1
REMARK VINA RESULT: -6.066219535      0.000      0.000
REMARK  9 active torsions:
REMARK  status: ('A' for Active; 'I' for Inactive)
REMARK    1  A    between atoms: C2_2  and  N1_3 
REMARK    2  A    between atoms: N1_3  and  C3_4 
REMARK       I    between atoms: N1_3  and  C5_6 
REMARK       I    between atoms: C5_6  and  N2_8 
REMARK    3  A    between atoms: N2_8  and  C6_10 
REMARK    4  A    between atoms: C9_13  and  N3_14 
REMARK       I    between atoms: N3_14  and  C10_16 
REMARK       I    between atoms: C10_16  and  N4_18 
REMARK    5  A    between atoms: N4_18  and  C11_20 
REMARK    6  A    between atoms: C16_29  and  C17_30 
REMARK    7  A    between atoms: C17_30  and  C20_33 
REMARK    8  A    between atoms: C22_37  and  C23_38 
REMARK    9  A    between atoms: C29_45  and  O3_46 
ROOT
HETATM    1  C11 UNL     1      -2.057  13.731   1.397  1.00  0.00     0.045 C 
HETATM    2  C12 UNL     1      -3.085  14.448   0.729  1.00  0.00     0.062 C 
HETATM    3  C13 UNL     1      -3.266  15.825   0.685  1.00  0.00     0.062 A 
HETATM    4  N5  UNL     1      -4.105  16.522  -0.098  1.00  0.00    -0.350 N 
ATOM      5  H5  UNL     1      -4.736  16.115  -0.788  1.00  0.00     0.166 HD
HETATM    6  C14 UNL     1      -3.989  17.841   0.163  1.00  0.00     0.181 A 
HETATM    7  N6  UNL     1      -3.058  18.057   1.140  1.00  0.00    -0.350 N 
ATOM      8  H6  UNL     1      -2.778  18.959   1.526  1.00  0.00     0.166 HD
HETATM    9  C15 UNL     1      -2.592  16.869   1.489  1.00  0.00     0.067 A 
HETATM   10  C16 UNL     1      -1.630  16.609   2.435  1.00  0.00    -0.015 C 
HETATM   11  C21 UNL     1      -0.704  15.548   2.354  1.00  0.00     0.020 C 
HETATM   12  C22 UNL     1      -0.846  14.292   1.827  1.00  0.00    -0.026 C 
ENDROOT
BRANCH   1  13
HETATM   13  N4  UNL     1      -2.337  12.401   1.718  1.00  0.00    -0.308 N 
HETATM   14  C10 UNL     1      -3.309  11.966   2.672  1.00  0.00     0.325 C 
HETATM   15  N3  UNL     1      -3.532  10.631   3.032  1.00  0.00    -0.306 N 
HETATM   16  O2  UNL     1      -4.004  12.843   3.224  1.00  0.00    -0.247 OA
ATOM     17  H3  UNL     1      -2.944   9.896   2.640  1.00  0.00     0.171 HD
ATOM     18  H4  UNL     1      -1.805  11.680   1.230  1.00  0.00     0.170 HD
BRANCH  15  19
HETATM   19  C9  UNL     1      -4.589  10.289   3.951  1.00  0.00     0.070 A 
HETATM   20  C8  UNL     1      -4.262  10.061   5.271  1.00  0.00     0.035 A 
HETATM   21  C7  UNL     1      -5.252   9.856   6.201  1.00  0.00     0.032 A 
HETATM   22  C6  UNL     1      -6.613   9.869   5.857  1.00  0.00     0.039 A 
HETATM   23  C31 UNL     1      -6.877  10.094   4.537  1.00  0.00     0.068 A 
HETATM   24  C29 UNL     1      -5.927  10.304   3.573  1.00  0.00     0.097 A 
BRANCH  22  25
HETATM   25  N2  UNL     1      -7.522   9.738   6.903  1.00  0.00    -0.309 N 
HETATM   26  C5  UNL     1      -8.292   8.609   7.255  1.00  0.00     0.322 C 
HETATM   27  N1  UNL     1      -9.197   8.678   8.365  1.00  0.00    -0.335 N 
HETATM   28  O1  UNL     1      -8.182   7.540   6.589  1.00  0.00    -0.247 OA
ATOM     29  H2  UNL     1      -7.647  10.562   7.490  1.00  0.00     0.170 HD
BRANCH  27  30
HETATM   30  C2  UNL     1      -9.350   9.898   9.120  1.00  0.00     0.123 C 
HETATM   31  C1  UNL     1     -10.630  10.609   8.728  1.00  0.00     0.026 C 
ENDBRANCH  27  30
BRANCH  27  32
HETATM   32  C3  UNL     1      -9.953   7.493   8.723  1.00  0.00     0.123 C 
HETATM   33  C4  UNL     1      -9.631   7.177  10.180  1.00  0.00     0.026 C 
ENDBRANCH  27  32
ENDBRANCH  22  25
BRANCH  24  34
HETATM   34  O3  UNL     1      -6.224  10.527   2.275  1.00  0.00    -0.354 OA
HETATM   35  C30 UNL     1      -6.949  11.613   1.765  1.00  0.00     0.210 C 
ENDBRANCH  24  34
ENDBRANCH  15  19
ENDBRANCH   1  13
BRANCH  12  36
HETATM   36  C23 UNL     1       0.292  13.369   1.712  1.00  0.00     0.024 C 
HETATM   37  C24 UNL     1       0.567  13.120   0.242  1.00  0.00     0.039 C 
HETATM   38  C25 UNL     1       1.853  12.287   0.104  1.00  0.00     0.272 C 
HETATM   39  N7  UNL     1       2.976  13.157   0.428  1.00  0.00     0.084 N 
HETATM   40  C26 UNL     1       3.986  12.366   1.084  1.00  0.00     0.309 C 
HETATM   41  C27 UNL     1       2.547  14.300   1.175  1.00  0.00     0.272 C 
HETATM   42  C28 UNL     1       1.592  13.920   2.256  1.00  0.00     0.039 C 
ENDBRANCH  12  36
BRANCH  10  43
HETATM   43  C17 UNL     1      -1.594  17.474   3.608  1.00  0.00     0.041 C 
HETATM   44  C18 UNL     1      -1.573  18.952   3.316  1.00  0.00     0.026 C 
HETATM   45  C19 UNL     1      -0.282  17.176   4.358  1.00  0.00     0.026 C 
BRANCH  43  46
HETATM   46  C20 UNL     1      -2.684  17.151   4.621  1.00  0.00     0.365 C 
HETATM   47  F1  UNL     1      -2.333  17.449   5.916  1.00  0.00    -0.213 F 
HETATM   48  F2  UNL     1      -3.845  17.880   4.286  1.00  0.00    -0.213 F 
ENDBRANCH  43  46
ENDBRANCH  10  43
TORSDOF 9
ENDMDL
MODEL 2
REMARK VINA RESULT: -5.926081983      4.039      6.359
REMARK  9 active torsions:
REMARK  status: ('A' for Active; 'I' for Inactive)
REMARK    1  A    between atoms: C2_2  and  N1_3 
REMARK    2  A    between atoms: N1_3  and  C3_4 
REMARK       I    between atoms: N1_3  and  C5_6 
REMARK       I    between atoms: C5_6  and  N2_8 
REMARK    3  A    between atoms: N2_8  and  C6_10 
REMARK    4  A    between atoms: C9_13  and  N3_14 
REMARK       I    between atoms: N3_14  and  C10_16 
REMARK       I    between atoms: C10_16  and  N4_18 
REMARK    5  A    between atoms: N4_18  and  C11_20 
REMARK    6  A    between atoms: C16_29  and  C17_30 
REMARK    7  A    between atoms: C17_30  and  C20_33 
REMARK    8  A    between atoms: C22_37  and  C23_38 
REMARK    9  A    between atoms: C29_45  and  O3_46 
ROOT
HETATM    1  C11 UNL     1      -1.632  11.398  -0.448  1.00  0.00     0.045 C 
HETATM    2  C12 UNL     1      -0.436  11.295   0.313  1.00  0.00     0.062 C 
HETATM    3  C13 UNL     1       0.847  11.664  -0.071  1.00  0.00     0.062 A 
HETATM    4  N5  UNL     1       1.943  11.760   0.698  1.00  0.00    -0.350 N 
ATOM      5  H5  UNL     1       1.973  11.571   1.700  1.00  0.00     0.166 HD
HETATM    6  C14 UNL     1       2.998  12.143  -0.051  1.00  0.00     0.181 A 
HETATM    7  N6  UNL     1       2.626  12.312  -1.354  1.00  0.00    -0.350 N 
ATOM      8  H6  UNL     1       3.228  12.597  -2.128  1.00  0.00     0.166 HD
HETATM    9  C15 UNL     1       1.335  12.035  -1.419  1.00  0.00     0.067 A 
HETATM   10  C16 UNL     1       0.538  12.081  -2.538  1.00  0.00    -0.015 C 
HETATM   11  C21 UNL     1      -0.827  12.437  -2.527  1.00  0.00     0.020 C 
HETATM   12  C22 UNL     1      -1.788  12.215  -1.577  1.00  0.00    -0.026 C 
ENDROOT
BRANCH   1  13
HETATM   13  N4  UNL     1      -2.675  10.546  -0.081  1.00  0.00    -0.308 N 
HETATM   14  C10 UNL     1      -3.286  10.492   1.210  1.00  0.00     0.325 C 
HETATM   15  N3  UNL     1      -4.286   9.586   1.583  1.00  0.00    -0.306 N 
HETATM   16  O2  UNL     1      -2.895  11.313   2.065  1.00  0.00    -0.247 OA
ATOM     17  H3  UNL     1      -4.589   8.868   0.926  1.00  0.00     0.171 HD
ATOM     18  H4  UNL     1      -3.031   9.908  -0.794  1.00  0.00     0.170 HD
BRANCH  15  19
HETATM   19  C9  UNL     1      -4.892   9.662   2.889  1.00  0.00     0.070 A 
HETATM   20  C8  UNL     1      -5.979  10.493   3.061  1.00  0.00     0.035 A 
HETATM   21  C7  UNL     1      -6.661  10.499   4.253  1.00  0.00     0.032 A 
HETATM   22  C6  UNL     1      -6.290   9.677   5.329  1.00  0.00     0.039 A 
HETATM   23  C31 UNL     1      -5.206   8.880   5.104  1.00  0.00     0.068 A 
HETATM   24  C29 UNL     1      -4.494   8.837   3.934  1.00  0.00     0.097 A 
BRANCH  22  25
HETATM   25  N2  UNL     1      -7.113   9.709   6.451  1.00  0.00    -0.309 N 
HETATM   26  C5  UNL     1      -8.028   8.730   6.892  1.00  0.00     0.322 C 
HETATM   27  N1  UNL     1      -8.807   8.959   8.074  1.00  0.00    -0.335 N 
HETATM   28  O1  UNL     1      -8.158   7.653   6.243  1.00  0.00    -0.247 OA
ATOM     29  H2  UNL     1      -7.045  10.547   7.029  1.00  0.00     0.170 HD
BRANCH  27  30
HETATM   30  C2  UNL     1      -8.685  10.192   8.812  1.00  0.00     0.123 C 
HETATM   31  C1  UNL     1      -9.899  11.071   8.584  1.00  0.00     0.026 C 
ENDBRANCH  27  30
BRANCH  27  32
HETATM   32  C3  UNL     1      -9.717   7.922   8.522  1.00  0.00     0.123 C 
HETATM   33  C4  UNL     1      -9.328   7.568   9.952  1.00  0.00     0.026 C 
ENDBRANCH  27  32
ENDBRANCH  22  25
BRANCH  24  34
HETATM   34  O3  UNL     1      -3.426   8.032   3.746  1.00  0.00    -0.354 OA
HETATM   35  C30 UNL     1      -3.446   6.745   3.192  1.00  0.00     0.210 C 
ENDBRANCH  24  34
ENDBRANCH  15  19
ENDBRANCH   1  13
BRANCH  12  36
HETATM   36  C23 UNL     1      -3.134  12.793  -1.691  1.00  0.00     0.024 C 
HETATM   37  C24 UNL     1      -3.075  14.248  -1.266  1.00  0.00     0.039 C 
HETATM   38  C25 UNL     1      -4.439  14.907  -1.533  1.00  0.00     0.272 C 
HETATM   39  N7  UNL     1      -4.572  15.069  -2.975  1.00  0.00     0.084 N 
HETATM   40  C26 UNL     1      -5.960  14.890  -3.324  1.00  0.00     0.309 C 
HETATM   41  C27 UNL     1      -3.674  14.206  -3.679  1.00  0.00     0.272 C 
HETATM   42  C28 UNL     1      -3.674  12.829  -3.104  1.00  0.00     0.039 C 
ENDBRANCH  12  36
BRANCH  10  43
HETATM   43  C17 UNL     1       1.148  11.708  -3.809  1.00  0.00     0.041 C 
HETATM   44  C18 UNL     1       2.318  12.556  -4.234  1.00  0.00     0.026 C 
HETATM   45  C19 UNL     1       0.079  11.890  -4.902  1.00  0.00     0.026 C 
BRANCH  43  46
HETATM   46  C20 UNL     1       1.511  10.232  -3.885  1.00  0.00     0.365 C 
HETATM   47  F1  UNL     1       0.479   9.396  -3.531  1.00  0.00    -0.213 F 
HETATM   48  F2  UNL     1       1.908   9.930  -5.205  1.00  0.00    -0.213 F 
ENDBRANCH  43  46
ENDBRANCH  10  43
TORSDOF 9
ENDMDL
MODEL 3
REMARK VINA RESULT: -5.770990502      6.157     12.409
REMARK  9 active torsions:
REMARK  status: ('A' for Active; 'I' for Inactive)
REMARK    1  A    between atoms: C2_2  and  N1_3 
REMARK    2  A    between atoms: N1_3  and  C3_4 
REMARK       I    between atoms: N1_3  and  C5_6 
REMARK       I    between atoms: C5_6  and  N2_8 
REMARK    3  A    between atoms: N2_8  and  C6_10 
REMARK    4  A    between atoms: C9_13  and  N3_14 
REMARK       I    between atoms: N3_14  and  C10_16 
REMARK       I    between atoms: C10_16  and  N4_18 
REMARK    5  A    between atoms: N4_18  and  C11_20 
REMARK    6  A    between atoms: C16_29  and  C17_30 
REMARK    7  A    between atoms: C17_30  and  C20_33 
REMARK    8  A    between atoms: C22_37  and  C23_38 
REMARK    9  A    between atoms: C29_45  and  O3_46 
ROOT
HETATM    1  C11 UNL     1      -1.110  11.208  -1.115  1.00  0.00     0.045 C 
HETATM    2  C12 UNL     1      -2.315  11.764  -1.624  1.00  0.00     0.062 C 
HETATM    3  C13 UNL     1      -3.414  12.210  -0.902  1.00  0.00     0.062 A 
HETATM    4  N5  UNL     1      -4.464  12.916  -1.349  1.00  0.00    -0.350 N 
ATOM      5  H5  UNL     1      -4.592  13.229  -2.311  1.00  0.00     0.166 HD
HETATM    6  C14 UNL     1      -5.327  13.149  -0.337  1.00  0.00     0.181 A 
HETATM    7  N6  UNL     1      -4.866  12.595   0.824  1.00  0.00    -0.350 N 
ATOM      8  H6  UNL     1      -5.323  12.623   1.736  1.00  0.00     0.166 HD
HETATM    9  C15 UNL     1      -3.712  12.016   0.536  1.00  0.00     0.067 A 
HETATM   10  C16 UNL     1      -2.890  11.341   1.406  1.00  0.00    -0.015 C 
HETATM   11  C21 UNL     1      -1.483  11.319   1.314  1.00  0.00     0.020 C 
HETATM   12  C22 UNL     1      -0.672  11.340   0.210  1.00  0.00    -0.026 C 
ENDROOT
BRANCH   1  13
HETATM   13  N4  UNL     1      -0.382  10.401  -1.991  1.00  0.00    -0.308 N 
HETATM   14  C10 UNL     1       0.492  10.873  -3.020  1.00  0.00     0.325 C 
HETATM   15  N3  UNL     1       1.164  10.053  -3.934  1.00  0.00    -0.306 N 
HETATM   16  O2  UNL     1       0.662  12.106  -3.107  1.00  0.00    -0.247 OA
ATOM     17  H3  UNL     1       1.003   9.046  -3.925  1.00  0.00     0.171 HD
ATOM     18  H4  UNL     1      -0.481   9.391  -1.889  1.00  0.00     0.170 HD
BRANCH  15  19
HETATM   19  C9  UNL     1       2.083  10.621  -4.888  1.00  0.00     0.070 A 
HETATM   20  C8  UNL     1       1.568  11.300  -5.973  1.00  0.00     0.035 A 
HETATM   21  C7  UNL     1       2.407  11.961  -6.835  1.00  0.00     0.032 A 
HETATM   22  C6  UNL     1       3.799  11.978  -6.655  1.00  0.00     0.039 A 
HETATM   23  C31 UNL     1       4.253  11.288  -5.569  1.00  0.00     0.068 A 
HETATM   24  C29 UNL     1       3.458  10.613  -4.681  1.00  0.00     0.097 A 
BRANCH  22  25
HETATM   25  N2  UNL     1       4.533  12.757  -7.545  1.00  0.00    -0.309 N 
HETATM   26  C5  UNL     1       4.902  14.114  -7.419  1.00  0.00     0.322 C 
HETATM   27  N1  UNL     1       5.650  14.752  -8.463  1.00  0.00    -0.335 N 
HETATM   28  O1  UNL     1       4.572  14.763  -6.386  1.00  0.00    -0.247 OA
ATOM     29  H2  UNL     1       4.845  12.289  -8.395  1.00  0.00     0.170 HD
BRANCH  27  30
HETATM   30  C2  UNL     1       6.015  14.030  -9.658  1.00  0.00     0.123 C 
HETATM   31  C1  UNL     1       7.465  13.592  -9.593  1.00  0.00     0.026 C 
ENDBRANCH  27  30
BRANCH  27  32
HETATM   32  C3  UNL     1       6.043  16.137  -8.294  1.00  0.00     0.123 C 
HETATM   33  C4  UNL     1       5.353  16.939  -9.392  1.00  0.00     0.026 C 
ENDBRANCH  27  32
ENDBRANCH  22  25
BRANCH  24  34
HETATM   34  O3  UNL     1       3.942   9.942  -3.614  1.00  0.00    -0.354 OA
HETATM   35  C30 UNL     1       4.444  10.510  -2.436  1.00  0.00     0.210 C 
ENDBRANCH  24  34
ENDBRANCH  15  19
ENDBRANCH   1  13
BRANCH  12  36
HETATM   36  C23 UNL     1       0.789  11.452   0.328  1.00  0.00     0.024 C 
HETATM   37  C24 UNL     1       1.169  12.919   0.266  1.00  0.00     0.039 C 
HETATM   38  C25 UNL     1       2.674  13.062   0.549  1.00  0.00     0.272 C 
HETATM   39  N7  UNL     1       2.879  12.807   1.968  1.00  0.00     0.084 N 
HETATM   40  C26 UNL     1       4.152  12.150   2.130  1.00  0.00     0.309 C 
HETATM   41  C27 UNL     1       1.774  12.094   2.532  1.00  0.00     0.272 C 
HETATM   42  C28 UNL     1       1.342  10.970   1.651  1.00  0.00     0.039 C 
ENDBRANCH  12  36
BRANCH  10  43
HETATM   43  C17 UNL     1      -3.528  10.579   2.473  1.00  0.00     0.041 C 
HETATM   44  C18 UNL     1      -3.767  11.339   3.752  1.00  0.00     0.026 C 
HETATM   45  C19 UNL     1      -2.579   9.424   2.843  1.00  0.00     0.026 C 
BRANCH  43  46
HETATM   46  C20 UNL     1      -4.806   9.883   2.026  1.00  0.00     0.365 C 
HETATM   47  F1  UNL     1      -4.580   8.754   1.277  1.00  0.00    -0.213 F 
HETATM   48  F2  UNL     1      -5.552   9.528   3.170  1.00  0.00    -0.213 F 
ENDBRANCH  43  46
ENDBRANCH  10  43
TORSDOF 9
ENDMDL
MODEL 4
REMARK VINA RESULT: -5.640265071      5.923     12.197
REMARK  9 active torsions:
REMARK  status: ('A' for Active; 'I' for Inactive)
REMARK    1  A    between atoms: C2_2  and  N1_3 
REMARK    2  A    between atoms: N1_3  and  C3_4 
REMARK       I    between atoms: N1_3  and  C5_6 
REMARK       I    between atoms: C5_6  and  N2_8 
REMARK    3  A    between atoms: N2_8  and  C6_10 
REMARK    4  A    between atoms: C9_13  and  N3_14 
REMARK       I    between atoms: N3_14  and  C10_16 
REMARK       I    between atoms: C10_16  and  N4_18 
REMARK    5  A    between atoms: N4_18  and  C11_20 
REMARK    6  A    between atoms: C16_29  and  C17_30 
REMARK    7  A    between atoms: C17_30  and  C20_33 
REMARK    8  A    between atoms: C22_37  and  C23_38 
REMARK    9  A    between atoms: C29_45  and  O3_46 
ROOT
HETATM    1  C11 UNL     1       0.708  11.757   0.437  1.00  0.00     0.045 C 
HETATM    2  C12 UNL     1       2.064  12.007   0.778  1.00  0.00     0.062 C 
HETATM    3  C13 UNL     1       2.559  13.014   1.597  1.00  0.00     0.062 A 
HETATM    4  N5  UNL     1       3.802  13.142   2.087  1.00  0.00    -0.350 N 
ATOM      5  H5  UNL     1       4.568  12.490   1.918  1.00  0.00     0.166 HD
HETATM    6  C14 UNL     1       3.888  14.260   2.837  1.00  0.00     0.181 A 
HETATM    7  N6  UNL     1       2.688  14.914   2.864  1.00  0.00    -0.350 N 
ATOM      8  H6  UNL     1       2.479  15.784   3.355  1.00  0.00     0.166 HD
HETATM    9  C15 UNL     1       1.851  14.200   2.130  1.00  0.00     0.067 A 
HETATM   10  C16 UNL     1       0.528  14.480   1.884  1.00  0.00    -0.015 C 
HETATM   11  C21 UNL     1      -0.471  13.499   1.711  1.00  0.00     0.020 C 
HETATM   12  C22 UNL     1      -0.396  12.254   1.144  1.00  0.00    -0.026 C 
ENDROOT
BRANCH   1  13
HETATM   13  N4  UNL     1       0.488  11.042  -0.743  1.00  0.00    -0.308 N 
HETATM   14  C10 UNL     1       0.904  11.450  -2.049  1.00  0.00     0.325 C 
HETATM   15  N3  UNL     1       0.618  10.756  -3.230  1.00  0.00    -0.306 N 
HETATM   16  O2  UNL     1       1.567  12.503  -2.137  1.00  0.00    -0.247 OA
ATOM     17  H3  UNL     1       0.032   9.922  -3.199  1.00  0.00     0.171 HD
ATOM     18  H4  UNL     1      -0.011  10.156  -0.667  1.00  0.00     0.170 HD
BRANCH  15  19
HETATM   19  C9  UNL     1       1.148  11.210  -4.492  1.00  0.00     0.070 A 
HETATM   20  C8  UNL     1       0.384  12.069  -5.254  1.00  0.00     0.035 A 
HETATM   21  C7  UNL     1       0.902  12.623  -6.399  1.00  0.00     0.032 A 
HETATM   22  C6  UNL     1       2.207  12.346  -6.836  1.00  0.00     0.039 A 
HETATM   23  C31 UNL     1       2.915  11.487  -6.047  1.00  0.00     0.068 A 
HETATM   24  C29 UNL     1       2.443  10.910  -4.897  1.00  0.00     0.097 A 
BRANCH  22  25
HETATM   25  N2  UNL     1       2.647  13.037  -7.961  1.00  0.00    -0.309 N 
HETATM   26  C5  UNL     1       3.802  13.835  -8.100  1.00  0.00     0.322 C 
HETATM   27  N1  UNL     1       4.076  14.489  -9.346  1.00  0.00    -0.335 N 
HETATM   28  O1  UNL     1       4.594  13.971  -7.124  1.00  0.00    -0.247 OA
ATOM     29  H2  UNL     1       2.060  12.957  -8.791  1.00  0.00     0.170 HD
BRANCH  27  30
HETATM   30  C2  UNL     1       3.170  14.361 -10.462  1.00  0.00     0.123 C 
HETATM   31  C1  UNL     1       2.365  15.633 -10.642  1.00  0.00     0.026 C 
ENDBRANCH  27  30
BRANCH  27  32
HETATM   32  C3  UNL     1       5.287  15.277  -9.471  1.00  0.00     0.123 C 
HETATM   33  C4  UNL     1       6.245  14.494 -10.362  1.00  0.00     0.026 C 
ENDBRANCH  27  32
ENDBRANCH  22  25
BRANCH  24  34
HETATM   34  O3  UNL     1       3.174  10.066  -4.138  1.00  0.00    -0.354 OA
HETATM   35  C30 UNL     1       4.296  10.404  -3.368  1.00  0.00     0.210 C 
ENDBRANCH  24  34
ENDBRANCH  15  19
ENDBRANCH   1  13
BRANCH  12  36
HETATM   36  C23 UNL     1      -1.528  11.318   1.184  1.00  0.00     0.024 C 
HETATM   37  C24 UNL     1      -1.328  10.365   2.347  1.00  0.00     0.039 C 
HETATM   38  C25 UNL     1      -2.581   9.486   2.499  1.00  0.00     0.272 C 
HETATM   39  N7  UNL     1      -3.643  10.325   3.038  1.00  0.00     0.084 N 
HETATM   40  C26 UNL     1      -4.895   9.888   2.474  1.00  0.00     0.309 C 
HETATM   41  C27 UNL     1      -3.359  11.713   2.836  1.00  0.00     0.272 C 
HETATM   42  C28 UNL     1      -2.864  11.975   1.453  1.00  0.00     0.039 C 
ENDBRANCH  12  36
BRANCH  10  43
HETATM   43  C17 UNL     1       0.151  15.883   1.770  1.00  0.00     0.041 C 
HETATM   44  C18 UNL     1       0.159  16.659   3.061  1.00  0.00     0.026 C 
HETATM   45  C19 UNL     1      -1.303  15.928   1.262  1.00  0.00     0.026 C 
BRANCH  43  46
HETATM   46  C20 UNL     1       0.941  16.627   0.702  1.00  0.00     0.365 C 
HETATM   47  F1  UNL     1       1.073  15.924  -0.471  1.00  0.00    -0.213 F 
HETATM   48  F2  UNL     1       0.293  17.851   0.429  1.00  0.00    -0.213 F 
ENDBRANCH  43  46
ENDBRANCH  10  43
TORSDOF 9
ENDMDL
MODEL 5
REMARK VINA RESULT: -5.596132445      5.275     11.229
REMARK  9 active torsions:
REMARK  status: ('A' for Active; 'I' for Inactive)
REMARK    1  A    between atoms: C2_2  and  N1_3 
REMARK    2  A    between atoms: N1_3  and  C3_4 
REMARK       I    between atoms: N1_3  and  C5_6 
REMARK       I    between atoms: C5_6  and  N2_8 
REMARK    3  A    between atoms: N2_8  and  C6_10 
REMARK    4  A    between atoms: C9_13  and  N3_14 
REMARK       I    between atoms: N3_14  and  C10_16 
REMARK       I    between atoms: C10_16  and  N4_18 
REMARK    5  A    between atoms: N4_18  and  C11_20 
REMARK    6  A    between atoms: C16_29  and  C17_30 
REMARK    7  A    between atoms: C17_30  and  C20_33 
REMARK    8  A    between atoms: C22_37  and  C23_38 
REMARK    9  A    between atoms: C29_45  and  O3_46 
ROOT
HETATM    1  C11 UNL     1      -0.192  12.696   2.041  1.00  0.00     0.045 C 
HETATM    2  C12 UNL     1       0.236  14.016   1.732  1.00  0.00     0.062 C 
HETATM    3  C13 UNL     1      -0.236  14.844   0.722  1.00  0.00     0.062 A 
HETATM    4  N5  UNL     1       0.012  16.152   0.545  1.00  0.00    -0.350 N 
ATOM      5  H5  UNL     1       0.596  16.725   1.153  1.00  0.00     0.166 HD
HETATM    6  C14 UNL     1      -0.627  16.595  -0.558  1.00  0.00     0.181 A 
HETATM    7  N6  UNL     1      -1.324  15.581  -1.151  1.00  0.00    -0.350 N 
ATOM      8  H6  UNL     1      -1.891  15.643  -1.997  1.00  0.00     0.166 HD
HETATM    9  C15 UNL     1      -1.120  14.501  -0.414  1.00  0.00     0.067 A 
HETATM   10  C16 UNL     1      -1.636  13.246  -0.634  1.00  0.00    -0.015 C 
HETATM   11  C21 UNL     1      -1.980  12.339   0.390  1.00  0.00     0.020 C 
HETATM   12  C22 UNL     1      -1.403  12.133   1.616  1.00  0.00    -0.026 C 
ENDROOT
BRANCH   1  13
HETATM   13  N4  UNL     1       0.718  11.897   2.736  1.00  0.00    -0.308 N 
HETATM   14  C10 UNL     1       1.857  11.249   2.165  1.00  0.00     0.325 C 
HETATM   15  N3  UNL     1       2.723  10.397   2.862  1.00  0.00    -0.306 N 
HETATM   16  O2  UNL     1       2.092  11.460   0.958  1.00  0.00    -0.247 OA
ATOM     17  H3  UNL     1       2.528  10.161   3.834  1.00  0.00     0.171 HD
ATOM     18  H4  UNL     1       0.556  11.765   3.735  1.00  0.00     0.170 HD
BRANCH  15  19
HETATM   19  C9  UNL     1       3.890   9.851   2.214  1.00  0.00     0.070 A 
HETATM   20  C8  UNL     1       3.724   8.791   1.347  1.00  0.00     0.035 A 
HETATM   21  C7  UNL     1       4.789   8.324   0.616  1.00  0.00     0.032 A 
HETATM   22  C6  UNL     1       6.068   8.894   0.715  1.00  0.00     0.039 A 
HETATM   23  C31 UNL     1       6.174   9.936   1.589  1.00  0.00     0.068 A 
HETATM   24  C29 UNL     1       5.144  10.437   2.340  1.00  0.00     0.097 A 
BRANCH  22  25
HETATM   25  N2  UNL     1       7.042   8.391  -0.143  1.00  0.00    -0.309 N 
HETATM   26  C5  UNL     1       7.774   7.191  -0.025  1.00  0.00     0.322 C 
HETATM   27  N1  UNL     1       8.760   6.853  -1.010  1.00  0.00    -0.335 N 
HETATM   28  O1  UNL     1       7.559   6.415   0.950  1.00  0.00    -0.247 OA
ATOM     29  H2  UNL     1       7.254   8.963  -0.960  1.00  0.00     0.170 HD
BRANCH  27  30
HETATM   30  C2  UNL     1       9.032   7.739  -2.116  1.00  0.00     0.123 C 
HETATM   31  C1  UNL     1      10.404   8.368  -1.968  1.00  0.00     0.026 C 
ENDBRANCH  27  30
BRANCH  27  32
HETATM   32  C3  UNL     1       9.475   5.598  -0.881  1.00  0.00     0.123 C 
HETATM   33  C4  UNL     1       8.743   4.572  -1.739  1.00  0.00     0.026 C 
ENDBRANCH  27  32
ENDBRANCH  22  25
BRANCH  24  34
HETATM   34  O3  UNL     1       5.285  11.473   3.194  1.00  0.00    -0.354 OA
HETATM   35  C30 UNL     1       5.660  12.781   2.857  1.00  0.00     0.210 C 
ENDBRANCH  24  34
ENDBRANCH  15  19
ENDBRANCH   1  13
BRANCH  12  36
HETATM   36  C23 UNL     1      -2.000  11.227   2.607  1.00  0.00     0.024 C 
HETATM   37  C24 UNL     1      -3.409  11.699   2.908  1.00  0.00     0.039 C 
HETATM   38  C25 UNL     1      -4.101  10.671   3.820  1.00  0.00     0.272 C 
HETATM   39  N7  UNL     1      -4.395   9.495   3.011  1.00  0.00     0.084 N 
HETATM   40  C26 UNL     1      -4.260   8.327   3.845  1.00  0.00     0.309 C 
HETATM   41  C27 UNL     1      -3.592   9.468   1.826  1.00  0.00     0.272 C 
HETATM   42  C28 UNL     1      -2.169   9.804   2.122  1.00  0.00     0.039 C 
ENDBRANCH  12  36
BRANCH  10  43
HETATM   43  C17 UNL     1      -1.808  12.826  -2.019  1.00  0.00     0.041 C 
HETATM   44  C18 UNL     1      -2.938  13.496  -2.759  1.00  0.00     0.026 C 
HETATM   45  C19 UNL     1      -2.148  11.324  -2.006  1.00  0.00     0.026 C 
BRANCH  43  46
HETATM   46  C20 UNL     1      -0.523  12.910  -2.831  1.00  0.00     0.365 C 
HETATM   47  F1  UNL     1       0.554  12.322  -2.213  1.00  0.00    -0.213 F 
HETATM   48  F2  UNL     1      -0.732  12.281  -4.077  1.00  0.00    -0.213 F 
ENDBRANCH  43  46
ENDBRANCH  10  43
TORSDOF 9
ENDMDL
