MODEL 1
REMARK VINA RESULT: -5.611489582      0.000      0.000
REMARK  11 active torsions:
REMARK  status: ('A' for Active; 'I' for Inactive)
REMARK    1  A    between atoms: C3_3  and  O1_4 
REMARK    2  A    between atoms: O1_4  and  C4_5 
REMARK    3  A    between atoms: C7_9  and  O2_10 
REMARK    4  A    between atoms: C9_14  and  C10_15 
REMARK    5  A    between atoms: C16_23  and  O5_24 
REMARK    6  A    between atoms: C17_26  and  C18_27 
REMARK    7  A    between atoms: C18_27  and  C19_28 
REMARK    8  A    between atoms: C20_29  and  C22_31 
REMARK    9  A    between atoms: C22_31  and  C23_32 
REMARK   10  A    between atoms: C23_32  and  C24_33 
REMARK   11  A    between atoms: C28_37  and  O6_38 
ROOT
HETATM    1  C1  UNL     1       1.727  13.604  -0.450  1.00  0.00     0.019 C 
HETATM    2  C2  UNL     1       2.299  12.522   0.044  1.00  0.00    -0.033 C 
HETATM    3  C3  UNL     1       2.988  11.397  -0.732  1.00  0.00     0.166 C 
HETATM    4  C6  UNL     1       4.046  10.959   0.166  1.00  0.00     0.127 C 
HETATM    5  C7  UNL     1       4.191   9.458   0.401  1.00  0.00     0.206 C 
HETATM    6  O3  UNL     1       2.922   9.174   0.896  1.00  0.00    -0.341 OA
HETATM    7  C8  UNL     1       2.704  10.089   1.913  1.00  0.00     0.170 A 
HETATM    8  C9  UNL     1       1.500  10.982   1.780  1.00  0.00     0.049 A 
HETATM    9  C12 UNL     1       2.388  12.177   1.485  1.00  0.00     0.103 A 
HETATM   10 CL1  UNL     1       2.256  13.522   2.604  1.00  0.00    -0.110 Cl
HETATM   11  C13 UNL     1       3.530  11.304   1.550  1.00  0.00     0.132 A 
HETATM   12  O4  UNL     1       4.591  11.453   2.409  1.00  0.00    -0.334 OA
HETATM   13  C14 UNL     1       5.423  10.297   2.449  1.00  0.00     0.087 A 
HETATM   14  C15 UNL     1       6.387  10.152   3.415  1.00  0.00     0.074 A 
HETATM   15  C16 UNL     1       7.187   8.998   3.423  1.00  0.00     0.077 A 
HETATM   16  C17 UNL     1       7.012   8.012   2.471  1.00  0.00     0.012 A 
HETATM   17  C28 UNL     1       6.035   8.199   1.524  1.00  0.00     0.089 A 
HETATM   18  C29 UNL     1       5.226   9.343   1.495  1.00  0.00     0.071 A 
ENDROOT
BRANCH  16  19
HETATM   19  C18 UNL     1       7.896   6.832   2.557  1.00  0.00     0.072 C 
BRANCH  19  20
HETATM   20  C19 UNL     1       8.991   6.808   1.560  1.00  0.00    -0.020 C 
HETATM   21  C20 UNL     1      10.189   6.308   1.780  1.00  0.00    -0.087 C 
HETATM   22  C21 UNL     1      10.510   5.724   3.103  1.00  0.00     0.043 C 
BRANCH  21  23
HETATM   23  C22 UNL     1      11.198   6.346   0.677  1.00  0.00     0.037 C 
BRANCH  23  24
HETATM   24  C23 UNL     1      10.492   6.276  -0.669  1.00  0.00     0.031 C 
BRANCH  24  25
HETATM   25  C24 UNL     1      10.694   4.916  -1.269  1.00  0.00    -0.024 C 
HETATM   26  C25 UNL     1       9.571   4.257  -1.609  1.00  0.00    -0.091 C 
HETATM   27  C26 UNL     1       8.222   4.798  -1.419  1.00  0.00     0.042 C 
HETATM   28  C27 UNL     1       9.737   2.895  -2.204  1.00  0.00     0.042 C 
ENDBRANCH  24  25
ENDBRANCH  23  24
ENDBRANCH  21  23
ENDBRANCH  19  20
ENDBRANCH  16  19
BRANCH  15  29
HETATM   29  O5  UNL     1       8.154   8.847   4.392  1.00  0.00    -0.360 OA
ATOM     30  H5  UNL     1       9.030   8.579   4.142  1.00  0.00     0.217 HD
ENDBRANCH  15  29
BRANCH  17  31
HETATM   31  O6  UNL     1       5.851   7.214   0.561  1.00  0.00    -0.359 OA
ATOM     32  H6  UNL     1       5.416   6.409   0.817  1.00  0.00     0.217 HD
ENDBRANCH  17  31
BRANCH   5  33
HETATM   33  O2  UNL     1       4.542   8.749  -0.707  1.00  0.00    -0.361 OA
ATOM     34  H2  UNL     1       3.820   8.291  -1.122  1.00  0.00     0.213 HD
ENDBRANCH   5  33
BRANCH   3  35
HETATM   35  O1  UNL     1       2.030  10.478  -1.140  1.00  0.00    -0.365 OA
BRANCH  35  36
HETATM   36  C4  UNL     1       1.576  10.773  -2.431  1.00  0.00     0.189 C 
HETATM   37  C5  UNL     1       0.386   9.892  -2.797  1.00  0.00     0.052 C 
HETATM   38 BR1  UNL     1       2.954  10.654  -3.728  1.00  0.00    -0.062 Br
ENDBRANCH  35  36
ENDBRANCH   3  35
BRANCH   8  39
HETATM   39  C10 UNL     1       0.739  11.176   3.093  1.00  0.00     0.005 C 
HETATM   40  C11 UNL     1      -0.729  11.446   2.823  1.00  0.00     0.005 C 
ENDBRANCH   8  39
TORSDOF 11
ENDMDL
MODEL 2
REMARK VINA RESULT: -5.538389666      3.886      6.692
REMARK  11 active torsions:
REMARK  status: ('A' for Active; 'I' for Inactive)
REMARK    1  A    between atoms: C3_3  and  O1_4 
REMARK    2  A    between atoms: O1_4  and  C4_5 
REMARK    3  A    between atoms: C7_9  and  O2_10 
REMARK    4  A    between atoms: C9_14  and  C10_15 
REMARK    5  A    between atoms: C16_23  and  O5_24 
REMARK    6  A    between atoms: C17_26  and  C18_27 
REMARK    7  A    between atoms: C18_27  and  C19_28 
REMARK    8  A    between atoms: C20_29  and  C22_31 
REMARK    9  A    between atoms: C22_31  and  C23_32 
REMARK   10  A    between atoms: C23_32  and  C24_33 
REMARK   11  A    between atoms: C28_37  and  O6_38 
ROOT
HETATM    1  C1  UNL     1       5.178   9.443   3.233  1.00  0.00     0.019 C 
HETATM    2  C2  UNL     1       6.145   8.911   2.510  1.00  0.00    -0.033 C 
HETATM    3  C3  UNL     1       7.441   8.272   3.014  1.00  0.00     0.166 C 
HETATM    4  C6  UNL     1       7.709   7.227   2.038  1.00  0.00     0.127 C 
HETATM    5  C7  UNL     1       9.125   7.139   1.475  1.00  0.00     0.206 C 
HETATM    6  O3  UNL     1       9.241   8.415   0.933  1.00  0.00    -0.341 OA
HETATM    7  C8  UNL     1       8.115   8.591   0.145  1.00  0.00     0.170 A 
HETATM    8  C9  UNL     1       7.227   9.760   0.476  1.00  0.00     0.049 A 
HETATM    9  C12 UNL     1       6.164   8.827   1.028  1.00  0.00     0.103 A 
HETATM   10 CL1  UNL     1       4.599   8.900   0.236  1.00  0.00    -0.110 Cl
HETATM   11  C13 UNL     1       7.045   7.719   0.766  1.00  0.00     0.132 A 
HETATM   12  O4  UNL     1       6.751   6.649  -0.041  1.00  0.00    -0.334 OA
HETATM   13  C14 UNL     1       7.900   5.862  -0.338  1.00  0.00     0.087 A 
HETATM   14  C15 UNL     1       7.865   4.899  -1.316  1.00  0.00     0.074 A 
HETATM   15  C16 UNL     1       9.019   4.145  -1.582  1.00  0.00     0.077 A 
HETATM   16  C17 UNL     1      10.185   4.363  -0.873  1.00  0.00     0.012 A 
HETATM   17  C28 UNL     1      10.174   5.339   0.095  1.00  0.00     0.089 A 
HETATM   18  C29 UNL     1       9.035   6.102   0.380  1.00  0.00     0.071 A 
ENDROOT
BRANCH  16  19
HETATM   19  C18 UNL     1      11.350   3.526  -1.222  1.00  0.00     0.072 C 
BRANCH  19  20
HETATM   20  C19 UNL     1      12.316   4.168  -2.144  1.00  0.00    -0.020 C 
HETATM   21  C20 UNL     1      12.595   3.732  -3.354  1.00  0.00    -0.087 C 
HETATM   22  C21 UNL     1      11.923   2.516  -3.870  1.00  0.00     0.043 C 
BRANCH  21  23
HETATM   23  C22 UNL     1      13.589   4.484  -4.179  1.00  0.00     0.037 C 
BRANCH  23  24
HETATM   24  C23 UNL     1      13.165   5.941  -4.294  1.00  0.00     0.031 C 
BRANCH  24  25
HETATM   25  C24 UNL     1      11.970   6.043  -5.195  1.00  0.00    -0.024 C 
HETATM   26  C25 UNL     1      10.895   6.657  -4.668  1.00  0.00    -0.091 C 
HETATM   27  C26 UNL     1      10.855   7.201  -3.308  1.00  0.00     0.042 C 
HETATM   28  C27 UNL     1       9.683   6.770  -5.537  1.00  0.00     0.042 C 
ENDBRANCH  24  25
ENDBRANCH  23  24
ENDBRANCH  21  23
ENDBRANCH  19  20
ENDBRANCH  16  19
BRANCH  15  29
HETATM   29  O5  UNL     1       8.989   3.179  -2.563  1.00  0.00    -0.360 OA
ATOM     30  H5  UNL     1       9.734   2.600  -2.675  1.00  0.00     0.217 HD
ENDBRANCH  15  29
BRANCH  17  31
HETATM   31  O6  UNL     1      11.341   5.567   0.814  1.00  0.00    -0.359 OA
ATOM     32  H6  UNL     1      11.266   5.842   1.720  1.00  0.00     0.217 HD
ENDBRANCH  17  31
BRANCH   5  33
HETATM   33  O2  UNL     1      10.075   6.823   2.396  1.00  0.00    -0.361 OA
ATOM     34  H2  UNL     1      10.791   7.446   2.449  1.00  0.00     0.213 HD
ENDBRANCH   5  33
BRANCH   3  35
HETATM   35  O1  UNL     1       8.389   9.267   3.210  1.00  0.00    -0.365 OA
BRANCH  35  36
HETATM   36  C4  UNL     1       8.671   9.423   4.572  1.00  0.00     0.189 C 
HETATM   37  C5  UNL     1       8.067  10.720   5.101  1.00  0.00     0.052 C 
HETATM   38 BR1  UNL     1      10.527   9.319   4.944  1.00  0.00    -0.062 Br
ENDBRANCH  35  36
ENDBRANCH   3  35
BRANCH   8  39
HETATM   39  C10 UNL     1       6.716  10.504  -0.759  1.00  0.00     0.005 C 
HETATM   40  C11 UNL     1       7.540  10.138  -1.979  1.00  0.00     0.005 C 
ENDBRANCH   8  39
TORSDOF 11
ENDMDL
MODEL 3
REMARK VINA RESULT: -5.496152105      3.402      6.088
REMARK  11 active torsions:
REMARK  status: ('A' for Active; 'I' for Inactive)
REMARK    1  A    between atoms: C3_3  and  O1_4 
REMARK    2  A    between atoms: O1_4  and  C4_5 
REMARK    3  A    between atoms: C7_9  and  O2_10 
REMARK    4  A    between atoms: C9_14  and  C10_15 
REMARK    5  A    between atoms: C16_23  and  O5_24 
REMARK    6  A    between atoms: C17_26  and  C18_27 
REMARK    7  A    between atoms: C18_27  and  C19_28 
REMARK    8  A    between atoms: C20_29  and  C22_31 
REMARK    9  A    between atoms: C22_31  and  C23_32 
REMARK   10  A    between atoms: C23_32  and  C24_33 
REMARK   11  A    between atoms: C28_37  and  O6_38 
ROOT
HETATM    1  C1  UNL     1      -5.344  13.415   1.739  1.00  0.00     0.019 C 
HETATM    2  C2  UNL     1      -4.235  12.752   1.476  1.00  0.00    -0.033 C 
HETATM    3  C3  UNL     1      -3.260  12.988   0.320  1.00  0.00     0.166 C 
HETATM    4  C6  UNL     1      -1.967  12.635   0.884  1.00  0.00     0.127 C 
HETATM    5  C7  UNL     1      -1.069  11.714   0.062  1.00  0.00     0.206 C 
HETATM    6  O3  UNL     1      -1.913  10.615  -0.063  1.00  0.00    -0.341 OA
HETATM    7  C8  UNL     1      -2.337  10.320   1.223  1.00  0.00     0.170 A 
HETATM    8  C9  UNL     1      -3.821  10.332   1.472  1.00  0.00     0.049 A 
HETATM    9  C12 UNL     1      -3.702  11.616   2.271  1.00  0.00     0.103 A 
HETATM   10 CL1  UNL     1      -4.239  11.531   3.940  1.00  0.00    -0.110 Cl
HETATM   11  C13 UNL     1      -2.293  11.633   1.975  1.00  0.00     0.132 A 
HETATM   12  O4  UNL     1      -1.289  11.631   2.911  1.00  0.00    -0.334 OA
HETATM   13  C14 UNL     1      -0.014  11.362   2.337  1.00  0.00     0.087 A 
HETATM   14  C15 UNL     1       1.073  11.078   3.128  1.00  0.00     0.074 A 
HETATM   15  C16 UNL     1       2.314  10.815   2.526  1.00  0.00     0.077 A 
HETATM   16  C17 UNL     1       2.450  10.839   1.150  1.00  0.00     0.012 A 
HETATM   17  C28 UNL     1       1.336  11.127   0.400  1.00  0.00     0.089 A 
HETATM   18  C29 UNL     1       0.088  11.394   0.978  1.00  0.00     0.071 A 
ENDROOT
BRANCH  16  19
HETATM   19  C18 UNL     1       3.791  10.549   0.604  1.00  0.00     0.072 C 
BRANCH  19  20
HETATM   20  C19 UNL     1       4.297   9.189   0.904  1.00  0.00    -0.020 C 
HETATM   21  C20 UNL     1       5.503   8.759   0.599  1.00  0.00    -0.087 C 
HETATM   22  C21 UNL     1       6.451   9.660  -0.096  1.00  0.00     0.043 C 
BRANCH  21  23
HETATM   23  C22 UNL     1       5.882   7.360   0.968  1.00  0.00     0.037 C 
BRANCH  23  24
HETATM   24  C23 UNL     1       7.114   7.379   1.861  1.00  0.00     0.031 C 
BRANCH  24  25
HETATM   25  C24 UNL     1       6.773   8.031   3.169  1.00  0.00    -0.024 C 
HETATM   26  C25 UNL     1       7.622   8.989   3.581  1.00  0.00    -0.091 C 
HETATM   27  C26 UNL     1       8.814   9.396   2.832  1.00  0.00     0.042 C 
HETATM   28  C27 UNL     1       7.314   9.654   4.884  1.00  0.00     0.042 C 
ENDBRANCH  24  25
ENDBRANCH  23  24
ENDBRANCH  21  23
ENDBRANCH  19  20
ENDBRANCH  16  19
BRANCH  15  29
HETATM   29  O5  UNL     1       3.405  10.529   3.315  1.00  0.00    -0.360 OA
ATOM     30  H5  UNL     1       4.265  10.840   3.057  1.00  0.00     0.217 HD
ENDBRANCH  15  29
BRANCH  17  31
HETATM   31  O6  UNL     1       1.462  11.153  -0.984  1.00  0.00    -0.359 OA
ATOM     32  H6  UNL     1       0.807  11.621  -1.488  1.00  0.00     0.217 HD
ENDBRANCH  17  31
BRANCH   5  33
HETATM   33  O2  UNL     1      -0.651  12.248  -1.118  1.00  0.00    -0.361 OA
ATOM     34  H2  UNL     1       0.166  11.886  -1.442  1.00  0.00     0.213 HD
ENDBRANCH   5  33
BRANCH   3  35
HETATM   35  O1  UNL     1      -3.714  12.305  -0.800  1.00  0.00    -0.365 OA
BRANCH  35  36
HETATM   36  C4  UNL     1      -4.275  13.189  -1.729  1.00  0.00     0.189 C 
HETATM   37  C5  UNL     1      -5.725  12.816  -2.019  1.00  0.00     0.052 C 
HETATM   38 BR1  UNL     1      -3.256  13.307  -3.323  1.00  0.00    -0.062 Br
ENDBRANCH  35  36
ENDBRANCH   3  35
BRANCH   8  39
HETATM   39  C10 UNL     1      -4.298   9.179   2.356  1.00  0.00     0.005 C 
HETATM   40  C11 UNL     1      -3.122   8.337   2.814  1.00  0.00     0.005 C 
ENDBRANCH   8  39
TORSDOF 11
ENDMDL
MODEL 4
REMARK VINA RESULT: -5.458119689      1.223      1.964
REMARK  11 active torsions:
REMARK  status: ('A' for Active; 'I' for Inactive)
REMARK    1  A    between atoms: C3_3  and  O1_4 
REMARK    2  A    between atoms: O1_4  and  C4_5 
REMARK    3  A    between atoms: C7_9  and  O2_10 
REMARK    4  A    between atoms: C9_14  and  C10_15 
REMARK    5  A    between atoms: C16_23  and  O5_24 
REMARK    6  A    between atoms: C17_26  and  C18_27 
REMARK    7  A    between atoms: C18_27  and  C19_28 
REMARK    8  A    between atoms: C20_29  and  C22_31 
REMARK    9  A    between atoms: C22_31  and  C23_32 
REMARK   10  A    between atoms: C23_32  and  C24_33 
REMARK   11  A    between atoms: C28_37  and  O6_38 
ROOT
HETATM    1  C1  UNL     1       1.601  13.648  -0.587  1.00  0.00     0.019 C 
HETATM    2  C2  UNL     1       2.164  12.584  -0.049  1.00  0.00    -0.033 C 
HETATM    3  C3  UNL     1       2.864  11.432  -0.775  1.00  0.00     0.166 C 
HETATM    4  C6  UNL     1       3.907  11.025   0.153  1.00  0.00     0.127 C 
HETATM    5  C7  UNL     1       4.048   9.533   0.441  1.00  0.00     0.206 C 
HETATM    6  O3  UNL     1       2.771   9.266   0.926  1.00  0.00    -0.341 OA
HETATM    7  C8  UNL     1       2.538  10.215   1.908  1.00  0.00     0.170 A 
HETATM    8  C9  UNL     1       1.336  11.104   1.726  1.00  0.00     0.049 A 
HETATM    9  C12 UNL     1       2.231  12.287   1.405  1.00  0.00     0.103 A 
HETATM   10 CL1  UNL     1       2.082  13.670   2.476  1.00  0.00    -0.110 Cl
HETATM   11  C13 UNL     1       3.371  11.417   1.517  1.00  0.00     0.132 A 
HETATM   12  O4  UNL     1       4.418  11.594   2.387  1.00  0.00    -0.334 OA
HETATM   13  C14 UNL     1       5.248  10.440   2.478  1.00  0.00     0.087 A 
HETATM   14  C15 UNL     1       6.197  10.327   3.464  1.00  0.00     0.074 A 
HETATM   15  C16 UNL     1       6.996   9.174   3.523  1.00  0.00     0.077 A 
HETATM   16  C17 UNL     1       6.835   8.156   2.602  1.00  0.00     0.012 A 
HETATM   17  C28 UNL     1       5.873   8.312   1.634  1.00  0.00     0.089 A 
HETATM   18  C29 UNL     1       5.065   9.454   1.554  1.00  0.00     0.071 A 
ENDROOT
BRANCH  16  19
HETATM   19  C18 UNL     1       7.716   6.979   2.742  1.00  0.00     0.072 C 
BRANCH  19  20
HETATM   20  C19 UNL     1       8.954   7.036   1.930  1.00  0.00    -0.020 C 
HETATM   21  C20 UNL     1       9.203   6.259   0.897  1.00  0.00    -0.087 C 
HETATM   22  C21 UNL     1       8.209   5.241   0.485  1.00  0.00     0.043 C 
BRANCH  21  23
HETATM   23  C22 UNL     1      10.495   6.431   0.163  1.00  0.00     0.037 C 
BRANCH  23  24
HETATM   24  C23 UNL     1      10.646   7.878  -0.281  1.00  0.00     0.031 C 
BRANCH  24  25
HETATM   25  C24 UNL     1       9.509   8.244  -1.189  1.00  0.00    -0.024 C 
HETATM   26  C25 UNL     1       8.825   9.351  -0.848  1.00  0.00    -0.091 C 
HETATM   27  C26 UNL     1       9.137  10.170   0.327  1.00  0.00     0.042 C 
HETATM   28  C27 UNL     1       7.681   9.739  -1.729  1.00  0.00     0.042 C 
ENDBRANCH  24  25
ENDBRANCH  23  24
ENDBRANCH  21  23
ENDBRANCH  19  20
ENDBRANCH  16  19
BRANCH  15  29
HETATM   29  O5  UNL     1       7.948   9.056   4.511  1.00  0.00    -0.360 OA
ATOM     30  H5  UNL     1       8.235   8.192   4.785  1.00  0.00     0.217 HD
ENDBRANCH  15  29
BRANCH  17  31
HETATM   31  O6  UNL     1       5.702   7.294   0.703  1.00  0.00    -0.359 OA
ATOM     32  H6  UNL     1       5.812   7.502  -0.217  1.00  0.00     0.217 HD
ENDBRANCH  17  31
BRANCH   5  33
HETATM   33  O2  UNL     1       4.414   8.787  -0.637  1.00  0.00    -0.361 OA
ATOM     34  H2  UNL     1       4.984   8.055  -0.429  1.00  0.00     0.213 HD
ENDBRANCH   5  33
BRANCH   3  35
HETATM   35  O1  UNL     1       1.912  10.501  -1.167  1.00  0.00    -0.365 OA
BRANCH  35  36
HETATM   36  C4  UNL     1       1.487  10.745  -2.478  1.00  0.00     0.189 C 
HETATM   37  C5  UNL     1       0.309   9.845  -2.838  1.00  0.00     0.052 C 
HETATM   38 BR1  UNL     1       2.895  10.584  -3.737  1.00  0.00    -0.062 Br
ENDBRANCH  35  36
ENDBRANCH   3  35
BRANCH   8  39
HETATM   39  C10 UNL     1       0.556  11.342   3.020  1.00  0.00     0.005 C 
HETATM   40  C11 UNL     1      -0.913  11.576   2.721  1.00  0.00     0.005 C 
ENDBRANCH   8  39
TORSDOF 11
ENDMDL
MODEL 5
REMARK VINA RESULT: -5.416545504      3.378      5.538
REMARK  11 active torsions:
REMARK  status: ('A' for Active; 'I' for Inactive)
REMARK    1  A    between atoms: C3_3  and  O1_4 
REMARK    2  A    between atoms: O1_4  and  C4_5 
REMARK    3  A    between atoms: C7_9  and  O2_10 
REMARK    4  A    between atoms: C9_14  and  C10_15 
REMARK    5  A    between atoms: C16_23  and  O5_24 
REMARK    6  A    between atoms: C17_26  and  C18_27 
REMARK    7  A    between atoms: C18_27  and  C19_28 
REMARK    8  A    between atoms: C20_29  and  C22_31 
REMARK    9  A    between atoms: C22_31  and  C23_32 
REMARK   10  A    between atoms: C23_32  and  C24_33 
REMARK   11  A    between atoms: C28_37  and  O6_38 
ROOT
HETATM    1  C1  UNL     1      -5.296  13.387   1.738  1.00  0.00     0.019 C 
HETATM    2  C2  UNL     1      -4.180  12.735   1.478  1.00  0.00    -0.033 C 
HETATM    3  C3  UNL     1      -3.199  12.987   0.331  1.00  0.00     0.166 C 
HETATM    4  C6  UNL     1      -1.907  12.640   0.902  1.00  0.00     0.127 C 
HETATM    5  C7  UNL     1      -0.996  11.732   0.080  1.00  0.00     0.206 C 
HETATM    6  O3  UNL     1      -1.830  10.627  -0.059  1.00  0.00    -0.341 OA
HETATM    7  C8  UNL     1      -2.261  10.320   1.222  1.00  0.00     0.170 A 
HETATM    8  C9  UNL     1      -3.747  10.318   1.460  1.00  0.00     0.049 A 
HETATM    9  C12 UNL     1      -3.643  11.598   2.269  1.00  0.00     0.103 A 
HETATM   10 CL1  UNL     1      -4.193  11.496   3.933  1.00  0.00    -0.110 Cl
HETATM   11  C13 UNL     1      -2.233  11.628   1.984  1.00  0.00     0.132 A 
HETATM   12  O4  UNL     1      -1.236  11.628   2.927  1.00  0.00    -0.334 OA
HETATM   13  C14 UNL     1       0.046  11.373   2.361  1.00  0.00     0.087 A 
HETATM   14  C15 UNL     1       1.129  11.092   3.157  1.00  0.00     0.074 A 
HETATM   15  C16 UNL     1       2.376  10.844   2.562  1.00  0.00     0.077 A 
HETATM   16  C17 UNL     1       2.522  10.878   1.188  1.00  0.00     0.012 A 
HETATM   17  C28 UNL     1       1.411  11.162   0.432  1.00  0.00     0.089 A 
HETATM   18  C29 UNL     1       0.157  11.415   1.002  1.00  0.00     0.071 A 
ENDROOT
BRANCH  16  19
HETATM   19  C18 UNL     1       3.869  10.602   0.650  1.00  0.00     0.072 C 
BRANCH  19  20
HETATM   20  C19 UNL     1       4.248   9.170   0.642  1.00  0.00    -0.020 C 
HETATM   21  C20 UNL     1       5.416   8.706   1.034  1.00  0.00    -0.087 C 
HETATM   22  C21 UNL     1       6.455   9.644   1.519  1.00  0.00     0.043 C 
BRANCH  21  23
HETATM   23  C22 UNL     1       5.660   7.231   0.977  1.00  0.00     0.037 C 
BRANCH  23  24
HETATM   24  C23 UNL     1       7.153   6.953   1.060  1.00  0.00     0.031 C 
BRANCH  24  25
HETATM   25  C24 UNL     1       7.486   5.757   0.218  1.00  0.00    -0.024 C 
HETATM   26  C25 UNL     1       8.249   6.000  -0.863  1.00  0.00    -0.091 C 
HETATM   27  C26 UNL     1       8.740   7.332  -1.229  1.00  0.00     0.042 C 
HETATM   28  C27 UNL     1       8.593   4.830  -1.728  1.00  0.00     0.042 C 
ENDBRANCH  24  25
ENDBRANCH  23  24
ENDBRANCH  21  23
ENDBRANCH  19  20
ENDBRANCH  16  19
BRANCH  15  29
HETATM   29  O5  UNL     1       3.464  10.561   3.357  1.00  0.00    -0.360 OA
ATOM     30  H5  UNL     1       4.137   9.971   3.038  1.00  0.00     0.217 HD
ENDBRANCH  15  29
BRANCH  17  31
HETATM   31  O6  UNL     1       1.547  11.199  -0.951  1.00  0.00    -0.359 OA
ATOM     32  H6  UNL     1       0.768  11.095  -1.484  1.00  0.00     0.217 HD
ENDBRANCH  17  31
BRANCH   5  33
HETATM   33  O2  UNL     1      -0.574  12.277  -1.093  1.00  0.00    -0.361 OA
ATOM     34  H2  UNL     1       0.273  11.962  -1.388  1.00  0.00     0.213 HD
ENDBRANCH   5  33
BRANCH   3  35
HETATM   35  O1  UNL     1      -3.639  12.307  -0.797  1.00  0.00    -0.365 OA
BRANCH  35  36
HETATM   36  C4  UNL     1      -4.199  13.194  -1.724  1.00  0.00     0.189 C 
HETATM   37  C5  UNL     1      -5.649  12.821  -2.017  1.00  0.00     0.052 C 
HETATM   38 BR1  UNL     1      -3.178  13.316  -3.317  1.00  0.00    -0.062 Br
ENDBRANCH  35  36
ENDBRANCH   3  35
BRANCH   8  39
HETATM   39  C10 UNL     1      -4.221   9.155   2.334  1.00  0.00     0.005 C 
HETATM   40  C11 UNL     1      -3.039   8.332   2.811  1.00  0.00     0.005 C 
ENDBRANCH   8  39
TORSDOF 11
ENDMDL
