MODEL 1
REMARK VINA RESULT: -7.084885581      0.000      0.000
REMARK  8 active torsions:
REMARK  status: ('A' for Active; 'I' for Inactive)
REMARK    1  A    between atoms: O1_2  and  N1_3 
REMARK    2  A    between atoms: C2_5  and  C3_7 
REMARK    3  A    between atoms: C9_15  and  C10_16 
REMARK    4  A    between atoms: C15_22  and  C16_23 
REMARK    5  A    between atoms: C24_31  and  C25_32 
REMARK    6  A    between atoms: C25_32  and  C26_33 
REMARK    7  A    between atoms: C26_33  and  N3_34 
REMARK    8  A    between atoms: N3_34  and  C27_36 
ROOT
HETATM    1  C3  UNL     1      -2.715  11.327   2.668  1.00  0.00     0.034 A 
HETATM    2  C4  UNL     1      -1.579  10.556   2.842  1.00  0.00     0.054 A 
HETATM    3  C5  UNL     1      -0.318  10.961   2.480  1.00  0.00     0.080 A 
HETATM    4  C6  UNL     1      -0.149  12.229   1.895  1.00  0.00     0.025 A 
HETATM    5  C7  UNL     1      -1.247  13.006   1.711  1.00  0.00     0.148 A 
HETATM    6  F1  UNL     1      -1.099  14.245   1.141  1.00  0.00    -0.204 F 
HETATM    7  C8  UNL     1      -2.503  12.561   2.090  1.00  0.00     0.086 A 
HETATM    8 CL1  UNL     1      -3.885  13.602   1.832  1.00  0.00    -0.080 Cl
HETATM    9  C9  UNL     1       1.250  12.585   1.545  1.00  0.00     0.067 C 
HETATM   10  C14 UNL     1       2.064  12.160   2.781  1.00  0.00     0.052 C 
HETATM   11  C15 UNL     1       2.061  10.686   2.984  1.00  0.00     0.163 C 
HETATM   12  O2  UNL     1       0.802  10.153   2.674  1.00  0.00    -0.341 OA
ENDROOT
BRANCH  11  13
HETATM   13  C16 UNL     1       3.166   9.962   2.347  1.00  0.00    -0.028 A 
HETATM   14  C17 UNL     1       3.023   9.445   1.084  1.00  0.00     0.012 A 
HETATM   15  C18 UNL     1       4.046   8.752   0.454  1.00  0.00     0.030 A 
HETATM   16  C19 UNL     1       5.259   8.563   1.101  1.00  0.00     0.034 A 
HETATM   17  C20 UNL     1       5.405   9.081   2.368  1.00  0.00    -0.031 A 
HETATM   18  N4  UNL     1       6.325   7.865   0.524  1.00  0.00    -0.385 N 
HETATM   19  C21 UNL     1       4.359   9.779   2.987  1.00  0.00     0.019 A 
HETATM   20  C22 UNL     1       6.705   8.886   3.051  1.00  0.00     0.043 C 
HETATM   21  C23 UNL     1       7.371   7.591   2.743  1.00  0.00     0.030 C 
HETATM   22  C24 UNL     1       7.226   7.098   1.343  1.00  0.00     0.083 C 
ATOM     23  H4  UNL     1       6.465   7.901  -0.486  1.00  0.00     0.160 HD
BRANCH  22  24
HETATM   24  C25 UNL     1       8.549   6.810   0.664  1.00  0.00     0.044 C 
BRANCH  24  25
HETATM   25  C26 UNL     1       8.979   5.390   0.772  1.00  0.00     0.116 C 
BRANCH  25  26
HETATM   26  N3  UNL     1      10.081   5.138  -0.121  1.00  0.00    -0.417 N 
ATOM     27  H3  UNL     1      10.994   4.829   0.213  1.00  0.00     0.153 HD
BRANCH  26  28
HETATM   28  C27 UNL     1       9.811   5.349  -1.503  1.00  0.00     0.076 C 
HETATM   29  C28 UNL     1      11.056   5.470  -2.364  1.00  0.00     0.024 C 
HETATM   30  C29 UNL     1      11.854   4.168  -2.332  1.00  0.00     0.002 C 
HETATM   31  C30 UNL     1      11.029   3.036  -2.875  1.00  0.00     0.000 C 
HETATM   32  C31 UNL     1       9.752   2.921  -2.107  1.00  0.00     0.002 C 
HETATM   33  C32 UNL     1       8.997   4.226  -2.116  1.00  0.00     0.024 C 
ENDBRANCH  26  28
ENDBRANCH  25  26
ENDBRANCH  24  25
ENDBRANCH  22  24
ENDBRANCH  11  13
BRANCH   9  34
HETATM   34  C10 UNL     1       1.491  14.043   1.381  1.00  0.00    -0.009 A 
HETATM   35  C11 UNL     1       1.672  14.995   2.347  1.00  0.00     0.016 A 
HETATM   36  C12 UNL     1       1.897  16.258   1.959  1.00  0.00     0.008 A 
HETATM   37  C13 UNL     1       1.929  16.502   0.608  1.00  0.00     0.050 A 
HETATM   38  S1  UNL     1       1.645  14.969  -0.069  1.00  0.00    -0.106 SA
ENDBRANCH   9  34
BRANCH   1  39
HETATM   39  C2  UNL     1      -4.035  10.865   3.066  1.00  0.00     0.148 C 
HETATM   40  N1  UNL     1      -4.426  10.999   4.280  1.00  0.00    -0.253 N 
ATOM     41  H1  UNL     1      -3.792  11.429   4.953  1.00  0.00     0.195 HD
HETATM   42  N2  UNL     1      -4.907  10.270   2.126  1.00  0.00    -0.080 NA
BRANCH  40  43
HETATM   43  O1  UNL     1      -5.667  10.585   4.714  1.00  0.00    -0.284 OA
HETATM   44  C1  UNL     1      -5.823   9.841   5.915  1.00  0.00     0.237 C 
ENDBRANCH  40  43
ENDBRANCH   1  39
TORSDOF 8
ENDMDL
MODEL 2
REMARK VINA RESULT: -6.806416222      2.488      3.696
REMARK  8 active torsions:
REMARK  status: ('A' for Active; 'I' for Inactive)
REMARK    1  A    between atoms: O1_2  and  N1_3 
REMARK    2  A    between atoms: C2_5  and  C3_7 
REMARK    3  A    between atoms: C9_15  and  C10_16 
REMARK    4  A    between atoms: C15_22  and  C16_23 
REMARK    5  A    between atoms: C24_31  and  C25_32 
REMARK    6  A    between atoms: C25_32  and  C26_33 
REMARK    7  A    between atoms: C26_33  and  N3_34 
REMARK    8  A    between atoms: N3_34  and  C27_36 
ROOT
HETATM    1  C3  UNL     1      -4.100  11.102   2.020  1.00  0.00     0.034 A 
HETATM    2  C4  UNL     1      -2.879  11.198   2.664  1.00  0.00     0.054 A 
HETATM    3  C5  UNL     1      -1.671  11.220   2.012  1.00  0.00     0.080 A 
HETATM    4  C6  UNL     1      -1.651  11.139   0.608  1.00  0.00     0.025 A 
HETATM    5  C7  UNL     1      -2.835  11.043  -0.050  1.00  0.00     0.148 A 
HETATM    6  F1  UNL     1      -2.832  10.962  -1.419  1.00  0.00    -0.204 F 
HETATM    7  C8  UNL     1      -4.033  11.024   0.645  1.00  0.00     0.086 A 
HETATM    8 CL1  UNL     1      -5.531  10.900  -0.251  1.00  0.00    -0.080 Cl
HETATM    9  C9  UNL     1      -0.301  11.179  -0.011  1.00  0.00     0.067 C 
HETATM   10  C14 UNL     1       0.418  12.319   0.734  1.00  0.00     0.052 C 
HETATM   11  C15 UNL     1       0.641  12.005   2.172  1.00  0.00     0.163 C 
HETATM   12  O2  UNL     1      -0.462  11.319   2.699  1.00  0.00    -0.341 OA
ENDROOT
BRANCH  11  13
HETATM   13  C16 UNL     1       1.922  11.362   2.482  1.00  0.00    -0.028 A 
HETATM   14  C17 UNL     1       1.958  10.184   3.184  1.00  0.00     0.012 A 
HETATM   15  C18 UNL     1       3.152   9.551   3.497  1.00  0.00     0.030 A 
HETATM   16  C19 UNL     1       4.359  10.109   3.101  1.00  0.00     0.034 A 
HETATM   17  C20 UNL     1       4.326  11.291   2.396  1.00  0.00    -0.031 A 
HETATM   18  N4  UNL     1       5.596   9.525   3.394  1.00  0.00    -0.385 N 
HETATM   19  C21 UNL     1       3.108  11.914   2.089  1.00  0.00     0.019 A 
HETATM   20  C22 UNL     1       5.617  11.877   1.966  1.00  0.00     0.043 C 
HETATM   21  C23 UNL     1       6.737  11.663   2.922  1.00  0.00     0.030 C 
HETATM   22  C24 UNL     1       6.755  10.346   3.622  1.00  0.00     0.083 C 
ATOM     23  H4  UNL     1       5.676   8.510   3.448  1.00  0.00     0.160 HD
BRANCH  22  24
HETATM   24  C25 UNL     1       8.059   9.593   3.456  1.00  0.00     0.044 C 
BRANCH  24  25
HETATM   25  C26 UNL     1       8.672   9.749   2.109  1.00  0.00     0.116 C 
BRANCH  25  26
HETATM   26  N3  UNL     1       8.904   8.455   1.519  1.00  0.00    -0.417 N 
ATOM     27  H3  UNL     1       9.549   8.319   0.740  1.00  0.00     0.153 HD
BRANCH  26  28
HETATM   28  C27 UNL     1       8.173   7.378   2.096  1.00  0.00     0.076 C 
HETATM   29  C28 UNL     1       7.030   6.875   1.232  1.00  0.00     0.024 C 
HETATM   30  C29 UNL     1       7.565   6.306  -0.081  1.00  0.00     0.002 C 
HETATM   31  C30 UNL     1       8.482   5.146   0.188  1.00  0.00     0.000 C 
HETATM   32  C31 UNL     1       9.588   5.571   1.099  1.00  0.00     0.002 C 
HETATM   33  C32 UNL     1       9.042   6.166   2.372  1.00  0.00     0.024 C 
ENDBRANCH  26  28
ENDBRANCH  25  26
ENDBRANCH  24  25
ENDBRANCH  22  24
ENDBRANCH  11  13
BRANCH   9  34
HETATM   34  C10 UNL     1      -0.295  11.565  -1.447  1.00  0.00    -0.009 A 
HETATM   35  C11 UNL     1      -0.116  10.769  -2.546  1.00  0.00     0.016 A 
HETATM   36  C12 UNL     1      -0.171  11.340  -3.758  1.00  0.00     0.008 A 
HETATM   37  C13 UNL     1      -0.406  12.692  -3.804  1.00  0.00     0.050 A 
HETATM   38  S1  UNL     1      -0.540  13.117  -2.163  1.00  0.00    -0.106 SA
ENDBRANCH   9  34
BRANCH   1  39
HETATM   39  C2  UNL     1      -5.361  11.084   2.745  1.00  0.00     0.148 C 
HETATM   40  N1  UNL     1      -5.583  10.184   3.630  1.00  0.00    -0.253 N 
ATOM     41  H1  UNL     1      -4.863   9.484   3.808  1.00  0.00     0.195 HD
HETATM   42  N2  UNL     1      -6.353  12.058   2.493  1.00  0.00    -0.080 NA
BRANCH  40  43
HETATM   43  O1  UNL     1      -6.756  10.121   4.352  1.00  0.00    -0.284 OA
HETATM   44  C1  UNL     1      -6.760   9.776   5.731  1.00  0.00     0.237 C 
ENDBRANCH  40  43
ENDBRANCH   1  39
TORSDOF 8
ENDMDL
MODEL 3
REMARK VINA RESULT: -6.653224172      6.760     12.421
REMARK  8 active torsions:
REMARK  status: ('A' for Active; 'I' for Inactive)
REMARK    1  A    between atoms: O1_2  and  N1_3 
REMARK    2  A    between atoms: C2_5  and  C3_7 
REMARK    3  A    between atoms: C9_15  and  C10_16 
REMARK    4  A    between atoms: C15_22  and  C16_23 
REMARK    5  A    between atoms: C24_31  and  C25_32 
REMARK    6  A    between atoms: C25_32  and  C26_33 
REMARK    7  A    between atoms: C26_33  and  N3_34 
REMARK    8  A    between atoms: N3_34  and  C27_36 
ROOT
HETATM    1  C3  UNL     1       6.116   9.494  -5.970  1.00  0.00     0.034 A 
HETATM    2  C4  UNL     1       4.798   9.408  -5.555  1.00  0.00     0.054 A 
HETATM    3  C5  UNL     1       3.916  10.459  -5.594  1.00  0.00     0.080 A 
HETATM    4  C6  UNL     1       4.355  11.703  -6.079  1.00  0.00     0.025 A 
HETATM    5  C7  UNL     1       5.643  11.817  -6.492  1.00  0.00     0.148 A 
HETATM    6  F1  UNL     1       6.088  13.024  -6.966  1.00  0.00    -0.204 F 
HETATM    7  C8  UNL     1       6.503  10.732  -6.436  1.00  0.00     0.086 A 
HETATM    8 CL1  UNL     1       8.154  10.931  -6.982  1.00  0.00    -0.080 Cl
HETATM    9  C9  UNL     1       3.329  12.778  -6.093  1.00  0.00     0.067 C 
HETATM   10  C14 UNL     1       2.077  12.091  -6.671  1.00  0.00     0.052 C 
HETATM   11  C15 UNL     1       1.543  11.033  -5.771  1.00  0.00     0.163 C 
HETATM   12  O2  UNL     1       2.594  10.330  -5.166  1.00  0.00    -0.341 OA
ENDROOT
BRANCH  11  13
HETATM   13  C16 UNL     1       0.523  11.478  -4.816  1.00  0.00    -0.028 A 
HETATM   14  C17 UNL     1      -0.199  12.621  -5.049  1.00  0.00     0.012 A 
HETATM   15  C18 UNL     1      -1.168  13.072  -4.166  1.00  0.00     0.030 A 
HETATM   16  C19 UNL     1      -1.432  12.363  -3.002  1.00  0.00     0.034 A 
HETATM   17  C20 UNL     1      -0.709  11.216  -2.765  1.00  0.00    -0.031 A 
HETATM   18  N4  UNL     1      -2.388  12.770  -2.067  1.00  0.00    -0.385 N 
HETATM   19  C21 UNL     1       0.266  10.776  -3.672  1.00  0.00     0.019 A 
HETATM   20  C22 UNL     1      -1.002  10.456  -1.527  1.00  0.00     0.043 C 
HETATM   21  C23 UNL     1      -1.373  11.302  -0.361  1.00  0.00     0.030 C 
HETATM   22  C24 UNL     1      -2.199  12.507  -0.665  1.00  0.00     0.083 C 
ATOM     23  H4  UNL     1      -3.227  13.259  -2.381  1.00  0.00     0.160 HD
BRANCH  22  24
HETATM   24  C25 UNL     1      -3.485  12.573   0.132  1.00  0.00     0.044 C 
BRANCH  24  25
HETATM   25  C26 UNL     1      -4.166  11.258   0.277  1.00  0.00     0.116 C 
BRANCH  25  26
HETATM   26  N3  UNL     1      -4.631  11.089   1.631  1.00  0.00    -0.417 N 
ATOM     27  H3  UNL     1      -5.622  11.115   1.874  1.00  0.00     0.153 HD
BRANCH  26  28
HETATM   28  C27 UNL     1      -3.615  10.883   2.607  1.00  0.00     0.076 C 
HETATM   29  C28 UNL     1      -4.129  10.847   4.035  1.00  0.00     0.024 C 
HETATM   30  C29 UNL     1      -5.081   9.668   4.229  1.00  0.00     0.002 C 
HETATM   31  C30 UNL     1      -4.368   8.372   3.965  1.00  0.00     0.000 C 
HETATM   32  C31 UNL     1      -3.776   8.386   2.593  1.00  0.00     0.002 C 
HETATM   33  C32 UNL     1      -2.871   9.577   2.407  1.00  0.00     0.024 C 
ENDBRANCH  26  28
ENDBRANCH  25  26
ENDBRANCH  24  25
ENDBRANCH  22  24
ENDBRANCH  11  13
BRANCH   9  34
HETATM   34  C10 UNL     1       3.634  13.907  -7.010  1.00  0.00    -0.009 A 
HETATM   35  C11 UNL     1       3.461  13.980  -8.366  1.00  0.00     0.016 A 
HETATM   36  C12 UNL     1       3.791  15.121  -8.987  1.00  0.00     0.008 A 
HETATM   37  C13 UNL     1       4.281  16.140  -8.208  1.00  0.00     0.050 A 
HETATM   38  S1  UNL     1       4.264  15.473  -6.644  1.00  0.00    -0.106 SA
ENDBRANCH   9  34
BRANCH   1  39
HETATM   39  C2  UNL     1       7.022   8.358  -5.916  1.00  0.00     0.148 C 
HETATM   40  N1  UNL     1       7.110   7.555  -6.911  1.00  0.00    -0.253 N 
ATOM     41  H1  UNL     1       6.531   7.730  -7.733  1.00  0.00     0.195 HD
HETATM   42  N2  UNL     1       7.821   8.124  -4.774  1.00  0.00    -0.080 NA
BRANCH  40  43
HETATM   43  O1  UNL     1       7.955   6.466  -6.919  1.00  0.00    -0.284 OA
HETATM   44  C1  UNL     1       9.177   6.480  -7.646  1.00  0.00     0.237 C 
ENDBRANCH  40  43
ENDBRANCH   1  39
TORSDOF 8
ENDMDL
MODEL 4
REMARK VINA RESULT: -6.652420329      3.654     12.672
REMARK  8 active torsions:
REMARK  status: ('A' for Active; 'I' for Inactive)
REMARK    1  A    between atoms: O1_2  and  N1_3 
REMARK    2  A    between atoms: C2_5  and  C3_7 
REMARK    3  A    between atoms: C9_15  and  C10_16 
REMARK    4  A    between atoms: C15_22  and  C16_23 
REMARK    5  A    between atoms: C24_31  and  C25_32 
REMARK    6  A    between atoms: C25_32  and  C26_33 
REMARK    7  A    between atoms: C26_33  and  N3_34 
REMARK    8  A    between atoms: N3_34  and  C27_36 
ROOT
HETATM    1  C3  UNL     1       2.848  10.705   2.367  1.00  0.00     0.034 A 
HETATM    2  C4  UNL     1       1.592  10.123   2.380  1.00  0.00     0.054 A 
HETATM    3  C5  UNL     1       0.420  10.836   2.340  1.00  0.00     0.080 A 
HETATM    4  C6  UNL     1       0.475  12.240   2.284  1.00  0.00     0.025 A 
HETATM    5  C7  UNL     1       1.694  12.838   2.272  1.00  0.00     0.148 A 
HETATM    6  F1  UNL     1       1.765  14.206   2.218  1.00  0.00    -0.204 F 
HETATM    7  C8  UNL     1       2.854  12.083   2.313  1.00  0.00     0.086 A 
HETATM    8 CL1  UNL     1       4.400  12.902   2.293  1.00  0.00    -0.080 Cl
HETATM    9  C9  UNL     1      -0.842  12.926   2.235  1.00  0.00     0.067 C 
HETATM   10  C14 UNL     1      -1.646  12.116   1.200  1.00  0.00     0.052 C 
HETATM   11  C15 UNL     1      -1.929  10.729   1.661  1.00  0.00     0.163 C 
HETATM   12  O2  UNL     1      -0.827  10.210   2.354  1.00  0.00    -0.341 OA
ENDROOT
BRANCH  11  13
HETATM   13  C16 UNL     1      -3.196  10.553   2.379  1.00  0.00    -0.028 A 
HETATM   14  C17 UNL     1      -4.375  10.988   1.829  1.00  0.00     0.012 A 
HETATM   15  C18 UNL     1      -5.589  10.840   2.482  1.00  0.00     0.030 A 
HETATM   16  C19 UNL     1      -5.638  10.238   3.732  1.00  0.00     0.034 A 
HETATM   17  C20 UNL     1      -4.456   9.800   4.286  1.00  0.00    -0.031 A 
HETATM   18  N4  UNL     1      -6.829  10.069   4.445  1.00  0.00    -0.385 N 
HETATM   19  C21 UNL     1      -3.239   9.959   3.609  1.00  0.00     0.019 A 
HETATM   20  C22 UNL     1      -4.515   9.148   5.615  1.00  0.00     0.043 C 
HETATM   21  C23 UNL     1      -5.551   9.705   6.527  1.00  0.00     0.030 C 
HETATM   22  C24 UNL     1      -6.832  10.118   5.883  1.00  0.00     0.083 C 
ATOM     23  H4  UNL     1      -7.701   9.910   3.942  1.00  0.00     0.160 HD
BRANCH  22  24
HETATM   24  C25 UNL     1      -8.053   9.465   6.498  1.00  0.00     0.044 C 
BRANCH  24  25
HETATM   25  C26 UNL     1      -8.076   9.522   7.985  1.00  0.00     0.116 C 
BRANCH  25  26
HETATM   26  N3  UNL     1      -8.412   8.228   8.524  1.00  0.00    -0.417 N 
ATOM     27  H3  UNL     1      -7.871   7.391   8.306  1.00  0.00     0.153 HD
BRANCH  26  28
HETATM   28  C27 UNL     1      -9.548   8.196   9.381  1.00  0.00     0.076 C 
HETATM   29  C28 UNL     1     -10.845   8.600   8.703  1.00  0.00     0.024 C 
HETATM   30  C29 UNL     1     -11.189   7.618   7.585  1.00  0.00     0.002 C 
HETATM   31  C30 UNL     1     -11.375   6.235   8.143  1.00  0.00     0.000 C 
HETATM   32  C31 UNL     1     -10.149   5.817   8.888  1.00  0.00     0.002 C 
HETATM   33  C32 UNL     1      -9.801   6.818   9.961  1.00  0.00     0.024 C 
ENDBRANCH  26  28
ENDBRANCH  25  26
ENDBRANCH  24  25
ENDBRANCH  22  24
ENDBRANCH  11  13
BRANCH   9  34
HETATM   34  C10 UNL     1      -0.791  14.317   1.712  1.00  0.00    -0.009 A 
HETATM   35  C11 UNL     1      -0.689  14.740   0.414  1.00  0.00     0.016 A 
HETATM   36  C12 UNL     1      -0.683  16.059   0.177  1.00  0.00     0.008 A 
HETATM   37  C13 UNL     1      -0.782  16.893   1.263  1.00  0.00     0.050 A 
HETATM   38  S1  UNL     1      -0.879  15.812   2.572  1.00  0.00    -0.106 SA
ENDBRANCH   9  34
BRANCH   1  39
HETATM   39  C2  UNL     1       4.069   9.916   2.408  1.00  0.00     0.148 C 
HETATM   40  N1  UNL     1       4.527   9.381   1.337  1.00  0.00    -0.253 N 
ATOM     41  H1  UNL     1       4.016   9.517   0.465  1.00  0.00     0.195 HD
HETATM   42  N2  UNL     1       4.771   9.734   3.621  1.00  0.00    -0.080 NA
BRANCH  40  43
HETATM   43  O1  UNL     1       5.682   8.628   1.314  1.00  0.00    -0.284 OA
HETATM   44  C1  UNL     1       6.598   8.708   0.230  1.00  0.00     0.237 C 
ENDBRANCH  40  43
ENDBRANCH   1  39
TORSDOF 8
ENDMDL
MODEL 5
REMARK VINA RESULT: -6.636108201      0.952      1.253
REMARK  8 active torsions:
REMARK  status: ('A' for Active; 'I' for Inactive)
REMARK    1  A    between atoms: O1_2  and  N1_3 
REMARK    2  A    between atoms: C2_5  and  C3_7 
REMARK    3  A    between atoms: C9_15  and  C10_16 
REMARK    4  A    between atoms: C15_22  and  C16_23 
REMARK    5  A    between atoms: C24_31  and  C25_32 
REMARK    6  A    between atoms: C25_32  and  C26_33 
REMARK    7  A    between atoms: C26_33  and  N3_34 
REMARK    8  A    between atoms: N3_34  and  C27_36 
ROOT
HETATM    1  C3  UNL     1      -2.658  11.422   2.668  1.00  0.00     0.034 A 
HETATM    2  C4  UNL     1      -1.531  10.635   2.837  1.00  0.00     0.054 A 
HETATM    3  C5  UNL     1      -0.268  11.019   2.461  1.00  0.00     0.080 A 
HETATM    4  C6  UNL     1      -0.086  12.280   1.865  1.00  0.00     0.025 A 
HETATM    5  C7  UNL     1      -1.173  13.072   1.685  1.00  0.00     0.148 A 
HETATM    6  F1  UNL     1      -1.012  14.304   1.106  1.00  0.00    -0.204 F 
HETATM    7  C8  UNL     1      -2.432  12.648   2.080  1.00  0.00     0.086 A 
HETATM    8 CL1  UNL     1      -3.801  13.709   1.827  1.00  0.00    -0.080 Cl
HETATM    9  C9  UNL     1       1.315  12.613   1.499  1.00  0.00     0.067 C 
HETATM   10  C14 UNL     1       2.135  12.184   2.732  1.00  0.00     0.052 C 
HETATM   11  C15 UNL     1       2.111  10.712   2.945  1.00  0.00     0.163 C 
HETATM   12  O2  UNL     1       0.842  10.195   2.650  1.00  0.00    -0.341 OA
ENDROOT
BRANCH  11  13
HETATM   13  C16 UNL     1       3.199   9.967   2.302  1.00  0.00    -0.028 A 
HETATM   14  C17 UNL     1       3.048   9.470   1.033  1.00  0.00     0.012 A 
HETATM   15  C18 UNL     1       4.055   8.758   0.397  1.00  0.00     0.030 A 
HETATM   16  C19 UNL     1       5.260   8.528   1.047  1.00  0.00     0.034 A 
HETATM   17  C20 UNL     1       5.414   9.026   2.321  1.00  0.00    -0.031 A 
HETATM   18  N4  UNL     1       6.309   7.810   0.465  1.00  0.00    -0.385 N 
HETATM   19  C21 UNL     1       4.384   9.743   2.945  1.00  0.00     0.019 A 
HETATM   20  C22 UNL     1       6.706   8.787   3.006  1.00  0.00     0.043 C 
HETATM   21  C23 UNL     1       7.338   7.479   2.685  1.00  0.00     0.030 C 
HETATM   22  C24 UNL     1       7.185   7.009   1.277  1.00  0.00     0.083 C 
ATOM     23  H4  UNL     1       6.454   7.855  -0.544  1.00  0.00     0.160 HD
BRANCH  22  24
HETATM   24  C25 UNL     1       8.503   6.694   0.600  1.00  0.00     0.044 C 
BRANCH  24  25
HETATM   25  C26 UNL     1       8.482   5.436  -0.193  1.00  0.00     0.116 C 
BRANCH  25  26
HETATM   26  N3  UNL     1       8.670   5.731  -1.592  1.00  0.00    -0.417 N 
ATOM     27  H3  UNL     1       8.199   5.203  -2.327  1.00  0.00     0.153 HD
BRANCH  26  28
HETATM   28  C27 UNL     1       9.556   6.808  -1.878  1.00  0.00     0.076 C 
HETATM   29  C28 UNL     1      10.940   6.368  -2.320  1.00  0.00     0.024 C 
HETATM   30  C29 UNL     1      10.857   5.590  -3.633  1.00  0.00     0.002 C 
HETATM   31  C30 UNL     1      10.282   6.456  -4.718  1.00  0.00     0.000 C 
HETATM   32  C31 UNL     1       8.946   6.978  -4.299  1.00  0.00     0.002 C 
HETATM   33  C32 UNL     1       9.040   7.708  -2.984  1.00  0.00     0.024 C 
ENDBRANCH  26  28
ENDBRANCH  25  26
ENDBRANCH  24  25
ENDBRANCH  22  24
ENDBRANCH  11  13
BRANCH   9  34
HETATM   34  C10 UNL     1       1.576  14.065   1.323  1.00  0.00    -0.009 A 
HETATM   35  C11 UNL     1       1.776  15.022   2.281  1.00  0.00     0.016 A 
HETATM   36  C12 UNL     1       2.017  16.279   1.881  1.00  0.00     0.008 A 
HETATM   37  C13 UNL     1       2.046  16.512   0.529  1.00  0.00     0.050 A 
HETATM   38  S1  UNL     1       1.737  14.978  -0.135  1.00  0.00    -0.106 SA
ENDBRANCH   9  34
BRANCH   1  39
HETATM   39  C2  UNL     1      -3.981  10.983   3.082  1.00  0.00     0.148 C 
HETATM   40  N1  UNL     1      -4.326  11.051   4.314  1.00  0.00    -0.253 N 
ATOM     41  H1  UNL     1      -3.655  11.414   4.991  1.00  0.00     0.195 HD
HETATM   42  N2  UNL     1      -4.905  10.482   2.137  1.00  0.00    -0.080 NA
BRANCH  40  43
HETATM   43  O1  UNL     1      -5.568  10.654   4.764  1.00  0.00    -0.284 OA
HETATM   44  C1  UNL     1      -5.718   9.909   5.966  1.00  0.00     0.237 C 
ENDBRANCH  40  43
ENDBRANCH   1  39
TORSDOF 8
ENDMDL
