MODEL 1
REMARK VINA RESULT: -5.731169070      0.000      0.000
REMARK  11 active torsions:
REMARK  status: ('A' for Active; 'I' for Inactive)
REMARK    1  A    between atoms: C2_2  and  C4_4 
REMARK    2  A    between atoms: N3_9  and  C5_10 
REMARK    3  A    between atoms: C10_15  and  C11_16 
REMARK       I    between atoms: C11_16  and  N4_18 
REMARK    4  A    between atoms: N4_18  and  C12_20 
REMARK    5  A    between atoms: C12_20  and  C13_21 
REMARK    6  A    between atoms: C12_20  and  C26_41 
REMARK    7  A    between atoms: C16_24  and  N5_25 
REMARK       I    between atoms: N5_25  and  C17_27 
REMARK       I    between atoms: C17_27  and  N7_34 
REMARK    8  A    between atoms: N6_28  and  C18_30 
REMARK    9  A    between atoms: N7_34  and  C23_36 
REMARK   10  A    between atoms: C29_44  and  C30_45 
REMARK   11  A    between atoms: C30_45  and  N8_46 
ROOT
HETATM    1  C12 UNL     1       2.144  10.527  -1.773  1.00  0.00     0.122 C 
ENDROOT
BRANCH   1   2
HETATM    2  N4  UNL     1       2.299  11.311  -2.987  1.00  0.00    -0.347 N 
HETATM    3  C11 UNL     1       1.951  10.785  -4.266  1.00  0.00     0.272 C 
HETATM    4  O1  UNL     1       1.504   9.608  -4.232  1.00  0.00    -0.266 OA
ATOM      5  H4  UNL     1       2.666  12.260  -2.922  1.00  0.00     0.163 HD
BRANCH   3   6
HETATM    6  C10 UNL     1       2.069  11.475  -5.508  1.00  0.00     0.149 A 
HETATM    7  C4  UNL     1       1.160  12.431  -5.982  1.00  0.00     0.065 A 
HETATM    8  N1  UNL     1       1.631  12.791  -7.206  1.00  0.00    -0.287 N 
HETATM    9  N2  UNL     1       2.700  12.139  -7.462  1.00  0.00    -0.235 N 
ATOM     10  H1  UNL     1       1.197  13.476  -7.825  1.00  0.00     0.188 HD
HETATM   11  N3  UNL     1       3.020  11.303  -6.438  1.00  0.00    -0.243 N 
ATOM     12  H2  UNL     1       3.242  12.233  -8.320  1.00  0.00     0.209 HD
BRANCH   7  13
HETATM   13  C2  UNL     1      -0.048  12.969  -5.315  1.00  0.00     0.031 C 
HETATM   14  C1  UNL     1      -0.703  13.936  -6.334  1.00  0.00     0.016 C 
HETATM   15  C3  UNL     1       0.291  13.821  -4.118  1.00  0.00     0.016 C 
ENDBRANCH   7  13
BRANCH  11  16
HETATM   16  C5  UNL     1       4.143  10.461  -6.497  1.00  0.00     0.014 C 
HETATM   17  C6  UNL     1       5.269  10.664  -5.559  1.00  0.00     0.054 C 
HETATM   18  C7  UNL     1       6.203   9.500  -5.885  1.00  0.00     0.006 C 
HETATM   19  C8  UNL     1       5.447   8.612  -6.880  1.00  0.00     0.006 C 
HETATM   20  C9  UNL     1       3.965   8.994  -6.595  1.00  0.00     0.054 C 
ENDBRANCH  11  16
ENDBRANCH   3   6
ENDBRANCH   1   2
BRANCH   1  21
HETATM   21  C13 UNL     1       3.446  10.218  -1.123  1.00  0.00    -0.035 A 
HETATM   22  C14 UNL     1       4.600  10.717  -1.684  1.00  0.00     0.011 A 
HETATM   23  C15 UNL     1       5.840  10.468  -1.121  1.00  0.00     0.030 A 
HETATM   24  C16 UNL     1       5.987   9.714   0.017  1.00  0.00     0.049 A 
HETATM   25  C24 UNL     1       4.808   9.213   0.576  1.00  0.00     0.030 A 
HETATM   26  C25 UNL     1       3.580   9.467   0.008  1.00  0.00     0.011 A 
BRANCH  24  27
HETATM   27  N5  UNL     1       7.238   9.471   0.635  1.00  0.00    -0.192 N 
HETATM   28  C17 UNL     1       7.442   8.996   1.942  1.00  0.00     0.681 C 
HETATM   29  N6  UNL     1       7.984   7.861   2.154  1.00  0.00    -0.218 N 
HETATM   30  N7  UNL     1       7.067   9.745   3.088  1.00  0.00    -0.164 N 
ATOM     31  H6  UNL     1       8.089   7.604   3.135  1.00  0.00     0.178 HD
HETATM   32  C22 UNL     1       7.115  11.188   3.081  1.00  0.00     0.174 C 
ATOM     33  H5  UNL     1       8.070   9.660   0.077  1.00  0.00     0.184 HD
BRANCH  29  34
HETATM   34  C18 UNL     1       8.461   6.902   1.220  1.00  0.00     0.036 C 
HETATM   35  C19 UNL     1       9.428   7.517   0.257  1.00  0.00     0.038 C 
HETATM   36  C20 UNL     1       9.147   5.786   1.982  1.00  0.00     0.038 C 
HETATM   37  C21 UNL     1       7.319   6.248   0.445  1.00  0.00     0.038 C 
ENDBRANCH  29  34
BRANCH  30  38
HETATM   38  C23 UNL     1       6.630   9.074   4.286  1.00  0.00     0.474 C 
HETATM   39  F1  UNL     1       7.134   9.681   5.429  1.00  0.00    -0.190 F 
HETATM   40  F2  UNL     1       5.255   9.055   4.426  1.00  0.00    -0.190 F 
ENDBRANCH  30  38
ENDBRANCH  24  27
ENDBRANCH   1  21
BRANCH   1  41
HETATM   41  C26 UNL     1       1.176  11.185  -0.845  1.00  0.00     0.013 C 
HETATM   42  C27 UNL     1       1.529  12.595  -0.615  1.00  0.00     0.007 C 
HETATM   43  C28 UNL     1       0.409  13.410   0.005  1.00  0.00     0.007 C 
HETATM   44  C29 UNL     1      -0.682  12.475   0.544  1.00  0.00     0.011 C 
HETATM   45  C31 UNL     1      -1.254  11.793  -0.676  1.00  0.00     0.007 C 
HETATM   46  C32 UNL     1      -0.213  10.966  -1.381  1.00  0.00     0.007 C 
BRANCH  44  47
HETATM   47  C30 UNL     1      -1.721  13.330   1.215  1.00  0.00     0.234 C 
BRANCH  47  48
HETATM   48  N8  UNL     1      -1.082  14.241   2.171  1.00  0.00    -0.079 N 
ATOM     49  H83 UNL     1      -0.320  13.790   2.678  1.00  0.00     0.274 HD
ATOM     50  H82 UNL     1      -0.540  14.967   1.704  1.00  0.00     0.274 HD
ATOM     51  H81 UNL     1      -1.781  14.632   2.802  1.00  0.00     0.274 HD
ENDBRANCH  47  48
ENDBRANCH  44  47
ENDBRANCH   1  41
TORSDOF 11
ENDMDL
MODEL 2
REMARK VINA RESULT: -5.699468087      2.481      7.583
REMARK  11 active torsions:
REMARK  status: ('A' for Active; 'I' for Inactive)
REMARK    1  A    between atoms: C2_2  and  C4_4 
REMARK    2  A    between atoms: N3_9  and  C5_10 
REMARK    3  A    between atoms: C10_15  and  C11_16 
REMARK       I    between atoms: C11_16  and  N4_18 
REMARK    4  A    between atoms: N4_18  and  C12_20 
REMARK    5  A    between atoms: C12_20  and  C13_21 
REMARK    6  A    between atoms: C12_20  and  C26_41 
REMARK    7  A    between atoms: C16_24  and  N5_25 
REMARK       I    between atoms: N5_25  and  C17_27 
REMARK       I    between atoms: C17_27  and  N7_34 
REMARK    8  A    between atoms: N6_28  and  C18_30 
REMARK    9  A    between atoms: N7_34  and  C23_36 
REMARK   10  A    between atoms: C29_44  and  C30_45 
REMARK   11  A    between atoms: C30_45  and  N8_46 
ROOT
HETATM    1  C12 UNL     1       4.742  11.150  -1.612  1.00  0.00     0.122 C 
ENDROOT
BRANCH   1   2
HETATM    2  N4  UNL     1       4.444  10.322  -2.769  1.00  0.00    -0.347 N 
HETATM    3  C11 UNL     1       4.881  10.683  -4.078  1.00  0.00     0.272 C 
HETATM    4  O1  UNL     1       5.536  11.758  -4.121  1.00  0.00    -0.266 OA
ATOM      5  H4  UNL     1       3.910   9.463  -2.642  1.00  0.00     0.163 HD
BRANCH   3   6
HETATM    6  C10 UNL     1       4.637   9.940  -5.269  1.00  0.00     0.149 A 
HETATM    7  C4  UNL     1       5.609   9.214  -5.973  1.00  0.00     0.065 A 
HETATM    8  N1  UNL     1       4.958   8.706  -7.054  1.00  0.00    -0.287 N 
HETATM    9  N2  UNL     1       3.733   9.071  -7.026  1.00  0.00    -0.235 N 
ATOM     10  H1  UNL     1       5.382   8.123  -7.775  1.00  0.00     0.188 HD
HETATM   11  N3  UNL     1       3.477   9.842  -5.936  1.00  0.00    -0.243 N 
ATOM     12  H2  UNL     1       3.039   8.817  -7.728  1.00  0.00     0.209 HD
BRANCH   7  13
HETATM   13  C2  UNL     1       7.036   9.008  -5.633  1.00  0.00     0.031 C 
HETATM   14  C1  UNL     1       7.823  10.084  -6.424  1.00  0.00     0.016 C 
HETATM   15  C3  UNL     1       7.558   7.684  -6.132  1.00  0.00     0.016 C 
ENDBRANCH   7  13
BRANCH  11  16
HETATM   16  C5  UNL     1       2.204  10.385  -5.700  1.00  0.00     0.014 C 
HETATM   17  C6  UNL     1       1.343   9.818  -4.639  1.00  0.00     0.054 C 
HETATM   18  C7  UNL     1       0.129  10.745  -4.646  1.00  0.00     0.006 C 
HETATM   19  C8  UNL     1       0.473  11.889  -5.607  1.00  0.00     0.006 C 
HETATM   20  C9  UNL     1       2.029  11.854  -5.612  1.00  0.00     0.054 C 
ENDBRANCH  11  16
ENDBRANCH   3   6
ENDBRANCH   1   2
BRANCH   1  21
HETATM   21  C13 UNL     1       3.557  11.915  -1.137  1.00  0.00    -0.035 A 
HETATM   22  C14 UNL     1       2.380  11.817  -1.845  1.00  0.00     0.011 A 
HETATM   23  C15 UNL     1       1.244  12.499  -1.449  1.00  0.00     0.030 A 
HETATM   24  C16 UNL     1       1.227  13.307  -0.337  1.00  0.00     0.049 A 
HETATM   25  C24 UNL     1       2.427  13.398   0.371  1.00  0.00     0.030 A 
HETATM   26  C25 UNL     1       3.552  12.713  -0.032  1.00  0.00     0.011 A 
BRANCH  24  27
HETATM   27  N5  UNL     1       0.071  13.990   0.111  1.00  0.00    -0.192 N 
HETATM   28  C17 UNL     1      -0.662  13.708   1.278  1.00  0.00     0.681 C 
HETATM   29  N6  UNL     1      -0.731  14.551   2.233  1.00  0.00    -0.218 N 
HETATM   30  N7  UNL     1      -1.364  12.487   1.456  1.00  0.00    -0.164 N 
ATOM     31  H6  UNL     1      -1.286  14.255   3.036  1.00  0.00     0.178 HD
HETATM   32  C22 UNL     1      -1.953  11.798   0.331  1.00  0.00     0.174 C 
ATOM     33  H5  UNL     1      -0.262  14.761  -0.468  1.00  0.00     0.184 HD
BRANCH  29  34
HETATM   34  C18 UNL     1      -0.146  15.841   2.341  1.00  0.00     0.036 C 
HETATM   35  C19 UNL     1      -0.324  16.625   1.077  1.00  0.00     0.038 C 
HETATM   36  C20 UNL     1      -0.806  16.577   3.489  1.00  0.00     0.038 C 
HETATM   37  C21 UNL     1       1.340  15.763   2.684  1.00  0.00     0.038 C 
ENDBRANCH  29  34
BRANCH  30  38
HETATM   38  C23 UNL     1      -1.502  11.911   2.769  1.00  0.00     0.474 C 
HETATM   39  F1  UNL     1      -2.469  10.914   2.795  1.00  0.00    -0.190 F 
HETATM   40  F2  UNL     1      -0.334  11.336   3.235  1.00  0.00    -0.190 F 
ENDBRANCH  30  38
ENDBRANCH  24  27
ENDBRANCH   1  21
BRANCH   1  41
HETATM   41  C26 UNL     1       5.373  10.332  -0.533  1.00  0.00     0.013 C 
HETATM   42  C27 UNL     1       4.458   9.286  -0.049  1.00  0.00     0.007 C 
HETATM   43  C28 UNL     1       5.145   8.206   0.766  1.00  0.00     0.007 C 
HETATM   44  C29 UNL     1       6.556   8.664   1.159  1.00  0.00     0.011 C 
HETATM   45  C31 UNL     1       7.309   8.781  -0.145  1.00  0.00     0.007 C 
HETATM   46  C32 UNL     1       6.695   9.823  -1.041  1.00  0.00     0.007 C 
BRANCH  44  47
HETATM   47  C30 UNL     1       7.155   7.593   2.027  1.00  0.00     0.234 C 
BRANCH  47  48
HETATM   48  N8  UNL     1       7.561   6.447   1.206  1.00  0.00    -0.079 N 
ATOM     49  H83 UNL     1       8.008   6.740   0.337  1.00  0.00     0.274 HD
ATOM     50  H82 UNL     1       8.348   5.943   1.615  1.00  0.00     0.274 HD
ATOM     51  H81 UNL     1       6.762   5.837   1.037  1.00  0.00     0.274 HD
ENDBRANCH  47  48
ENDBRANCH  44  47
ENDBRANCH   1  41
TORSDOF 11
ENDMDL
MODEL 3
REMARK VINA RESULT: -5.636675980      6.376     11.377
REMARK  11 active torsions:
REMARK  status: ('A' for Active; 'I' for Inactive)
REMARK    1  A    between atoms: C2_2  and  C4_4 
REMARK    2  A    between atoms: N3_9  and  C5_10 
REMARK    3  A    between atoms: C10_15  and  C11_16 
REMARK       I    between atoms: C11_16  and  N4_18 
REMARK    4  A    between atoms: N4_18  and  C12_20 
REMARK    5  A    between atoms: C12_20  and  C13_21 
REMARK    6  A    between atoms: C12_20  and  C26_41 
REMARK    7  A    between atoms: C16_24  and  N5_25 
REMARK       I    between atoms: N5_25  and  C17_27 
REMARK       I    between atoms: C17_27  and  N7_34 
REMARK    8  A    between atoms: N6_28  and  C18_30 
REMARK    9  A    between atoms: N7_34  and  C23_36 
REMARK   10  A    between atoms: C29_44  and  C30_45 
REMARK   11  A    between atoms: C30_45  and  N8_46 
ROOT
HETATM    1  C12 UNL     1      -3.140  11.544   0.534  1.00  0.00     0.122 C 
ENDROOT
BRANCH   1   2
HETATM    2  N4  UNL     1      -1.840  10.958   0.251  1.00  0.00    -0.347 N 
HETATM    3  C11 UNL     1      -0.651  11.745   0.244  1.00  0.00     0.272 C 
HETATM    4  O1  UNL     1      -0.840  12.962   0.505  1.00  0.00    -0.266 OA
ATOM      5  H4  UNL     1      -1.777   9.959   0.054  1.00  0.00     0.163 HD
BRANCH   3   6
HETATM    6  C10 UNL     1       0.664  11.261  -0.022  1.00  0.00     0.149 A 
HETATM    7  C4  UNL     1       1.664  11.087   0.945  1.00  0.00     0.065 A 
HETATM    8  N1  UNL     1       2.754  10.656   0.255  1.00  0.00    -0.287 N 
HETATM    9  N2  UNL     1       2.467  10.574  -0.989  1.00  0.00    -0.235 N 
ATOM     10  H1  UNL     1       3.660  10.433   0.666  1.00  0.00     0.188 HD
HETATM   11  N3  UNL     1       1.178  10.940  -1.219  1.00  0.00    -0.243 N 
ATOM     12  H2  UNL     1       3.119  10.274  -1.713  1.00  0.00     0.209 HD
BRANCH   7  13
HETATM   13  C2  UNL     1       1.581  11.295   2.409  1.00  0.00     0.031 C 
HETATM   14  C1  UNL     1       2.407  12.573   2.706  1.00  0.00     0.016 C 
HETATM   15  C3  UNL     1       2.258  10.194   3.184  1.00  0.00     0.016 C 
ENDBRANCH   7  13
BRANCH  11  16
HETATM   16  C5  UNL     1       0.636  10.956  -2.515  1.00  0.00     0.014 C 
HETATM   17  C6  UNL     1       0.240  12.240  -3.134  1.00  0.00     0.054 C 
HETATM   18  C7  UNL     1      -0.185  11.827  -4.542  1.00  0.00     0.006 C 
HETATM   19  C8  UNL     1       0.169  10.341  -4.676  1.00  0.00     0.006 C 
HETATM   20  C9  UNL     1       1.278  10.173  -3.596  1.00  0.00     0.054 C 
ENDBRANCH  11  16
ENDBRANCH   3   6
ENDBRANCH   1   2
BRANCH   1  21
HETATM   21  C13 UNL     1      -3.978  11.686  -0.688  1.00  0.00    -0.035 A 
HETATM   22  C14 UNL     1      -3.408  12.214  -1.824  1.00  0.00     0.011 A 
HETATM   23  C15 UNL     1      -4.136  12.365  -2.991  1.00  0.00     0.030 A 
HETATM   24  C16 UNL     1      -5.458  12.000  -3.079  1.00  0.00     0.049 A 
HETATM   25  C24 UNL     1      -6.024  11.467  -1.919  1.00  0.00     0.030 A 
HETATM   26  C25 UNL     1      -5.290  11.321  -0.763  1.00  0.00     0.011 A 
BRANCH  24  27
HETATM   27  N5  UNL     1      -6.218  12.111  -4.268  1.00  0.00    -0.192 N 
HETATM   28  C17 UNL     1      -7.593  11.846  -4.405  1.00  0.00     0.681 C 
HETATM   29  N6  UNL     1      -8.416  12.773  -4.703  1.00  0.00    -0.218 N 
HETATM   30  N7  UNL     1      -8.136  10.546  -4.225  1.00  0.00    -0.164 N 
ATOM     31  H6  UNL     1      -9.391  12.482  -4.780  1.00  0.00     0.178 HD
HETATM   32  C22 UNL     1      -7.375   9.369  -4.573  1.00  0.00     0.174 C 
ATOM     33  H5  UNL     1      -5.721  12.410  -5.107  1.00  0.00     0.184 HD
BRANCH  29  34
HETATM   34  C18 UNL     1      -8.173  14.152  -4.945  1.00  0.00     0.036 C 
HETATM   35  C19 UNL     1      -7.170  14.342  -6.040  1.00  0.00     0.038 C 
HETATM   36  C20 UNL     1      -9.479  14.812  -5.335  1.00  0.00     0.038 C 
HETATM   37  C21 UNL     1      -7.691  14.871  -3.687  1.00  0.00     0.038 C 
ENDBRANCH  29  34
BRANCH  30  38
HETATM   38  C23 UNL     1      -9.463  10.379  -3.691  1.00  0.00     0.474 C 
HETATM   39  F1  UNL     1     -10.415  10.281  -4.698  1.00  0.00    -0.190 F 
HETATM   40  F2  UNL     1      -9.596   9.243  -2.914  1.00  0.00    -0.190 F 
ENDBRANCH  30  38
ENDBRANCH  24  27
ENDBRANCH   1  21
BRANCH   1  41
HETATM   41  C26 UNL     1      -3.827  10.791   1.624  1.00  0.00     0.013 C 
HETATM   42  C27 UNL     1      -3.322   9.412   1.724  1.00  0.00     0.007 C 
HETATM   43  C28 UNL     1      -3.699   8.717   3.020  1.00  0.00     0.007 C 
HETATM   44  C29 UNL     1      -4.795   9.514   3.740  1.00  0.00     0.011 C 
HETATM   45  C31 UNL     1      -4.148  10.826   4.114  1.00  0.00     0.007 C 
HETATM   46  C32 UNL     1      -3.718  11.593   2.892  1.00  0.00     0.007 C 
BRANCH  44  47
HETATM   47  C30 UNL     1      -5.184   8.741   4.969  1.00  0.00     0.234 C 
BRANCH  47  48
HETATM   48  N8  UNL     1      -4.900   9.532   6.172  1.00  0.00    -0.079 N 
ATOM     49  H83 UNL     1      -4.193  10.246   6.001  1.00  0.00     0.274 HD
ATOM     50  H82 UNL     1      -5.676  10.147   6.417  1.00  0.00     0.274 HD
ATOM     51  H81 UNL     1      -4.643   8.916   6.943  1.00  0.00     0.274 HD
ENDBRANCH  47  48
ENDBRANCH  44  47
ENDBRANCH   1  41
TORSDOF 11
ENDMDL
MODEL 4
REMARK VINA RESULT: -5.600416763      3.235      8.072
REMARK  11 active torsions:
REMARK  status: ('A' for Active; 'I' for Inactive)
REMARK    1  A    between atoms: C2_2  and  C4_4 
REMARK    2  A    between atoms: N3_9  and  C5_10 
REMARK    3  A    between atoms: C10_15  and  C11_16 
REMARK       I    between atoms: C11_16  and  N4_18 
REMARK    4  A    between atoms: N4_18  and  C12_20 
REMARK    5  A    between atoms: C12_20  and  C13_21 
REMARK    6  A    between atoms: C12_20  and  C26_41 
REMARK    7  A    between atoms: C16_24  and  N5_25 
REMARK       I    between atoms: N5_25  and  C17_27 
REMARK       I    between atoms: C17_27  and  N7_34 
REMARK    8  A    between atoms: N6_28  and  C18_30 
REMARK    9  A    between atoms: N7_34  and  C23_36 
REMARK   10  A    between atoms: C29_44  and  C30_45 
REMARK   11  A    between atoms: C30_45  and  N8_46 
ROOT
HETATM    1  C12 UNL     1       3.899  10.738   0.323  1.00  0.00     0.122 C 
ENDROOT
BRANCH   1   2
HETATM    2  N4  UNL     1       3.704  10.252  -1.033  1.00  0.00    -0.347 N 
HETATM    3  C11 UNL     1       3.996  11.065  -2.168  1.00  0.00     0.272 C 
HETATM    4  O1  UNL     1       4.434  12.210  -1.879  1.00  0.00    -0.266 OA
ATOM      5  H4  UNL     1       3.349   9.307  -1.176  1.00  0.00     0.163 HD
BRANCH   3   6
HETATM    6  C10 UNL     1       3.836  10.677  -3.530  1.00  0.00     0.149 A 
HETATM    7  C4  UNL     1       4.889  10.379  -4.407  1.00  0.00     0.065 A 
HETATM    8  N1  UNL     1       4.293  10.107  -5.598  1.00  0.00    -0.287 N 
HETATM    9  N2  UNL     1       3.025  10.223  -5.478  1.00  0.00    -0.235 N 
ATOM     10  H1  UNL     1       4.781   9.850  -6.456  1.00  0.00     0.188 HD
HETATM   11  N3  UNL     1       2.685  10.577  -4.210  1.00  0.00    -0.243 N 
ATOM     12  H2  UNL     1       2.357  10.070  -6.233  1.00  0.00     0.209 HD
BRANCH   7  13
HETATM   13  C2  UNL     1       6.343  10.339  -4.126  1.00  0.00     0.031 C 
HETATM   14  C1  UNL     1       6.874  11.765  -4.422  1.00  0.00     0.016 C 
HETATM   15  C3  UNL     1       7.085   9.432  -5.075  1.00  0.00     0.016 C 
ENDBRANCH   7  13
BRANCH  11  16
HETATM   16  C5  UNL     1       1.347  10.790  -3.838  1.00  0.00     0.014 C 
HETATM   17  C6  UNL     1       0.685   9.863  -2.894  1.00  0.00     0.054 C 
HETATM   18  C7  UNL     1      -0.685  10.503  -2.684  1.00  0.00     0.006 C 
HETATM   19  C8  UNL     1      -0.637  11.857  -3.401  1.00  0.00     0.006 C 
HETATM   20  C9  UNL     1       0.892  12.145  -3.451  1.00  0.00     0.054 C 
ENDBRANCH  11  16
ENDBRANCH   3   6
ENDBRANCH   1   2
BRANCH   1  21
HETATM   21  C13 UNL     1       2.615  11.040   1.011  1.00  0.00    -0.035 A 
HETATM   22  C14 UNL     1       1.579  11.571   0.275  1.00  0.00     0.011 A 
HETATM   23  C15 UNL     1       0.360  11.866   0.859  1.00  0.00     0.030 A 
HETATM   24  C16 UNL     1       0.117  11.650   2.193  1.00  0.00     0.049 A 
HETATM   25  C24 UNL     1       1.177  11.112   2.928  1.00  0.00     0.030 A 
HETATM   26  C25 UNL     1       2.386  10.821   2.337  1.00  0.00     0.011 A 
BRANCH  24  27
HETATM   27  N5  UNL     1      -1.130  11.911   2.811  1.00  0.00    -0.192 N 
HETATM   28  C17 UNL     1      -2.277  12.428   2.183  1.00  0.00     0.681 C 
HETATM   29  N6  UNL     1      -3.342  11.734   2.080  1.00  0.00    -0.218 N 
HETATM   30  N7  UNL     1      -2.317  13.739   1.639  1.00  0.00    -0.164 N 
ATOM     31  H6  UNL     1      -4.120  12.197   1.609  1.00  0.00     0.178 HD
HETATM   32  C22 UNL     1      -1.560  14.815   2.237  1.00  0.00     0.174 C 
ATOM     33  H5  UNL     1      -1.203  11.703   3.806  1.00  0.00     0.184 HD
BRANCH  29  34
HETATM   34  C18 UNL     1      -3.602  10.411   2.525  1.00  0.00     0.036 C 
HETATM   35  C19 UNL     1      -3.991  10.391   3.971  1.00  0.00     0.038 C 
HETATM   36  C20 UNL     1      -4.727   9.832   1.691  1.00  0.00     0.038 C 
HETATM   37  C21 UNL     1      -2.400   9.494   2.311  1.00  0.00     0.038 C 
ENDBRANCH  29  34
BRANCH  30  38
HETATM   38  C23 UNL     1      -3.119  14.021   0.476  1.00  0.00     0.474 C 
HETATM   39  F1  UNL     1      -3.115  15.375   0.164  1.00  0.00    -0.190 F 
HETATM   40  F2  UNL     1      -2.686  13.356  -0.656  1.00  0.00    -0.190 F 
ENDBRANCH  30  38
ENDBRANCH  24  27
ENDBRANCH   1  21
BRANCH   1  41
HETATM   41  C26 UNL     1       4.763   9.797   1.096  1.00  0.00     0.013 C 
HETATM   42  C27 UNL     1       4.687   8.431   0.553  1.00  0.00     0.007 C 
HETATM   43  C28 UNL     1       5.797   7.518   1.043  1.00  0.00     0.007 C 
HETATM   44  C29 UNL     1       6.512   8.159   2.239  1.00  0.00     0.011 C 
HETATM   45  C31 UNL     1       7.171   9.400   1.686  1.00  0.00     0.007 C 
HETATM   46  C32 UNL     1       6.152  10.372   1.155  1.00  0.00     0.007 C 
BRANCH  44  47
HETATM   47  C30 UNL     1       7.542   7.181   2.730  1.00  0.00     0.234 C 
BRANCH  47  48
HETATM   48  N8  UNL     1       7.984   6.320   1.627  1.00  0.00    -0.079 N 
ATOM     49  H83 UNL     1       7.971   5.333   1.884  1.00  0.00     0.274 HD
ATOM     50  H82 UNL     1       7.300   6.286   0.871  1.00  0.00     0.274 HD
ATOM     51  H81 UNL     1       8.902   6.617   1.297  1.00  0.00     0.274 HD
ENDBRANCH  47  48
ENDBRANCH  44  47
ENDBRANCH   1  41
TORSDOF 11
ENDMDL
MODEL 5
REMARK VINA RESULT: -5.538354186      5.226     10.196
REMARK  11 active torsions:
REMARK  status: ('A' for Active; 'I' for Inactive)
REMARK    1  A    between atoms: C2_2  and  C4_4 
REMARK    2  A    between atoms: N3_9  and  C5_10 
REMARK    3  A    between atoms: C10_15  and  C11_16 
REMARK       I    between atoms: C11_16  and  N4_18 
REMARK    4  A    between atoms: N4_18  and  C12_20 
REMARK    5  A    between atoms: C12_20  and  C13_21 
REMARK    6  A    between atoms: C12_20  and  C26_41 
REMARK    7  A    between atoms: C16_24  and  N5_25 
REMARK       I    between atoms: N5_25  and  C17_27 
REMARK       I    between atoms: C17_27  and  N7_34 
REMARK    8  A    between atoms: N6_28  and  C18_30 
REMARK    9  A    between atoms: N7_34  and  C23_36 
REMARK   10  A    between atoms: C29_44  and  C30_45 
REMARK   11  A    between atoms: C30_45  and  N8_46 
ROOT
HETATM    1  C12 UNL     1       1.941  12.034   2.080  1.00  0.00     0.122 C 
ENDROOT
BRANCH   1   2
HETATM    2  N4  UNL     1       2.245  13.368   1.588  1.00  0.00    -0.347 N 
HETATM    3  C11 UNL     1       2.881  14.342   2.412  1.00  0.00     0.272 C 
HETATM    4  O1  UNL     1       3.149  13.934   3.574  1.00  0.00    -0.266 OA
ATOM      5  H4  UNL     1       1.996  13.613   0.629  1.00  0.00     0.163 HD
BRANCH   3   6
HETATM    6  C10 UNL     1       3.216  15.671   2.020  1.00  0.00     0.149 A 
HETATM    7  C4  UNL     1       4.354  16.025   1.281  1.00  0.00     0.065 A 
HETATM    8  N1  UNL     1       4.300  17.379   1.173  1.00  0.00    -0.287 N 
HETATM    9  N2  UNL     1       3.258  17.814   1.773  1.00  0.00    -0.235 N 
ATOM     10  H1  UNL     1       4.986  17.959   0.690  1.00  0.00     0.188 HD
HETATM   11  N3  UNL     1       2.546  16.793   2.319  1.00  0.00    -0.243 N 
ATOM     12  H2  UNL     1       2.995  18.798   1.834  1.00  0.00     0.209 HD
BRANCH   7  13
HETATM   13  C2  UNL     1       5.397  15.142   0.708  1.00  0.00     0.031 C 
HETATM   14  C1  UNL     1       6.722  15.941   0.785  1.00  0.00     0.016 C 
HETATM   15  C3  UNL     1       5.177  14.873  -0.759  1.00  0.00     0.016 C 
ENDBRANCH   7  13
BRANCH  11  16
HETATM   16  C5  UNL     1       1.370  17.024   3.052  1.00  0.00     0.014 C 
HETATM   17  C6  UNL     1       0.137  16.275   2.726  1.00  0.00     0.054 C 
HETATM   18  C7  UNL     1      -0.843  16.739   3.803  1.00  0.00     0.006 C 
HETATM   19  C8  UNL     1      -0.030  17.598   4.778  1.00  0.00     0.006 C 
HETATM   20  C9  UNL     1       1.420  17.086   4.532  1.00  0.00     0.054 C 
ENDBRANCH  11  16
ENDBRANCH   3   6
ENDBRANCH   1   2
BRANCH   1  21
HETATM   21  C13 UNL     1       0.522  11.651   1.851  1.00  0.00    -0.035 A 
HETATM   22  C14 UNL     1       0.069  11.534   0.555  1.00  0.00     0.011 A 
HETATM   23  C15 UNL     1      -1.239  11.175   0.281  1.00  0.00     0.030 A 
HETATM   24  C16 UNL     1      -2.151  10.919   1.276  1.00  0.00     0.049 A 
HETATM   25  C24 UNL     1      -1.678  11.043   2.585  1.00  0.00     0.030 A 
HETATM   26  C25 UNL     1      -0.374  11.400   2.847  1.00  0.00     0.011 A 
BRANCH  24  27
HETATM   27  N5  UNL     1      -3.485  10.518   1.025  1.00  0.00    -0.192 N 
HETATM   28  C17 UNL     1      -4.492  10.330   1.988  1.00  0.00     0.681 C 
HETATM   29  N6  UNL     1      -5.531  11.069   2.008  1.00  0.00    -0.218 N 
HETATM   30  N7  UNL     1      -4.414   9.315   2.978  1.00  0.00    -0.164 N 
ATOM     31  H6  UNL     1      -6.205  10.855   2.744  1.00  0.00     0.178 HD
HETATM   32  C22 UNL     1      -3.763   8.056   2.702  1.00  0.00     0.174 C 
ATOM     33  H5  UNL     1      -3.739  10.348   0.052  1.00  0.00     0.184 HD
BRANCH  29  34
HETATM   34  C18 UNL     1      -5.886  12.148   1.155  1.00  0.00     0.036 C 
HETATM   35  C19 UNL     1      -5.804  11.750  -0.286  1.00  0.00     0.038 C 
HETATM   36  C20 UNL     1      -7.302  12.576   1.481  1.00  0.00     0.038 C 
HETATM   37  C21 UNL     1      -5.006  13.373   1.393  1.00  0.00     0.038 C 
ENDBRANCH  29  34
BRANCH  30  38
HETATM   38  C23 UNL     1      -4.990   9.524   4.282  1.00  0.00     0.474 C 
HETATM   39  F1  UNL     1      -4.934   8.374   5.060  1.00  0.00    -0.190 F 
HETATM   40  F2  UNL     1      -4.352  10.517   5.003  1.00  0.00    -0.190 F 
ENDBRANCH  30  38
ENDBRANCH  24  27
ENDBRANCH   1  21
BRANCH   1  41
HETATM   41  C26 UNL     1       2.907  11.040   1.524  1.00  0.00     0.013 C 
HETATM   42  C27 UNL     1       3.842  11.671   0.579  1.00  0.00     0.007 C 
HETATM   43  C28 UNL     1       5.058  10.819   0.265  1.00  0.00     0.007 C 
HETATM   44  C29 UNL     1       4.829   9.381   0.749  1.00  0.00     0.011 C 
HETATM   45  C31 UNL     1       4.735   9.482   2.253  1.00  0.00     0.007 C 
HETATM   46  C32 UNL     1       3.563  10.326   2.674  1.00  0.00     0.007 C 
BRANCH  44  47
HETATM   47  C30 UNL     1       6.026   8.569   0.342  1.00  0.00     0.234 C 
BRANCH  47  48
HETATM   48  N8  UNL     1       5.985   7.253   0.989  1.00  0.00    -0.079 N 
ATOM     49  H83 UNL     1       6.538   7.231   1.846  1.00  0.00     0.274 HD
ATOM     50  H82 UNL     1       5.072   7.055   1.396  1.00  0.00     0.274 HD
ATOM     51  H81 UNL     1       6.274   6.530   0.330  1.00  0.00     0.274 HD
ENDBRANCH  47  48
ENDBRANCH  44  47
ENDBRANCH   1  41
TORSDOF 11
ENDMDL
