MODEL 1
REMARK VINA RESULT: -6.283045699      0.000      0.000
REMARK  12 active torsions:
REMARK  status: ('A' for Active; 'I' for Inactive)
REMARK    1  A    between atoms: C2_2  and  N1_4 
REMARK    2  A    between atoms: N1_4  and  C4_6 
REMARK    3  A    between atoms: C5_7  and  C6_8 
REMARK    4  A    between atoms: C6_8  and  C7_10 
REMARK    5  A    between atoms: C13_18  and  O2_19 
REMARK    6  A    between atoms: O2_19  and  C14_20 
REMARK    7  A    between atoms: C17_25  and  N4_26 
REMARK    8  A    between atoms: N4_26  and  C18_28 
REMARK    9  A    between atoms: C21_31  and  N5_32 
REMARK       I    between atoms: N5_32  and  C22_34 
REMARK   10  A    between atoms: C22_34  and  O4_36 
REMARK   11  A    between atoms: O4_36  and  C23_37 
REMARK   12  A    between atoms: C30_44  and  C31_45 
ROOT
HETATM    1  C4  UNL     1      -3.718  11.983   0.171  1.00  0.00     0.061 A 
HETATM    2  C5  UNL     1      -3.535  12.418  -1.127  1.00  0.00     0.053 A 
HETATM    3  C10 UNL     1      -2.194  12.594  -1.553  1.00  0.00     0.106 A 
HETATM    4  N2  UNL     1      -1.167  12.352  -0.764  1.00  0.00    -0.364 N 
ATOM      5  H2  UNL     1      -0.221  12.495  -1.116  1.00  0.00     0.165 HD
HETATM    6  C11 UNL     1      -1.342  11.922   0.497  1.00  0.00     0.048 A 
HETATM    7  C12 UNL     1      -0.196  11.662   1.243  1.00  0.00     0.067 A 
HETATM    8  C13 UNL     1      -0.301  11.198   2.515  1.00  0.00     0.079 A 
HETATM    9  C29 UNL     1      -1.554  10.998   3.027  1.00  0.00     0.054 A 
HETATM   10  C30 UNL     1      -2.765  11.246   2.308  1.00  0.00     0.065 A 
HETATM   11  C32 UNL     1      -2.617  11.716   1.025  1.00  0.00     0.034 A 
ENDROOT
BRANCH   8  12
HETATM   12  O2  UNL     1       0.803  10.934   3.275  1.00  0.00    -0.311 OA
BRANCH  12  13
HETATM   13  C14 UNL     1       2.113  11.141   2.898  1.00  0.00     0.081 A 
HETATM   14  C15 UNL     1       2.651  12.377   2.650  1.00  0.00     0.054 A 
HETATM   15  C16 UNL     1       3.955  12.456   2.278  1.00  0.00     0.092 A 
HETATM   16  N3  UNL     1       4.739  11.364   2.147  1.00  0.00    -0.352 N 
HETATM   17  C17 UNL     1       4.280  10.129   2.373  1.00  0.00     0.103 A 
ATOM     18  H3  UNL     1       5.712  11.485   1.866  1.00  0.00     0.166 HD
HETATM   19  C28 UNL     1       2.921  10.056   2.759  1.00  0.00     0.085 A 
BRANCH  17  20
HETATM   20  N4  UNL     1       4.960   9.121   2.248  1.00  0.00    -0.372 N 
ATOM     21  H4  UNL     1       5.021   8.778   3.206  1.00  0.00     0.161 HD
BRANCH  20  22
HETATM   22  C18 UNL     1       5.678   8.200   1.563  1.00  0.00     0.083 C 
HETATM   23  C19 UNL     1       6.923   7.664   2.213  1.00  0.00     0.027 C 
HETATM   24  C20 UNL     1       7.328   6.382   1.508  1.00  0.00     0.027 C 
HETATM   25  C21 UNL     1       7.387   6.614   0.032  1.00  0.00     0.086 C 
HETATM   26  C26 UNL     1       7.384   8.098  -0.280  1.00  0.00     0.027 C 
HETATM   27  C27 UNL     1       6.080   8.689   0.155  1.00  0.00     0.027 C 
BRANCH  25  28
HETATM   28  N5  UNL     1       8.581   6.017  -0.514  1.00  0.00    -0.332 N 
HETATM   29  C22 UNL     1       8.523   5.180  -1.653  1.00  0.00     0.361 C 
HETATM   30  O3  UNL     1       7.414   4.932  -2.226  1.00  0.00    -0.238 OA
ATOM     31  H5  UNL     1       9.481   6.201  -0.072  1.00  0.00     0.165 HD
BRANCH  29  32
HETATM   32  O4  UNL     1       9.655   4.598  -2.198  1.00  0.00    -0.299 OA
BRANCH  32  33
HETATM   33  C23 UNL     1       9.984   3.241  -2.028  1.00  0.00     0.125 C 
HETATM   34  C24 UNL     1      10.414   2.682  -3.359  1.00  0.00     0.040 C 
HETATM   35  C25 UNL     1      11.147   3.058  -1.065  1.00  0.00     0.040 C 
ENDBRANCH  32  33
ENDBRANCH  29  32
ENDBRANCH  25  28
ENDBRANCH  20  22
ENDBRANCH  17  20
ENDBRANCH  12  13
ENDBRANCH   8  12
BRANCH  10  36
HETATM   36  C31 UNL     1      -4.046  11.029   2.905  1.00  0.00     0.418 C 
HETATM   37  F1  UNL     1      -3.644  10.360   4.152  1.00  0.00    -0.166 F 
HETATM   38  F2  UNL     1      -4.825   9.958   2.595  1.00  0.00    -0.166 F 
HETATM   39  F3  UNL     1      -4.570  12.057   3.678  1.00  0.00    -0.166 F 
ENDBRANCH  10  36
BRANCH   1  40
HETATM   40  N1  UNL     1      -4.848  11.947   0.652  1.00  0.00    -0.362 N 
ATOM     41  H1  UNL     1      -4.886  11.080   1.189  1.00  0.00     0.165 HD
BRANCH  40  42
HETATM   42  C2  UNL     1      -6.105  12.537   0.806  1.00  0.00    -0.021 C 
HETATM   43  C1  UNL     1      -6.214  13.893   1.449  1.00  0.00     0.062 C 
HETATM   44  C3  UNL     1      -7.317  11.653   0.990  1.00  0.00     0.062 C 
ENDBRANCH  40  42
ENDBRANCH   1  40
BRANCH   2  45
HETATM   45  C6  UNL     1      -4.502  12.574  -2.189  1.00  0.00     0.167 C 
HETATM   46  O1  UNL     1      -5.121  13.547  -2.595  1.00  0.00    -0.292 OA
BRANCH  45  47
HETATM   47  C7  UNL     1      -4.832  11.307  -2.959  1.00  0.00     0.061 A 
HETATM   48  C8  UNL     1      -6.056  10.557  -2.416  1.00  0.00     0.013 A 
HETATM   49  C9  UNL     1      -6.063  11.203  -3.732  1.00  0.00     0.013 A 
ENDBRANCH  45  47
ENDBRANCH   2  45
TORSDOF 12
ENDMDL
MODEL 2
REMARK VINA RESULT: -6.221790851      1.214      1.594
REMARK  12 active torsions:
REMARK  status: ('A' for Active; 'I' for Inactive)
REMARK    1  A    between atoms: C2_2  and  N1_4 
REMARK    2  A    between atoms: N1_4  and  C4_6 
REMARK    3  A    between atoms: C5_7  and  C6_8 
REMARK    4  A    between atoms: C6_8  and  C7_10 
REMARK    5  A    between atoms: C13_18  and  O2_19 
REMARK    6  A    between atoms: O2_19  and  C14_20 
REMARK    7  A    between atoms: C17_25  and  N4_26 
REMARK    8  A    between atoms: N4_26  and  C18_28 
REMARK    9  A    between atoms: C21_31  and  N5_32 
REMARK       I    between atoms: N5_32  and  C22_34 
REMARK   10  A    between atoms: C22_34  and  O4_36 
REMARK   11  A    between atoms: O4_36  and  C23_37 
REMARK   12  A    between atoms: C30_44  and  C31_45 
ROOT
HETATM    1  C4  UNL     1      -3.778  11.135  -0.902  1.00  0.00     0.061 A 
HETATM    2  C5  UNL     1      -3.625  11.882  -2.053  1.00  0.00     0.053 A 
HETATM    3  C10 UNL     1      -2.464  12.693  -2.134  1.00  0.00     0.106 A 
HETATM    4  N2  UNL     1      -1.567  12.736  -1.169  1.00  0.00    -0.364 N 
ATOM      5  H2  UNL     1      -0.749  13.335  -1.273  1.00  0.00     0.165 HD
HETATM    6  C11 UNL     1      -1.710  12.004  -0.051  1.00  0.00     0.048 A 
HETATM    7  C12 UNL     1      -0.694  12.091   0.897  1.00  0.00     0.067 A 
HETATM    8  C13 UNL     1      -0.762  11.357   2.038  1.00  0.00     0.079 A 
HETATM    9  C29 UNL     1      -1.847  10.542   2.217  1.00  0.00     0.054 A 
HETATM   10  C30 UNL     1      -2.919  10.413   1.279  1.00  0.00     0.065 A 
HETATM   11  C32 UNL     1      -2.815  11.173   0.138  1.00  0.00     0.034 A 
ENDROOT
BRANCH   8  12
HETATM   12  O2  UNL     1       0.217  11.418   2.989  1.00  0.00    -0.311 OA
BRANCH  12  13
HETATM   13  C14 UNL     1       1.566  11.574   2.751  1.00  0.00     0.081 A 
HETATM   14  C15 UNL     1       2.182  12.789   2.603  1.00  0.00     0.054 A 
HETATM   15  C16 UNL     1       3.519  12.817   2.367  1.00  0.00     0.092 A 
HETATM   16  N3  UNL     1       4.262  11.692   2.274  1.00  0.00    -0.352 N 
HETATM   17  C17 UNL     1       3.727  10.475   2.408  1.00  0.00     0.103 A 
ATOM     18  H3  UNL     1       5.262  11.776   2.095  1.00  0.00     0.166 HD
HETATM   19  C28 UNL     1       2.334  10.456   2.653  1.00  0.00     0.085 A 
BRANCH  17  20
HETATM   20  N4  UNL     1       4.370   9.439   2.313  1.00  0.00    -0.372 N 
ATOM     21  H4  UNL     1       4.194   8.990   3.212  1.00  0.00     0.161 HD
BRANCH  20  22
HETATM   22  C18 UNL     1       5.182   8.549   1.697  1.00  0.00     0.083 C 
HETATM   23  C19 UNL     1       6.447   8.153   2.407  1.00  0.00     0.027 C 
HETATM   24  C20 UNL     1       6.977   6.875   1.781  1.00  0.00     0.027 C 
HETATM   25  C21 UNL     1       7.062   7.036   0.298  1.00  0.00     0.086 C 
HETATM   26  C26 UNL     1       6.946   8.497  -0.093  1.00  0.00     0.027 C 
HETATM   27  C27 UNL     1       5.585   8.997   0.276  1.00  0.00     0.027 C 
BRANCH  25  28
HETATM   28  N5  UNL     1       8.317   6.515  -0.185  1.00  0.00    -0.332 N 
HETATM   29  C22 UNL     1       8.358   5.562  -1.230  1.00  0.00     0.361 C 
HETATM   30  O3  UNL     1       7.286   5.139  -1.771  1.00  0.00    -0.238 OA
ATOM     31  H5  UNL     1       9.188   6.839   0.234  1.00  0.00     0.165 HD
BRANCH  29  32
HETATM   32  O4  UNL     1       9.550   5.049  -1.713  1.00  0.00    -0.299 OA
BRANCH  32  33
HETATM   33  C23 UNL     1      10.110   3.841  -1.261  1.00  0.00     0.125 C 
HETATM   34  C24 UNL     1       9.910   2.793  -2.324  1.00  0.00     0.040 C 
HETATM   35  C25 UNL     1      11.608   3.965  -1.026  1.00  0.00     0.040 C 
ENDBRANCH  32  33
ENDBRANCH  29  32
ENDBRANCH  25  28
ENDBRANCH  20  22
ENDBRANCH  17  20
ENDBRANCH  12  13
ENDBRANCH   8  12
BRANCH  10  36
HETATM   36  C31 UNL     1      -4.033   9.553   1.532  1.00  0.00     0.418 C 
HETATM   37  F1  UNL     1      -3.562   8.863   2.742  1.00  0.00    -0.166 F 
HETATM   38  F2  UNL     1      -4.182   8.349   0.917  1.00  0.00    -0.166 F 
HETATM   39  F3  UNL     1      -5.076  10.071   2.287  1.00  0.00    -0.166 F 
ENDBRANCH  10  36
BRANCH   1  40
HETATM   40  N1  UNL     1      -4.824  10.524  -0.703  1.00  0.00    -0.362 N 
ATOM     41  H1  UNL     1      -4.540   9.591  -0.404  1.00  0.00     0.165 HD
BRANCH  40  42
HETATM   42  C2  UNL     1      -6.221  10.509  -0.694  1.00  0.00    -0.021 C 
HETATM   43  C1  UNL     1      -6.963   9.790  -1.789  1.00  0.00     0.062 C 
HETATM   44  C3  UNL     1      -6.967  11.674  -0.088  1.00  0.00     0.062 C 
ENDBRANCH  40  42
ENDBRANCH   1  40
BRANCH   2  45
HETATM   45  C6  UNL     1      -4.390  11.850  -3.279  1.00  0.00     0.167 C 
HETATM   46  O1  UNL     1      -4.607  10.955  -4.084  1.00  0.00    -0.292 OA
BRANCH  45  47
HETATM   47  C7  UNL     1      -5.055  13.160  -3.666  1.00  0.00     0.061 A 
HETATM   48  C8  UNL     1      -6.584  13.137  -3.536  1.00  0.00     0.013 A 
HETATM   49  C9  UNL     1      -5.744  13.969  -2.668  1.00  0.00     0.013 A 
ENDBRANCH  45  47
ENDBRANCH   2  45
TORSDOF 12
ENDMDL
MODEL 3
REMARK VINA RESULT: -6.146282009      5.839     12.037
REMARK  12 active torsions:
REMARK  status: ('A' for Active; 'I' for Inactive)
REMARK    1  A    between atoms: C2_2  and  N1_4 
REMARK    2  A    between atoms: N1_4  and  C4_6 
REMARK    3  A    between atoms: C5_7  and  C6_8 
REMARK    4  A    between atoms: C6_8  and  C7_10 
REMARK    5  A    between atoms: C13_18  and  O2_19 
REMARK    6  A    between atoms: O2_19  and  C14_20 
REMARK    7  A    between atoms: C17_25  and  N4_26 
REMARK    8  A    between atoms: N4_26  and  C18_28 
REMARK    9  A    between atoms: C21_31  and  N5_32 
REMARK       I    between atoms: N5_32  and  C22_34 
REMARK   10  A    between atoms: C22_34  and  O4_36 
REMARK   11  A    between atoms: O4_36  and  C23_37 
REMARK   12  A    between atoms: C30_44  and  C31_45 
ROOT
HETATM    1  C4  UNL     1       1.259  12.184  -4.328  1.00  0.00     0.061 A 
HETATM    2  C5  UNL     1       1.112  12.821  -5.544  1.00  0.00     0.053 A 
HETATM    3  C10 UNL     1      -0.150  13.415  -5.801  1.00  0.00     0.106 A 
HETATM    4  N2  UNL     1      -1.137  13.375  -4.929  1.00  0.00    -0.364 N 
ATOM      5  H2  UNL     1      -2.027  13.816  -5.160  1.00  0.00     0.165 HD
HETATM    6  C11 UNL     1      -0.994  12.763  -3.742  1.00  0.00     0.048 A 
HETATM    7  C12 UNL     1      -2.082  12.801  -2.875  1.00  0.00     0.067 A 
HETATM    8  C13 UNL     1      -1.996  12.226  -1.647  1.00  0.00     0.079 A 
HETATM    9  C29 UNL     1      -0.820  11.619  -1.300  1.00  0.00     0.054 A 
HETATM   10  C30 UNL     1       0.329  11.549  -2.148  1.00  0.00     0.065 A 
HETATM   11  C32 UNL     1       0.202  12.141  -3.382  1.00  0.00     0.034 A 
ENDROOT
BRANCH   8  12
HETATM   12  O2  UNL     1      -3.045  12.245  -0.771  1.00  0.00    -0.311 OA
BRANCH  12  13
HETATM   13  C14 UNL     1      -3.538  11.160  -0.077  1.00  0.00     0.081 A 
HETATM   14  C15 UNL     1      -3.962  10.000  -0.671  1.00  0.00     0.054 A 
HETATM   15  C16 UNL     1      -4.434   9.000   0.117  1.00  0.00     0.092 A 
HETATM   16  N3  UNL     1      -4.498   9.106   1.462  1.00  0.00    -0.352 N 
HETATM   17  C17 UNL     1      -4.101  10.207   2.107  1.00  0.00     0.103 A 
ATOM     18  H3  UNL     1      -4.861   8.321   2.003  1.00  0.00     0.166 HD
HETATM   19  C28 UNL     1      -3.612  11.244   1.278  1.00  0.00     0.085 A 
BRANCH  17  20
HETATM   20  N4  UNL     1      -4.161  10.339   3.321  1.00  0.00    -0.372 N 
ATOM     21  H4  UNL     1      -3.234  10.699   3.548  1.00  0.00     0.161 HD
BRANCH  20  22
HETATM   22  C18 UNL     1      -4.755  10.280   4.536  1.00  0.00     0.083 C 
HETATM   23  C19 UNL     1      -4.294   9.209   5.485  1.00  0.00     0.027 C 
HETATM   24  C20 UNL     1      -4.753   9.570   6.887  1.00  0.00     0.027 C 
HETATM   25  C21 UNL     1      -6.216   9.873   6.877  1.00  0.00     0.086 C 
HETATM   26  C26 UNL     1      -6.857   9.391   5.589  1.00  0.00     0.027 C 
HETATM   27  C27 UNL     1      -6.292  10.165   4.440  1.00  0.00     0.027 C 
BRANCH  25  28
HETATM   28  N5  UNL     1      -6.861   9.232   7.996  1.00  0.00    -0.332 N 
HETATM   29  C22 UNL     1      -8.233   9.447   8.269  1.00  0.00     0.361 C 
HETATM   30  O3  UNL     1      -8.933  10.215   7.534  1.00  0.00    -0.238 OA
ATOM     31  H5  UNL     1      -6.320   8.614   8.599  1.00  0.00     0.165 HD
BRANCH  29  32
HETATM   32  O4  UNL     1      -8.876   8.841   9.335  1.00  0.00    -0.299 OA
BRANCH  32  33
HETATM   33  C23 UNL     1      -8.859   7.452   9.559  1.00  0.00     0.125 C 
HETATM   34  C24 UNL     1      -9.066   7.202  11.030  1.00  0.00     0.040 C 
HETATM   35  C25 UNL     1      -9.985   6.747   8.819  1.00  0.00     0.040 C 
ENDBRANCH  32  33
ENDBRANCH  29  32
ENDBRANCH  25  28
ENDBRANCH  20  22
ENDBRANCH  17  20
ENDBRANCH  12  13
ENDBRANCH   8  12
BRANCH  10  36
HETATM   36  C31 UNL     1       1.527  10.888  -1.731  1.00  0.00     0.418 C 
HETATM   37  F1  UNL     1       1.195  10.608  -0.326  1.00  0.00    -0.166 F 
HETATM   38  F2  UNL     1       2.633  11.566  -1.324  1.00  0.00    -0.166 F 
HETATM   39  F3  UNL     1       1.600   9.517  -1.940  1.00  0.00    -0.166 F 
ENDBRANCH  10  36
BRANCH   1  40
HETATM   40  N1  UNL     1       2.271  11.528  -4.098  1.00  0.00    -0.362 N 
ATOM     41  H1  UNL     1       2.497  11.711  -3.120  1.00  0.00     0.165 HD
BRANCH  40  42
HETATM   42  C2  UNL     1       3.258  10.648  -4.549  1.00  0.00    -0.021 C 
HETATM   43  C1  UNL     1       2.856   9.341  -5.179  1.00  0.00     0.062 C 
HETATM   44  C3  UNL     1       4.600  10.626  -3.855  1.00  0.00     0.062 C 
ENDBRANCH  40  42
ENDBRANCH   1  40
BRANCH   2  45
HETATM   45  C6  UNL     1       2.105  13.121  -6.551  1.00  0.00     0.167 C 
HETATM   46  O1  UNL     1       2.946  12.426  -7.103  1.00  0.00    -0.292 OA
BRANCH  45  47
HETATM   47  C7  UNL     1       2.133  14.564  -7.027  1.00  0.00     0.061 A 
HETATM   48  C8  UNL     1       3.036  15.474  -6.183  1.00  0.00     0.013 A 
HETATM   49  C9  UNL     1       3.352  15.145  -7.576  1.00  0.00     0.013 A 
ENDBRANCH  45  47
ENDBRANCH   2  45
TORSDOF 12
ENDMDL
MODEL 4
REMARK VINA RESULT: -6.007435661      1.649      2.104
REMARK  12 active torsions:
REMARK  status: ('A' for Active; 'I' for Inactive)
REMARK    1  A    between atoms: C2_2  and  N1_4 
REMARK    2  A    between atoms: N1_4  and  C4_6 
REMARK    3  A    between atoms: C5_7  and  C6_8 
REMARK    4  A    between atoms: C6_8  and  C7_10 
REMARK    5  A    between atoms: C13_18  and  O2_19 
REMARK    6  A    between atoms: O2_19  and  C14_20 
REMARK    7  A    between atoms: C17_25  and  N4_26 
REMARK    8  A    between atoms: N4_26  and  C18_28 
REMARK    9  A    between atoms: C21_31  and  N5_32 
REMARK       I    between atoms: N5_32  and  C22_34 
REMARK   10  A    between atoms: C22_34  and  O4_36 
REMARK   11  A    between atoms: O4_36  and  C23_37 
REMARK   12  A    between atoms: C30_44  and  C31_45 
ROOT
HETATM    1  C4  UNL     1      -3.857  10.942  -0.086  1.00  0.00     0.061 A 
HETATM    2  C5  UNL     1      -4.618  10.903  -1.238  1.00  0.00     0.053 A 
HETATM    3  C10 UNL     1      -3.977  11.308  -2.436  1.00  0.00     0.106 A 
HETATM    4  N2  UNL     1      -2.718  11.697  -2.464  1.00  0.00    -0.364 N 
ATOM      5  H2  UNL     1      -2.301  11.980  -3.351  1.00  0.00     0.165 HD
HETATM    6  C11 UNL     1      -1.973  11.728  -1.346  1.00  0.00     0.048 A 
HETATM    7  C12 UNL     1      -0.645  12.122  -1.482  1.00  0.00     0.067 A 
HETATM    8  C13 UNL     1       0.172  12.150  -0.396  1.00  0.00     0.079 A 
HETATM    9  C29 UNL     1      -0.350  11.781   0.814  1.00  0.00     0.054 A 
HETATM   10  C30 UNL     1      -1.705  11.368   1.012  1.00  0.00     0.065 A 
HETATM   11  C32 UNL     1      -2.500  11.355  -0.109  1.00  0.00     0.034 A 
ENDROOT
BRANCH   8  12
HETATM   12  O2  UNL     1       1.480  12.532  -0.493  1.00  0.00    -0.311 OA
BRANCH  12  13
HETATM   13  C14 UNL     1       2.425  12.439   0.507  1.00  0.00     0.081 A 
HETATM   14  C15 UNL     1       2.456  13.253   1.609  1.00  0.00     0.054 A 
HETATM   15  C16 UNL     1       3.441  13.070   2.526  1.00  0.00     0.092 A 
HETATM   16  N3  UNL     1       4.387  12.115   2.392  1.00  0.00    -0.352 N 
HETATM   17  C17 UNL     1       4.417  11.287   1.344  1.00  0.00     0.103 A 
ATOM     18  H3  UNL     1       5.102  12.024   3.115  1.00  0.00     0.166 HD
HETATM   19  C28 UNL     1       3.388  11.486   0.394  1.00  0.00     0.085 A 
BRANCH  17  20
HETATM   20  N4  UNL     1       5.269  10.424   1.188  1.00  0.00    -0.372 N 
ATOM     21  H4  UNL     1       6.079  10.829   1.656  1.00  0.00     0.161 HD
BRANCH  20  22
HETATM   22  C18 UNL     1       5.750   9.238   0.748  1.00  0.00     0.083 C 
HETATM   23  C19 UNL     1       6.113   8.208   1.781  1.00  0.00     0.027 C 
HETATM   24  C20 UNL     1       6.214   6.852   1.104  1.00  0.00     0.027 C 
HETATM   25  C21 UNL     1       7.108   6.950  -0.090  1.00  0.00     0.086 C 
HETATM   26  C26 UNL     1       7.910   8.237  -0.058  1.00  0.00     0.027 C 
HETATM   27  C27 UNL     1       6.977   9.400  -0.176  1.00  0.00     0.027 C 
BRANCH  25  28
HETATM   28  N5  UNL     1       8.014   5.828  -0.122  1.00  0.00    -0.332 N 
HETATM   29  C22 UNL     1       8.112   5.002  -1.266  1.00  0.00     0.361 C 
HETATM   30  O3  UNL     1       7.401   5.227  -2.298  1.00  0.00    -0.238 OA
ATOM     31  H5  UNL     1       8.592   5.628   0.693  1.00  0.00     0.165 HD
BRANCH  29  32
HETATM   32  O4  UNL     1       8.975   3.921  -1.323  1.00  0.00    -0.299 OA
BRANCH  32  33
HETATM   33  C23 UNL     1      10.239   3.973  -1.940  1.00  0.00     0.125 C 
HETATM   34  C24 UNL     1      11.297   3.845  -0.875  1.00  0.00     0.040 C 
HETATM   35  C25 UNL     1      10.439   2.823  -2.915  1.00  0.00     0.040 C 
ENDBRANCH  32  33
ENDBRANCH  29  32
ENDBRANCH  25  28
ENDBRANCH  20  22
ENDBRANCH  17  20
ENDBRANCH  12  13
ENDBRANCH   8  12
BRANCH  10  36
HETATM   36  C31 UNL     1      -2.194  11.007   2.306  1.00  0.00     0.418 C 
HETATM   37  F1  UNL     1      -0.952  11.096   3.089  1.00  0.00    -0.166 F 
HETATM   38  F2  UNL     1      -2.337   9.714   2.700  1.00  0.00    -0.166 F 
HETATM   39  F3  UNL     1      -2.712  12.025   3.096  1.00  0.00    -0.166 F 
ENDBRANCH  10  36
BRANCH   1  40
HETATM   40  N1  UNL     1      -4.385  10.743   1.005  1.00  0.00    -0.362 N 
ATOM     41  H1  UNL     1      -3.749  10.120   1.504  1.00  0.00     0.165 HD
BRANCH  40  42
HETATM   42  C2  UNL     1      -5.449  10.971   1.881  1.00  0.00    -0.021 C 
HETATM   43  C1  UNL     1      -6.090  12.332   1.932  1.00  0.00     0.062 C 
HETATM   44  C3  UNL     1      -5.518  10.193   3.175  1.00  0.00     0.062 C 
ENDBRANCH  40  42
ENDBRANCH   1  40
BRANCH   2  45
HETATM   45  C6  UNL     1      -5.939  10.356  -1.449  1.00  0.00     0.167 C 
HETATM   46  O1  UNL     1      -6.541   9.440  -0.907  1.00  0.00    -0.292 OA
BRANCH  45  47
HETATM   47  C7  UNL     1      -6.752  11.024  -2.545  1.00  0.00     0.061 A 
HETATM   48  C8  UNL     1      -7.078  10.096  -3.723  1.00  0.00     0.013 A 
HETATM   49  C9  UNL     1      -8.119  10.601  -2.823  1.00  0.00     0.013 A 
ENDBRANCH  45  47
ENDBRANCH   2  45
TORSDOF 12
ENDMDL
MODEL 5
REMARK VINA RESULT: -6.000412850      5.835      7.319
REMARK  12 active torsions:
REMARK  status: ('A' for Active; 'I' for Inactive)
REMARK    1  A    between atoms: C2_2  and  N1_4 
REMARK    2  A    between atoms: N1_4  and  C4_6 
REMARK    3  A    between atoms: C5_7  and  C6_8 
REMARK    4  A    between atoms: C6_8  and  C7_10 
REMARK    5  A    between atoms: C13_18  and  O2_19 
REMARK    6  A    between atoms: O2_19  and  C14_20 
REMARK    7  A    between atoms: C17_25  and  N4_26 
REMARK    8  A    between atoms: N4_26  and  C18_28 
REMARK    9  A    between atoms: C21_31  and  N5_32 
REMARK       I    between atoms: N5_32  and  C22_34 
REMARK   10  A    between atoms: C22_34  and  O4_36 
REMARK   11  A    between atoms: O4_36  and  C23_37 
REMARK   12  A    between atoms: C30_44  and  C31_45 
ROOT
HETATM    1  C4  UNL     1       3.846  10.474  -2.777  1.00  0.00     0.061 A 
HETATM    2  C5  UNL     1       2.526  10.158  -3.029  1.00  0.00     0.053 A 
HETATM    3  C10 UNL     1       1.726   9.827  -1.905  1.00  0.00     0.106 A 
HETATM    4  N2  UNL     1       2.205   9.826  -0.677  1.00  0.00    -0.364 N 
ATOM      5  H2  UNL     1       1.591   9.580   0.099  1.00  0.00     0.165 HD
HETATM    6  C11 UNL     1       3.487  10.141  -0.428  1.00  0.00     0.048 A 
HETATM    7  C12 UNL     1       3.892  10.143   0.904  1.00  0.00     0.067 A 
HETATM    8  C13 UNL     1       5.168  10.479   1.228  1.00  0.00     0.079 A 
HETATM    9  C29 UNL     1       6.025  10.811   0.215  1.00  0.00     0.054 A 
HETATM   10  C30 UNL     1       5.665  10.827  -1.169  1.00  0.00     0.065 A 
HETATM   11  C32 UNL     1       4.367  10.479  -1.457  1.00  0.00     0.034 A 
ENDROOT
BRANCH   8  12
HETATM   12  O2  UNL     1       5.598  10.491   2.525  1.00  0.00    -0.311 OA
BRANCH  12  13
HETATM   13  C14 UNL     1       6.219   9.448   3.180  1.00  0.00     0.081 A 
HETATM   14  C15 UNL     1       6.461   9.428   4.529  1.00  0.00     0.054 A 
HETATM   15  C16 UNL     1       7.086   8.346   5.062  1.00  0.00     0.092 A 
HETATM   16  N3  UNL     1       7.476   7.292   4.312  1.00  0.00    -0.352 N 
HETATM   17  C17 UNL     1       7.271   7.245   2.992  1.00  0.00     0.103 A 
ATOM     18  H3  UNL     1       7.940   6.507   4.768  1.00  0.00     0.166 HD
HETATM   19  C28 UNL     1       6.620   8.376   2.446  1.00  0.00     0.085 A 
BRANCH  17  20
HETATM   20  N4  UNL     1       7.625   6.313   2.285  1.00  0.00    -0.372 N 
ATOM     21  H4  UNL     1       7.052   5.545   2.633  1.00  0.00     0.161 HD
BRANCH  20  22
HETATM   22  C18 UNL     1       8.344   5.718   1.304  1.00  0.00     0.083 C 
HETATM   23  C19 UNL     1       9.554   6.447   0.789  1.00  0.00     0.027 C 
HETATM   24  C20 UNL     1      10.432   5.463   0.036  1.00  0.00     0.027 C 
HETATM   25  C21 UNL     1       9.613   4.725  -0.972  1.00  0.00     0.086 C 
HETATM   26  C26 UNL     1       8.278   5.413  -1.190  1.00  0.00     0.027 C 
HETATM   27  C27 UNL     1       7.483   5.352   0.076  1.00  0.00     0.027 C 
BRANCH  25  28
HETATM   28  N5  UNL     1      10.320   4.655  -2.227  1.00  0.00    -0.332 N 
HETATM   29  C22 UNL     1      10.118   3.577  -3.120  1.00  0.00     0.361 C 
HETATM   30  O3  UNL     1       9.306   2.638  -2.838  1.00  0.00    -0.238 OA
ATOM     31  H5  UNL     1      10.976   5.396  -2.475  1.00  0.00     0.165 HD
BRANCH  29  32
HETATM   32  O4  UNL     1      10.782   3.489  -4.332  1.00  0.00    -0.299 OA
BRANCH  32  33
HETATM   33  C23 UNL     1      11.179   2.268  -4.908  1.00  0.00     0.125 C 
HETATM   34  C24 UNL     1      10.757   2.262  -6.355  1.00  0.00     0.040 C 
HETATM   35  C25 UNL     1      12.690   2.095  -4.879  1.00  0.00     0.040 C 
ENDBRANCH  32  33
ENDBRANCH  29  32
ENDBRANCH  25  28
ENDBRANCH  20  22
ENDBRANCH  17  20
ENDBRANCH  12  13
ENDBRANCH   8  12
BRANCH  10  36
HETATM   36  C31 UNL     1       6.613  11.171  -2.183  1.00  0.00     0.418 C 
HETATM   37  F1  UNL     1       7.774  11.518  -1.350  1.00  0.00    -0.166 F 
HETATM   38  F2  UNL     1       6.663  12.406  -2.749  1.00  0.00    -0.166 F 
HETATM   39  F3  UNL     1       7.367  10.138  -2.724  1.00  0.00    -0.166 F 
ENDBRANCH  10  36
BRANCH   1  40
HETATM   40  N1  UNL     1       4.628  10.630  -3.710  1.00  0.00    -0.362 N 
ATOM     41  H1  UNL     1       5.502  10.939  -3.284  1.00  0.00     0.165 HD
BRANCH  40  42
HETATM   42  C2  UNL     1       4.881  10.582  -5.084  1.00  0.00    -0.021 C 
HETATM   43  C1  UNL     1       5.803   9.526  -5.633  1.00  0.00     0.062 C 
HETATM   44  C3  UNL     1       4.840  11.862  -5.886  1.00  0.00     0.062 C 
ENDBRANCH  40  42
ENDBRANCH   1  40
BRANCH   2  45
HETATM   45  C6  UNL     1       1.774  10.264  -4.258  1.00  0.00     0.167 C 
HETATM   46  O1  UNL     1       1.781   9.595  -5.282  1.00  0.00    -0.292 OA
BRANCH  45  47
HETATM   47  C7  UNL     1       0.785  11.417  -4.319  1.00  0.00     0.061 A 
HETATM   48  C8  UNL     1       1.411  12.741  -4.777  1.00  0.00     0.013 A 
HETATM   49  C9  UNL     1       0.426  12.025  -5.594  1.00  0.00     0.013 A 
ENDBRANCH  45  47
ENDBRANCH   2  45
TORSDOF 12
ENDMDL
