MODEL 1
REMARK VINA RESULT: -5.744263413      0.000      0.000
REMARK  10 active torsions:
REMARK  status: ('A' for Active; 'I' for Inactive)
REMARK    1  A    between atoms: C2_2  and  C3_3 
REMARK    2  A    between atoms: C3_3  and  O1_4 
REMARK    3  A    between atoms: C3_3  and  C4_6 
REMARK    4  A    between atoms: C3_3  and  C6_8 
REMARK    5  A    between atoms: C6_8  and  C7_9 
REMARK    6  A    between atoms: C7_9  and  C8_10 
REMARK    7  A    between atoms: C8_10  and  C9_11 
REMARK    8  A    between atoms: C10_12  and  O2_13 
REMARK    9  A    between atoms: C12_15  and  O3_17 
REMARK   10  A    between atoms: C19_24  and  O4_25 
ROOT
HETATM    1  C9  UNL     1      -5.043  12.313   1.202  1.00  0.00    -0.018 C 
HETATM    2  C10 UNL     1      -4.223  12.445  -0.016  1.00  0.00     0.187 C 
HETATM    3  C12 UNL     1      -4.363  11.491  -1.149  1.00  0.00     0.092 C 
HETATM    4  C13 UNL     1      -3.464  10.270  -0.726  1.00  0.00     0.050 C 
HETATM    5  C14 UNL     1      -5.344  10.994  -1.966  1.00  0.00     0.002 A 
HETATM    6  C15 UNL     1      -5.033  10.931  -3.457  1.00  0.00     0.014 C 
HETATM    7  C16 UNL     1      -6.371  11.396  -4.078  1.00  0.00     0.019 C 
HETATM    8  C17 UNL     1      -7.198  11.747  -2.869  1.00  0.00     0.034 C 
HETATM    9  C18 UNL     1      -8.670  11.764  -3.093  1.00  0.00     0.024 A 
HETATM   10  C19 UNL     1      -9.161  11.391  -4.297  1.00  0.00     0.075 A 
HETATM   11  C20 UNL     1     -10.529  11.282  -4.506  1.00  0.00     0.040 A 
HETATM   12  C21 UNL     1     -11.442  11.546  -3.521  1.00  0.00     0.048 A 
HETATM   13  C22 UNL     1     -10.920  11.934  -2.304  1.00  0.00     0.150 A 
HETATM   14  F1  UNL     1     -11.824  12.194  -1.285  1.00  0.00    -0.203 F 
HETATM   15  C23 UNL     1      -9.564  12.056  -2.062  1.00  0.00     0.117 A 
HETATM   16  O5  UNL     1      -9.260  12.503  -0.741  1.00  0.00    -0.339 OA
HETATM   17  C24 UNL     1      -8.523  13.737  -0.525  1.00  0.00     0.166 C 
HETATM   18  C25 UNL     1      -8.419  14.120   0.910  1.00  0.00     0.039 C 
HETATM   19  C26 UNL     1      -7.001  14.011   1.524  1.00  0.00     0.045 C 
HETATM   20  C27 UNL     1      -6.500  12.708   1.031  1.00  0.00     0.084 C 
HETATM   21  C28 UNL     1      -7.342  11.708   1.804  1.00  0.00     0.051 C 
HETATM   22  O6  UNL     1      -6.605  12.777  -0.274  1.00  0.00    -0.360 OA
HETATM   23  C29 UNL     1      -7.129  13.627  -1.078  1.00  0.00     0.117 C 
HETATM   24  C30 UNL     1      -6.698  15.078  -1.201  1.00  0.00     0.052 C 
HETATM   25  C31 UNL     1      -6.932  13.123  -2.456  1.00  0.00     0.221 C 
HETATM   26  F2  UNL     1      -7.720  14.010  -3.222  1.00  0.00    -0.245 F 
HETATM   27  C32 UNL     1      -6.746  10.614  -2.092  1.00  0.00    -0.018 A 
HETATM   28  C33 UNL     1      -7.312   9.366  -2.783  1.00  0.00     0.017 C 
HETATM   29  C34 UNL     1      -5.903   9.914  -1.218  1.00  0.00     0.024 A 
ENDROOT
BRANCH   1  30
HETATM   30  C8  UNL     1      -4.516  12.624   2.534  1.00  0.00    -0.018 C 
BRANCH  30  31
HETATM   31  C7  UNL     1      -3.832  11.739   3.440  1.00  0.00     0.030 C 
BRANCH  31  32
HETATM   32  C6  UNL     1      -4.388  10.316   3.163  1.00  0.00     0.041 C 
BRANCH  32  33
HETATM   33  C3  UNL     1      -4.951   9.748   4.413  1.00  0.00     0.057 C 
BRANCH  33  34
HETATM   34  C2  UNL     1      -4.586   8.301   4.572  1.00  0.00     0.033 C 
HETATM   35  C1  UNL     1      -3.701   7.805   3.453  1.00  0.00     0.008 C 
ENDBRANCH  33  34
BRANCH  33  36
HETATM   36  O1  UNL     1      -6.360   9.807   4.312  1.00  0.00    -0.390 OA
ATOM     37  H1  UNL     1      -6.634  10.608   4.742  1.00  0.00     0.210 HD
ENDBRANCH  33  36
BRANCH  33  38
HETATM   38  C4  UNL     1      -4.586  10.557   5.643  1.00  0.00     0.033 C 
HETATM   39  C5  UNL     1      -4.961   9.745   6.854  1.00  0.00     0.008 C 
ENDBRANCH  33  38
ENDBRANCH  32  33
ENDBRANCH  31  32
ENDBRANCH  30  31
ENDBRANCH   1  30
BRANCH   2  40
HETATM   40  O2  UNL     1      -2.895  12.298   0.415  1.00  0.00    -0.383 OA
HETATM   41  C11 UNL     1      -2.116  13.392   0.501  1.00  0.00     0.202 C 
ENDBRANCH   2  40
BRANCH   3  42
HETATM   42  O3  UNL     1      -3.355  12.085  -2.006  1.00  0.00    -0.386 OA
ATOM     43  H3  UNL     1      -2.872  11.287  -2.187  1.00  0.00     0.210 HD
ENDBRANCH   3  42
BRANCH  10  44
HETATM   44  O4  UNL     1      -8.336  11.120  -5.357  1.00  0.00    -0.360 OA
ATOM     45  H4  UNL     1      -8.420  10.319  -5.861  1.00  0.00     0.217 HD
ENDBRANCH  10  44
TORSDOF 10
ENDMDL
MODEL 2
REMARK VINA RESULT: -5.431255810      2.673      3.339
REMARK  10 active torsions:
REMARK  status: ('A' for Active; 'I' for Inactive)
REMARK    1  A    between atoms: C2_2  and  C3_3 
REMARK    2  A    between atoms: C3_3  and  O1_4 
REMARK    3  A    between atoms: C3_3  and  C4_6 
REMARK    4  A    between atoms: C3_3  and  C6_8 
REMARK    5  A    between atoms: C6_8  and  C7_9 
REMARK    6  A    between atoms: C7_9  and  C8_10 
REMARK    7  A    between atoms: C8_10  and  C9_11 
REMARK    8  A    between atoms: C10_12  and  O2_13 
REMARK    9  A    between atoms: C12_15  and  O3_17 
REMARK   10  A    between atoms: C19_24  and  O4_25 
ROOT
HETATM    1  C9  UNL     1      -3.710  12.897   1.236  1.00  0.00    -0.018 C 
HETATM    2  C10 UNL     1      -2.451  13.089   0.494  1.00  0.00     0.187 C 
HETATM    3  C12 UNL     1      -2.249  12.490  -0.853  1.00  0.00     0.092 C 
HETATM    4  C13 UNL     1      -1.792  11.015  -0.543  1.00  0.00     0.050 C 
HETATM    5  C14 UNL     1      -2.866  12.463  -2.076  1.00  0.00     0.002 A 
HETATM    6  C15 UNL     1      -1.980  12.666  -3.300  1.00  0.00     0.014 C 
HETATM    7  C16 UNL     1      -2.860  13.589  -4.175  1.00  0.00     0.019 C 
HETATM    8  C17 UNL     1      -4.051  13.854  -3.292  1.00  0.00     0.034 C 
HETATM    9  C18 UNL     1      -5.279  14.300  -4.006  1.00  0.00     0.024 A 
HETATM   10  C19 UNL     1      -5.279  14.352  -5.358  1.00  0.00     0.075 A 
HETATM   11  C20 UNL     1      -6.438  14.650  -6.060  1.00  0.00     0.040 A 
HETATM   12  C21 UNL     1      -7.628  14.907  -5.433  1.00  0.00     0.048 A 
HETATM   13  C22 UNL     1      -7.604  14.857  -4.053  1.00  0.00     0.150 A 
HETATM   14  F1  UNL     1      -8.799  15.101  -3.393  1.00  0.00    -0.203 F 
HETATM   15  C23 UNL     1      -6.466  14.568  -3.321  1.00  0.00     0.117 A 
HETATM   16  O5  UNL     1      -6.673  14.606  -1.910  1.00  0.00    -0.339 OA
HETATM   17  C24 UNL     1      -5.919  15.525  -1.073  1.00  0.00     0.166 C 
HETATM   18  C25 UNL     1      -6.362  15.528   0.348  1.00  0.00     0.039 C 
HETATM   19  C26 UNL     1      -5.357  14.921   1.358  1.00  0.00     0.045 C 
HETATM   20  C27 UNL     1      -4.892  13.682   0.693  1.00  0.00     0.084 C 
HETATM   21  C28 UNL     1      -6.113  12.783   0.763  1.00  0.00     0.051 C 
HETATM   22  O6  UNL     1      -4.438  14.073  -0.473  1.00  0.00    -0.360 OA
HETATM   23  C29 UNL     1      -4.454  15.190  -1.102  1.00  0.00     0.117 C 
HETATM   24  C30 UNL     1      -3.804  16.470  -0.604  1.00  0.00     0.052 C 
HETATM   25  C31 UNL     1      -3.781  14.983  -2.404  1.00  0.00     0.221 C 
HETATM   26  F2  UNL     1      -4.045  16.193  -3.081  1.00  0.00    -0.245 F 
HETATM   27  C32 UNL     1      -4.130  12.496  -2.802  1.00  0.00    -0.018 A 
HETATM   28  C33 UNL     1      -4.536  11.628  -4.001  1.00  0.00     0.017 C 
HETATM   29  C34 UNL     1      -3.834  11.421  -1.951  1.00  0.00     0.024 A 
ENDROOT
BRANCH   1  30
HETATM   30  C8  UNL     1      -3.740  12.748   2.694  1.00  0.00    -0.018 C 
BRANCH  30  31
HETATM   31  C7  UNL     1      -4.274  11.650   3.456  1.00  0.00     0.030 C 
BRANCH  31  32
HETATM   32  C6  UNL     1      -3.422  10.406   3.086  1.00  0.00     0.041 C 
BRANCH  32  33
HETATM   33  C3  UNL     1      -4.315   9.261   2.781  1.00  0.00     0.057 C 
BRANCH  33  34
HETATM   34  C2  UNL     1      -4.018   8.677   1.430  1.00  0.00     0.033 C 
HETATM   35  C1  UNL     1      -4.900   9.254   0.348  1.00  0.00     0.008 C 
ENDBRANCH  33  34
BRANCH  33  36
HETATM   36  O1  UNL     1      -5.640   9.754   2.731  1.00  0.00    -0.390 OA
ATOM     37  H1  UNL     1      -5.973   9.738   3.621  1.00  0.00     0.210 HD
ENDBRANCH  33  36
BRANCH  33  38
HETATM   38  C4  UNL     1      -4.304   8.201   3.865  1.00  0.00     0.033 C 
HETATM   39  C5  UNL     1      -3.524   7.023   3.347  1.00  0.00     0.008 C 
ENDBRANCH  33  38
ENDBRANCH  32  33
ENDBRANCH  31  32
ENDBRANCH  30  31
ENDBRANCH   1  30
BRANCH   2  40
HETATM   40  O2  UNL     1      -1.456  12.510   1.297  1.00  0.00    -0.383 OA
HETATM   41  C11 UNL     1      -0.656  13.316   2.020  1.00  0.00     0.202 C 
ENDBRANCH   2  40
BRANCH   3  42
HETATM   42  O3  UNL     1      -0.902  12.984  -1.067  1.00  0.00    -0.386 OA
ATOM     43  H3  UNL     1      -0.938  13.015  -2.015  1.00  0.00     0.210 HD
ENDBRANCH   3  42
BRANCH  10  44
HETATM   44  O4  UNL     1      -4.139  14.129  -6.084  1.00  0.00    -0.360 OA
ATOM     45  H4  UNL     1      -3.427  13.603  -5.742  1.00  0.00     0.217 HD
ENDBRANCH  10  44
TORSDOF 10
ENDMDL
MODEL 3
REMARK VINA RESULT: -5.425209183     11.597     15.088
REMARK  10 active torsions:
REMARK  status: ('A' for Active; 'I' for Inactive)
REMARK    1  A    between atoms: C2_2  and  C3_3 
REMARK    2  A    between atoms: C3_3  and  O1_4 
REMARK    3  A    between atoms: C3_3  and  C4_6 
REMARK    4  A    between atoms: C3_3  and  C6_8 
REMARK    5  A    between atoms: C6_8  and  C7_9 
REMARK    6  A    between atoms: C7_9  and  C8_10 
REMARK    7  A    between atoms: C8_10  and  C9_11 
REMARK    8  A    between atoms: C10_12  and  O2_13 
REMARK    9  A    between atoms: C12_15  and  O3_17 
REMARK   10  A    between atoms: C19_24  and  O4_25 
ROOT
HETATM    1  C9  UNL     1       9.407   7.822   1.963  1.00  0.00    -0.018 C 
HETATM    2  C10 UNL     1       9.656   9.086   1.246  1.00  0.00     0.187 C 
HETATM    3  C12 UNL     1       8.692   9.606   0.240  1.00  0.00     0.092 C 
HETATM    4  C13 UNL     1       9.070   8.833  -1.078  1.00  0.00     0.050 C 
HETATM    5  C14 UNL     1       7.360   9.916   0.147  1.00  0.00     0.002 A 
HETATM    6  C15 UNL     1       7.004  11.238  -0.523  1.00  0.00     0.014 C 
HETATM    7  C16 UNL     1       5.869  11.757   0.389  1.00  0.00     0.019 C 
HETATM    8  C17 UNL     1       5.816  10.723   1.482  1.00  0.00     0.034 C 
HETATM    9  C18 UNL     1       4.535  10.667   2.239  1.00  0.00     0.024 A 
HETATM   10  C19 UNL     1       3.504  11.455   1.857  1.00  0.00     0.075 A 
HETATM   11  C20 UNL     1       2.260  11.347   2.463  1.00  0.00     0.040 A 
HETATM   12  C21 UNL     1       2.012  10.452   3.468  1.00  0.00     0.048 A 
HETATM   13  C22 UNL     1       3.080   9.663   3.849  1.00  0.00     0.150 A 
HETATM   14  F1  UNL     1       2.852   8.739   4.858  1.00  0.00    -0.203 F 
HETATM   15  C23 UNL     1       4.333   9.748   3.270  1.00  0.00     0.117 A 
HETATM   16  O5  UNL     1       5.288   8.859   3.849  1.00  0.00    -0.339 OA
HETATM   17  C24 UNL     1       6.500   9.369   4.467  1.00  0.00     0.166 C 
HETATM   18  C25 UNL     1       7.308   8.317   5.141  1.00  0.00     0.039 C 
HETATM   19  C26 UNL     1       8.659   7.981   4.460  1.00  0.00     0.045 C 
HETATM   20  C27 UNL     1       8.320   7.897   3.021  1.00  0.00     0.084 C 
HETATM   21  C28 UNL     1       7.509   6.616   2.940  1.00  0.00     0.051 C 
HETATM   22  O6  UNL     1       7.753   9.045   2.739  1.00  0.00    -0.360 OA
HETATM   23  C29 UNL     1       7.374  10.045   3.447  1.00  0.00     0.117 C 
HETATM   24  C30 UNL     1       8.296  10.897   4.302  1.00  0.00     0.052 C 
HETATM   25  C31 UNL     1       6.781  11.045   2.531  1.00  0.00     0.221 C 
HETATM   26  F2  UNL     1       6.217  11.982   3.425  1.00  0.00    -0.245 F 
HETATM   27  C32 UNL     1       6.005   9.604   0.586  1.00  0.00    -0.018 A 
HETATM   28  C33 UNL     1       4.741   9.529  -0.282  1.00  0.00     0.017 C 
HETATM   29  C34 UNL     1       6.737   8.668  -0.160  1.00  0.00     0.024 A 
ENDROOT
BRANCH   1  30
HETATM   30  C8  UNL     1      10.490   6.900   2.316  1.00  0.00    -0.018 C 
BRANCH  30  31
HETATM   31  C7  UNL     1      10.930   5.738   1.589  1.00  0.00     0.030 C 
BRANCH  31  32
HETATM   32  C6  UNL     1       9.809   5.412   0.565  1.00  0.00     0.041 C 
BRANCH  32  33
HETATM   33  C3  UNL     1      10.409   5.165  -0.769  1.00  0.00     0.057 C 
BRANCH  33  34
HETATM   34  C2  UNL     1      11.236   3.913  -0.777  1.00  0.00     0.033 C 
HETATM   35  C1  UNL     1      10.738   2.902  -1.784  1.00  0.00     0.008 C 
ENDBRANCH  33  34
BRANCH  33  36
HETATM   36  O1  UNL     1      11.287   6.238  -1.049  1.00  0.00    -0.390 OA
ATOM     37  H1  UNL     1      11.372   6.740  -0.247  1.00  0.00     0.210 HD
ENDBRANCH  33  36
BRANCH  33  38
HETATM   38  C4  UNL     1       9.381   5.165  -1.884  1.00  0.00     0.033 C 
HETATM   39  C5  UNL     1       8.019   5.279  -1.255  1.00  0.00     0.008 C 
ENDBRANCH  33  38
ENDBRANCH  32  33
ENDBRANCH  31  32
ENDBRANCH  30  31
ENDBRANCH   1  30
BRANCH   2  40
HETATM   40  O2  UNL     1      10.844   8.877   0.530  1.00  0.00    -0.383 OA
HETATM   41  C11 UNL     1      11.986   9.418   0.994  1.00  0.00     0.202 C 
ENDBRANCH   2  40
BRANCH   3  42
HETATM   42  O3  UNL     1       9.432  10.803  -0.112  1.00  0.00    -0.386 OA
ATOM     43  H3  UNL     1       9.519  11.149   0.768  1.00  0.00     0.210 HD
ENDBRANCH   3  42
BRANCH  10  44
HETATM   44  O4  UNL     1       3.648  12.397   0.872  1.00  0.00    -0.360 OA
ATOM     45  H4  UNL     1       3.931  12.161  -0.004  1.00  0.00     0.217 HD
ENDBRANCH  10  44
TORSDOF 10
ENDMDL
MODEL 4
REMARK VINA RESULT: -5.361484452     14.051     18.157
REMARK  10 active torsions:
REMARK  status: ('A' for Active; 'I' for Inactive)
REMARK    1  A    between atoms: C2_2  and  C3_3 
REMARK    2  A    between atoms: C3_3  and  O1_4 
REMARK    3  A    between atoms: C3_3  and  C4_6 
REMARK    4  A    between atoms: C3_3  and  C6_8 
REMARK    5  A    between atoms: C6_8  and  C7_9 
REMARK    6  A    between atoms: C7_9  and  C8_10 
REMARK    7  A    between atoms: C8_10  and  C9_11 
REMARK    8  A    between atoms: C10_12  and  O2_13 
REMARK    9  A    between atoms: C12_15  and  O3_17 
REMARK   10  A    between atoms: C19_24  and  O4_25 
ROOT
HETATM    1  C9  UNL     1       9.097   7.169   0.106  1.00  0.00    -0.018 C 
HETATM    2  C10 UNL     1       8.248   8.372   0.180  1.00  0.00     0.187 C 
HETATM    3  C12 UNL     1       7.268   8.560   1.283  1.00  0.00     0.092 C 
HETATM    4  C13 UNL     1       6.006   7.750   0.805  1.00  0.00     0.050 C 
HETATM    5  C14 UNL     1       7.241   8.561   2.653  1.00  0.00     0.002 A 
HETATM    6  C15 UNL     1       6.477   9.695   3.326  1.00  0.00     0.014 C 
HETATM    7  C16 UNL     1       7.413  10.051   4.504  1.00  0.00     0.019 C 
HETATM    8  C17 UNL     1       8.600   9.153   4.272  1.00  0.00     0.034 C 
HETATM    9  C18 UNL     1       9.447   8.902   5.470  1.00  0.00     0.024 A 
HETATM   10  C19 UNL     1       9.066   9.403   6.668  1.00  0.00     0.075 A 
HETATM   11  C20 UNL     1       9.766   9.093   7.826  1.00  0.00     0.040 A 
HETATM   12  C21 UNL     1      10.866   8.279   7.819  1.00  0.00     0.048 A 
HETATM   13  C22 UNL     1      11.244   7.787   6.586  1.00  0.00     0.150 A 
HETATM   14  F1  UNL     1      12.348   6.948   6.553  1.00  0.00    -0.203 F 
HETATM   15  C23 UNL     1      10.572   8.078   5.412  1.00  0.00     0.117 A 
HETATM   16  O5  UNL     1      11.163   7.485   4.257  1.00  0.00    -0.339 OA
HETATM   17  C24 UNL     1      11.644   8.309   3.161  1.00  0.00     0.166 C 
HETATM   18  C25 UNL     1      12.354   7.536   2.106  1.00  0.00     0.039 C 
HETATM   19  C26 UNL     1      11.615   7.429   0.749  1.00  0.00     0.045 C 
HETATM   20  C27 UNL     1      10.218   7.120   1.130  1.00  0.00     0.084 C 
HETATM   21  C28 UNL     1      10.315   5.692   1.638  1.00  0.00     0.051 C 
HETATM   22  O6  UNL     1       9.870   8.081   1.951  1.00  0.00    -0.360 OA
HETATM   23  C29 UNL     1      10.505   9.044   2.510  1.00  0.00     0.117 C 
HETATM   24  C30 UNL     1      11.208  10.163   1.761  1.00  0.00     0.052 C 
HETATM   25  C31 UNL     1       9.543   9.788   3.354  1.00  0.00     0.221 C 
HETATM   26  F2  UNL     1      10.382  10.670   4.068  1.00  0.00    -0.245 F 
HETATM   27  C32 UNL     1       7.802   8.012   3.881  1.00  0.00    -0.018 A 
HETATM   28  C33 UNL     1       7.036   7.572   5.137  1.00  0.00     0.017 C 
HETATM   29  C34 UNL     1       7.098   7.183   2.997  1.00  0.00     0.024 A 
ENDROOT
BRANCH   1  30
HETATM   30  C8  UNL     1       9.458   6.547  -1.171  1.00  0.00    -0.018 C 
BRANCH  30  31
HETATM   31  C7  UNL     1       8.999   5.289  -1.699  1.00  0.00     0.030 C 
BRANCH  31  32
HETATM   32  C6  UNL     1      10.071   4.827  -2.723  1.00  0.00     0.041 C 
BRANCH  32  33
HETATM   33  C3  UNL     1      10.307   3.370  -2.575  1.00  0.00     0.057 C 
BRANCH  33  34
HETATM   34  C2  UNL     1      11.156   2.834  -3.692  1.00  0.00     0.033 C 
HETATM   35  C1  UNL     1      11.400   3.862  -4.771  1.00  0.00     0.008 C 
ENDBRANCH  33  34
BRANCH  33  36
HETATM   36  O1  UNL     1       9.053   2.722  -2.667  1.00  0.00    -0.390 OA
ATOM     37  H1  UNL     1       9.229   1.809  -2.860  1.00  0.00     0.210 HD
ENDBRANCH  33  36
BRANCH  33  38
HETATM   38  C4  UNL     1      10.870   3.000  -1.216  1.00  0.00     0.033 C 
HETATM   39  C5  UNL     1      12.209   3.672  -1.076  1.00  0.00     0.008 C 
ENDBRANCH  33  38
ENDBRANCH  32  33
ENDBRANCH  31  32
ENDBRANCH  30  31
ENDBRANCH   1  30
BRANCH   2  40
HETATM   40  O2  UNL     1       7.473   8.350  -0.989  1.00  0.00    -0.383 OA
HETATM   41  C11 UNL     1       7.788   9.190  -1.993  1.00  0.00     0.202 C 
ENDBRANCH   2  40
BRANCH   3  42
HETATM   42  O3  UNL     1       6.753   9.844   0.846  1.00  0.00    -0.386 OA
ATOM     43  H3  UNL     1       5.843   9.684   1.064  1.00  0.00     0.210 HD
ENDBRANCH   3  42
BRANCH  10  44
HETATM   44  O4  UNL     1       7.989  10.242   6.785  1.00  0.00    -0.360 OA
ATOM     45  H4  UNL     1       7.103   9.938   6.629  1.00  0.00     0.217 HD
ENDBRANCH  10  44
TORSDOF 10
ENDMDL
MODEL 5
REMARK VINA RESULT: -5.355441238      3.903      8.161
REMARK  10 active torsions:
REMARK  status: ('A' for Active; 'I' for Inactive)
REMARK    1  A    between atoms: C2_2  and  C3_3 
REMARK    2  A    between atoms: C3_3  and  O1_4 
REMARK    3  A    between atoms: C3_3  and  C4_6 
REMARK    4  A    between atoms: C3_3  and  C6_8 
REMARK    5  A    between atoms: C6_8  and  C7_9 
REMARK    6  A    between atoms: C7_9  and  C8_10 
REMARK    7  A    between atoms: C8_10  and  C9_11 
REMARK    8  A    between atoms: C10_12  and  O2_13 
REMARK    9  A    between atoms: C12_15  and  O3_17 
REMARK   10  A    between atoms: C19_24  and  O4_25 
ROOT
HETATM    1  C9  UNL     1      -2.892  11.891   0.210  1.00  0.00    -0.018 C 
HETATM    2  C10 UNL     1      -3.507  13.041  -0.474  1.00  0.00     0.187 C 
HETATM    3  C12 UNL     1      -3.859  14.284   0.265  1.00  0.00     0.092 C 
HETATM    4  C13 UNL     1      -5.266  13.960   0.894  1.00  0.00     0.050 C 
HETATM    5  C14 UNL     1      -3.261  15.202   1.088  1.00  0.00     0.002 A 
HETATM    6  C15 UNL     1      -3.535  16.672   0.794  1.00  0.00     0.014 C 
HETATM    7  C16 UNL     1      -2.139  17.301   1.008  1.00  0.00     0.019 C 
HETATM    8  C17 UNL     1      -1.270  16.103   1.286  1.00  0.00     0.034 C 
HETATM    9  C18 UNL     1       0.004  16.398   1.998  1.00  0.00     0.024 A 
HETATM   10  C19 UNL     1       0.253  17.661   2.416  1.00  0.00     0.075 A 
HETATM   11  C20 UNL     1       1.373  17.950   3.183  1.00  0.00     0.040 A 
HETATM   12  C21 UNL     1       2.275  16.989   3.552  1.00  0.00     0.048 A 
HETATM   13  C22 UNL     1       2.007  15.709   3.107  1.00  0.00     0.150 A 
HETATM   14  F1  UNL     1       2.899  14.714   3.477  1.00  0.00    -0.203 F 
HETATM   15  C23 UNL     1       0.904  15.386   2.338  1.00  0.00     0.117 A 
HETATM   16  O5  UNL     1       0.852  14.009   1.968  1.00  0.00    -0.339 OA
HETATM   17  C24 UNL     1       0.852  13.614   0.570  1.00  0.00     0.166 C 
HETATM   18  C25 UNL     1       0.936  12.142   0.371  1.00  0.00     0.039 C 
HETATM   19  C26 UNL     1      -0.345  11.473  -0.186  1.00  0.00     0.045 C 
HETATM   20  C27 UNL     1      -1.437  12.088   0.601  1.00  0.00     0.084 C 
HETATM   21  C28 UNL     1      -1.244  11.480   1.979  1.00  0.00     0.051 C 
HETATM   22  O6  UNL     1      -1.290  13.380   0.433  1.00  0.00    -0.360 OA
HETATM   23  C29 UNL     1      -0.390  14.105  -0.121  1.00  0.00     0.117 C 
HETATM   24  C30 UNL     1      -0.010  14.037  -1.590  1.00  0.00     0.052 C 
HETATM   25  C31 UNL     1      -0.795  15.521   0.032  1.00  0.00     0.221 C 
HETATM   26  F2  UNL     1       0.349  16.217  -0.413  1.00  0.00    -0.245 F 
HETATM   27  C32 UNL     1      -2.253  15.442   2.114  1.00  0.00    -0.018 A 
HETATM   28  C33 UNL     1      -2.400  16.300   3.378  1.00  0.00     0.017 C 
HETATM   29  C34 UNL     1      -3.351  14.613   2.386  1.00  0.00     0.024 A 
ENDROOT
BRANCH   1  30
HETATM   30  C8  UNL     1      -3.206  10.506  -0.156  1.00  0.00    -0.018 C 
BRANCH  30  31
HETATM   31  C7  UNL     1      -3.842   9.502   0.655  1.00  0.00     0.030 C 
BRANCH  31  32
HETATM   32  C6  UNL     1      -4.807  10.257   1.608  1.00  0.00     0.041 C 
BRANCH  32  33
HETATM   33  C3  UNL     1      -4.513   9.884   3.014  1.00  0.00     0.057 C 
BRANCH  33  34
HETATM   34  C2  UNL     1      -3.457   8.820   3.091  1.00  0.00     0.033 C 
HETATM   35  C1  UNL     1      -3.982   7.532   3.683  1.00  0.00     0.008 C 
ENDBRANCH  33  34
BRANCH  33  36
HETATM   36  O1  UNL     1      -5.693   9.331   3.565  1.00  0.00    -0.390 OA
ATOM     37  H1  UNL     1      -5.495   8.431   3.793  1.00  0.00     0.210 HD
ENDBRANCH  33  36
BRANCH  33  38
HETATM   38  C4  UNL     1      -4.168  11.080   3.880  1.00  0.00     0.033 C 
HETATM   39  C5  UNL     1      -4.556  10.748   5.296  1.00  0.00     0.008 C 
ENDBRANCH  33  38
ENDBRANCH  32  33
ENDBRANCH  31  32
ENDBRANCH  30  31
ENDBRANCH   1  30
BRANCH   2  40
HETATM   40  O2  UNL     1      -4.727  12.565  -0.976  1.00  0.00    -0.383 OA
HETATM   41  C11 UNL     1      -4.819  12.266  -2.286  1.00  0.00     0.202 C 
ENDBRANCH   2  40
BRANCH   3  42
HETATM   42  O3  UNL     1      -4.403  15.014  -0.864  1.00  0.00    -0.386 OA
ATOM     43  H3  UNL     1      -5.159  15.375  -0.415  1.00  0.00     0.210 HD
ENDBRANCH   3  42
BRANCH  10  44
HETATM   44  O4  UNL     1      -0.576  18.701   2.090  1.00  0.00    -0.360 OA
ATOM     45  H4  UNL     1      -0.465  19.564   2.471  1.00  0.00     0.217 HD
ENDBRANCH  10  44
TORSDOF 10
ENDMDL
