MODEL 1
REMARK VINA RESULT: -8.762146702      0.000      0.000
REMARK  6 active torsions:
REMARK  status: ('A' for Active; 'I' for Inactive)
REMARK    1  A    between atoms: N1_2  and  C2_3 
REMARK    2  A    between atoms: N1_2  and  S1_13 
REMARK    3  A    between atoms: C2_3  and  C3_4 
REMARK    4  A    between atoms: C2_3  and  C4_7 
REMARK       I    between atoms: C4_7  and  N3_9 
REMARK    5  A    between atoms: N3_9  and  N4_10 
REMARK    6  A    between atoms: S1_13  and  N5_16 
ROOT
HETATM    1  N5  UNL     1      -0.302   4.728  82.862  1.00  0.00    -0.271 N 
ATOM      2  H5  UNL     1      -1.215   4.432  82.518  1.00  0.00     0.180 HD
HETATM    3  C5  UNL     1       0.532   4.994  81.959  1.00  0.00     0.059 A 
HETATM    4  C6  UNL     1       0.090   4.846  80.644  1.00  0.00     0.118 A 
HETATM    5  N6  UNL     1       0.860   5.085  79.582  1.00  0.00    -0.360 N 
ATOM      6  H6  UNL     1       0.470   4.956  78.648  1.00  0.00     0.165 HD
HETATM    7  C7  UNL     1       2.120   5.485  79.704  1.00  0.00     0.086 A 
HETATM    8  C8  UNL     1       2.938   5.738  78.608  1.00  0.00     0.145 A 
HETATM    9  N7  UNL     1       2.418   5.561  77.294  1.00  0.00    -0.080 NA
HETATM   10  N8  UNL     1       4.222   6.146  78.803  1.00  0.00    -0.327 N 
ATOM     11  H8  UNL     1       4.816   6.330  77.994  1.00  0.00     0.168 HD
HETATM   12  C9  UNL     1       4.722   6.311  80.034  1.00  0.00     0.137 A 
HETATM   13  C10 UNL     1       3.949   6.074  81.182  1.00  0.00     0.090 A 
HETATM   14  N9  UNL     1       4.727   6.325  82.229  1.00  0.00    -0.348 N 
ATOM     15  H9  UNL     1       4.450   6.242  83.208  1.00  0.00     0.167 HD
HETATM   16  C11 UNL     1       5.960   6.711  81.782  1.00  0.00     0.184 A 
HETATM   17  N10 UNL     1       5.941   6.699  80.437  1.00  0.00    -0.332 N 
HETATM   18  C12 UNL     1       7.056   7.047  79.594  1.00  0.00     0.158 C 
HETATM   19  C13 UNL     1       2.642   5.659  81.052  1.00  0.00     0.027 A 
HETATM   20  C14 UNL     1       1.825   5.407  82.137  1.00  0.00     0.048 A 
ENDROOT
BRANCH   1  21
HETATM   21  S1  UNL     1      -0.175   4.777  84.538  1.00  0.00     0.304 S 
HETATM   22  O3  UNL     1       1.204   4.370  84.975  1.00  0.00    -0.188 OA
HETATM   23  O4  UNL     1      -0.409   6.173  85.032  1.00  0.00    -0.188 OA
BRANCH  21  24
HETATM   24  N1  UNL     1      -1.378   3.708  85.283  1.00  0.00    -0.174 NA
HETATM   25  C1  UNL     1      -2.269   4.606  85.950  1.00  0.00     0.132 C 
BRANCH  24  26
HETATM   26  C2  UNL     1      -0.760   2.756  86.079  1.00  0.00     0.273 C 
BRANCH  26  27
HETATM   27  C3  UNL     1      -1.599   2.026  87.030  1.00  0.00     0.260 C 
HETATM   28  N2  UNL     1      -2.641   1.130  86.498  1.00  0.00    -0.060 NA
HETATM   29  O1  UNL     1      -1.558   2.055  88.279  1.00  0.00    -0.274 OA
ENDBRANCH  26  27
BRANCH  26  30
HETATM   30  C4  UNL     1      -0.176   1.607  85.206  1.00  0.00     0.339 C 
HETATM   31  O2  UNL     1       0.436   0.780  85.964  1.00  0.00    -0.253 OA
HETATM   32  N3  UNL     1      -0.323   1.542  83.905  1.00  0.00    -0.292 NA
BRANCH  32  33
HETATM   33  N4  UNL     1      -0.474   1.468  82.545  1.00  0.00    -0.277 N 
ATOM     34  H42 UNL     1      -0.176   1.497  83.520  1.00  0.00     0.191 HD
ATOM     35  H41 UNL     1      -0.590   1.414  81.533  1.00  0.00     0.191 HD
ENDBRANCH  32  33
ENDBRANCH  26  30
ENDBRANCH  24  26
ENDBRANCH  21  24
ENDBRANCH   1  21
TORSDOF 6
ENDMDL
MODEL 2
REMARK VINA RESULT: -8.698866790      1.664      3.228
REMARK  6 active torsions:
REMARK  status: ('A' for Active; 'I' for Inactive)
REMARK    1  A    between atoms: N1_2  and  C2_3 
REMARK    2  A    between atoms: N1_2  and  S1_13 
REMARK    3  A    between atoms: C2_3  and  C3_4 
REMARK    4  A    between atoms: C2_3  and  C4_7 
REMARK       I    between atoms: C4_7  and  N3_9 
REMARK    5  A    between atoms: N3_9  and  N4_10 
REMARK    6  A    between atoms: S1_13  and  N5_16 
ROOT
HETATM    1  N5  UNL     1       0.418   5.707  84.198  1.00  0.00    -0.271 N 
ATOM      2  H5  UNL     1       0.812   5.806  85.133  1.00  0.00     0.180 HD
HETATM    3  C5  UNL     1       1.269   5.711  83.273  1.00  0.00     0.059 A 
HETATM    4  C6  UNL     1       2.603   5.848  83.658  1.00  0.00     0.118 A 
HETATM    5  N6  UNL     1       3.615   5.875  82.790  1.00  0.00    -0.360 N 
ATOM      6  H6  UNL     1       4.567   5.977  83.143  1.00  0.00     0.165 HD
HETATM    7  C7  UNL     1       3.422   5.772  81.481  1.00  0.00     0.086 A 
HETATM    8  C8  UNL     1       4.466   5.799  80.563  1.00  0.00     0.145 A 
HETATM    9  N7  UNL     1       5.803   5.946  81.030  1.00  0.00    -0.080 NA
HETATM   10  N8  UNL     1       4.199   5.689  79.232  1.00  0.00    -0.327 N 
ATOM     11  H8  UNL     1       4.969   5.709  78.564  1.00  0.00     0.168 HD
HETATM   12  C9  UNL     1       2.944   5.555  78.782  1.00  0.00     0.137 A 
HETATM   13  C10 UNL     1       1.847   5.520  79.656  1.00  0.00     0.090 A 
HETATM   14  N9  UNL     1       0.759   5.382  78.905  1.00  0.00    -0.348 N 
ATOM     15  H9  UNL     1      -0.198   5.325  79.252  1.00  0.00     0.167 HD
HETATM   16  C11 UNL     1       1.134   5.328  77.591  1.00  0.00     0.184 A 
HETATM   17  N10 UNL     1       2.473   5.434  77.532  1.00  0.00    -0.332 N 
HETATM   18  C12 UNL     1       3.248   5.420  76.318  1.00  0.00     0.158 C 
HETATM   19  C13 UNL     1       2.050   5.626  81.015  1.00  0.00     0.027 A 
HETATM   20  C14 UNL     1       1.018   5.600  81.931  1.00  0.00     0.048 A 
ENDROOT
BRANCH   1  21
HETATM   21  S1  UNL     1      -1.258   5.566  84.164  1.00  0.00     0.304 S 
HETATM   22  O3  UNL     1      -1.881   6.399  85.248  1.00  0.00    -0.188 OA
HETATM   23  O4  UNL     1      -1.789   6.063  82.853  1.00  0.00    -0.188 OA
BRANCH  21  24
HETATM   24  N1  UNL     1      -1.742   3.871  84.360  1.00  0.00    -0.174 NA
HETATM   25  C1  UNL     1      -2.365   3.837  85.646  1.00  0.00     0.132 C 
BRANCH  24  26
HETATM   26  C2  UNL     1      -0.653   3.029  84.185  1.00  0.00     0.273 C 
BRANCH  26  27
HETATM   27  C3  UNL     1      -0.494   1.930  85.137  1.00  0.00     0.260 C 
HETATM   28  N2  UNL     1       0.579   2.026  86.143  1.00  0.00    -0.060 NA
HETATM   29  O1  UNL     1      -1.164   0.877  85.223  1.00  0.00    -0.274 OA
ENDBRANCH  26  27
BRANCH  26  30
HETATM   30  C4  UNL     1      -0.756   2.275  82.826  1.00  0.00     0.339 C 
HETATM   31  O2  UNL     1      -1.305   3.044  81.966  1.00  0.00    -0.253 OA
HETATM   32  N3  UNL     1      -0.325   1.051  82.645  1.00  0.00    -0.292 NA
BRANCH  32  33
HETATM   33  N4  UNL     1       0.123  -0.229  82.449  1.00  0.00    -0.277 N 
ATOM     34  H42 UNL     1      -0.033   0.774  82.548  1.00  0.00     0.191 HD
ATOM     35  H41 UNL     1       0.455  -1.184  82.305  1.00  0.00     0.191 HD
ENDBRANCH  32  33
ENDBRANCH  26  30
ENDBRANCH  24  26
ENDBRANCH  21  24
ENDBRANCH   1  21
TORSDOF 6
ENDMDL
MODEL 3
REMARK VINA RESULT: -8.690666251      2.726      3.703
REMARK  6 active torsions:
REMARK  status: ('A' for Active; 'I' for Inactive)
REMARK    1  A    between atoms: N1_2  and  C2_3 
REMARK    2  A    between atoms: N1_2  and  S1_13 
REMARK    3  A    between atoms: C2_3  and  C3_4 
REMARK    4  A    between atoms: C2_3  and  C4_7 
REMARK       I    between atoms: C4_7  and  N3_9 
REMARK    5  A    between atoms: N3_9  and  N4_10 
REMARK    6  A    between atoms: S1_13  and  N5_16 
ROOT
HETATM    1  N5  UNL     1       0.440   4.059  81.034  1.00  0.00    -0.271 N 
ATOM      2  H5  UNL     1       0.542   3.556  80.153  1.00  0.00     0.180 HD
HETATM    3  C5  UNL     1       1.211   5.044  81.162  1.00  0.00     0.059 A 
HETATM    4  C6  UNL     1       2.077   5.297  80.098  1.00  0.00     0.118 A 
HETATM    5  N6  UNL     1       2.953   6.301  80.091  1.00  0.00    -0.360 N 
ATOM      6  H6  UNL     1       3.555   6.427  79.277  1.00  0.00     0.165 HD
HETATM    7  C7  UNL     1       3.067   7.142  81.112  1.00  0.00     0.086 A 
HETATM    8  C8  UNL     1       3.977   8.193  81.122  1.00  0.00     0.145 A 
HETATM    9  N7  UNL     1       4.832   8.387  79.999  1.00  0.00    -0.080 NA
HETATM   10  N8  UNL     1       4.043   9.020  82.202  1.00  0.00    -0.327 N 
ATOM     11  H8  UNL     1       4.712   9.789  82.202  1.00  0.00     0.168 HD
HETATM   12  C9  UNL     1       3.247   8.843  83.265  1.00  0.00     0.137 A 
HETATM   13  C10 UNL     1       2.307   7.801  83.317  1.00  0.00     0.090 A 
HETATM   14  N9  UNL     1       1.687   7.901  84.488  1.00  0.00    -0.348 N 
ATOM     15  H9  UNL     1       0.947   7.282  84.822  1.00  0.00     0.167 HD
HETATM   16  C11 UNL     1       2.202   8.965  85.173  1.00  0.00     0.184 A 
HETATM   17  N10 UNL     1       3.155   9.533  84.411  1.00  0.00    -0.332 N 
HETATM   18  C12 UNL     1       3.932  10.686  84.786  1.00  0.00     0.158 C 
HETATM   19  C13 UNL     1       2.191   6.931  82.256  1.00  0.00     0.027 A 
HETATM   20  C14 UNL     1       1.289   5.886  82.240  1.00  0.00     0.048 A 
ENDROOT
BRANCH   1  21
HETATM   21  S1  UNL     1      -0.732   3.426  82.061  1.00  0.00     0.304 S 
HETATM   22  O3  UNL     1      -1.555   4.528  82.665  1.00  0.00    -0.188 OA
HETATM   23  O4  UNL     1      -1.663   2.537  81.295  1.00  0.00    -0.188 OA
BRANCH  21  24
HETATM   24  N1  UNL     1       0.024   2.470  83.350  1.00  0.00    -0.174 NA
HETATM   25  C1  UNL     1      -0.038   1.127  82.864  1.00  0.00     0.132 C 
BRANCH  24  26
HETATM   26  C2  UNL     1      -0.598   2.710  84.565  1.00  0.00     0.273 C 
BRANCH  26  27
HETATM   27  C3  UNL     1      -0.486   1.676  85.594  1.00  0.00     0.260 C 
HETATM   28  N2  UNL     1      -1.716   0.996  86.040  1.00  0.00    -0.060 NA
HETATM   29  O1  UNL     1       0.544   1.269  86.174  1.00  0.00    -0.274 OA
ENDBRANCH  26  27
BRANCH  26  30
HETATM   30  C4  UNL     1       0.034   3.945  85.271  1.00  0.00     0.339 C 
HETATM   31  O2  UNL     1      -0.883   4.585  85.889  1.00  0.00    -0.253 OA
HETATM   32  N3  UNL     1       1.311   4.235  85.214  1.00  0.00    -0.292 NA
BRANCH  32  33
HETATM   33  N4  UNL     1       2.646   4.542  85.158  1.00  0.00    -0.277 N 
ATOM     34  H42 UNL     1       1.639   4.472  85.306  1.00  0.00     0.191 HD
ATOM     35  H41 UNL     1       3.640   4.767  85.115  1.00  0.00     0.191 HD
ENDBRANCH  32  33
ENDBRANCH  26  30
ENDBRANCH  24  26
ENDBRANCH  21  24
ENDBRANCH   1  21
TORSDOF 6
ENDMDL
MODEL 4
REMARK VINA RESULT: -8.517357754      3.253      3.906
REMARK  6 active torsions:
REMARK  status: ('A' for Active; 'I' for Inactive)
REMARK    1  A    between atoms: N1_2  and  C2_3 
REMARK    2  A    between atoms: N1_2  and  S1_13 
REMARK    3  A    between atoms: C2_3  and  C3_4 
REMARK    4  A    between atoms: C2_3  and  C4_7 
REMARK       I    between atoms: C4_7  and  N3_9 
REMARK    5  A    between atoms: N3_9  and  N4_10 
REMARK    6  A    between atoms: S1_13  and  N5_16 
ROOT
HETATM    1  N5  UNL     1      -0.659   6.111  84.564  1.00  0.00    -0.271 N 
ATOM      2  H5  UNL     1      -1.614   6.216  84.903  1.00  0.00     0.180 HD
HETATM    3  C5  UNL     1      -0.083   7.195  84.289  1.00  0.00     0.059 A 
HETATM    4  C6  UNL     1      -0.826   8.359  84.487  1.00  0.00     0.118 A 
HETATM    5  N6  UNL     1      -0.353   9.580  84.236  1.00  0.00    -0.360 N 
ATOM      6  H6  UNL     1      -0.953  10.388  84.405  1.00  0.00     0.165 HD
HETATM    7  C7  UNL     1       0.875   9.777  83.773  1.00  0.00     0.086 A 
HETATM    8  C8  UNL     1       1.384  11.042  83.505  1.00  0.00     0.145 A 
HETATM    9  N7  UNL     1       0.564  12.186  83.728  1.00  0.00    -0.080 NA
HETATM   10  N8  UNL     1       2.654  11.174  83.031  1.00  0.00    -0.327 N 
ATOM     11  H8  UNL     1       3.021  12.106  82.837  1.00  0.00     0.168 HD
HETATM   12  C9  UNL     1       3.431  10.105  82.814  1.00  0.00     0.137 A 
HETATM   13  C10 UNL     1       2.978   8.801  83.065  1.00  0.00     0.090 A 
HETATM   14  N9  UNL     1       3.974   7.980  82.750  1.00  0.00    -0.348 N 
ATOM     15  H9  UNL     1       3.950   6.962  82.823  1.00  0.00     0.167 HD
HETATM   16  C11 UNL     1       5.036   8.720  82.311  1.00  0.00     0.184 A 
HETATM   17  N10 UNL     1       4.690  10.019  82.357  1.00  0.00    -0.332 N 
HETATM   18  C12 UNL     1       5.543  11.114  81.973  1.00  0.00     0.158 C 
HETATM   19  C13 UNL     1       1.703   8.600  83.546  1.00  0.00     0.027 A 
HETATM   20  C14 UNL     1       1.193   7.345  83.814  1.00  0.00     0.048 A 
ENDROOT
BRANCH   1  21
HETATM   21  S1  UNL     1      -0.127   4.518  84.470  1.00  0.00     0.304 S 
HETATM   22  O3  UNL     1       0.232   4.164  83.055  1.00  0.00    -0.188 OA
HETATM   23  O4  UNL     1       1.104   4.337  85.305  1.00  0.00    -0.188 OA
BRANCH  21  24
HETATM   24  N1  UNL     1      -1.378   3.411  85.065  1.00  0.00    -0.174 NA
HETATM   25  C1  UNL     1      -2.339   4.274  85.675  1.00  0.00     0.132 C 
BRANCH  24  26
HETATM   26  C2  UNL     1      -0.821   2.439  85.883  1.00  0.00     0.273 C 
BRANCH  26  27
HETATM   27  C3  UNL     1      -1.727   1.704  86.766  1.00  0.00     0.260 C 
HETATM   28  N2  UNL     1      -1.545   1.838  88.223  1.00  0.00    -0.060 NA
HETATM   29  O1  UNL     1      -2.671   0.947  86.450  1.00  0.00    -0.274 OA
ENDBRANCH  26  27
BRANCH  26  30
HETATM   30  C4  UNL     1      -0.195   1.297  85.030  1.00  0.00     0.339 C 
HETATM   31  O2  UNL     1       0.408   0.481  85.808  1.00  0.00    -0.253 OA
HETATM   32  N3  UNL     1      -0.303   1.226  83.726  1.00  0.00    -0.292 NA
BRANCH  32  33
HETATM   33  N4  UNL     1      -0.413   1.148  82.362  1.00  0.00    -0.277 N 
ATOM     34  H42 UNL     1      -0.402   1.029  83.375  1.00  0.00     0.191 HD
ATOM     35  H41 UNL     1      -0.494   1.092  81.346  1.00  0.00     0.191 HD
ENDBRANCH  32  33
ENDBRANCH  26  30
ENDBRANCH  24  26
ENDBRANCH  21  24
ENDBRANCH   1  21
TORSDOF 6
ENDMDL
MODEL 5
REMARK VINA RESULT: -8.422613732      3.313      4.879
REMARK  6 active torsions:
REMARK  status: ('A' for Active; 'I' for Inactive)
REMARK    1  A    between atoms: N1_2  and  C2_3 
REMARK    2  A    between atoms: N1_2  and  S1_13 
REMARK    3  A    between atoms: C2_3  and  C3_4 
REMARK    4  A    between atoms: C2_3  and  C4_7 
REMARK       I    between atoms: C4_7  and  N3_9 
REMARK    5  A    between atoms: N3_9  and  N4_10 
REMARK    6  A    between atoms: S1_13  and  N5_16 
ROOT
HETATM    1  N5  UNL     1       0.538   4.108  81.242  1.00  0.00    -0.271 N 
ATOM      2  H5  UNL     1       1.442   3.644  81.325  1.00  0.00     0.180 HD
HETATM    3  C5  UNL     1       0.541   5.120  80.495  1.00  0.00     0.059 A 
HETATM    4  C6  UNL     1       1.761   5.450  79.903  1.00  0.00     0.118 A 
HETATM    5  N6  UNL     1       1.921   6.496  79.092  1.00  0.00    -0.360 N 
ATOM      6  H6  UNL     1       2.842   6.677  78.693  1.00  0.00     0.165 HD
HETATM    7  C7  UNL     1       0.917   7.309  78.788  1.00  0.00     0.086 A 
HETATM    8  C8  UNL     1       1.066   8.405  77.946  1.00  0.00     0.145 A 
HETATM    9  N7  UNL     1       2.344   8.682  77.380  1.00  0.00    -0.080 NA
HETATM   10  N8  UNL     1      -0.005   9.201  77.674  1.00  0.00    -0.327 N 
ATOM     11  H8  UNL     1       0.112  10.002  77.055  1.00  0.00     0.168 HD
HETATM   12  C9  UNL     1      -1.210   8.951  78.204  1.00  0.00     0.137 A 
HETATM   13  C10 UNL     1      -1.427   7.861  79.061  1.00  0.00     0.090 A 
HETATM   14  N9  UNL     1      -2.709   7.895  79.409  1.00  0.00    -0.348 N 
ATOM     15  H9  UNL     1      -3.173   7.230  80.029  1.00  0.00     0.167 HD
HETATM   16  C11 UNL     1      -3.305   8.965  78.802  1.00  0.00     0.184 A 
HETATM   17  N10 UNL     1      -2.375   9.602  78.068  1.00  0.00    -0.332 N 
HETATM   18  C12 UNL     1      -2.615  10.781  77.277  1.00  0.00     0.158 C 
HETATM   19  C13 UNL     1      -0.384   7.018  79.375  1.00  0.00     0.027 A 
HETATM   20  C14 UNL     1      -0.527   5.928  80.210  1.00  0.00     0.048 A 
ENDROOT
BRANCH   1  21
HETATM   21  S1  UNL     1      -0.697   3.386  82.126  1.00  0.00     0.304 S 
HETATM   22  O3  UNL     1      -1.588   4.430  82.738  1.00  0.00    -0.188 OA
HETATM   23  O4  UNL     1      -1.547   2.540  81.227  1.00  0.00    -0.188 OA
BRANCH  21  24
HETATM   24  N1  UNL     1      -0.025   2.352  83.401  1.00  0.00    -0.174 NA
HETATM   25  C1  UNL     1      -0.174   1.028  82.884  1.00  0.00     0.132 C 
BRANCH  24  26
HETATM   26  C2  UNL     1      -0.644   2.608  84.614  1.00  0.00     0.273 C 
BRANCH  26  27
HETATM   27  C3  UNL     1      -0.515   1.596  85.662  1.00  0.00     0.260 C 
HETATM   28  N2  UNL     1      -1.739   0.935  86.152  1.00  0.00    -0.060 NA
HETATM   29  O1  UNL     1       0.526   1.193  86.226  1.00  0.00    -0.274 OA
ENDBRANCH  26  27
BRANCH  26  30
HETATM   30  C4  UNL     1      -0.023   3.864  85.293  1.00  0.00     0.339 C 
HETATM   31  O2  UNL     1      -0.918   4.439  86.001  1.00  0.00    -0.253 OA
HETATM   32  N3  UNL     1       1.227   4.227  85.135  1.00  0.00    -0.292 NA
BRANCH  32  33
HETATM   33  N4  UNL     1       2.533   4.610  84.974  1.00  0.00    -0.277 N 
ATOM     34  H42 UNL     1       1.627   4.228  85.245  1.00  0.00     0.191 HD
ATOM     35  H41 UNL     1       3.504   4.897  84.851  1.00  0.00     0.191 HD
ENDBRANCH  32  33
ENDBRANCH  26  30
ENDBRANCH  24  26
ENDBRANCH  21  24
ENDBRANCH   1  21
TORSDOF 6
ENDMDL
