MODEL 1
REMARK VINA RESULT: -6.665655430      0.000      0.000
REMARK  9 active torsions:
REMARK  status: ('A' for Active; 'I' for Inactive)
REMARK       I    between atoms: N1_2  and  C3_4 
REMARK    1  A    between atoms: C3_4  and  C4_6 
REMARK    2  A    between atoms: C4_6  and  N3_9 
REMARK    3  A    between atoms: N3_9  and  N4_10 
REMARK       I    between atoms: N3_9  and  C6_14 
REMARK    4  A    between atoms: N4_10  and  N5_11 
REMARK    5  A    between atoms: C6_14  and  C7_16 
REMARK    6  A    between atoms: C8_21  and  N8_22 
REMARK       I    between atoms: N8_22  and  C9_24 
REMARK    7  A    between atoms: C9_24  and  C10_26 
REMARK    8  A    between atoms: C14_33  and  N11_34 
REMARK    9  A    between atoms: N12_37  and  N13_38 
ROOT
HETATM    1  C4  UNL     1      -1.584   4.236  84.318  1.00  0.00     0.307 C 
HETATM    2  C5  UNL     1      -2.176   4.051  85.677  1.00  0.00     0.096 C 
HETATM    3  N2  UNL     1      -2.646   3.907  86.725  1.00  0.00    -0.194 NA
ENDROOT
BRANCH   1   4
HETATM    4  C3  UNL     1      -0.592   5.355  84.529  1.00  0.00     0.257 C 
HETATM    5  N1  UNL     1      -0.717   6.561  83.825  1.00  0.00    -0.358 N 
HETATM    6  C1  UNL     1       0.296   7.605  84.108  1.00  0.00     0.152 C 
HETATM    7  C2  UNL     1      -1.747   6.827  82.858  1.00  0.00     0.152 C 
HETATM    8  O1  UNL     1       0.328   5.157  85.346  1.00  0.00    -0.270 OA
ENDBRANCH   1   4
BRANCH   1   9
HETATM    9  N3  UNL     1      -0.868   3.045  83.969  1.00  0.00    -0.211 N 
HETATM   10  C6  UNL     1      -0.077   2.749  82.853  1.00  0.00     0.309 C 
HETATM   11  O2  UNL     1       0.465   1.578  82.774  1.00  0.00    -0.262 OA
BRANCH   9  12
HETATM   12  N4  UNL     1      -1.029   1.999  84.961  1.00  0.00    -0.023 NA
BRANCH  12  13
HETATM   13  N5  UNL     1       0.084   1.890  85.764  1.00  0.00    -0.328 N 
ATOM     14  H52 UNL     1       1.028   1.765  85.400  1.00  0.00     0.174 HD
ATOM     15  H51 UNL     1      -0.160   1.948  86.752  1.00  0.00     0.174 HD
ENDBRANCH  12  13
ENDBRANCH   9  12
BRANCH  10  16
HETATM   16  C7  UNL     1       0.188   3.673  81.769  1.00  0.00     0.213 A 
HETATM   17  N6  UNL     1      -0.608   3.863  80.719  1.00  0.00    -0.278 N 
HETATM   18  N7  UNL     1      -0.356   4.688  79.752  1.00  0.00    -0.281 N 
ATOM     19  H6  UNL     1      -1.472   3.324  80.671  1.00  0.00     0.189 HD
HETATM   20  C8  UNL     1       0.784   5.463  79.722  1.00  0.00     0.169 A 
ATOM     21  H7  UNL     1      -1.025   4.768  78.987  1.00  0.00     0.188 HD
HETATM   22  C14 UNL     1       1.612   5.280  80.800  1.00  0.00     0.168 A 
HETATM   23  N12 UNL     1       1.339   4.398  81.823  1.00  0.00    -0.220 N 
BRANCH  20  24
HETATM   24  N8  UNL     1       0.981   6.231  78.778  1.00  0.00    -0.305 N 
HETATM   25  C9  UNL     1       0.498   6.518  77.539  1.00  0.00     0.260 C 
HETATM   26  O3  UNL     1       1.025   5.982  76.492  1.00  0.00    -0.267 OA
ATOM     27  H8  UNL     1       1.759   6.854  78.997  1.00  0.00     0.171 HD
BRANCH  25  28
HETATM   28  C10 UNL     1      -0.615   7.416  77.235  1.00  0.00     0.066 A 
HETATM   29  C11 UNL     1      -1.150   7.734  76.017  1.00  0.00     0.125 A 
HETATM   30  N9  UNL     1      -2.144   8.591  76.257  1.00  0.00    -0.309 N 
HETATM   31  N10 UNL     1      -2.255   8.822  77.560  1.00  0.00    -0.307 N 
ATOM     32  H9  UNL     1      -2.737   9.010  75.539  1.00  0.00     0.186 HD
HETATM   33  C12 UNL     1      -3.233   9.706  78.191  1.00  0.00     0.177 C 
HETATM   34  C13 UNL     1      -1.326   8.112  78.193  1.00  0.00     0.128 A 
ENDBRANCH  25  28
ENDBRANCH  20  24
BRANCH  22  35
HETATM   35  N11 UNL     1       2.694   5.926  80.991  1.00  0.00    -0.381 N 
ATOM     36 2H11 UNL     1       2.731   6.791  80.451  1.00  0.00     0.157 HD
ATOM     37 1H11 UNL     1       3.456   5.607  81.590  1.00  0.00     0.157 HD
ENDBRANCH  22  35
BRANCH  23  38
HETATM   38  N13 UNL     1       2.216   4.256  82.888  1.00  0.00    -0.335 N 
ATOM     39 2H13 UNL     1       2.035   4.721  83.778  1.00  0.00     0.177 HD
ATOM     40 1H13 UNL     1       3.054   3.681  82.799  1.00  0.00     0.177 HD
ENDBRANCH  23  38
ENDBRANCH  10  16
ENDBRANCH   1   9
TORSDOF 9
ENDMDL
MODEL 2
REMARK VINA RESULT: -6.638356674      3.129      6.032
REMARK  9 active torsions:
REMARK  status: ('A' for Active; 'I' for Inactive)
REMARK       I    between atoms: N1_2  and  C3_4 
REMARK    1  A    between atoms: C3_4  and  C4_6 
REMARK    2  A    between atoms: C4_6  and  N3_9 
REMARK    3  A    between atoms: N3_9  and  N4_10 
REMARK       I    between atoms: N3_9  and  C6_14 
REMARK    4  A    between atoms: N4_10  and  N5_11 
REMARK    5  A    between atoms: C6_14  and  C7_16 
REMARK    6  A    between atoms: C8_21  and  N8_22 
REMARK       I    between atoms: N8_22  and  C9_24 
REMARK    7  A    between atoms: C9_24  and  C10_26 
REMARK    8  A    between atoms: C14_33  and  N11_34 
REMARK    9  A    between atoms: N12_37  and  N13_38 
ROOT
HETATM    1  C4  UNL     1       0.274   2.262  83.050  1.00  0.00     0.307 C 
HETATM    2  C5  UNL     1      -0.018   0.881  82.560  1.00  0.00     0.096 C 
HETATM    3  N2  UNL     1      -0.232  -0.192  82.183  1.00  0.00    -0.194 NA
ENDROOT
BRANCH   1   4
HETATM    4  C3  UNL     1      -0.343   3.138  81.985  1.00  0.00     0.257 C 
HETATM    5  N1  UNL     1       0.419   4.122  81.341  1.00  0.00    -0.358 N 
HETATM    6  C1  UNL     1      -0.269   4.923  80.302  1.00  0.00     0.152 C 
HETATM    7  C2  UNL     1       1.800   4.394  81.637  1.00  0.00     0.152 C 
HETATM    8  O1  UNL     1      -1.544   2.945  81.713  1.00  0.00    -0.270 OA
ENDBRANCH   1   4
BRANCH   1   9
HETATM    9  N3  UNL     1      -0.431   2.465  84.280  1.00  0.00    -0.211 N 
HETATM   10  C6  UNL     1      -0.725   3.641  84.981  1.00  0.00     0.309 C 
HETATM   11  O2  UNL     1      -1.384   3.549  86.090  1.00  0.00    -0.262 OA
BRANCH   9  12
HETATM   12  N4  UNL     1      -0.887   1.217  84.863  1.00  0.00    -0.023 NA
BRANCH  12  13
HETATM   13  N5  UNL     1      -0.210   0.925  86.025  1.00  0.00    -0.328 N 
ATOM     14  H52 UNL     1      -0.249   1.509  86.859  1.00  0.00     0.174 HD
ATOM     15  H51 UNL     1       0.326   0.061  85.938  1.00  0.00     0.174 HD
ENDBRANCH  12  13
ENDBRANCH   9  12
BRANCH  10  16
HETATM   16  C7  UNL     1      -0.345   4.969  84.546  1.00  0.00     0.213 A 
HETATM   17  N6  UNL     1       0.866   5.502  84.693  1.00  0.00    -0.278 N 
HETATM   18  N7  UNL     1       1.191   6.694  84.306  1.00  0.00    -0.281 N 
ATOM     19  H6  UNL     1       1.585   4.934  85.140  1.00  0.00     0.189 HD
HETATM   20  C8  UNL     1       0.293   7.540  83.691  1.00  0.00     0.169 A 
ATOM     21  H7  UNL     1       2.145   7.019  84.460  1.00  0.00     0.188 HD
HETATM   22  C14 UNL     1      -0.960   7.004  83.530  1.00  0.00     0.168 A 
HETATM   23  N12 UNL     1      -1.298   5.735  83.948  1.00  0.00    -0.220 N 
BRANCH  20  24
HETATM   24  N8  UNL     1       0.648   8.669  83.343  1.00  0.00    -0.305 N 
HETATM   25  C9  UNL     1       0.941   9.887  83.873  1.00  0.00     0.260 C 
HETATM   26  O3  UNL     1       0.035  10.800  83.952  1.00  0.00    -0.267 OA
ATOM     27  H8  UNL     1       0.759   8.699  82.330  1.00  0.00     0.171 HD
BRANCH  25  28
HETATM   28  C10 UNL     1       2.240  10.309  84.396  1.00  0.00     0.066 A 
HETATM   29  C11 UNL     1       3.054   9.667  85.288  1.00  0.00     0.125 A 
HETATM   30  N9  UNL     1       4.124  10.448  85.449  1.00  0.00    -0.309 N 
HETATM   31  N10 UNL     1       4.017  11.541  84.703  1.00  0.00    -0.307 N 
ATOM     32  H9  UNL     1       4.913  10.235  86.059  1.00  0.00     0.186 HD
HETATM   33  C12 UNL     1       4.999  12.621  84.623  1.00  0.00     0.177 C 
HETATM   34  C13 UNL     1       2.865  11.488  84.040  1.00  0.00     0.128 A 
ENDBRANCH  25  28
ENDBRANCH  20  24
BRANCH  22  35
HETATM   35  N11 UNL     1      -1.926   7.599  82.949  1.00  0.00    -0.381 N 
ATOM     36 2H11 UNL     1      -1.636   8.056  82.084  1.00  0.00     0.157 HD
ATOM     37 1H11 UNL     1      -2.877   7.644  83.315  1.00  0.00     0.157 HD
ENDBRANCH  22  35
BRANCH  23  38
HETATM   38  N13 UNL     1      -2.583   5.247  83.758  1.00  0.00    -0.335 N 
ATOM     39 2H13 UNL     1      -3.396   5.820  83.984  1.00  0.00     0.177 HD
ATOM     40 1H13 UNL     1      -2.734   4.309  83.386  1.00  0.00     0.177 HD
ENDBRANCH  23  38
ENDBRANCH  10  16
ENDBRANCH   1   9
TORSDOF 9
ENDMDL
MODEL 3
REMARK VINA RESULT: -6.444469884      2.057      3.151
REMARK  9 active torsions:
REMARK  status: ('A' for Active; 'I' for Inactive)
REMARK       I    between atoms: N1_2  and  C3_4 
REMARK    1  A    between atoms: C3_4  and  C4_6 
REMARK    2  A    between atoms: C4_6  and  N3_9 
REMARK    3  A    between atoms: N3_9  and  N4_10 
REMARK       I    between atoms: N3_9  and  C6_14 
REMARK    4  A    between atoms: N4_10  and  N5_11 
REMARK    5  A    between atoms: C6_14  and  C7_16 
REMARK    6  A    between atoms: C8_21  and  N8_22 
REMARK       I    between atoms: N8_22  and  C9_24 
REMARK    7  A    between atoms: C9_24  and  C10_26 
REMARK    8  A    between atoms: C14_33  and  N11_34 
REMARK    9  A    between atoms: N12_37  and  N13_38 
ROOT
HETATM    1  C4  UNL     1      -1.682   4.392  84.413  1.00  0.00     0.307 C 
HETATM    2  C5  UNL     1      -2.294   4.346  85.776  1.00  0.00     0.096 C 
HETATM    3  N2  UNL     1      -2.778   4.309  86.826  1.00  0.00    -0.194 NA
ENDROOT
BRANCH   1   4
HETATM    4  C3  UNL     1      -0.642   5.478  84.544  1.00  0.00     0.257 C 
HETATM    5  N1  UNL     1      -0.723   6.641  83.765  1.00  0.00    -0.358 N 
HETATM    6  C1  UNL     1       0.335   7.656  83.972  1.00  0.00     0.152 C 
HETATM    7  C2  UNL     1      -1.752   6.889  82.791  1.00  0.00     0.152 C 
HETATM    8  O1  UNL     1       0.277   5.293  85.364  1.00  0.00    -0.270 OA
ENDBRANCH   1   4
BRANCH   1   9
HETATM    9  N3  UNL     1      -1.020   3.145  84.171  1.00  0.00    -0.211 N 
HETATM   10  C6  UNL     1      -0.240   2.720  83.088  1.00  0.00     0.309 C 
HETATM   11  O2  UNL     1       0.249   1.524  83.113  1.00  0.00    -0.262 OA
BRANCH   9  12
HETATM   12  N4  UNL     1      -1.228   2.196  85.248  1.00  0.00    -0.023 NA
BRANCH  12  13
HETATM   13  N5  UNL     1      -0.055   1.926  85.916  1.00  0.00    -0.328 N 
ATOM     14  H52 UNL     1       0.047   2.004  86.928  1.00  0.00     0.174 HD
ATOM     15  H51 UNL     1       0.685   1.642  85.273  1.00  0.00     0.174 HD
ENDBRANCH  12  13
ENDBRANCH   9  12
BRANCH  10  16
HETATM   16  C7  UNL     1       0.066   3.535  81.931  1.00  0.00     0.213 A 
HETATM   17  N6  UNL     1      -0.679   3.606  80.830  1.00  0.00    -0.278 N 
HETATM   18  N7  UNL     1      -0.390   4.335  79.799  1.00  0.00    -0.281 N 
ATOM     19  H6  UNL     1      -1.533   3.050  80.796  1.00  0.00     0.189 HD
HETATM   20  C8  UNL     1       0.740   5.121  79.745  1.00  0.00     0.169 A 
ATOM     21  H7  UNL     1      -1.021   4.326  78.998  1.00  0.00     0.188 HD
HETATM   22  C14 UNL     1       1.517   5.062  80.874  1.00  0.00     0.168 A 
HETATM   23  N12 UNL     1       1.204   4.282  81.967  1.00  0.00    -0.220 N 
BRANCH  20  24
HETATM   24  N8  UNL     1       0.975   5.795  78.738  1.00  0.00    -0.305 N 
HETATM   25  C9  UNL     1       2.014   6.383  78.088  1.00  0.00     0.260 C 
HETATM   26  O3  UNL     1       2.307   7.619  78.306  1.00  0.00    -0.267 OA
ATOM     27  H8  UNL     1       0.108   5.967  78.228  1.00  0.00     0.171 HD
BRANCH  25  28
HETATM   28  C10 UNL     1       2.893   5.741  77.110  1.00  0.00     0.066 A 
HETATM   29  C11 UNL     1       4.044   5.035  77.328  1.00  0.00     0.125 A 
HETATM   30  N9  UNL     1       4.481   4.651  76.127  1.00  0.00    -0.309 N 
HETATM   31  N10 UNL     1       3.661   5.083  75.176  1.00  0.00    -0.307 N 
ATOM     32  H9  UNL     1       5.326   4.103  75.963  1.00  0.00     0.186 HD
HETATM   33  C12 UNL     1       3.822   4.852  73.741  1.00  0.00     0.177 C 
HETATM   34  C13 UNL     1       2.670   5.759  75.748  1.00  0.00     0.128 A 
ENDBRANCH  25  28
ENDBRANCH  20  24
BRANCH  22  35
HETATM   35  N11 UNL     1       2.580   5.741  81.051  1.00  0.00    -0.381 N 
ATOM     36 2H11 UNL     1       3.026   6.002  80.170  1.00  0.00     0.157 HD
ATOM     37 1H11 UNL     1       2.967   5.977  81.965  1.00  0.00     0.157 HD
ENDBRANCH  22  35
BRANCH  23  38
HETATM   38  N13 UNL     1       2.030   4.261  83.081  1.00  0.00    -0.335 N 
ATOM     39 2H13 UNL     1       1.635   4.260  84.022  1.00  0.00     0.177 HD
ATOM     40 1H13 UNL     1       3.044   4.244  82.977  1.00  0.00     0.177 HD
ENDBRANCH  23  38
ENDBRANCH  10  16
ENDBRANCH   1   9
TORSDOF 9
ENDMDL
MODEL 4
REMARK VINA RESULT: -6.408092870      1.921      2.714
REMARK  9 active torsions:
REMARK  status: ('A' for Active; 'I' for Inactive)
REMARK       I    between atoms: N1_2  and  C3_4 
REMARK    1  A    between atoms: C3_4  and  C4_6 
REMARK    2  A    between atoms: C4_6  and  N3_9 
REMARK    3  A    between atoms: N3_9  and  N4_10 
REMARK       I    between atoms: N3_9  and  C6_14 
REMARK    4  A    between atoms: N4_10  and  N5_11 
REMARK    5  A    between atoms: C6_14  and  C7_16 
REMARK    6  A    between atoms: C8_21  and  N8_22 
REMARK       I    between atoms: N8_22  and  C9_24 
REMARK    7  A    between atoms: C9_24  and  C10_26 
REMARK    8  A    between atoms: C14_33  and  N11_34 
REMARK    9  A    between atoms: N12_37  and  N13_38 
ROOT
HETATM    1  C4  UNL     1      -1.559   3.940  84.249  1.00  0.00     0.307 C 
HETATM    2  C5  UNL     1      -2.189   3.578  85.555  1.00  0.00     0.096 C 
HETATM    3  N2  UNL     1      -2.688   3.298  86.561  1.00  0.00    -0.194 NA
ENDROOT
BRANCH   1   4
HETATM    4  C3  UNL     1      -0.598   5.042  84.630  1.00  0.00     0.257 C 
HETATM    5  N1  UNL     1      -0.768   6.340  84.128  1.00  0.00    -0.358 N 
HETATM    6  C1  UNL     1       0.216   7.357  84.567  1.00  0.00     0.152 C 
HETATM    7  C2  UNL     1      -1.818   6.724  83.224  1.00  0.00     0.152 C 
HETATM    8  O1  UNL     1       0.336   4.745  85.397  1.00  0.00    -0.270 OA
ENDBRANCH   1   4
BRANCH   1   9
HETATM    9  N3  UNL     1      -0.807   2.814  83.781  1.00  0.00    -0.211 N 
HETATM   10  C6  UNL     1      -0.011   2.658  82.641  1.00  0.00     0.309 C 
HETATM   11  O2  UNL     1       0.568   1.519  82.443  1.00  0.00    -0.262 OA
BRANCH   9  12
HETATM   12  N4  UNL     1      -0.931   1.668  84.663  1.00  0.00    -0.023 NA
BRANCH  12  13
HETATM   13  N5  UNL     1       0.151   1.563  85.507  1.00  0.00    -0.328 N 
ATOM     14  H52 UNL     1       0.545   2.354  86.016  1.00  0.00     0.174 HD
ATOM     15  H51 UNL     1       0.497   0.604  85.554  1.00  0.00     0.174 HD
ENDBRANCH  12  13
ENDBRANCH   9  12
BRANCH  10  16
HETATM   16  C7  UNL     1       0.220   3.695  81.656  1.00  0.00     0.213 A 
HETATM   17  N6  UNL     1      -0.579   3.958  80.624  1.00  0.00    -0.278 N 
HETATM   18  N7  UNL     1      -0.357   4.884  79.746  1.00  0.00    -0.281 N 
ATOM     19  H6  UNL     1      -1.420   3.392  80.517  1.00  0.00     0.189 HD
HETATM   20  C8  UNL     1       0.751   5.702  79.801  1.00  0.00     0.169 A 
ATOM     21  H7  UNL     1      -1.026   5.013  78.987  1.00  0.00     0.188 HD
HETATM   22  C14 UNL     1       1.583   5.446  80.861  1.00  0.00     0.168 A 
HETATM   23  N12 UNL     1       1.341   4.456  81.790  1.00  0.00    -0.220 N 
BRANCH  20  24
HETATM   24  N8  UNL     1       0.921   6.568  78.939  1.00  0.00    -0.305 N 
HETATM   25  C9  UNL     1       1.851   6.984  78.039  1.00  0.00     0.260 C 
HETATM   26  O3  UNL     1       2.689   7.913  78.347  1.00  0.00    -0.267 OA
ATOM     27  H8  UNL     1       0.096   7.166  78.884  1.00  0.00     0.171 HD
BRANCH  25  28
HETATM   28  C10 UNL     1       2.023   6.472  76.679  1.00  0.00     0.066 A 
HETATM   29  C11 UNL     1       1.148   6.519  75.630  1.00  0.00     0.125 A 
HETATM   30  N9  UNL     1       1.759   5.923  74.605  1.00  0.00    -0.309 N 
HETATM   31  N10 UNL     1       2.968   5.507  74.964  1.00  0.00    -0.307 N 
ATOM     32  H9  UNL     1       1.354   5.803  73.676  1.00  0.00     0.186 HD
HETATM   33  C12 UNL     1       3.923   4.813  74.102  1.00  0.00     0.177 C 
HETATM   34  C13 UNL     1       3.163   5.830  76.238  1.00  0.00     0.128 A 
ENDBRANCH  25  28
ENDBRANCH  20  24
BRANCH  22  35
HETATM   35  N11 UNL     1       2.637   6.111  81.124  1.00  0.00    -0.381 N 
ATOM     36 2H11 UNL     1       3.462   5.733  80.656  1.00  0.00     0.157 HD
ATOM     37 1H11 UNL     1       2.670   6.914  81.753  1.00  0.00     0.157 HD
ENDBRANCH  22  35
BRANCH  23  38
HETATM   38  N13 UNL     1       2.220   4.243  82.842  1.00  0.00    -0.335 N 
ATOM     39 2H13 UNL     1       3.193   4.544  82.777  1.00  0.00     0.177 HD
ATOM     40 1H13 UNL     1       1.907   3.784  83.697  1.00  0.00     0.177 HD
ENDBRANCH  23  38
ENDBRANCH  10  16
ENDBRANCH   1   9
TORSDOF 9
ENDMDL
MODEL 5
REMARK VINA RESULT: -6.395731108      2.434      3.927
REMARK  9 active torsions:
REMARK  status: ('A' for Active; 'I' for Inactive)
REMARK       I    between atoms: N1_2  and  C3_4 
REMARK    1  A    between atoms: C3_4  and  C4_6 
REMARK    2  A    between atoms: C4_6  and  N3_9 
REMARK    3  A    between atoms: N3_9  and  N4_10 
REMARK       I    between atoms: N3_9  and  C6_14 
REMARK    4  A    between atoms: N4_10  and  N5_11 
REMARK    5  A    between atoms: C6_14  and  C7_16 
REMARK    6  A    between atoms: C8_21  and  N8_22 
REMARK       I    between atoms: N8_22  and  C9_24 
REMARK    7  A    between atoms: C9_24  and  C10_26 
REMARK    8  A    between atoms: C14_33  and  N11_34 
REMARK    9  A    between atoms: N12_37  and  N13_38 
ROOT
HETATM    1  C4  UNL     1       0.135   2.125  82.945  1.00  0.00     0.307 C 
HETATM    2  C5  UNL     1      -0.069   0.776  82.336  1.00  0.00     0.096 C 
HETATM    3  N2  UNL     1      -0.215  -0.272  81.867  1.00  0.00    -0.194 NA
ENDROOT
BRANCH   1   4
HETATM    4  C3  UNL     1      -0.489   3.054  81.930  1.00  0.00     0.257 C 
HETATM    5  N1  UNL     1       0.259   4.096  81.363  1.00  0.00    -0.358 N 
HETATM    6  C1  UNL     1      -0.434   4.946  80.368  1.00  0.00     0.152 C 
HETATM    7  C2  UNL     1       1.628   4.380  81.697  1.00  0.00     0.152 C 
HETATM    8  O1  UNL     1      -1.680   2.852  81.627  1.00  0.00    -0.270 OA
ENDBRANCH   1   4
BRANCH   1   9
HETATM    9  N3  UNL     1      -0.622   2.194  84.159  1.00  0.00    -0.211 N 
HETATM   10  C6  UNL     1      -1.205   3.287  84.812  1.00  0.00     0.309 C 
HETATM   11  O2  UNL     1      -1.843   3.077  85.916  1.00  0.00    -0.262 OA
BRANCH   9  12
HETATM   12  N4  UNL     1      -0.775   0.893  84.783  1.00  0.00    -0.023 NA
BRANCH  12  13
HETATM   13  N5  UNL     1       0.047   0.759  85.879  1.00  0.00    -0.328 N 
ATOM     14  H52 UNL     1       0.659  -0.043  86.027  1.00  0.00     0.174 HD
ATOM     15  H51 UNL     1      -0.039   1.555  86.511  1.00  0.00     0.174 HD
ENDBRANCH  12  13
ENDBRANCH   9  12
BRANCH  10  16
HETATM   16  C7  UNL     1      -1.148   4.652  84.332  1.00  0.00     0.213 A 
HETATM   17  N6  UNL     1      -2.135   5.277  83.694  1.00  0.00    -0.278 N 
HETATM   18  N7  UNL     1      -2.069   6.497  83.263  1.00  0.00    -0.281 N 
ATOM     19  H6  UNL     1      -3.000   4.762  83.533  1.00  0.00     0.189 HD
HETATM   20  C8  UNL     1      -0.945   7.278  83.430  1.00  0.00     0.169 A 
ATOM     21  H7  UNL     1      -2.877   6.894  82.784  1.00  0.00     0.188 HD
HETATM   22  C14 UNL     1       0.080   6.649  84.089  1.00  0.00     0.168 A 
HETATM   23  N12 UNL     1       0.003   5.349  84.542  1.00  0.00    -0.220 N 
BRANCH  20  24
HETATM   24  N8  UNL     1      -0.929   8.434  82.999  1.00  0.00    -0.305 N 
HETATM   25  C9  UNL     1      -0.604   9.130  81.877  1.00  0.00     0.260 C 
HETATM   26  O3  UNL     1       0.566   9.655  81.749  1.00  0.00    -0.267 OA
ATOM     27  H8  UNL     1      -1.268   9.075  83.716  1.00  0.00     0.171 HD
BRANCH  25  28
HETATM   28  C10 UNL     1      -1.478   9.370  80.729  1.00  0.00     0.066 A 
HETATM   29  C11 UNL     1      -2.202   8.466  80.001  1.00  0.00     0.125 A 
HETATM   30  N9  UNL     1      -2.838   9.166  79.060  1.00  0.00    -0.309 N 
HETATM   31  N10 UNL     1      -2.545  10.457  79.164  1.00  0.00    -0.307 N 
ATOM     32  H9  UNL     1      -3.461   8.765  78.358  1.00  0.00     0.186 HD
HETATM   33  C12 UNL     1      -3.058  11.521  78.303  1.00  0.00     0.177 C 
HETATM   34  C13 UNL     1      -1.708  10.618  80.184  1.00  0.00     0.128 A 
ENDBRANCH  25  28
ENDBRANCH  20  24
BRANCH  22  35
HETATM   35  N11 UNL     1       1.189   7.201  84.386  1.00  0.00    -0.381 N 
ATOM     36 2H11 UNL     1       1.481   7.886  83.688  1.00  0.00     0.157 HD
ATOM     37 1H11 UNL     1       1.745   6.969  85.209  1.00  0.00     0.157 HD
ENDBRANCH  22  35
BRANCH  23  38
HETATM   38  N13 UNL     1       1.074   4.765  85.202  1.00  0.00    -0.335 N 
ATOM     39 2H13 UNL     1       1.227   3.757  85.156  1.00  0.00     0.177 HD
ATOM     40 1H13 UNL     1       1.727   5.334  85.740  1.00  0.00     0.177 HD
ENDBRANCH  23  38
ENDBRANCH  10  16
ENDBRANCH   1   9
TORSDOF 9
ENDMDL
