MODEL 1
REMARK VINA RESULT: -7.226869921      0.000      0.000
REMARK  6 active torsions:
REMARK  status: ('A' for Active; 'I' for Inactive)
REMARK    1  A    between atoms: N1_2  and  C3_4 
REMARK    2  A    between atoms: C4_7  and  N3_8 
REMARK    3  A    between atoms: N3_8  and  N4_10 
REMARK    4  A    between atoms: N7_19  and  C6_20 
REMARK    5  A    between atoms: C6_20  and  C7_21 
REMARK    6  A    between atoms: N9_27  and  C10_28 
ROOT
HETATM    1  C10 UNL     1       5.039   4.618  78.328  1.00  0.00     0.261 C 
HETATM    2  C11 UNL     1       6.077   3.639  78.647  1.00  0.00     0.079 C 
HETATM    3  N10 UNL     1       6.909   2.863  78.931  1.00  0.00    -0.196 NA
ENDROOT
BRANCH   1   4
HETATM    4  N9  UNL     1       4.061   4.710  79.384  1.00  0.00    -0.251 N 
HETATM    5  C9  UNL     1       2.941   3.990  79.307  1.00  0.00     0.283 A 
HETATM    6  C8  UNL     1       1.974   4.048  80.297  1.00  0.00     0.147 A 
HETATM    7  O1  UNL     1       2.724   3.232  78.334  1.00  0.00    -0.265 OA
HETATM    8  N8  UNL     1       0.786   3.450  80.467  1.00  0.00    -0.337 N 
HETATM    9  C14 UNL     1       2.193   4.875  81.377  1.00  0.00     0.145 A 
HETATM   10  C7  UNL     1       0.223   3.857  81.618  1.00  0.00     0.103 A 
ATOM     11  H8  UNL     1       0.370   2.784  79.817  1.00  0.00     0.167 HD
HETATM   12  N12 UNL     1       1.104   4.728  82.154  1.00  0.00    -0.328 N 
ATOM     13  H12 UNL     1       0.963   5.215  83.039  1.00  0.00     0.169 HD
HETATM   14  N11 UNL     1       3.325   5.593  81.442  1.00  0.00    -0.287 N 
HETATM   15  C12 UNL     1       4.257   5.509  80.445  1.00  0.00     0.333 A 
HETATM   16  C13 UNL     1       3.574   6.467  82.576  1.00  0.00     0.163 C 
HETATM   17  O2  UNL     1       5.330   6.170  80.473  1.00  0.00    -0.246 OA
BRANCH  10  18
HETATM   18  C6  UNL     1      -1.088   3.401  82.094  1.00  0.00     0.243 C 
BRANCH  18  19
HETATM   19  N7  UNL     1      -1.130   2.487  83.176  1.00  0.00    -0.006 N 
HETATM   20  C3  UNL     1      -0.882   1.188  83.004  1.00  0.00     0.711 A 
HETATM   21  N2  UNL     1      -0.955   0.344  84.086  1.00  0.00    -0.020 N 
HETATM   22  C4  UNL     1      -1.269   0.830  85.292  1.00  0.00     0.725 A 
ATOM     23  H2  UNL     1      -0.769  -0.652  83.969  1.00  0.00     0.203 HD
HETATM   24  N5  UNL     1      -1.512   2.144  85.431  1.00  0.00    -0.020 N 
HETATM   25  C5  UNL     1      -1.453   2.997  84.407  1.00  0.00     0.707 A 
ATOM     26  H5  UNL     1      -1.752   2.503  86.354  1.00  0.00     0.203 HD
HETATM   27  N6  UNL     1      -1.707   4.263  84.567  1.00  0.00    -0.233 N 
ATOM     28  H62 UNL     1      -1.947   4.643  85.483  1.00  0.00     0.174 HD
ATOM     29  H61 UNL     1      -1.661   4.916  83.785  1.00  0.00     0.174 HD
BRANCH  20  30
HETATM   30  N1  UNL     1      -0.564   0.531  81.789  1.00  0.00    -0.225 N 
HETATM   31  C1  UNL     1      -1.609   0.151  80.867  1.00  0.00     0.168 C 
HETATM   32  C2  UNL     1       0.799   0.161  81.412  1.00  0.00     0.168 C 
ENDBRANCH  20  30
BRANCH  22  33
HETATM   33  N3  UNL     1      -1.333   0.023  86.288  1.00  0.00    -0.138 N 
ATOM     34  H3  UNL     1      -0.578  -0.653  86.405  1.00  0.00     0.205 HD
BRANCH  33  35
HETATM   35  N4  UNL     1      -2.366   0.015  87.217  1.00  0.00    -0.331 N 
ATOM     36  H42 UNL     1      -2.727   0.921  87.514  1.00  0.00     0.177 HD
ATOM     37  H41 UNL     1      -2.774  -0.833  87.609  1.00  0.00     0.177 HD
ENDBRANCH  33  35
ENDBRANCH  22  33
ENDBRANCH  18  19
ENDBRANCH  10  18
ENDBRANCH   1   4
TORSDOF 6
ENDMDL
MODEL 2
REMARK VINA RESULT: -7.043371604      4.087      7.924
REMARK  6 active torsions:
REMARK  status: ('A' for Active; 'I' for Inactive)
REMARK    1  A    between atoms: N1_2  and  C3_4 
REMARK    2  A    between atoms: C4_7  and  N3_8 
REMARK    3  A    between atoms: N3_8  and  N4_10 
REMARK    4  A    between atoms: N7_19  and  C6_20 
REMARK    5  A    between atoms: C6_20  and  C7_21 
REMARK    6  A    between atoms: N9_27  and  C10_28 
ROOT
HETATM    1  C10 UNL     1      -0.735   0.769  85.800  1.00  0.00     0.261 C 
HETATM    2  C11 UNL     1      -2.052   0.487  86.371  1.00  0.00     0.079 C 
HETATM    3  N10 UNL     1      -3.117   0.289  86.820  1.00  0.00    -0.196 NA
ENDROOT
BRANCH   1   4
HETATM    4  N9  UNL     1      -0.845   1.506  84.565  1.00  0.00    -0.251 N 
HETATM    5  C9  UNL     1      -0.679   2.829  84.574  1.00  0.00     0.283 A 
HETATM    6  C8  UNL     1      -0.777   3.579  83.413  1.00  0.00     0.147 A 
HETATM    7  O1  UNL     1      -0.428   3.444  85.636  1.00  0.00    -0.265 OA
HETATM    8  N8  UNL     1      -0.663   4.887  83.143  1.00  0.00    -0.337 N 
HETATM    9  C14 UNL     1      -1.052   2.923  82.233  1.00  0.00     0.145 A 
HETATM   10  C7  UNL     1      -0.853   5.108  81.830  1.00  0.00     0.103 A 
ATOM     11  H8  UNL     1      -0.460   5.610  83.833  1.00  0.00     0.167 HD
HETATM   12  N12 UNL     1      -1.090   3.890  81.298  1.00  0.00    -0.328 N 
ATOM     13  H12 UNL     1      -1.274   3.723  80.309  1.00  0.00     0.169 HD
HETATM   14  N11 UNL     1      -1.216   1.591  82.238  1.00  0.00    -0.287 N 
HETATM   15  C12 UNL     1      -1.111   0.885  83.405  1.00  0.00     0.333 A 
HETATM   16  C13 UNL     1      -1.502   0.882  81.002  1.00  0.00     0.163 C 
HETATM   17  O2  UNL     1      -1.259  -0.367  83.447  1.00  0.00    -0.246 OA
BRANCH  10  18
HETATM   18  C6  UNL     1      -0.808   6.436  81.209  1.00  0.00     0.243 C 
BRANCH  18  19
HETATM   19  N7  UNL     1      -1.605   6.668  80.060  1.00  0.00    -0.006 N 
HETATM   20  C3  UNL     1      -1.102   6.567  78.829  1.00  0.00     0.711 A 
HETATM   21  N2  UNL     1      -1.916   6.821  77.751  1.00  0.00    -0.020 N 
HETATM   22  C4  UNL     1      -3.195   7.161  77.945  1.00  0.00     0.725 A 
ATOM     23  H2  UNL     1      -1.546   6.750  76.804  1.00  0.00     0.203 HD
HETATM   24  N5  UNL     1      -3.670   7.253  79.199  1.00  0.00    -0.020 N 
HETATM   25  C5  UNL     1      -2.914   7.016  80.273  1.00  0.00     0.707 A 
ATOM     26  H5  UNL     1      -4.646   7.514  79.336  1.00  0.00     0.203 HD
HETATM   27  N6  UNL     1      -3.396   7.125  81.476  1.00  0.00    -0.233 N 
ATOM     28  H62 UNL     1      -4.370   7.384  81.634  1.00  0.00     0.174 HD
ATOM     29  H61 UNL     1      -2.818   6.944  82.296  1.00  0.00     0.174 HD
BRANCH  20  30
HETATM   30  N1  UNL     1       0.231   6.243  78.473  1.00  0.00    -0.225 N 
HETATM   31  C1  UNL     1       1.222   7.282  78.326  1.00  0.00     0.168 C 
HETATM   32  C2  UNL     1       0.675   4.879  78.192  1.00  0.00     0.168 C 
ENDBRANCH  20  30
BRANCH  22  33
HETATM   33  N3  UNL     1      -3.937   7.396  76.925  1.00  0.00    -0.138 N 
ATOM     34  H3  UNL     1      -4.611   6.681  76.650  1.00  0.00     0.205 HD
BRANCH  33  35
HETATM   35  N4  UNL     1      -3.878   8.562  76.172  1.00  0.00    -0.331 N 
ATOM     36  H42 UNL     1      -2.957   8.856  75.847  1.00  0.00     0.177 HD
ATOM     37  H41 UNL     1      -4.691   9.128  75.932  1.00  0.00     0.177 HD
ENDBRANCH  33  35
ENDBRANCH  22  33
ENDBRANCH  18  19
ENDBRANCH  10  18
ENDBRANCH   1   4
TORSDOF 6
ENDMDL
MODEL 3
REMARK VINA RESULT: -7.000119698      0.716      2.377
REMARK  6 active torsions:
REMARK  status: ('A' for Active; 'I' for Inactive)
REMARK    1  A    between atoms: N1_2  and  C3_4 
REMARK    2  A    between atoms: C4_7  and  N3_8 
REMARK    3  A    between atoms: N3_8  and  N4_10 
REMARK    4  A    between atoms: N7_19  and  C6_20 
REMARK    5  A    between atoms: C6_20  and  C7_21 
REMARK    6  A    between atoms: N9_27  and  C10_28 
ROOT
HETATM    1  C10 UNL     1       4.919   4.729  78.397  1.00  0.00     0.261 C 
HETATM    2  C11 UNL     1       5.977   3.760  78.684  1.00  0.00     0.079 C 
HETATM    3  N10 UNL     1       6.823   2.991  78.942  1.00  0.00    -0.196 NA
ENDROOT
BRANCH   1   4
HETATM    4  N9  UNL     1       3.907   4.722  79.424  1.00  0.00    -0.251 N 
HETATM    5  C9  UNL     1       2.830   3.950  79.280  1.00  0.00     0.283 A 
HETATM    6  C8  UNL     1       1.832   3.912  80.239  1.00  0.00     0.147 A 
HETATM    7  O1  UNL     1       2.681   3.228  78.266  1.00  0.00    -0.265 OA
HETATM    8  N8  UNL     1       0.672   3.247  80.344  1.00  0.00    -0.337 N 
HETATM    9  C14 UNL     1       1.975   4.697  81.362  1.00  0.00     0.145 A 
HETATM   10  C7  UNL     1       0.055   3.570  81.494  1.00  0.00     0.103 A 
ATOM     11  H8  UNL     1       0.311   2.591  79.652  1.00  0.00     0.167 HD
HETATM   12  N12 UNL     1       0.873   4.459  82.097  1.00  0.00    -0.328 N 
ATOM     13  H12 UNL     1       0.680   4.896  82.998  1.00  0.00     0.169 HD
HETATM   14  N11 UNL     1       3.065   5.469  81.496  1.00  0.00    -0.287 N 
HETATM   15  C12 UNL     1       4.030   5.479  80.526  1.00  0.00     0.333 A 
HETATM   16  C13 UNL     1       3.235   6.300  82.676  1.00  0.00     0.163 C 
HETATM   17  O2  UNL     1       5.066   6.192  80.619  1.00  0.00    -0.246 OA
BRANCH  10  18
HETATM   18  C6  UNL     1      -1.244   3.026  81.906  1.00  0.00     0.243 C 
BRANCH  18  19
HETATM   19  N7  UNL     1      -1.315   2.307  83.125  1.00  0.00    -0.006 N 
HETATM   20  C3  UNL     1      -1.606   2.912  84.278  1.00  0.00     0.711 A 
HETATM   21  N2  UNL     1      -1.643   2.168  85.432  1.00  0.00    -0.020 N 
HETATM   22  C4  UNL     1      -1.390   0.855  85.390  1.00  0.00     0.725 A 
ATOM     23  H2  UNL     1      -1.862   2.617  86.321  1.00  0.00     0.203 HD
HETATM   24  N5  UNL     1      -1.101   0.277  84.212  1.00  0.00    -0.020 N 
HETATM   25  C5  UNL     1      -1.054   0.962  83.068  1.00  0.00     0.707 A 
ATOM     26  H5  UNL     1      -0.910  -0.724  84.191  1.00  0.00     0.203 HD
HETATM   27  N6  UNL     1      -0.759   0.380  81.943  1.00  0.00    -0.233 N 
ATOM     28  H62 UNL     1      -0.565  -0.621  81.901  1.00  0.00     0.174 HD
ATOM     29  H61 UNL     1      -0.723   0.903  81.069  1.00  0.00     0.174 HD
BRANCH  20  30
HETATM   30  N1  UNL     1      -1.868   4.290  84.478  1.00  0.00    -0.225 N 
HETATM   31  C1  UNL     1      -0.823   5.175  84.934  1.00  0.00     0.168 C 
HETATM   32  C2  UNL     1      -3.188   4.890  84.288  1.00  0.00     0.168 C 
ENDBRANCH  20  30
BRANCH  22  33
HETATM   33  N3  UNL     1      -1.429   0.180  86.481  1.00  0.00    -0.138 N 
ATOM     34  H3  UNL     1      -0.634  -0.420  86.699  1.00  0.00     0.205 HD
BRANCH  33  35
HETATM   35  N4  UNL     1      -2.486   0.219  87.382  1.00  0.00    -0.331 N 
ATOM     36  H42 UNL     1      -3.252  -0.434  87.221  1.00  0.00     0.177 HD
ATOM     37  H41 UNL     1      -2.533   0.852  88.179  1.00  0.00     0.177 HD
ENDBRANCH  33  35
ENDBRANCH  22  33
ENDBRANCH  18  19
ENDBRANCH  10  18
ENDBRANCH   1   4
TORSDOF 6
ENDMDL
MODEL 4
REMARK VINA RESULT: -6.927052997      1.755      1.957
REMARK  6 active torsions:
REMARK  status: ('A' for Active; 'I' for Inactive)
REMARK    1  A    between atoms: N1_2  and  C3_4 
REMARK    2  A    between atoms: C4_7  and  N3_8 
REMARK    3  A    between atoms: N3_8  and  N4_10 
REMARK    4  A    between atoms: N7_19  and  C6_20 
REMARK    5  A    between atoms: C6_20  and  C7_21 
REMARK    6  A    between atoms: N9_27  and  C10_28 
ROOT
HETATM    1  C10 UNL     1       5.915   5.941  81.183  1.00  0.00     0.261 C 
HETATM    2  C11 UNL     1       6.836   5.378  82.169  1.00  0.00     0.079 C 
HETATM    3  N10 UNL     1       7.560   4.940  82.981  1.00  0.00    -0.196 NA
ENDROOT
BRANCH   1   4
HETATM    4  N9  UNL     1       4.562   5.966  81.682  1.00  0.00    -0.251 N 
HETATM    5  C9  UNL     1       3.757   4.929  81.450  1.00  0.00     0.283 A 
HETATM    6  C8  UNL     1       2.450   4.910  81.908  1.00  0.00     0.147 A 
HETATM    7  O1  UNL     1       4.155   3.931  80.806  1.00  0.00    -0.265 OA
HETATM    8  N8  UNL     1       1.449   4.023  81.817  1.00  0.00    -0.337 N 
HETATM    9  C14 UNL     1       1.990   5.998  82.619  1.00  0.00     0.145 A 
HETATM   10  C7  UNL     1       0.355   4.492  82.442  1.00  0.00     0.103 A 
ATOM     11  H8  UNL     1       1.509   3.122  81.342  1.00  0.00     0.167 HD
HETATM   12  N12 UNL     1       0.714   5.702  82.923  1.00  0.00    -0.328 N 
ATOM     13  H12 UNL     1       0.094   6.315  83.451  1.00  0.00     0.169 HD
HETATM   14  N11 UNL     1       2.812   7.034  82.846  1.00  0.00    -0.287 N 
HETATM   15  C12 UNL     1       4.097   7.016  82.377  1.00  0.00     0.333 A 
HETATM   16  C13 UNL     1       2.346   8.188  83.598  1.00  0.00     0.163 C 
HETATM   17  O2  UNL     1       4.895   7.973  82.573  1.00  0.00    -0.246 OA
BRANCH  10  18
HETATM   18  C6  UNL     1      -0.920   3.768  82.514  1.00  0.00     0.243 C 
BRANCH  18  19
HETATM   19  N7  UNL     1      -1.064   2.760  83.499  1.00  0.00    -0.006 N 
HETATM   20  C3  UNL     1      -0.882   1.470  83.211  1.00  0.00     0.711 A 
HETATM   21  N2  UNL     1      -1.053   0.533  84.201  1.00  0.00    -0.020 N 
HETATM   22  C4  UNL     1      -1.398   0.919  85.434  1.00  0.00     0.725 A 
ATOM     23  H2  UNL     1      -0.918  -0.457  83.995  1.00  0.00     0.203 HD
HETATM   24  N5  UNL     1      -1.574   2.226  85.690  1.00  0.00    -0.020 N 
HETATM   25  C5  UNL     1      -1.418   3.168  84.759  1.00  0.00     0.707 A 
ATOM     26  H5  UNL     1      -1.838   2.509  86.634  1.00  0.00     0.203 HD
HETATM   27  N6  UNL     1      -1.608   4.426  85.031  1.00  0.00    -0.233 N 
ATOM     28  H62 UNL     1      -1.871   4.730  85.969  1.00  0.00     0.174 HD
ATOM     29  H61 UNL     1      -1.489   5.146  84.320  1.00  0.00     0.174 HD
BRANCH  20  30
HETATM   30  N1  UNL     1      -0.542   0.914  81.952  1.00  0.00    -0.225 N 
HETATM   31  C1  UNL     1      -1.574   0.445  81.057  1.00  0.00     0.168 C 
HETATM   32  C2  UNL     1       0.837   0.739  81.500  1.00  0.00     0.168 C 
ENDBRANCH  20  30
BRANCH  22  33
HETATM   33  N3  UNL     1      -1.555   0.026  86.343  1.00  0.00    -0.138 N 
ATOM     34  H3  UNL     1      -0.993  -0.823  86.280  1.00  0.00     0.205 HD
BRANCH  33  35
HETATM   35  N4  UNL     1      -2.442   0.146  87.405  1.00  0.00    -0.331 N 
ATOM     36  H42 UNL     1      -3.107   0.918  87.367  1.00  0.00     0.177 HD
ATOM     37  H41 UNL     1      -2.463  -0.487  88.205  1.00  0.00     0.177 HD
ENDBRANCH  33  35
ENDBRANCH  22  33
ENDBRANCH  18  19
ENDBRANCH  10  18
ENDBRANCH   1   4
TORSDOF 6
ENDMDL
MODEL 5
REMARK VINA RESULT: -6.926759956      1.295      2.232
REMARK  6 active torsions:
REMARK  status: ('A' for Active; 'I' for Inactive)
REMARK    1  A    between atoms: N1_2  and  C3_4 
REMARK    2  A    between atoms: C4_7  and  N3_8 
REMARK    3  A    between atoms: N3_8  and  N4_10 
REMARK    4  A    between atoms: N7_19  and  C6_20 
REMARK    5  A    between atoms: C6_20  and  C7_21 
REMARK    6  A    between atoms: N9_27  and  C10_28 
ROOT
HETATM    1  C10 UNL     1       5.472   6.404  81.361  1.00  0.00     0.261 C 
HETATM    2  C11 UNL     1       6.455   5.581  82.064  1.00  0.00     0.079 C 
HETATM    3  N10 UNL     1       7.222   4.908  82.643  1.00  0.00    -0.196 NA
ENDROOT
BRANCH   1   4
HETATM    4  N9  UNL     1       4.287   5.647  81.038  1.00  0.00    -0.251 N 
HETATM    5  C9  UNL     1       3.287   5.585  81.918  1.00  0.00     0.283 A 
HETATM    6  C8  UNL     1       2.133   4.868  81.652  1.00  0.00     0.147 A 
HETATM    7  O1  UNL     1       3.357   6.175  83.021  1.00  0.00    -0.265 OA
HETATM    8  N8  UNL     1       1.004   4.641  82.340  1.00  0.00    -0.337 N 
HETATM    9  C14 UNL     1       2.034   4.212  80.445  1.00  0.00     0.145 A 
HETATM   10  C7  UNL     1       0.174   3.861  81.626  1.00  0.00     0.103 A 
ATOM     11  H8  UNL     1       0.805   5.007  83.271  1.00  0.00     0.167 HD
HETATM   12  N12 UNL     1       0.830   3.613  80.471  1.00  0.00    -0.328 N 
ATOM     13  H12 UNL     1       0.457   3.042  79.712  1.00  0.00     0.169 HD
HETATM   14  N11 UNL     1       3.048   4.283  79.568  1.00  0.00    -0.287 N 
HETATM   15  C12 UNL     1       4.173   5.001  79.866  1.00  0.00     0.333 A 
HETATM   16  C13 UNL     1       2.959   3.601  78.287  1.00  0.00     0.163 C 
HETATM   17  O2  UNL     1       5.144   5.089  79.067  1.00  0.00    -0.246 OA
BRANCH  10  18
HETATM   18  C6  UNL     1      -1.140   3.414  82.100  1.00  0.00     0.243 C 
BRANCH  18  19
HETATM   19  N7  UNL     1      -1.189   2.499  83.181  1.00  0.00    -0.006 N 
HETATM   20  C3  UNL     1      -0.932   1.201  83.010  1.00  0.00     0.711 A 
HETATM   21  N2  UNL     1      -1.012   0.356  84.090  1.00  0.00    -0.020 N 
HETATM   22  C4  UNL     1      -1.342   0.838  85.293  1.00  0.00     0.725 A 
ATOM     23  H2  UNL     1      -0.820  -0.639  83.975  1.00  0.00     0.203 HD
HETATM   24  N5  UNL     1      -1.594   2.151  85.431  1.00  0.00    -0.020 N 
HETATM   25  C5  UNL     1      -1.528   3.006  84.408  1.00  0.00     0.707 A 
ATOM     26  H5  UNL     1      -1.845   2.508  86.352  1.00  0.00     0.203 HD
HETATM   27  N6  UNL     1      -1.790   4.270  84.567  1.00  0.00    -0.233 N 
ATOM     28  H62 UNL     1      -2.043   4.648  85.481  1.00  0.00     0.174 HD
ATOM     29  H61 UNL     1      -1.740   4.924  83.786  1.00  0.00     0.174 HD
BRANCH  20  30
HETATM   30  N1  UNL     1      -0.598   0.548  81.798  1.00  0.00    -0.225 N 
HETATM   31  C1  UNL     1      -1.633   0.125  80.885  1.00  0.00     0.168 C 
HETATM   32  C2  UNL     1       0.776   0.223  81.416  1.00  0.00     0.168 C 
ENDBRANCH  20  30
BRANCH  22  33
HETATM   33  N3  UNL     1      -1.413   0.030  86.288  1.00  0.00    -0.138 N 
ATOM     34  H3  UNL     1      -0.686  -0.679  86.380  1.00  0.00     0.205 HD
BRANCH  33  35
HETATM   35  N4  UNL     1      -2.418   0.063  87.246  1.00  0.00    -0.331 N 
ATOM     36  H42 UNL     1      -3.287  -0.421  87.020  1.00  0.00     0.177 HD
ATOM     37  H41 UNL     1      -2.334   0.535  88.146  1.00  0.00     0.177 HD
ENDBRANCH  33  35
ENDBRANCH  22  33
ENDBRANCH  18  19
ENDBRANCH  10  18
ENDBRANCH   1   4
TORSDOF 6
ENDMDL
