MODEL 1
REMARK VINA RESULT: -6.976885113      0.000      0.000
REMARK  8 active torsions:
REMARK  status: ('A' for Active; 'I' for Inactive)
REMARK    1  A    between atoms: N1_2  and  C3_4 
REMARK    2  A    between atoms: C3_4  and  C4_5 
REMARK    3  A    between atoms: C4_5  and  N2_6 
REMARK    4  A    between atoms: N2_6  and  C5_8 
REMARK    5  A    between atoms: C10_21  and  N6_22 
REMARK    6  A    between atoms: N7_25  and  S1_26 
REMARK    7  A    between atoms: S1_26  and  C12_29 
REMARK    8  A    between atoms: C12_29  and  N8_30 
ROOT
HETATM    1  C5  UNL     1      -1.786   2.818  84.045  1.00  0.00     0.173 C 
HETATM    2  N3  UNL     1      -1.527   1.489  83.905  1.00  0.00    -0.323 N 
ATOM      3  H3  UNL     1      -1.938   0.865  84.600  1.00  0.00     0.169 HD
HETATM    4  C6  UNL     1      -0.775   0.910  82.934  1.00  0.00     0.130 A 
HETATM    5  N4  UNL     1      -1.057  -0.388  82.758  1.00  0.00    -0.293 N 
ATOM      6  H4  UNL     1      -1.776  -0.830  83.330  1.00  0.00     0.172 HD
HETATM    7  C7  UNL     1      -0.390  -1.126  81.822  1.00  0.00     0.328 A 
HETATM    8  O1  UNL     1      -0.677  -2.341  81.683  1.00  0.00    -0.247 OA
HETATM    9  N5  UNL     1       0.571  -0.570  81.047  1.00  0.00    -0.275 N 
ATOM     10  H5  UNL     1       1.071  -1.118  80.346  1.00  0.00     0.173 HD
HETATM   11  C8  UNL     1       0.839   0.735  81.236  1.00  0.00     0.267 A 
HETATM   12  O2  UNL     1       1.734   1.272  80.522  1.00  0.00    -0.267 OA
HETATM   13  C9  UNL     1       0.196   1.512  82.162  1.00  0.00     0.121 A 
HETATM   14  C10 UNL     1       0.644   2.848  82.178  1.00  0.00     0.136 C 
HETATM   15  N7  UNL     1      -0.118   3.829  82.591  1.00  0.00    -0.217 N 
HETATM   16  C13 UNL     1      -1.149   3.897  83.460  1.00  0.00     0.304 C 
HETATM   17  O4  UNL     1      -1.607   5.003  83.797  1.00  0.00    -0.263 OA
ENDROOT
BRANCH  15  18
HETATM   18  S1  UNL     1       0.288   5.588  81.830  1.00  0.00     0.056 S 
HETATM   19  C11 UNL     1       1.319   5.922  83.383  1.00  0.00     0.139 C 
HETATM   20  O3  UNL     1       1.760   5.720  80.839  1.00  0.00    -0.248 OA
BRANCH  18  21
HETATM   21  C12 UNL     1      -0.893   6.980  82.101  1.00  0.00     0.346 C 
BRANCH  21  22
HETATM   22  N8  UNL     1      -2.299   6.898  81.650  1.00  0.00    -0.068 N 
ATOM     23  H83 UNL     1      -2.332   7.178  80.670  1.00  0.00     0.275 HD
ATOM     24  H82 UNL     1      -2.555   5.911  81.597  1.00  0.00     0.275 HD
ATOM     25  H81 UNL     1      -3.046   7.389  82.142  1.00  0.00     0.275 HD
ENDBRANCH  21  22
ENDBRANCH  18  21
ENDBRANCH  15  18
BRANCH  14  26
HETATM   26  N6  UNL     1       1.786   2.993  81.797  1.00  0.00    -0.384 N 
ATOM     27  H62 UNL     1       2.271   2.332  81.190  1.00  0.00     0.157 HD
ATOM     28  H61 UNL     1       2.229   3.852  82.124  1.00  0.00     0.157 HD
ENDBRANCH  14  26
BRANCH   1  29
HETATM   29  N2  UNL     1      -2.753   3.119  84.820  1.00  0.00    -0.370 N 
ATOM     30  H2  UNL     1      -3.599   3.467  84.369  1.00  0.00     0.161 HD
BRANCH  29  31
HETATM   31  C4  UNL     1      -2.791   3.028  86.244  1.00  0.00     0.151 C 
BRANCH  31  32
HETATM   32  C3  UNL     1      -3.926   2.057  86.595  1.00  0.00     0.290 C 
BRANCH  32  33
HETATM   33  N1  UNL     1      -3.613   1.235  87.739  1.00  0.00     0.081 N 
HETATM   34  C1  UNL     1      -2.605   0.268  87.420  1.00  0.00     0.309 C 
HETATM   35  C2  UNL     1      -3.131   2.095  88.795  1.00  0.00     0.309 C 
ENDBRANCH  32  33
ENDBRANCH  31  32
ENDBRANCH  29  31
ENDBRANCH   1  29
TORSDOF 8
ENDMDL
MODEL 2
REMARK VINA RESULT: -6.792490435      1.010      1.059
REMARK  8 active torsions:
REMARK  status: ('A' for Active; 'I' for Inactive)
REMARK    1  A    between atoms: N1_2  and  C3_4 
REMARK    2  A    between atoms: C3_4  and  C4_5 
REMARK    3  A    between atoms: C4_5  and  N2_6 
REMARK    4  A    between atoms: N2_6  and  C5_8 
REMARK    5  A    between atoms: C10_21  and  N6_22 
REMARK    6  A    between atoms: N7_25  and  S1_26 
REMARK    7  A    between atoms: S1_26  and  C12_29 
REMARK    8  A    between atoms: C12_29  and  N8_30 
ROOT
HETATM    1  C5  UNL     1      -1.083   3.502  83.936  1.00  0.00     0.173 C 
HETATM    2  N3  UNL     1      -1.080   2.143  83.855  1.00  0.00    -0.323 N 
ATOM      3  H3  UNL     1      -1.559   1.638  84.600  1.00  0.00     0.169 HD
HETATM    4  C6  UNL     1      -0.502   1.393  82.882  1.00  0.00     0.130 A 
HETATM    5  N4  UNL     1      -1.025   0.164  82.788  1.00  0.00    -0.293 N 
ATOM      6  H4  UNL     1      -1.781  -0.112  83.415  1.00  0.00     0.172 HD
HETATM    7  C7  UNL     1      -0.558  -0.725  81.863  1.00  0.00     0.328 A 
HETATM    8  O1  UNL     1      -1.070  -1.871  81.801  1.00  0.00    -0.247 OA
HETATM    9  N5  UNL     1       0.444  -0.391  81.015  1.00  0.00    -0.275 N 
ATOM     10  H5  UNL     1       0.796  -1.053  80.322  1.00  0.00     0.173 HD
HETATM   11  C8  UNL     1       0.957   0.848  81.123  1.00  0.00     0.267 A 
HETATM   12  O2  UNL     1       1.894   1.178  80.340  1.00  0.00    -0.267 OA
HETATM   13  C9  UNL     1       0.518   1.770  82.035  1.00  0.00     0.121 A 
HETATM   14  C10 UNL     1       1.204   3.000  81.960  1.00  0.00     0.136 C 
HETATM   15  N7  UNL     1       0.659   4.122  82.355  1.00  0.00    -0.217 N 
HETATM   16  C13 UNL     1      -0.293   4.418  83.266  1.00  0.00     0.304 C 
HETATM   17  O4  UNL     1      -0.521   5.603  83.564  1.00  0.00    -0.263 OA
ENDROOT
BRANCH  15  18
HETATM   18  S1  UNL     1       1.337   5.741  81.483  1.00  0.00     0.056 S 
HETATM   19  C11 UNL     1       2.532   5.915  82.942  1.00  0.00     0.139 C 
HETATM   20  O3  UNL     1       2.724   5.547  80.385  1.00  0.00    -0.248 OA
BRANCH  18  21
HETATM   21  C12 UNL     1       0.474   7.346  81.771  1.00  0.00     0.346 C 
BRANCH  21  22
HETATM   22  N8  UNL     1      -0.935   7.548  81.366  1.00  0.00    -0.068 N 
ATOM     23  H83 UNL     1      -1.311   6.645  81.077  1.00  0.00     0.275 HD
ATOM     24  H82 UNL     1      -1.478   7.743  82.208  1.00  0.00     0.275 HD
ATOM     25  H81 UNL     1      -1.192   8.237  80.660  1.00  0.00     0.275 HD
ENDBRANCH  21  22
ENDBRANCH  18  21
ENDBRANCH  15  18
BRANCH  14  26
HETATM   26  N6  UNL     1       2.331   2.913  81.518  1.00  0.00    -0.384 N 
ATOM     27  H62 UNL     1       2.837   2.033  81.421  1.00  0.00     0.157 HD
ATOM     28  H61 UNL     1       2.736   3.805  81.233  1.00  0.00     0.157 HD
ENDBRANCH  14  26
BRANCH   1  29
HETATM   29  N2  UNL     1      -1.934   4.011  84.738  1.00  0.00    -0.370 N 
ATOM     30  H2  UNL     1      -1.623   4.826  85.267  1.00  0.00     0.161 HD
BRANCH  29  31
HETATM   31  C4  UNL     1      -3.271   3.576  84.982  1.00  0.00     0.151 C 
BRANCH  31  32
HETATM   32  C3  UNL     1      -3.310   3.055  86.426  1.00  0.00     0.290 C 
BRANCH  32  33
HETATM   33  N1  UNL     1      -3.131   1.625  86.500  1.00  0.00     0.081 N 
HETATM   34  C1  UNL     1      -1.921   1.291  87.192  1.00  0.00     0.309 C 
HETATM   35  C2  UNL     1      -4.257   1.065  87.211  1.00  0.00     0.309 C 
ENDBRANCH  32  33
ENDBRANCH  31  32
ENDBRANCH  29  31
ENDBRANCH   1  29
TORSDOF 8
ENDMDL
MODEL 3
REMARK VINA RESULT: -6.661848613      1.439      1.955
REMARK  8 active torsions:
REMARK  status: ('A' for Active; 'I' for Inactive)
REMARK    1  A    between atoms: N1_2  and  C3_4 
REMARK    2  A    between atoms: C3_4  and  C4_5 
REMARK    3  A    between atoms: C4_5  and  N2_6 
REMARK    4  A    between atoms: N2_6  and  C5_8 
REMARK    5  A    between atoms: C10_21  and  N6_22 
REMARK    6  A    between atoms: N7_25  and  S1_26 
REMARK    7  A    between atoms: S1_26  and  C12_29 
REMARK    8  A    between atoms: C12_29  and  N8_30 
ROOT
HETATM    1  C5  UNL     1      -1.016   3.073  84.416  1.00  0.00     0.173 C 
HETATM    2  N3  UNL     1      -1.045   1.734  84.172  1.00  0.00    -0.323 N 
ATOM      3  H3  UNL     1      -1.490   1.149  84.879  1.00  0.00     0.169 HD
HETATM    4  C6  UNL     1      -0.541   1.100  83.083  1.00  0.00     0.130 A 
HETATM    5  N4  UNL     1      -1.094  -0.103  82.875  1.00  0.00    -0.293 N 
ATOM      6  H4  UNL     1      -1.817  -0.442  83.509  1.00  0.00     0.172 HD
HETATM    7  C7  UNL     1      -0.700  -0.879  81.823  1.00  0.00     0.328 A 
HETATM    8  O1  UNL     1      -1.239  -2.003  81.657  1.00  0.00    -0.247 OA
HETATM    9  N5  UNL     1       0.256  -0.459  80.962  1.00  0.00    -0.275 N 
ATOM     10  H5  UNL     1       0.553  -1.037  80.175  1.00  0.00     0.173 HD
HETATM   11  C8  UNL     1       0.800   0.751  81.186  1.00  0.00     0.267 A 
HETATM   12  O2  UNL     1       1.696   1.161  80.393  1.00  0.00    -0.267 OA
HETATM   13  C9  UNL     1       0.435   1.562  82.227  1.00  0.00     0.121 A 
HETATM   14  C10 UNL     1       1.140   2.783  82.257  1.00  0.00     0.136 C 
HETATM   15  N7  UNL     1       0.642   3.857  82.817  1.00  0.00    -0.217 N 
HETATM   16  C13 UNL     1      -0.248   4.053  83.812  1.00  0.00     0.304 C 
HETATM   17  O4  UNL     1      -0.434   5.196  84.264  1.00  0.00    -0.263 OA
ENDROOT
BRANCH  15  18
HETATM   18  S1  UNL     1       1.301   5.559  82.105  1.00  0.00     0.056 S 
HETATM   19  C11 UNL     1       0.495   5.079  80.460  1.00  0.00     0.139 C 
HETATM   20  O3  UNL     1       0.210   6.960  82.218  1.00  0.00    -0.248 OA
BRANCH  18  21
HETATM   21  C12 UNL     1       3.020   5.649  81.439  1.00  0.00     0.346 C 
BRANCH  21  22
HETATM   22  N8  UNL     1       4.198   5.567  82.329  1.00  0.00    -0.068 N 
ATOM     23  H83 UNL     1       4.352   6.491  82.733  1.00  0.00     0.275 HD
ATOM     24  H82 UNL     1       3.935   5.020  83.149  1.00  0.00     0.275 HD
ATOM     25  H81 UNL     1       5.096   5.218  81.993  1.00  0.00     0.275 HD
ENDBRANCH  21  22
ENDBRANCH  18  21
ENDBRANCH  15  18
BRANCH  14  26
HETATM   26  N6  UNL     1       2.237   2.735  81.741  1.00  0.00    -0.384 N 
ATOM     27  H62 UNL     1       3.105   2.604  82.261  1.00  0.00     0.157 HD
ATOM     28  H61 UNL     1       2.223   2.823  80.725  1.00  0.00     0.157 HD
ENDBRANCH  14  26
BRANCH   1  29
HETATM   29  N2  UNL     1      -1.808   3.493  85.323  1.00  0.00    -0.370 N 
ATOM     30  H2  UNL     1      -1.374   3.979  86.109  1.00  0.00     0.161 HD
BRANCH  29  31
HETATM   31  C4  UNL     1      -3.228   3.365  85.368  1.00  0.00     0.151 C 
BRANCH  31  32
HETATM   32  C3  UNL     1      -3.605   3.133  86.838  1.00  0.00     0.290 C 
BRANCH  32  33
HETATM   33  N1  UNL     1      -3.129   1.864  87.335  1.00  0.00     0.081 N 
HETATM   34  C1  UNL     1      -2.886   1.920  88.746  1.00  0.00     0.309 C 
HETATM   35  C2  UNL     1      -4.139   0.866  87.065  1.00  0.00     0.309 C 
ENDBRANCH  32  33
ENDBRANCH  31  32
ENDBRANCH  29  31
ENDBRANCH   1  29
TORSDOF 8
ENDMDL
MODEL 4
REMARK VINA RESULT: -6.526558052      2.006      5.085
REMARK  8 active torsions:
REMARK  status: ('A' for Active; 'I' for Inactive)
REMARK    1  A    between atoms: N1_2  and  C3_4 
REMARK    2  A    between atoms: C3_4  and  C4_5 
REMARK    3  A    between atoms: C4_5  and  N2_6 
REMARK    4  A    between atoms: N2_6  and  C5_8 
REMARK    5  A    between atoms: C10_21  and  N6_22 
REMARK    6  A    between atoms: N7_25  and  S1_26 
REMARK    7  A    between atoms: S1_26  and  C12_29 
REMARK    8  A    between atoms: C12_29  and  N8_30 
ROOT
HETATM    1  C5  UNL     1      -0.158   1.633  82.641  1.00  0.00     0.173 C 
HETATM    2  N3  UNL     1      -0.741   0.889  83.621  1.00  0.00    -0.323 N 
ATOM      3  H3  UNL     1      -0.630  -0.123  83.556  1.00  0.00     0.169 HD
HETATM    4  C6  UNL     1      -1.454   1.360  84.676  1.00  0.00     0.130 A 
HETATM    5  N4  UNL     1      -1.510   0.495  85.697  1.00  0.00    -0.293 N 
ATOM      6  H4  UNL     1      -1.039  -0.406  85.622  1.00  0.00     0.172 HD
HETATM    7  C7  UNL     1      -2.192   0.806  86.838  1.00  0.00     0.328 A 
HETATM    8  O1  UNL     1      -2.226  -0.028  87.778  1.00  0.00    -0.247 OA
HETATM    9  N5  UNL     1      -2.829   1.994  86.971  1.00  0.00    -0.275 N 
ATOM     10  H5  UNL     1      -3.340   2.230  87.823  1.00  0.00     0.173 HD
HETATM   11  C8  UNL     1      -2.761   2.850  85.936  1.00  0.00     0.267 A 
HETATM   12  O2  UNL     1      -3.351   3.964  86.041  1.00  0.00    -0.267 OA
HETATM   13  C9  UNL     1      -2.089   2.579  84.774  1.00  0.00     0.121 A 
HETATM   14  C10 UNL     1      -2.156   3.627  83.833  1.00  0.00     0.136 C 
HETATM   15  N7  UNL     1      -1.234   3.797  82.920  1.00  0.00    -0.217 N 
HETATM   16  C13 UNL     1      -0.376   2.956  82.304  1.00  0.00     0.304 C 
HETATM   17  O4  UNL     1       0.303   3.355  81.342  1.00  0.00    -0.263 OA
ENDROOT
BRANCH  15  18
HETATM   18  S1  UNL     1      -1.021   5.633  82.270  1.00  0.00     0.056 S 
HETATM   19  C11 UNL     1      -0.572   6.113  84.046  1.00  0.00     0.139 C 
HETATM   20  O3  UNL     1       0.606   6.120  81.740  1.00  0.00    -0.248 OA
BRANCH  18  21
HETATM   21  C12 UNL     1      -2.504   6.726  82.164  1.00  0.00     0.346 C 
BRANCH  21  22
HETATM   22  N8  UNL     1      -3.128   7.057  80.864  1.00  0.00    -0.068 N 
ATOM     23  H83 UNL     1      -3.100   6.220  80.280  1.00  0.00     0.275 HD
ATOM     24  H82 UNL     1      -4.129   7.174  81.017  1.00  0.00     0.275 HD
ATOM     25  H81 UNL     1      -2.801   7.843  80.302  1.00  0.00     0.275 HD
ENDBRANCH  21  22
ENDBRANCH  18  21
ENDBRANCH  15  18
BRANCH  14  26
HETATM   26  N6  UNL     1      -3.140   4.328  83.941  1.00  0.00    -0.384 N 
ATOM     27  H62 UNL     1      -3.615   4.766  83.151  1.00  0.00     0.157 HD
ATOM     28  H61 UNL     1      -3.472   4.437  84.899  1.00  0.00     0.157 HD
ENDBRANCH  14  26
BRANCH   1  29
HETATM   29  N2  UNL     1       0.717   1.034  81.932  1.00  0.00    -0.370 N 
ATOM     30  H2  UNL     1       1.690   1.286  82.111  1.00  0.00     0.161 HD
BRANCH  29  31
HETATM   31  C4  UNL     1       0.497   0.055  80.918  1.00  0.00     0.151 C 
BRANCH  31  32
HETATM   32  C3  UNL     1       1.019  -1.279  81.470  1.00  0.00     0.290 C 
BRANCH  32  33
HETATM   33  N1  UNL     1      -0.048  -2.175  81.845  1.00  0.00     0.081 N 
HETATM   34  C1  UNL     1      -1.315  -1.694  81.378  1.00  0.00     0.309 C 
HETATM   35  C2  UNL     1       0.218  -3.466  81.253  1.00  0.00     0.309 C 
ENDBRANCH  32  33
ENDBRANCH  31  32
ENDBRANCH  29  31
ENDBRANCH   1  29
TORSDOF 8
ENDMDL
MODEL 5
REMARK VINA RESULT: -6.487389065      2.956      6.981
REMARK  8 active torsions:
REMARK  status: ('A' for Active; 'I' for Inactive)
REMARK    1  A    between atoms: N1_2  and  C3_4 
REMARK    2  A    between atoms: C3_4  and  C4_5 
REMARK    3  A    between atoms: C4_5  and  N2_6 
REMARK    4  A    between atoms: N2_6  and  C5_8 
REMARK    5  A    between atoms: C10_21  and  N6_22 
REMARK    6  A    between atoms: N7_25  and  S1_26 
REMARK    7  A    between atoms: S1_26  and  C12_29 
REMARK    8  A    between atoms: C12_29  and  N8_30 
ROOT
HETATM    1  C5  UNL     1       1.159   5.313  83.561  1.00  0.00     0.173 C 
HETATM    2  N3  UNL     1       0.570   6.330  82.873  1.00  0.00    -0.323 N 
ATOM      3  H3  UNL     1       1.187   7.060  82.516  1.00  0.00     0.169 HD
HETATM    4  C6  UNL     1      -0.756   6.470  82.616  1.00  0.00     0.130 A 
HETATM    5  N4  UNL     1      -1.004   7.267  81.568  1.00  0.00    -0.293 N 
ATOM      6  H4  UNL     1      -0.227   7.689  81.060  1.00  0.00     0.172 HD
HETATM    7  C7  UNL     1      -2.286   7.521  81.173  1.00  0.00     0.328 A 
HETATM    8  O1  UNL     1      -2.485   8.273  80.186  1.00  0.00    -0.247 OA
HETATM    9  N5  UNL     1      -3.340   6.976  81.825  1.00  0.00    -0.275 N 
ATOM     10  H5  UNL     1      -4.300   7.164  81.533  1.00  0.00     0.173 HD
HETATM   11  C8  UNL     1      -3.072   6.178  82.874  1.00  0.00     0.267 A 
HETATM   12  O2  UNL     1      -4.044   5.661  83.497  1.00  0.00    -0.267 OA
HETATM   13  C9  UNL     1      -1.803   5.897  83.305  1.00  0.00     0.121 A 
HETATM   14  C10 UNL     1      -1.769   5.036  84.420  1.00  0.00     0.136 C 
HETATM   15  N7  UNL     1      -0.737   4.273  84.675  1.00  0.00    -0.217 N 
HETATM   16  C13 UNL     1       0.579   4.372  84.392  1.00  0.00     0.304 C 
HETATM   17  O4  UNL     1       1.386   3.571  84.895  1.00  0.00    -0.263 OA
ENDROOT
BRANCH  15  18
HETATM   18  S1  UNL     1      -1.127   2.640  85.686  1.00  0.00     0.056 S 
HETATM   19  C11 UNL     1      -1.240   1.745  84.022  1.00  0.00     0.139 C 
HETATM   20  O3  UNL     1       0.257   1.614  86.131  1.00  0.00    -0.248 OA
BRANCH  18  21
HETATM   21  C12 UNL     1      -2.866   2.290  86.193  1.00  0.00     0.346 C 
BRANCH  21  22
HETATM   22  N8  UNL     1      -3.226   1.050  86.914  1.00  0.00    -0.068 N 
ATOM     23  H83 UNL     1      -4.174   0.790  86.638  1.00  0.00     0.275 HD
ATOM     24  H82 UNL     1      -2.675   0.287  86.520  1.00  0.00     0.275 HD
ATOM     25  H81 UNL     1      -3.167   0.988  87.930  1.00  0.00     0.275 HD
ENDBRANCH  21  22
ENDBRANCH  18  21
ENDBRANCH  15  18
BRANCH  14  26
HETATM   26  N6  UNL     1      -2.763   5.085  85.115  1.00  0.00    -0.384 N 
ATOM     27  H62 UNL     1      -3.235   5.952  85.372  1.00  0.00     0.157 HD
ATOM     28  H61 UNL     1      -3.107   4.172  85.415  1.00  0.00     0.157 HD
ENDBRANCH  14  26
BRANCH   1  29
HETATM   29  N2  UNL     1       2.421   5.203  83.422  1.00  0.00    -0.370 N 
ATOM     30  H2  UNL     1       2.945   4.937  84.256  1.00  0.00     0.161 HD
BRANCH  29  31
HETATM   31  C4  UNL     1       3.189   5.407  82.236  1.00  0.00     0.151 C 
BRANCH  31  32
HETATM   32  C3  UNL     1       3.469   4.018  81.645  1.00  0.00     0.290 C 
BRANCH  32  33
HETATM   33  N1  UNL     1       2.430   3.586  80.741  1.00  0.00     0.081 N 
HETATM   34  C1  UNL     1       2.929   3.459  79.404  1.00  0.00     0.309 C 
HETATM   35  C2  UNL     1       1.944   2.302  81.192  1.00  0.00     0.309 C 
ENDBRANCH  32  33
ENDBRANCH  31  32
ENDBRANCH  29  31
ENDBRANCH   1  29
TORSDOF 8
ENDMDL
