MODEL 1
REMARK VINA RESULT: -7.742752705      0.000      0.000
REMARK  8 active torsions:
REMARK  status: ('A' for Active; 'I' for Inactive)
REMARK    1  A    between atoms: N2_5  and  C3_6 
REMARK    2  A    between atoms: C3_6  and  C4_7 
REMARK    3  A    between atoms: C7_16  and  N5_17 
REMARK       I    between atoms: N5_17  and  C8_19 
REMARK    4  A    between atoms: N7_21  and  C9_23 
REMARK    5  A    between atoms: C9_23  and  C10_24 
REMARK    6  A    between atoms: N8_25  and  O4_26 
REMARK    7  A    between atoms: N9_28  and  C11_29 
REMARK    8  A    between atoms: C11_29  and  O5_30 
ROOT
HETATM    1  N5  UNL     1      -0.765   4.297  83.272  1.00  0.00    -0.314 N 
ATOM      2  H5  UNL     1      -1.553   4.655  82.732  1.00  0.00     0.170 HD
HETATM    3  C8  UNL     1       0.332   5.159  83.456  1.00  0.00     0.190 C 
HETATM    4  N6  UNL     1       0.340   6.034  84.559  1.00  0.00    -0.063 NA
HETATM    5  N7  UNL     1       1.305   5.146  82.633  1.00  0.00    -0.357 N 
ATOM      6  H7  UNL     1       1.240   4.491  81.855  1.00  0.00     0.162 HD
ENDROOT
BRANCH   1   7
HETATM    7  C7  UNL     1      -0.859   3.112  83.721  1.00  0.00     0.152 A 
HETATM    8  N4  UNL     1      -0.884   2.807  85.029  1.00  0.00    -0.281 N 
HETATM    9  N3  UNL     1      -0.984   1.554  85.455  1.00  0.00    -0.263 N 
ATOM     10  H4  UNL     1      -0.826   3.560  85.714  1.00  0.00     0.188 HD
HETATM   11  C6  UNL     1      -1.066   0.497  84.627  1.00  0.00     0.289 A 
ATOM     12  H3  UNL     1      -0.999   1.384  86.461  1.00  0.00     0.190 HD
HETATM   13  C5  UNL     1      -1.046   0.742  83.270  1.00  0.00     0.140 A 
HETATM   14  O3  UNL     1      -1.161  -0.693  85.084  1.00  0.00    -0.264 OA
HETATM   15  N2  UNL     1      -1.110  -0.076  82.219  1.00  0.00    -0.286 N 
HETATM   16  C12 UNL     1      -0.941   2.062  82.831  1.00  0.00     0.117 A 
HETATM   17  C2  UNL     1      -1.046   0.712  81.131  1.00  0.00     0.330 A 
HETATM   18  N1  UNL     1      -0.945   2.002  81.492  1.00  0.00    -0.298 N 
HETATM   19  O1  UNL     1      -1.075   0.335  79.929  1.00  0.00    -0.246 OA
HETATM   20  C1  UNL     1      -0.851   3.174  80.638  1.00  0.00     0.161 C 
BRANCH  15  21
HETATM   21  C3  UNL     1      -1.224  -1.521  82.199  1.00  0.00     0.203 C 
BRANCH  21  22
HETATM   22  C4  UNL     1       0.029  -2.115  81.683  1.00  0.00     0.251 C 
HETATM   23  O2  UNL     1       0.085  -3.323  81.549  1.00  0.00    -0.305 OA
ENDBRANCH  21  22
ENDBRANCH  15  21
ENDBRANCH   1   7
BRANCH   5  24
HETATM   24  C9  UNL     1       2.479   5.960  82.693  1.00  0.00     0.204 C 
BRANCH  24  25
HETATM   25  C10 UNL     1       3.595   5.347  81.918  1.00  0.00     0.160 C 
HETATM   26  N8  UNL     1       3.571   4.680  80.823  1.00  0.00    -0.131 N 
HETATM   27  N9  UNL     1       4.850   4.279  80.429  1.00  0.00    -0.166 N 
HETATM   28  N10 UNL     1       5.667   4.400  81.557  1.00  0.00     0.001 NA
HETATM   29  N11 UNL     1       4.973   5.398  82.288  1.00  0.00    -0.267 N 
ATOM     30  H11 UNL     1       5.387   6.042  82.962  1.00  0.00     0.185 HD
BRANCH  26  31
HETATM   31  O4  UNL     1       2.422   4.386  80.106  1.00  0.00    -0.265 OA
ATOM     32  H4  UNL     1       2.347   3.683  79.472  1.00  0.00     0.247 HD
ENDBRANCH  26  31
BRANCH  27  33
HETATM   33  C11 UNL     1       5.266   3.819  79.096  1.00  0.00     0.334 C 
BRANCH  33  34
HETATM   34  O5  UNL     1       6.463   3.080  79.215  1.00  0.00    -0.379 OA
ATOM     35  H5  UNL     1       6.588   2.562  78.429  1.00  0.00     0.211 HD
ENDBRANCH  33  34
ENDBRANCH  27  33
ENDBRANCH  24  25
ENDBRANCH   5  24
TORSDOF 8
ENDMDL
MODEL 2
REMARK VINA RESULT: -7.671074705      2.346      8.133
REMARK  8 active torsions:
REMARK  status: ('A' for Active; 'I' for Inactive)
REMARK    1  A    between atoms: N2_5  and  C3_6 
REMARK    2  A    between atoms: C3_6  and  C4_7 
REMARK    3  A    between atoms: C7_16  and  N5_17 
REMARK       I    between atoms: N5_17  and  C8_19 
REMARK    4  A    between atoms: N7_21  and  C9_23 
REMARK    5  A    between atoms: C9_23  and  C10_24 
REMARK    6  A    between atoms: N8_25  and  O4_26 
REMARK    7  A    between atoms: N9_28  and  C11_29 
REMARK    8  A    between atoms: C11_29  and  O5_30 
ROOT
HETATM    1  N5  UNL     1       1.161   4.168  81.432  1.00  0.00    -0.314 N 
ATOM      2  H5  UNL     1       0.767   5.092  81.611  1.00  0.00     0.170 HD
HETATM    3  C8  UNL     1       0.319   3.060  81.637  1.00  0.00     0.190 C 
HETATM    4  N6  UNL     1      -0.490   2.607  80.578  1.00  0.00    -0.063 NA
HETATM    5  N7  UNL     1       0.290   2.475  82.769  1.00  0.00    -0.357 N 
ATOM      6  H7  UNL     1       0.899   2.850  83.496  1.00  0.00     0.162 HD
ENDROOT
BRANCH   1   7
HETATM    7  C7  UNL     1       2.370   4.117  81.043  1.00  0.00     0.152 A 
HETATM    8  N4  UNL     1       2.848   3.180  80.207  1.00  0.00    -0.281 N 
HETATM    9  N3  UNL     1       4.119   3.164  79.826  1.00  0.00    -0.263 N 
ATOM     10  H4  UNL     1       2.216   2.461  79.856  1.00  0.00     0.188 HD
HETATM   11  C6  UNL     1       5.024   4.071  80.236  1.00  0.00     0.289 A 
ATOM     12  H3  UNL     1       4.425   2.428  79.189  1.00  0.00     0.190 HD
HETATM   13  C5  UNL     1       4.597   5.061  81.096  1.00  0.00     0.140 A 
HETATM   14  O3  UNL     1       6.239   4.015  79.841  1.00  0.00    -0.264 OA
HETATM   15  N2  UNL     1       5.241   6.080  81.665  1.00  0.00    -0.286 N 
HETATM   16  C12 UNL     1       3.260   5.070  81.492  1.00  0.00     0.117 A 
HETATM   17  C2  UNL     1       4.326   6.726  82.412  1.00  0.00     0.330 A 
HETATM   18  N1  UNL     1       3.130   6.122  82.311  1.00  0.00    -0.298 N 
HETATM   19  O1  UNL     1       4.522   7.751  83.117  1.00  0.00    -0.246 OA
HETATM   20  C1  UNL     1       1.877   6.490  82.949  1.00  0.00     0.161 C 
BRANCH  15  21
HETATM   21  C3  UNL     1       6.635   6.458  81.541  1.00  0.00     0.203 C 
BRANCH  21  22
HETATM   22  C4  UNL     1       7.391   5.978  82.719  1.00  0.00     0.251 C 
HETATM   23  O2  UNL     1       7.483   4.778  82.898  1.00  0.00    -0.305 OA
ENDBRANCH  21  22
ENDBRANCH  15  21
ENDBRANCH   1   7
BRANCH   5  24
HETATM   24  C9  UNL     1      -0.511   1.344  83.121  1.00  0.00     0.204 C 
BRANCH  24  25
HETATM   25  C10 UNL     1      -1.263   1.594  84.384  1.00  0.00     0.160 C 
HETATM   26  N8  UNL     1      -1.629   0.775  85.302  1.00  0.00    -0.131 N 
HETATM   27  N9  UNL     1      -2.321   1.421  86.330  1.00  0.00    -0.166 N 
HETATM   28  N10 UNL     1      -2.718   2.661  85.820  1.00  0.00     0.001 NA
HETATM   29  N11 UNL     1      -1.737   2.868  84.817  1.00  0.00    -0.267 N 
ATOM     30  H11 UNL     1      -1.425   3.773  84.464  1.00  0.00     0.185 HD
BRANCH  26  31
HETATM   31  O4  UNL     1      -1.374  -0.587  85.289  1.00  0.00    -0.265 OA
ATOM     32  H4  UNL     1      -1.151  -1.102  86.055  1.00  0.00     0.247 HD
ENDBRANCH  26  31
BRANCH  27  33
HETATM   33  C11 UNL     1      -2.584   0.909  87.683  1.00  0.00     0.334 C 
BRANCH  33  34
HETATM   34  O5  UNL     1      -2.767  -0.489  87.619  1.00  0.00    -0.379 OA
ATOM     35  H5  UNL     1      -3.236  -0.777  88.393  1.00  0.00     0.211 HD
ENDBRANCH  33  34
ENDBRANCH  27  33
ENDBRANCH  24  25
ENDBRANCH   5  24
TORSDOF 8
ENDMDL
MODEL 3
REMARK VINA RESULT: -7.577049000      2.326      3.962
REMARK  8 active torsions:
REMARK  status: ('A' for Active; 'I' for Inactive)
REMARK    1  A    between atoms: N2_5  and  C3_6 
REMARK    2  A    between atoms: C3_6  and  C4_7 
REMARK    3  A    between atoms: C7_16  and  N5_17 
REMARK       I    between atoms: N5_17  and  C8_19 
REMARK    4  A    between atoms: N7_21  and  C9_23 
REMARK    5  A    between atoms: C9_23  and  C10_24 
REMARK    6  A    between atoms: N8_25  and  O4_26 
REMARK    7  A    between atoms: N9_28  and  C11_29 
REMARK    8  A    between atoms: C11_29  and  O5_30 
ROOT
HETATM    1  N5  UNL     1      -0.636   2.900  81.375  1.00  0.00    -0.314 N 
ATOM      2  H5  UNL     1      -0.701   1.898  81.201  1.00  0.00     0.170 HD
HETATM    3  C8  UNL     1       0.017   3.680  80.403  1.00  0.00     0.190 C 
HETATM    4  N6  UNL     1      -0.728   4.204  79.330  1.00  0.00    -0.063 NA
HETATM    5  N7  UNL     1       1.268   3.909  80.495  1.00  0.00    -0.357 N 
ATOM      6  H7  UNL     1       1.752   3.502  81.296  1.00  0.00     0.162 HD
ENDROOT
BRANCH   1   7
HETATM    7  C7  UNL     1      -1.151   3.338  82.452  1.00  0.00     0.152 A 
HETATM    8  N4  UNL     1      -1.523   4.615  82.638  1.00  0.00    -0.281 N 
HETATM    9  N3  UNL     1      -2.059   5.030  83.779  1.00  0.00    -0.263 N 
ATOM     10  H4  UNL     1      -1.391   5.285  81.880  1.00  0.00     0.188 HD
HETATM   11  C6  UNL     1      -2.272   4.220  84.832  1.00  0.00     0.289 A 
ATOM     12  H3  UNL     1      -2.322   6.012  83.862  1.00  0.00     0.190 HD
HETATM   13  C5  UNL     1      -1.912   2.895  84.705  1.00  0.00     0.140 A 
HETATM   14  O3  UNL     1      -2.792   4.665  85.912  1.00  0.00    -0.264 OA
HETATM   15  N2  UNL     1      -1.995   1.868  85.551  1.00  0.00    -0.286 N 
HETATM   16  C12 UNL     1      -1.349   2.468  83.503  1.00  0.00     0.117 A 
HETATM   17  C2  UNL     1      -1.493   0.805  84.896  1.00  0.00     0.330 A 
HETATM   18  N1  UNL     1      -1.102   1.160  83.660  1.00  0.00    -0.298 N 
HETATM   19  O1  UNL     1      -1.387  -0.369  85.341  1.00  0.00    -0.246 OA
HETATM   20  C1  UNL     1      -0.509   0.327  82.627  1.00  0.00     0.161 C 
BRANCH  15  21
HETATM   21  C3  UNL     1      -2.509   1.846  86.906  1.00  0.00     0.203 C 
BRANCH  21  22
HETATM   22  C4  UNL     1      -3.915   1.384  86.901  1.00  0.00     0.251 C 
HETATM   23  O2  UNL     1      -4.144   0.226  87.195  1.00  0.00    -0.305 OA
ENDBRANCH  21  22
ENDBRANCH  15  21
ENDBRANCH   1   7
BRANCH   5  24
HETATM   24  C9  UNL     1       2.059   4.679  79.588  1.00  0.00     0.204 C 
BRANCH  24  25
HETATM   25  C10 UNL     1       3.151   5.398  80.307  1.00  0.00     0.160 C 
HETATM   26  N8  UNL     1       3.878   5.019  81.293  1.00  0.00    -0.131 N 
HETATM   27  N9  UNL     1       4.794   6.003  81.673  1.00  0.00    -0.166 N 
HETATM   28  N10 UNL     1       4.342   7.201  81.111  1.00  0.00     0.001 NA
HETATM   29  N11 UNL     1       3.600   6.717  80.003  1.00  0.00    -0.267 N 
ATOM     30  H11 UNL     1       3.419   7.226  79.137  1.00  0.00     0.185 HD
BRANCH  26  31
HETATM   31  O4  UNL     1       3.779   3.784  81.916  1.00  0.00    -0.265 OA
ATOM     32  H4  UNL     1       3.215   3.598  82.657  1.00  0.00     0.247 HD
ENDBRANCH  26  31
BRANCH  27  33
HETATM   33  C11 UNL     1       5.998   5.826  82.498  1.00  0.00     0.334 C 
BRANCH  33  34
HETATM   34  O5  UNL     1       6.442   4.491  82.387  1.00  0.00    -0.379 OA
ATOM     35  H5  UNL     1       6.347   4.061  83.228  1.00  0.00     0.211 HD
ENDBRANCH  33  34
ENDBRANCH  27  33
ENDBRANCH  24  25
ENDBRANCH   5  24
TORSDOF 8
ENDMDL
MODEL 4
REMARK VINA RESULT: -7.556708765      2.201      3.806
REMARK  8 active torsions:
REMARK  status: ('A' for Active; 'I' for Inactive)
REMARK    1  A    between atoms: N2_5  and  C3_6 
REMARK    2  A    between atoms: C3_6  and  C4_7 
REMARK    3  A    between atoms: C7_16  and  N5_17 
REMARK       I    between atoms: N5_17  and  C8_19 
REMARK    4  A    between atoms: N7_21  and  C9_23 
REMARK    5  A    between atoms: C9_23  and  C10_24 
REMARK    6  A    between atoms: N8_25  and  O4_26 
REMARK    7  A    between atoms: N9_28  and  C11_29 
REMARK    8  A    between atoms: C11_29  and  O5_30 
ROOT
HETATM    1  N5  UNL     1      -0.571   2.854  81.361  1.00  0.00    -0.314 N 
ATOM      2  H5  UNL     1      -0.629   1.849  81.198  1.00  0.00     0.170 HD
HETATM    3  C8  UNL     1       0.077   3.627  80.380  1.00  0.00     0.190 C 
HETATM    4  N6  UNL     1      -0.670   4.133  79.300  1.00  0.00    -0.063 NA
HETATM    5  N7  UNL     1       1.327   3.865  80.470  1.00  0.00    -0.357 N 
ATOM      6  H7  UNL     1       1.812   3.471  81.276  1.00  0.00     0.162 HD
ENDROOT
BRANCH   1   7
HETATM    7  C7  UNL     1      -1.090   3.300  82.431  1.00  0.00     0.152 A 
HETATM    8  N4  UNL     1      -1.456   4.580  82.608  1.00  0.00    -0.281 N 
HETATM    9  N3  UNL     1      -1.996   5.004  83.744  1.00  0.00    -0.263 N 
ATOM     10  H4  UNL     1      -1.316   5.245  81.848  1.00  0.00     0.188 HD
HETATM   11  C6  UNL     1      -2.220   4.201  84.800  1.00  0.00     0.289 A 
ATOM     12  H3  UNL     1      -2.255   5.988  83.820  1.00  0.00     0.190 HD
HETATM   13  C5  UNL     1      -1.866   2.874  84.683  1.00  0.00     0.140 A 
HETATM   14  O3  UNL     1      -2.743   4.655  85.874  1.00  0.00    -0.264 OA
HETATM   15  N2  UNL     1      -1.960   1.852  85.534  1.00  0.00    -0.286 N 
HETATM   16  C12 UNL     1      -1.299   2.437  83.487  1.00  0.00     0.117 A 
HETATM   17  C2  UNL     1      -1.460   0.783  84.888  1.00  0.00     0.330 A 
HETATM   18  N1  UNL     1      -1.060   1.128  83.652  1.00  0.00    -0.298 N 
HETATM   19  O1  UNL     1      -1.363  -0.389  85.339  1.00  0.00    -0.246 OA
HETATM   20  C1  UNL     1      -0.466   0.287  82.627  1.00  0.00     0.161 C 
BRANCH  15  21
HETATM   21  C3  UNL     1      -2.483   1.841  86.886  1.00  0.00     0.203 C 
BRANCH  21  22
HETATM   22  C4  UNL     1      -3.899   1.413  86.872  1.00  0.00     0.251 C 
HETATM   23  O2  UNL     1      -4.157   0.254  87.140  1.00  0.00    -0.305 OA
ENDBRANCH  21  22
ENDBRANCH  15  21
ENDBRANCH   1   7
BRANCH   5  24
HETATM   24  C9  UNL     1       2.113   4.630  79.555  1.00  0.00     0.204 C 
BRANCH  24  25
HETATM   25  C10 UNL     1       3.568   4.487  79.850  1.00  0.00     0.160 C 
HETATM   26  N8  UNL     1       4.498   3.930  79.165  1.00  0.00    -0.131 N 
HETATM   27  N9  UNL     1       5.738   4.014  79.804  1.00  0.00    -0.166 N 
HETATM   28  N10 UNL     1       5.471   4.325  81.141  1.00  0.00     0.001 NA
HETATM   29  N11 UNL     1       4.217   4.975  81.024  1.00  0.00    -0.267 N 
ATOM     30  H11 UNL     1       3.842   5.672  81.668  1.00  0.00     0.185 HD
BRANCH  26  31
HETATM   31  O4  UNL     1       4.311   3.317  77.936  1.00  0.00    -0.265 OA
ATOM     32  H4  UNL     1       3.897   3.727  77.186  1.00  0.00     0.247 HD
ENDBRANCH  26  31
BRANCH  27  33
HETATM   33  C11 UNL     1       7.064   3.817  79.201  1.00  0.00     0.334 C 
BRANCH  33  34
HETATM   34  O5  UNL     1       7.165   2.490  78.731  1.00  0.00    -0.379 OA
ATOM     35  H5  UNL     1       7.412   1.923  79.451  1.00  0.00     0.211 HD
ENDBRANCH  33  34
ENDBRANCH  27  33
ENDBRANCH  24  25
ENDBRANCH   5  24
TORSDOF 8
ENDMDL
MODEL 5
REMARK VINA RESULT: -7.518452338      2.750      4.320
REMARK  8 active torsions:
REMARK  status: ('A' for Active; 'I' for Inactive)
REMARK    1  A    between atoms: N2_5  and  C3_6 
REMARK    2  A    between atoms: C3_6  and  C4_7 
REMARK    3  A    between atoms: C7_16  and  N5_17 
REMARK       I    between atoms: N5_17  and  C8_19 
REMARK    4  A    between atoms: N7_21  and  C9_23 
REMARK    5  A    between atoms: C9_23  and  C10_24 
REMARK    6  A    between atoms: N8_25  and  O4_26 
REMARK    7  A    between atoms: N9_28  and  C11_29 
REMARK    8  A    between atoms: C11_29  and  O5_30 
ROOT
HETATM    1  N5  UNL     1       1.988   2.817  80.481  1.00  0.00    -0.314 N 
ATOM      2  H5  UNL     1       2.013   1.808  80.338  1.00  0.00     0.170 HD
HETATM    3  C8  UNL     1       2.628   3.619  79.518  1.00  0.00     0.190 C 
HETATM    4  N6  UNL     1       1.902   4.048  78.391  1.00  0.00    -0.063 NA
HETATM    5  N7  UNL     1       3.849   3.952  79.666  1.00  0.00    -0.357 N 
ATOM      6  H7  UNL     1       4.321   3.609  80.503  1.00  0.00     0.162 HD
ENDROOT
BRANCH   1   7
HETATM    7  C7  UNL     1       1.383   3.242  81.514  1.00  0.00     0.152 A 
HETATM    8  N4  UNL     1       1.503   4.492  81.991  1.00  0.00    -0.281 N 
HETATM    9  N3  UNL     1       0.851   4.895  83.075  1.00  0.00    -0.263 N 
ATOM     10  H4  UNL     1       2.113   5.150  81.506  1.00  0.00     0.188 HD
HETATM   11  C6  UNL     1       0.027   4.099  83.779  1.00  0.00     0.289 A 
ATOM     12  H3  UNL     1       0.983   5.857  83.390  1.00  0.00     0.190 HD
HETATM   13  C5  UNL     1      -0.141   2.802  83.341  1.00  0.00     0.140 A 
HETATM   14  O3  UNL     1      -0.581   4.532  84.817  1.00  0.00    -0.264 OA
HETATM   15  N2  UNL     1      -0.875   1.794  83.813  1.00  0.00    -0.286 N 
HETATM   16  C12 UNL     1       0.548   2.387  82.202  1.00  0.00     0.117 A 
HETATM   17  C2  UNL     1      -0.655   0.756  82.987  1.00  0.00     0.330 A 
HETATM   18  N1  UNL     1       0.201   1.106  82.013  1.00  0.00    -0.298 N 
HETATM   19  O1  UNL     1      -1.160  -0.395  83.078  1.00  0.00    -0.246 OA
HETATM   20  C1  UNL     1       0.706   0.293  80.919  1.00  0.00     0.161 C 
BRANCH  15  21
HETATM   21  C3  UNL     1      -1.746   1.769  84.973  1.00  0.00     0.203 C 
BRANCH  21  22
HETATM   22  C4  UNL     1      -1.067   1.082  86.094  1.00  0.00     0.251 C 
HETATM   23  O2  UNL     1       0.043   1.461  86.418  1.00  0.00    -0.305 OA
ENDBRANCH  21  22
ENDBRANCH  15  21
ENDBRANCH   1   7
BRANCH   5  24
HETATM   24  C9  UNL     1       4.624   4.757  78.775  1.00  0.00     0.204 C 
BRANCH  24  25
HETATM   25  C10 UNL     1       5.539   3.915  77.951  1.00  0.00     0.160 C 
HETATM   26  N8  UNL     1       5.281   3.143  76.959  1.00  0.00    -0.131 N 
HETATM   27  N9  UNL     1       6.434   2.529  76.464  1.00  0.00    -0.166 N 
HETATM   28  N10 UNL     1       7.408   2.658  77.459  1.00  0.00     0.001 NA
HETATM   29  N11 UNL     1       6.950   3.816  78.138  1.00  0.00    -0.267 N 
ATOM     30  H11 UNL     1       7.529   4.466  78.670  1.00  0.00     0.185 HD
BRANCH  26  31
HETATM   31  O4  UNL     1       4.016   2.935  76.433  1.00  0.00    -0.265 OA
ATOM     32  H4  UNL     1       3.209   2.980  76.932  1.00  0.00     0.247 HD
ENDBRANCH  26  31
BRANCH  27  33
HETATM   33  C11 UNL     1       6.601   1.874  75.158  1.00  0.00     0.334 C 
BRANCH  33  34
HETATM   34  O5  UNL     1       5.857   0.675  75.145  1.00  0.00    -0.379 OA
ATOM     35  H5  UNL     1       5.774   0.350  76.033  1.00  0.00     0.211 HD
ENDBRANCH  33  34
ENDBRANCH  27  33
ENDBRANCH  24  25
ENDBRANCH   5  24
TORSDOF 8
ENDMDL
