MODEL 1
REMARK VINA RESULT: -7.945942205      0.000      0.000
REMARK  6 active torsions:
REMARK  status: ('A' for Active; 'I' for Inactive)
REMARK    1  A    between atoms: C2_2  and  C3_3 
REMARK    2  A    between atoms: C3_3  and  N1_4 
REMARK    3  A    between atoms: C8_14  and  C9_15 
REMARK    4  A    between atoms: C10_16  and  C11_17 
REMARK    5  A    between atoms: C13_25  and  N8_26 
REMARK    6  A    between atoms: N9_32  and  O4_33 
ROOT
HETATM    1  N1  UNL     1       1.556   6.291  82.712  1.00  0.00    -0.281 N 
HETATM    2  N2  UNL     1       2.061   6.929  81.665  1.00  0.00    -0.248 N 
ATOM      3  H2  UNL     1       2.669   7.735  81.814  1.00  0.00     0.192 HD
HETATM    4  C4  UNL     1       1.786   6.532  80.415  1.00  0.00     0.340 A 
HETATM    5  O1  UNL     1       2.298   7.182  79.453  1.00  0.00    -0.245 OA
HETATM    6  N3  UNL     1       0.986   5.469  80.201  1.00  0.00    -0.290 N 
ATOM      7  H3  UNL     1       0.785   5.177  79.245  1.00  0.00     0.172 HD
HETATM    8  C5  UNL     1       0.450   4.789  81.224  1.00  0.00     0.165 A 
HETATM    9  C6  UNL     1       0.763   5.237  82.514  1.00  0.00     0.098 A 
HETATM   10  C7  UNL     1       0.240   4.559  83.568  1.00  0.00     0.049 A 
HETATM   11  C8  UNL     1      -0.580   3.455  83.327  1.00  0.00     0.002 A 
HETATM   12  C14 UNL     1      -0.888   3.018  82.070  1.00  0.00     0.049 A 
HETATM   13  C15 UNL     1      -1.792   1.882  81.753  1.00  0.00     0.072 C 
HETATM   14  N9  UNL     1      -0.342   3.726  81.046  1.00  0.00    -0.209 N 
ENDROOT
BRANCH  11  15
HETATM   15  C9  UNL     1      -1.137   2.752  84.488  1.00  0.00     0.023 C 
HETATM   16  C10 UNL     1      -2.216   3.147  85.132  1.00  0.00     0.136 C 
HETATM   17  N4  UNL     1      -2.514   2.264  86.202  1.00  0.00    -0.247 N 
HETATM   18  N5  UNL     1      -3.150   2.046  87.418  1.00  0.00    -0.008 NA
HETATM   19  C12 UNL     1      -1.866   1.004  85.891  1.00  0.00     0.251 C 
HETATM   20  N6  UNL     1      -2.710   0.849  87.948  1.00  0.00    -0.015 NA
HETATM   21  N7  UNL     1      -1.571   0.488  87.183  1.00  0.00    -0.099 NA
HETATM   22  C13 UNL     1      -0.640   1.533  85.138  1.00  0.00     0.261 C 
BRANCH  16  23
HETATM   23  C11 UNL     1      -3.070   4.316  84.858  1.00  0.00     0.228 C 
HETATM   24  O2  UNL     1      -3.725   4.503  83.803  1.00  0.00    -0.643 OA
HETATM   25  O3  UNL     1      -3.184   5.304  85.809  1.00  0.00    -0.643 OA
ENDBRANCH  16  23
BRANCH  22  26
HETATM   26  N8  UNL     1       0.409   1.887  86.080  1.00  0.00    -0.068 N 
ATOM     27  H83 UNL     1       1.285   1.402  85.883  1.00  0.00     0.275 HD
ATOM     28  H82 UNL     1       0.740   2.843  85.948  1.00  0.00     0.275 HD
ATOM     29  H81 UNL     1       0.079   1.719  87.030  1.00  0.00     0.275 HD
ENDBRANCH  22  26
ENDBRANCH  11  15
BRANCH  14  30
HETATM   30  O4  UNL     1      -0.625   3.321  79.766  1.00  0.00    -0.281 OA
ATOM     31  H4  UNL     1       0.043   2.856  79.275  1.00  0.00     0.245 HD
ENDBRANCH  14  30
BRANCH   1  32
HETATM   32  C3  UNL     1       1.865   6.779  84.061  1.00  0.00     0.176 C 
BRANCH  32  33
HETATM   33  C2  UNL     1       1.199   8.074  84.261  1.00  0.00    -0.015 C 
HETATM   34  C1  UNL     1       1.440   8.817  85.307  1.00  0.00     0.008 C 
ENDBRANCH  32  33
ENDBRANCH   1  32
TORSDOF 6
ENDMDL
MODEL 2
REMARK VINA RESULT: -7.634686621      3.014      4.488
REMARK  6 active torsions:
REMARK  status: ('A' for Active; 'I' for Inactive)
REMARK    1  A    between atoms: C2_2  and  C3_3 
REMARK    2  A    between atoms: C3_3  and  N1_4 
REMARK    3  A    between atoms: C8_14  and  C9_15 
REMARK    4  A    between atoms: C10_16  and  C11_17 
REMARK    5  A    between atoms: C13_25  and  N8_26 
REMARK    6  A    between atoms: N9_32  and  O4_33 
ROOT
HETATM    1  N1  UNL     1      -2.473   7.691  81.279  1.00  0.00    -0.281 N 
HETATM    2  N2  UNL     1      -2.278   8.924  80.832  1.00  0.00    -0.248 N 
ATOM      3  H2  UNL     1      -3.055   9.437  80.416  1.00  0.00     0.192 HD
HETATM    4  C4  UNL     1      -1.075   9.507  80.921  1.00  0.00     0.340 A 
HETATM    5  O1  UNL     1      -0.948  10.689  80.476  1.00  0.00    -0.245 OA
HETATM    6  N3  UNL     1      -0.038   8.844  81.470  1.00  0.00    -0.290 N 
ATOM      7  H3  UNL     1       0.873   9.300  81.531  1.00  0.00     0.172 HD
HETATM    8  C5  UNL     1      -0.182   7.597  81.937  1.00  0.00     0.165 A 
HETATM    9  C6  UNL     1      -1.456   7.024  81.824  1.00  0.00     0.098 A 
HETATM   10  C7  UNL     1      -1.631   5.764  82.299  1.00  0.00     0.049 A 
HETATM   11  C8  UNL     1      -0.547   5.096  82.872  1.00  0.00     0.002 A 
HETATM   12  C14 UNL     1       0.696   5.652  82.980  1.00  0.00     0.049 A 
HETATM   13  C15 UNL     1       1.895   4.972  83.535  1.00  0.00     0.072 C 
HETATM   14  N9  UNL     1       0.824   6.915  82.493  1.00  0.00    -0.209 N 
ENDROOT
BRANCH  11  15
HETATM   15  C9  UNL     1      -0.768   3.732  83.364  1.00  0.00     0.023 C 
HETATM   16  C10 UNL     1      -0.624   2.655  82.619  1.00  0.00     0.136 C 
HETATM   17  N4  UNL     1      -0.898   1.483  83.372  1.00  0.00    -0.247 N 
HETATM   18  N5  UNL     1      -1.253   0.140  83.388  1.00  0.00    -0.008 NA
HETATM   19  C12 UNL     1      -0.726   1.839  84.767  1.00  0.00     0.251 C 
HETATM   20  N6  UNL     1      -1.544  -0.233  84.686  1.00  0.00    -0.015 NA
HETATM   21  N7  UNL     1      -1.654   0.978  85.417  1.00  0.00    -0.099 NA
HETATM   22  C13 UNL     1      -1.172   3.304  84.709  1.00  0.00     0.261 C 
BRANCH  16  23
HETATM   23  C11 UNL     1      -0.229   2.566  81.203  1.00  0.00     0.228 C 
HETATM   24  O2  UNL     1       0.931   2.329  80.788  1.00  0.00    -0.643 OA
HETATM   25  O3  UNL     1      -1.181   2.755  80.226  1.00  0.00    -0.643 OA
ENDBRANCH  16  23
BRANCH  22  26
HETATM   26  N8  UNL     1      -2.619   3.389  84.824  1.00  0.00    -0.068 N 
ATOM     27  H83 UNL     1      -3.046   2.484  85.018  1.00  0.00     0.275 HD
ATOM     28  H82 UNL     1      -2.911   3.873  85.673  1.00  0.00     0.275 HD
ATOM     29  H81 UNL     1      -2.998   3.823  83.982  1.00  0.00     0.275 HD
ENDBRANCH  22  26
ENDBRANCH  11  15
BRANCH  14  30
HETATM   30  O4  UNL     1       2.057   7.512  82.582  1.00  0.00    -0.281 OA
ATOM     31  H4  UNL     1       2.107   8.419  82.859  1.00  0.00     0.245 HD
ENDBRANCH  14  30
BRANCH   1  32
HETATM   32  C3  UNL     1      -3.803   7.084  81.136  1.00  0.00     0.176 C 
BRANCH  32  33
HETATM   33  C2  UNL     1      -4.325   7.395  79.798  1.00  0.00    -0.015 C 
HETATM   34  C1  UNL     1      -4.222   6.552  78.806  1.00  0.00     0.008 C 
ENDBRANCH  32  33
ENDBRANCH   1  32
TORSDOF 6
ENDMDL
MODEL 3
REMARK VINA RESULT: -7.582341695      2.863      3.530
REMARK  6 active torsions:
REMARK  status: ('A' for Active; 'I' for Inactive)
REMARK    1  A    between atoms: C2_2  and  C3_3 
REMARK    2  A    between atoms: C3_3  and  N1_4 
REMARK    3  A    between atoms: C8_14  and  C9_15 
REMARK    4  A    between atoms: C10_16  and  C11_17 
REMARK    5  A    between atoms: C13_25  and  N8_26 
REMARK    6  A    between atoms: N9_32  and  O4_33 
ROOT
HETATM    1  N1  UNL     1      -1.548   6.355  80.707  1.00  0.00    -0.281 N 
HETATM    2  N2  UNL     1      -1.286   7.102  79.643  1.00  0.00    -0.248 N 
ATOM      3  H2  UNL     1      -1.850   7.932  79.460  1.00  0.00     0.192 HD
HETATM    4  C4  UNL     1      -0.290   6.783  78.805  1.00  0.00     0.340 A 
HETATM    5  O1  UNL     1      -0.087   7.535  77.803  1.00  0.00    -0.245 OA
HETATM    6  N3  UNL     1       0.466   5.691  79.033  1.00  0.00    -0.290 N 
ATOM      7  H3  UNL     1       1.221   5.460  78.387  1.00  0.00     0.172 HD
HETATM    8  C5  UNL     1       0.243   4.904  80.094  1.00  0.00     0.165 A 
HETATM    9  C6  UNL     1      -0.807   5.272  80.944  1.00  0.00     0.098 A 
HETATM   10  C7  UNL     1      -1.048   4.496  82.032  1.00  0.00     0.049 A 
HETATM   11  C8  UNL     1      -0.249   3.374  82.257  1.00  0.00     0.002 A 
HETATM   12  C14 UNL     1       0.774   3.011  81.427  1.00  0.00     0.049 A 
HETATM   13  C15 UNL     1       1.624   1.803  81.589  1.00  0.00     0.072 C 
HETATM   14  N9  UNL     1       0.979   3.818  80.352  1.00  0.00    -0.209 N 
ENDROOT
BRANCH  11  15
HETATM   15  C9  UNL     1      -0.542   2.550  83.435  1.00  0.00     0.023 C 
HETATM   16  C10 UNL     1      -1.032   1.329  83.369  1.00  0.00     0.136 C 
HETATM   17  N4  UNL     1      -1.203   0.785  84.668  1.00  0.00    -0.247 N 
HETATM   18  N5  UNL     1      -1.827  -0.142  85.493  1.00  0.00    -0.008 NA
HETATM   19  C12 UNL     1      -0.318   1.527  85.546  1.00  0.00     0.251 C 
HETATM   20  N6  UNL     1      -1.561   0.176  86.811  1.00  0.00    -0.015 NA
HETATM   21  N7  UNL     1      -1.016   1.486  86.785  1.00  0.00    -0.099 NA
HETATM   22  C13 UNL     1      -0.365   2.892  84.851  1.00  0.00     0.261 C 
BRANCH  16  23
HETATM   23  C11 UNL     1      -1.379   0.545  82.171  1.00  0.00     0.228 C 
HETATM   24  O2  UNL     1      -2.165   0.915  81.265  1.00  0.00    -0.643 OA
HETATM   25  O3  UNL     1      -0.818  -0.700  81.996  1.00  0.00    -0.643 OA
ENDBRANCH  16  23
BRANCH  22  26
HETATM   26  N8  UNL     1      -1.519   3.647  85.311  1.00  0.00    -0.068 N 
ATOM     27  H83 UNL     1      -1.973   3.209  86.112  1.00  0.00     0.275 HD
ATOM     28  H82 UNL     1      -1.254   4.525  85.756  1.00  0.00     0.275 HD
ATOM     29  H81 UNL     1      -2.161   3.787  84.531  1.00  0.00     0.275 HD
ENDBRANCH  22  26
ENDBRANCH  11  15
BRANCH  14  30
HETATM   30  O4  UNL     1       1.997   3.490  79.492  1.00  0.00    -0.281 OA
ATOM     31  H4  UNL     1       2.171   2.573  79.318  1.00  0.00     0.245 HD
ENDBRANCH  14  30
BRANCH   1  32
HETATM   32  C3  UNL     1      -2.665   6.730  81.582  1.00  0.00     0.176 C 
BRANCH  32  33
HETATM   33  C2  UNL     1      -3.440   7.797  80.932  1.00  0.00    -0.015 C 
HETATM   34  C1  UNL     1      -4.485   7.537  80.194  1.00  0.00     0.008 C 
ENDBRANCH  32  33
ENDBRANCH   1  32
TORSDOF 6
ENDMDL
MODEL 4
REMARK VINA RESULT: -7.276454287      2.732      3.646
REMARK  6 active torsions:
REMARK  status: ('A' for Active; 'I' for Inactive)
REMARK    1  A    between atoms: C2_2  and  C3_3 
REMARK    2  A    between atoms: C3_3  and  N1_4 
REMARK    3  A    between atoms: C8_14  and  C9_15 
REMARK    4  A    between atoms: C10_16  and  C11_17 
REMARK    5  A    between atoms: C13_25  and  N8_26 
REMARK    6  A    between atoms: N9_32  and  O4_33 
ROOT
HETATM    1  N1  UNL     1      -1.846   6.062  79.588  1.00  0.00    -0.281 N 
HETATM    2  N2  UNL     1      -1.617   6.807  78.515  1.00  0.00    -0.248 N 
ATOM      3  H2  UNL     1      -2.335   7.455  78.190  1.00  0.00     0.192 HD
HETATM    4  C4  UNL     1      -0.456   6.721  77.851  1.00  0.00     0.340 A 
HETATM    5  O1  UNL     1      -0.295   7.458  76.830  1.00  0.00    -0.245 OA
HETATM    6  N3  UNL     1       0.503   5.872  78.267  1.00  0.00    -0.290 N 
ATOM      7  H3  UNL     1       1.382   5.817  77.752  1.00  0.00     0.172 HD
HETATM    8  C5  UNL     1       0.322   5.098  79.346  1.00  0.00     0.165 A 
HETATM    9  C6  UNL     1      -0.905   5.218  80.011  1.00  0.00     0.098 A 
HETATM   10  C7  UNL     1      -1.110   4.452  81.113  1.00  0.00     0.049 A 
HETATM   11  C8  UNL     1      -0.100   3.584  81.534  1.00  0.00     0.002 A 
HETATM   12  C14 UNL     1       1.096   3.463  80.885  1.00  0.00     0.049 A 
HETATM   13  C15 UNL     1       2.185   2.523  81.259  1.00  0.00     0.072 C 
HETATM   14  N9  UNL     1       1.257   4.250  79.789  1.00  0.00    -0.209 N 
ENDROOT
BRANCH  11  15
HETATM   15  C9  UNL     1      -0.358   2.762  82.722  1.00  0.00     0.023 C 
HETATM   16  C10 UNL     1       0.018   3.099  83.938  1.00  0.00     0.136 C 
HETATM   17  N4  UNL     1      -0.377   2.112  84.879  1.00  0.00    -0.247 N 
HETATM   18  N5  UNL     1      -0.201   1.523  86.125  1.00  0.00    -0.008 NA
HETATM   19  C12 UNL     1      -1.470   1.378  84.271  1.00  0.00     0.251 C 
HETATM   20  N6  UNL     1      -0.934   0.353  86.177  1.00  0.00    -0.015 NA
HETATM   21  N7  UNL     1      -1.317   0.082  84.838  1.00  0.00    -0.099 NA
HETATM   22  C13 UNL     1      -1.046   1.468  82.801  1.00  0.00     0.261 C 
BRANCH  16  23
HETATM   23  C11 UNL     1       0.740   4.308  84.373  1.00  0.00     0.228 C 
HETATM   24  O2  UNL     1       1.970   4.370  84.612  1.00  0.00    -0.643 OA
HETATM   25  O3  UNL     1       0.043   5.483  84.543  1.00  0.00    -0.643 OA
ENDBRANCH  16  23
BRANCH  22  26
HETATM   26  N8  UNL     1      -0.105   0.405  82.488  1.00  0.00    -0.068 N 
ATOM     27  H83 UNL     1       0.043  -0.226  83.276  1.00  0.00     0.275 HD
ATOM     28  H82 UNL     1      -0.491  -0.272  81.831  1.00  0.00     0.275 HD
ATOM     29  H81 UNL     1       0.767   0.815  82.152  1.00  0.00     0.275 HD
ENDBRANCH  22  26
ENDBRANCH  11  15
BRANCH  14  30
HETATM   30  O4  UNL     1       2.444   4.161  79.107  1.00  0.00    -0.281 OA
ATOM     31  H4  UNL     1       2.547   3.479  78.454  1.00  0.00     0.245 HD
ENDBRANCH  14  30
BRANCH   1  32
HETATM   32  C3  UNL     1      -3.143   6.172  80.267  1.00  0.00     0.176 C 
BRANCH  32  33
HETATM   33  C2  UNL     1      -3.190   7.447  80.997  1.00  0.00    -0.015 C 
HETATM   34  C1  UNL     1      -4.100   7.690  81.901  1.00  0.00     0.008 C 
ENDBRANCH  32  33
ENDBRANCH   1  32
TORSDOF 6
ENDMDL
MODEL 5
REMARK VINA RESULT: -7.191634425      2.589      3.921
REMARK  6 active torsions:
REMARK  status: ('A' for Active; 'I' for Inactive)
REMARK    1  A    between atoms: C2_2  and  C3_3 
REMARK    2  A    between atoms: C3_3  and  N1_4 
REMARK    3  A    between atoms: C8_14  and  C9_15 
REMARK    4  A    between atoms: C10_16  and  C11_17 
REMARK    5  A    between atoms: C13_25  and  N8_26 
REMARK    6  A    between atoms: N9_32  and  O4_33 
ROOT
HETATM    1  N1  UNL     1       0.315   5.524  79.460  1.00  0.00    -0.281 N 
HETATM    2  N2  UNL     1       0.210   6.496  78.564  1.00  0.00    -0.248 N 
ATOM      3  H2  UNL     1       0.841   6.512  77.763  1.00  0.00     0.192 HD
HETATM    4  C4  UNL     1      -0.714   7.458  78.695  1.00  0.00     0.340 A 
HETATM    5  O1  UNL     1      -0.767   8.362  77.807  1.00  0.00    -0.245 OA
HETATM    6  N3  UNL     1      -1.557   7.451  79.747  1.00  0.00    -0.290 N 
ATOM      7  H3  UNL     1      -2.256   8.189  79.834  1.00  0.00     0.172 HD
HETATM    8  C5  UNL     1      -1.493   6.491  80.679  1.00  0.00     0.165 A 
HETATM    9  C6  UNL     1      -0.513   5.506  80.505  1.00  0.00     0.098 A 
HETATM   10  C7  UNL     1      -0.433   4.516  81.432  1.00  0.00     0.049 A 
HETATM   11  C8  UNL     1      -1.320   4.521  82.509  1.00  0.00     0.002 A 
HETATM   12  C14 UNL     1      -2.275   5.483  82.683  1.00  0.00     0.049 A 
HETATM   13  C15 UNL     1      -3.212   5.566  83.833  1.00  0.00     0.072 C 
HETATM   14  N9  UNL     1      -2.318   6.452  81.730  1.00  0.00    -0.209 N 
ENDROOT
BRANCH  11  15
HETATM   15  C9  UNL     1      -1.200   3.444  83.498  1.00  0.00     0.023 C 
HETATM   16  C10 UNL     1      -0.360   3.474  84.512  1.00  0.00     0.136 C 
HETATM   17  N4  UNL     1      -0.477   2.299  85.298  1.00  0.00    -0.247 N 
HETATM   18  N5  UNL     1       0.089   1.426  86.219  1.00  0.00    -0.008 NA
HETATM   19  C12 UNL     1      -1.792   1.750  85.026  1.00  0.00     0.251 C 
HETATM   20  N6  UNL     1      -0.694   0.290  86.303  1.00  0.00    -0.015 NA
HETATM   21  N7  UNL     1      -1.579   0.354  85.197  1.00  0.00    -0.099 NA
HETATM   22  C13 UNL     1      -1.944   2.180  83.562  1.00  0.00     0.261 C 
BRANCH  16  23
HETATM   23  C11 UNL     1       0.599   4.532  84.876  1.00  0.00     0.228 C 
HETATM   24  O2  UNL     1       0.332   5.755  84.957  1.00  0.00    -0.643 OA
HETATM   25  O3  UNL     1       1.903   4.191  85.155  1.00  0.00    -0.643 OA
ENDBRANCH  16  23
BRANCH  22  26
HETATM   26  N8  UNL     1      -1.312   1.207  82.688  1.00  0.00    -0.068 N 
ATOM     27  H83 UNL     1      -1.722   0.278  82.783  1.00  0.00     0.275 HD
ATOM     28  H82 UNL     1      -1.538   1.365  81.706  1.00  0.00     0.275 HD
ATOM     29  H81 UNL     1      -0.306   1.206  82.857  1.00  0.00     0.275 HD
ENDBRANCH  22  26
ENDBRANCH  11  15
BRANCH  14  30
HETATM   30  O4  UNL     1      -3.263   7.438  81.865  1.00  0.00    -0.281 OA
ATOM     31  H4  UNL     1      -3.158   8.243  81.371  1.00  0.00     0.245 HD
ENDBRANCH  14  30
BRANCH   1  32
HETATM   32  C3  UNL     1       1.360   4.507  79.288  1.00  0.00     0.176 C 
BRANCH  32  33
HETATM   33  C2  UNL     1       1.946   4.651  77.948  1.00  0.00    -0.015 C 
HETATM   34  C1  UNL     1       2.940   3.906  77.548  1.00  0.00     0.008 C 
ENDBRANCH  32  33
ENDBRANCH   1  32
TORSDOF 6
ENDMDL
