MODEL 1
REMARK VINA RESULT: -5.795016166      0.000      0.000
REMARK  4 active torsions:
REMARK  status: ('A' for Active; 'I' for Inactive)
REMARK    1  A    between atoms: N1_1  and  N2_4 
REMARK    2  A    between atoms: C6_14  and  C7_15 
REMARK    3  A    between atoms: C7_15  and  N4_16 
REMARK    4  A    between atoms: N4_16  and  C8_18 
ROOT
HETATM    1  N2  UNL     1     136.113  -3.311 -56.501  1.00  0.00    -0.311 N 
ATOM      2  H2  UNL     1     136.534  -4.240 -56.527  1.00  0.00     0.185 HD
HETATM    3  C1  UNL     1     136.174  -2.719 -55.390  1.00  0.00     0.054 C 
HETATM    4  C2  UNL     1     135.560  -1.389 -55.388  1.00  0.00     0.171 C 
HETATM    5  N3  UNL     1     136.441  -0.377 -55.852  1.00  0.00    -0.416 N 
ATOM      6  H3  UNL     1     136.098   0.472 -56.300  1.00  0.00     0.153 HD
HETATM    7  C3  UNL     1     137.833  -0.617 -55.654  1.00  0.00     0.116 C 
HETATM    8  C4  UNL     1     138.221  -1.203 -54.346  1.00  0.00     0.045 C 
HETATM    9  C5  UNL     1     138.957  -2.514 -54.471  1.00  0.00     0.170 C 
HETATM   10  O1  UNL     1     138.197  -3.608 -54.733  1.00  0.00    -0.375 OA
HETATM   11  C6  UNL     1     136.861  -3.532 -54.344  1.00  0.00     0.208 C 
ENDROOT
BRANCH  11  12
HETATM   12  C7  UNL     1     136.320  -4.938 -54.369  1.00  0.00     0.093 C 
BRANCH  12  13
HETATM   13  N4  UNL     1     135.181  -5.237 -53.629  1.00  0.00    -0.395 N 
ATOM     14  H4  UNL     1     134.278  -4.980 -54.027  1.00  0.00     0.159 HD
BRANCH  13  15
HETATM   15  C8  UNL     1     135.185  -5.861 -52.388  1.00  0.00     0.080 C 
HETATM   16  C9  UNL     1     135.185  -7.352 -52.429  1.00  0.00     0.025 C 
HETATM   17  C10 UNL     1     134.351  -7.946 -51.295  1.00  0.00     0.002 C 
HETATM   18  C11 UNL     1     134.618  -7.230 -50.013  1.00  0.00     0.000 C 
HETATM   19  C12 UNL     1     134.096  -5.811 -50.141  1.00  0.00     0.002 C 
HETATM   20  C13 UNL     1     133.958  -5.411 -51.597  1.00  0.00     0.025 C 
ENDBRANCH  13  15
ENDBRANCH  12  13
ENDBRANCH  11  12
BRANCH   1  21
HETATM   21  N1  UNL     1     135.561  -2.882 -57.675  1.00  0.00    -0.345 N 
ATOM     22  H12 UNL     1     135.646  -1.879 -57.836  1.00  0.00     0.176 HD
ATOM     23  H11 UNL     1     135.086  -3.424 -58.396  1.00  0.00     0.176 HD
ENDBRANCH   1  21
TORSDOF 4
ENDMDL
MODEL 2
REMARK VINA RESULT: -5.714425400      2.388      6.391
REMARK  4 active torsions:
REMARK  status: ('A' for Active; 'I' for Inactive)
REMARK    1  A    between atoms: N1_1  and  N2_4 
REMARK    2  A    between atoms: C6_14  and  C7_15 
REMARK    3  A    between atoms: C7_15  and  N4_16 
REMARK    4  A    between atoms: N4_16  and  C8_18 
ROOT
HETATM    1  N2  UNL     1     133.813  -6.710 -52.033  1.00  0.00    -0.311 N 
ATOM      2  H2  UNL     1     133.719  -6.619 -53.045  1.00  0.00     0.185 HD
HETATM    3  C1  UNL     1     134.386  -5.748 -51.454  1.00  0.00     0.054 C 
HETATM    4  C2  UNL     1     134.504  -5.912 -50.002  1.00  0.00     0.171 C 
HETATM    5  N3  UNL     1     133.340  -5.494 -49.306  1.00  0.00    -0.416 N 
ATOM      6  H3  UNL     1     133.076  -5.896 -48.407  1.00  0.00     0.153 HD
HETATM    7  C3  UNL     1     132.561  -4.480 -49.937  1.00  0.00     0.116 C 
HETATM    8  C4  UNL     1     133.315  -3.371 -50.573  1.00  0.00     0.045 C 
HETATM    9  C5  UNL     1     133.023  -3.214 -52.045  1.00  0.00     0.170 C 
HETATM   10  O1  UNL     1     133.630  -4.100 -52.876  1.00  0.00    -0.375 OA
HETATM   11  C6  UNL     1     134.807  -4.676 -52.401  1.00  0.00     0.208 C 
ENDROOT
BRANCH  11  12
HETATM   12  C7  UNL     1     135.495  -5.300 -53.588  1.00  0.00     0.093 C 
BRANCH  12  13
HETATM   13  N4  UNL     1     136.739  -4.815 -53.980  1.00  0.00    -0.395 N 
ATOM     14  H4  UNL     1     137.559  -5.160 -53.482  1.00  0.00     0.159 HD
BRANCH  13  15
HETATM   15  C8  UNL     1     136.943  -3.896 -55.001  1.00  0.00     0.080 C 
HETATM   16  C9  UNL     1     137.450  -2.564 -54.561  1.00  0.00     0.025 C 
HETATM   17  C10 UNL     1     136.856  -1.432 -55.399  1.00  0.00     0.002 C 
HETATM   18  C11 UNL     1     136.852  -1.793 -56.846  1.00  0.00     0.000 C 
HETATM   19  C12 UNL     1     135.880  -2.941 -57.049  1.00  0.00     0.002 C 
HETATM   20  C13 UNL     1     135.628  -3.676 -55.748  1.00  0.00     0.025 C 
ENDBRANCH  13  15
ENDBRANCH  12  13
ENDBRANCH  11  12
BRANCH   1  21
HETATM   21  N1  UNL     1     133.300  -7.856 -51.495  1.00  0.00    -0.345 N 
ATOM     22  H12 UNL     1     132.963  -7.756 -50.538  1.00  0.00     0.176 HD
ATOM     23  H11 UNL     1     133.213  -8.780 -51.918  1.00  0.00     0.176 HD
ENDBRANCH   1  21
TORSDOF 4
ENDMDL
MODEL 3
REMARK VINA RESULT: -5.685487937      3.421      6.156
REMARK  4 active torsions:
REMARK  status: ('A' for Active; 'I' for Inactive)
REMARK    1  A    between atoms: N1_1  and  N2_4 
REMARK    2  A    between atoms: C6_14  and  C7_15 
REMARK    3  A    between atoms: C7_15  and  N4_16 
REMARK    4  A    between atoms: N4_16  and  C8_18 
ROOT
HETATM    1  N2  UNL     1     136.211  -0.326 -56.768  1.00  0.00    -0.311 N 
ATOM      2  H2  UNL     1     135.720   0.425 -56.281  1.00  0.00     0.185 HD
HETATM    3  C1  UNL     1     136.740  -1.197 -56.027  1.00  0.00     0.054 C 
HETATM    4  C2  UNL     1     137.436  -2.260 -56.758  1.00  0.00     0.171 C 
HETATM    5  N3  UNL     1     136.565  -3.301 -57.173  1.00  0.00    -0.416 N 
ATOM      6  H3  UNL     1     136.758  -3.868 -57.999  1.00  0.00     0.153 HD
HETATM    7  C3  UNL     1     135.406  -3.509 -56.369  1.00  0.00     0.116 C 
HETATM    8  C4  UNL     1     135.602  -3.436 -54.900  1.00  0.00     0.045 C 
HETATM    9  C5  UNL     1     134.744  -2.390 -54.232  1.00  0.00     0.170 C 
HETATM   10  O1  UNL     1     135.163  -1.104 -54.349  1.00  0.00    -0.375 OA
HETATM   11  C6  UNL     1     136.526  -0.923 -54.576  1.00  0.00     0.208 C 
ENDROOT
BRANCH  11  12
HETATM   12  C7  UNL     1     136.825   0.526 -54.292  1.00  0.00     0.093 C 
BRANCH  12  13
HETATM   13  N4  UNL     1     136.740   0.991 -52.984  1.00  0.00    -0.395 N 
ATOM     14  H4  UNL     1     135.823   0.978 -52.536  1.00  0.00     0.159 HD
BRANCH  13  15
HETATM   15  C8  UNL     1     137.813   1.470 -52.243  1.00  0.00     0.080 C 
HETATM   16  C9  UNL     1     139.153   1.268 -52.867  1.00  0.00     0.025 C 
HETATM   17  C10 UNL     1     140.220   0.960 -51.818  1.00  0.00     0.002 C 
HETATM   18  C11 UNL     1     140.071   1.855 -50.634  1.00  0.00     0.000 C 
HETATM   19  C12 UNL     1     138.767   1.509 -49.936  1.00  0.00     0.002 C 
HETATM   20  C13 UNL     1     137.822   0.788 -50.876  1.00  0.00     0.025 C 
ENDBRANCH  13  15
ENDBRANCH  12  13
ENDBRANCH  11  12
BRANCH   1  21
HETATM   21  N1  UNL     1     136.202  -0.248 -58.132  1.00  0.00    -0.345 N 
ATOM     22  H12 UNL     1     135.277  -0.109 -58.539  1.00  0.00     0.176 HD
ATOM     23  H11 UNL     1     136.984  -0.310 -58.783  1.00  0.00     0.176 HD
ENDBRANCH   1  21
TORSDOF 4
ENDMDL
MODEL 4
REMARK VINA RESULT: -5.664526135      1.822      2.531
REMARK  4 active torsions:
REMARK  status: ('A' for Active; 'I' for Inactive)
REMARK    1  A    between atoms: N1_1  and  N2_4 
REMARK    2  A    between atoms: C6_14  and  C7_15 
REMARK    3  A    between atoms: C7_15  and  N4_16 
REMARK    4  A    between atoms: N4_16  and  C8_18 
ROOT
HETATM    1  N2  UNL     1     135.335  -1.069 -54.065  1.00  0.00    -0.311 N 
ATOM      2  H2  UNL     1     134.362  -1.362 -53.969  1.00  0.00     0.185 HD
HETATM    3  C1  UNL     1     136.146  -1.979 -54.384  1.00  0.00     0.054 C 
HETATM    4  C2  UNL     1     137.533  -1.524 -54.512  1.00  0.00     0.171 C 
HETATM    5  N3  UNL     1     137.815  -0.975 -55.790  1.00  0.00    -0.416 N 
ATOM      6  H3  UNL     1     138.537  -0.267 -55.926  1.00  0.00     0.153 HD
HETATM    7  C3  UNL     1     137.033  -1.472 -56.873  1.00  0.00     0.116 C 
HETATM    8  C4  UNL     1     136.779  -2.934 -56.887  1.00  0.00     0.045 C 
HETATM    9  C5  UNL     1     135.312  -3.289 -56.877  1.00  0.00     0.170 C 
HETATM   10  O1  UNL     1     134.678  -3.192 -55.681  1.00  0.00    -0.375 OA
HETATM   11  C6  UNL     1     135.484  -3.305 -54.551  1.00  0.00     0.208 C 
ENDROOT
BRANCH  11  12
HETATM   12  C7  UNL     1     134.563  -3.554 -53.383  1.00  0.00     0.093 C 
BRANCH  12  13
HETATM   13  N4  UNL     1     134.090  -4.842 -53.158  1.00  0.00    -0.395 N 
ATOM     14  H4  UNL     1     133.174  -5.083 -53.536  1.00  0.00     0.159 HD
BRANCH  13  15
HETATM   15  C8  UNL     1     134.777  -5.825 -52.456  1.00  0.00     0.080 C 
HETATM   16  C9  UNL     1     135.580  -6.759 -53.297  1.00  0.00     0.025 C 
HETATM   17  C10 UNL     1     135.557  -8.181 -52.737  1.00  0.00     0.002 C 
HETATM   18  C11 UNL     1     135.730  -8.167 -51.255  1.00  0.00     0.000 C 
HETATM   19  C12 UNL     1     134.506  -7.514 -50.637  1.00  0.00     0.002 C 
HETATM   20  C13 UNL     1     133.778  -6.655 -51.651  1.00  0.00     0.025 C 
ENDBRANCH  13  15
ENDBRANCH  12  13
ENDBRANCH  11  12
BRANCH   1  21
HETATM   21  N1  UNL     1     135.577   0.255 -53.828  1.00  0.00    -0.345 N 
ATOM     22  H12 UNL     1     135.300   0.875 -54.589  1.00  0.00     0.176 HD
ATOM     23  H11 UNL     1     135.991   0.695 -53.007  1.00  0.00     0.176 HD
ENDBRANCH   1  21
TORSDOF 4
ENDMDL
MODEL 5
REMARK VINA RESULT: -5.582131902      3.516      5.437
REMARK  4 active torsions:
REMARK  status: ('A' for Active; 'I' for Inactive)
REMARK    1  A    between atoms: N1_1  and  N2_4 
REMARK    2  A    between atoms: C6_14  and  C7_15 
REMARK    3  A    between atoms: C7_15  and  N4_16 
REMARK    4  A    between atoms: N4_16  and  C8_18 
ROOT
HETATM    1  N2  UNL     1     136.381  -0.818 -54.094  1.00  0.00    -0.311 N 
ATOM      2  H2  UNL     1     136.034  -1.386 -53.320  1.00  0.00     0.185 HD
HETATM    3  C1  UNL     1     137.096  -1.427 -54.934  1.00  0.00     0.054 C 
HETATM    4  C2  UNL     1     137.578  -0.583 -56.030  1.00  0.00     0.171 C 
HETATM    5  N3  UNL     1     136.636  -0.461 -57.084  1.00  0.00    -0.416 N 
ATOM      6  H3  UNL     1     136.604   0.361 -57.687  1.00  0.00     0.153 HD
HETATM    7  C3  UNL     1     135.736  -1.554 -57.252  1.00  0.00     0.116 C 
HETATM    8  C4  UNL     1     136.317  -2.913 -57.117  1.00  0.00     0.045 C 
HETATM    9  C5  UNL     1     135.663  -3.741 -56.039  1.00  0.00     0.170 C 
HETATM   10  O1  UNL     1     136.025  -3.460 -54.761  1.00  0.00    -0.375 OA
HETATM   11  C6  UNL     1     137.276  -2.869 -54.597  1.00  0.00     0.208 C 
ENDROOT
BRANCH  11  12
HETATM   12  C7  UNL     1     137.631  -3.000 -53.137  1.00  0.00     0.093 C 
BRANCH  12  13
HETATM   13  N4  UNL     1     138.958  -3.214 -52.781  1.00  0.00    -0.395 N 
ATOM     14  H4  UNL     1     139.249  -4.173 -52.596  1.00  0.00     0.159 HD
BRANCH  13  15
HETATM   15  C8  UNL     1     139.915  -2.214 -52.659  1.00  0.00     0.080 C 
HETATM   16  C9  UNL     1     141.170  -2.621 -51.965  1.00  0.00     0.025 C 
HETATM   17  C10 UNL     1     141.731  -1.488 -51.107  1.00  0.00     0.002 C 
HETATM   18  C11 UNL     1     141.666  -0.190 -51.840  1.00  0.00     0.000 C 
HETATM   19  C12 UNL     1     140.206   0.183 -52.022  1.00  0.00     0.002 C 
HETATM   20  C13 UNL     1     139.314  -1.036 -51.894  1.00  0.00     0.025 C 
ENDBRANCH  13  15
ENDBRANCH  12  13
ENDBRANCH  11  12
BRANCH   1  21
HETATM   21  N1  UNL     1     136.007   0.496 -54.074  1.00  0.00    -0.345 N 
ATOM     22  H12 UNL     1     135.103   0.681 -54.508  1.00  0.00     0.176 HD
ATOM     23  H11 UNL     1     136.504   1.299 -53.690  1.00  0.00     0.176 HD
ENDBRANCH   1  21
TORSDOF 4
ENDMDL
