MODEL 1
REMARK VINA RESULT: -5.620122243      0.000      0.000
REMARK  4 active torsions:
REMARK  status: ('A' for Active; 'I' for Inactive)
REMARK    1  A    between atoms: N1_2  and  C2_5 
REMARK    2  A    between atoms: C2_5  and  C3_6 
REMARK    3  A    between atoms: C3_6  and  N2_7 
REMARK    4  A    between atoms: C11_18  and  O1_19 
ROOT
HETATM    1  N2  UNL     1     136.882  -2.390 -55.908  1.00  0.00     0.097 N 
HETATM    2  C4  UNL     1     138.193  -1.844 -55.786  1.00  0.00     0.274 C 
HETATM    3  C5  UNL     1     138.492  -1.381 -54.355  1.00  0.00     0.042 C 
HETATM    4  C6  UNL     1     138.687  -2.593 -53.499  1.00  0.00    -0.008 C 
HETATM    5  C7  UNL     1     140.091  -3.121 -53.577  1.00  0.00     0.039 C 
HETATM    6  C8  UNL     1     140.964  -2.173 -52.765  1.00  0.00     0.233 C 
HETATM    7  N3  UNL     1     140.790  -2.556 -51.370  1.00  0.00    -0.075 N 
ATOM      8  H31 UNL     1     141.108  -1.828 -50.731  1.00  0.00     0.277 HD
ATOM      9  H32 UNL     1     141.438  -3.292 -51.092  1.00  0.00     0.277 HD
HETATM   10  C9  UNL     1     139.425  -2.922 -51.130  1.00  0.00     0.233 C 
HETATM   11  C10 UNL     1     138.445  -2.180 -52.039  1.00  0.00     0.039 C 
HETATM   12  C11 UNL     1     137.662  -3.613 -53.923  1.00  0.00     0.159 C 
HETATM   13  C12 UNL     1     136.484  -2.998 -54.647  1.00  0.00     0.248 C 
HETATM   14  C13 UNL     1     135.529  -4.148 -54.959  1.00  0.00     0.045 C 
ENDROOT
BRANCH  12  15
HETATM   15  O1  UNL     1     138.192  -4.604 -54.724  1.00  0.00    -0.393 OA
ATOM     16  H1  UNL     1     137.535  -5.210 -55.045  1.00  0.00     0.210 HD
ENDBRANCH  12  15
BRANCH   1  17
HETATM   17  C3  UNL     1     135.917  -1.414 -56.321  1.00  0.00     0.300 C 
BRANCH  17  18
HETATM   18  C2  UNL     1     136.349  -0.694 -57.575  1.00  0.00     0.262 C 
BRANCH  18  19
HETATM   19  N1  UNL     1     135.218  -0.431 -58.426  1.00  0.00    -0.077 N 
HETATM   20  C1  UNL     1     135.480   0.468 -59.506  1.00  0.00     0.267 C 
ATOM     21  H12 UNL     1     134.429  -0.099 -57.872  1.00  0.00     0.276 HD
ATOM     22  H11 UNL     1     134.831  -1.306 -58.779  1.00  0.00     0.276 HD
ENDBRANCH  18  19
ENDBRANCH  17  18
ENDBRANCH   1  17
TORSDOF 4
ENDMDL
MODEL 2
REMARK VINA RESULT: -5.613708120      3.160      5.023
REMARK  4 active torsions:
REMARK  status: ('A' for Active; 'I' for Inactive)
REMARK    1  A    between atoms: N1_2  and  C2_5 
REMARK    2  A    between atoms: C2_5  and  C3_6 
REMARK    3  A    between atoms: C3_6  and  N2_7 
REMARK    4  A    between atoms: C11_18  and  O1_19 
ROOT
HETATM    1  N2  UNL     1     135.577  -3.604 -54.361  1.00  0.00     0.097 N 
HETATM    2  C4  UNL     1     135.645  -2.878 -53.135  1.00  0.00     0.274 C 
HETATM    3  C5  UNL     1     136.924  -2.036 -53.038  1.00  0.00     0.042 C 
HETATM    4  C6  UNL     1     136.791  -0.870 -53.968  1.00  0.00    -0.008 C 
HETATM    5  C7  UNL     1     136.040   0.271 -53.341  1.00  0.00     0.039 C 
HETATM    6  C8  UNL     1     136.989   0.928 -52.346  1.00  0.00     0.233 C 
HETATM    7  N3  UNL     1     137.858   1.797 -53.129  1.00  0.00    -0.075 N 
ATOM      8  H31 UNL     1     138.692   2.071 -52.610  1.00  0.00     0.277 HD
ATOM      9  H32 UNL     1     137.453   2.723 -53.262  1.00  0.00     0.277 HD
HETATM   10  C9  UNL     1     138.184   1.169 -54.376  1.00  0.00     0.233 C 
HETATM   11  C10 UNL     1     138.204  -0.357 -54.281  1.00  0.00     0.039 C 
HETATM   12  C11 UNL     1     136.132  -1.371 -55.227  1.00  0.00     0.159 C 
HETATM   13  C12 UNL     1     136.270  -2.868 -55.408  1.00  0.00     0.248 C 
HETATM   14  C13 UNL     1     135.600  -3.198 -56.739  1.00  0.00     0.045 C 
ENDROOT
BRANCH  12  15
HETATM   15  O1  UNL     1     134.793  -1.048 -55.297  1.00  0.00    -0.393 OA
ATOM     16  H1  UNL     1     134.423  -1.192 -56.159  1.00  0.00     0.210 HD
ENDBRANCH  12  15
BRANCH   1  17
HETATM   17  C3  UNL     1     136.107  -4.930 -54.243  1.00  0.00     0.300 C 
BRANCH  17  18
HETATM   18  C2  UNL     1     135.180  -5.840 -53.476  1.00  0.00     0.262 C 
BRANCH  18  19
HETATM   19  N1  UNL     1     135.165  -7.157 -54.056  1.00  0.00    -0.077 N 
HETATM   20  C1  UNL     1     135.945  -8.127 -53.353  1.00  0.00     0.267 C 
ATOM     21  H12 UNL     1     135.450  -7.116 -55.035  1.00  0.00     0.276 HD
ATOM     22  H11 UNL     1     134.206  -7.486 -54.164  1.00  0.00     0.276 HD
ENDBRANCH  18  19
ENDBRANCH  17  18
ENDBRANCH   1  17
TORSDOF 4
ENDMDL
MODEL 3
REMARK VINA RESULT: -5.422735844      2.396      2.920
REMARK  4 active torsions:
REMARK  status: ('A' for Active; 'I' for Inactive)
REMARK    1  A    between atoms: N1_2  and  C2_5 
REMARK    2  A    between atoms: C2_5  and  C3_6 
REMARK    3  A    between atoms: C3_6  and  N2_7 
REMARK    4  A    between atoms: C11_18  and  O1_19 
ROOT
HETATM    1  N2  UNL     1     137.197  -2.871 -55.577  1.00  0.00     0.097 N 
HETATM    2  C4  UNL     1     138.221  -1.882 -55.657  1.00  0.00     0.274 C 
HETATM    3  C5  UNL     1     137.677  -0.471 -55.403  1.00  0.00     0.042 C 
HETATM    4  C6  UNL     1     137.372  -0.341 -53.943  1.00  0.00    -0.008 C 
HETATM    5  C7  UNL     1     138.588   0.027 -53.141  1.00  0.00     0.039 C 
HETATM    6  C8  UNL     1     138.863   1.501 -53.409  1.00  0.00     0.233 C 
HETATM    7  N3  UNL     1     137.949   2.246 -52.554  1.00  0.00    -0.075 N 
ATOM      8  H31 UNL     1     137.858   3.219 -52.847  1.00  0.00     0.277 HD
ATOM      9  H32 UNL     1     138.338   2.405 -51.626  1.00  0.00     0.277 HD
HETATM   10  C9  UNL     1     136.680   1.582 -52.498  1.00  0.00     0.233 C 
HETATM   11  C10 UNL     1     136.363   0.805 -53.776  1.00  0.00     0.039 C 
HETATM   12  C11 UNL     1     136.756  -1.642 -53.495  1.00  0.00     0.159 C 
HETATM   13  C12 UNL     1     136.171  -2.441 -54.639  1.00  0.00     0.248 C 
HETATM   14  C13 UNL     1     135.552  -3.688 -54.013  1.00  0.00     0.045 C 
ENDROOT
BRANCH  12  15
HETATM   15  O1  UNL     1     137.644  -2.447 -52.813  1.00  0.00    -0.393 OA
ATOM     16  H1  UNL     1     137.606  -2.324 -51.872  1.00  0.00     0.210 HD
ENDBRANCH  12  15
BRANCH   1  17
HETATM   17  C3  UNL     1     136.618  -3.167 -56.854  1.00  0.00     0.300 C 
BRANCH  17  18
HETATM   18  C2  UNL     1     135.450  -2.263 -57.164  1.00  0.00     0.262 C 
BRANCH  18  19
HETATM   19  N1  UNL     1     135.589  -1.684 -58.474  1.00  0.00    -0.077 N 
HETATM   20  C1  UNL     1     135.805  -0.271 -58.482  1.00  0.00     0.267 C 
ATOM     21  H12 UNL     1     134.784  -1.922 -59.054  1.00  0.00     0.276 HD
ATOM     22  H11 UNL     1     136.327  -2.158 -58.994  1.00  0.00     0.276 HD
ENDBRANCH  18  19
ENDBRANCH  17  18
ENDBRANCH   1  17
TORSDOF 4
ENDMDL
MODEL 4
REMARK VINA RESULT: -5.341265095      2.881      4.027
REMARK  4 active torsions:
REMARK  status: ('A' for Active; 'I' for Inactive)
REMARK    1  A    between atoms: N1_2  and  C2_5 
REMARK    2  A    between atoms: C2_5  and  C3_6 
REMARK    3  A    between atoms: C3_6  and  N2_7 
REMARK    4  A    between atoms: C11_18  and  O1_19 
ROOT
HETATM    1  N2  UNL     1     136.843  -2.123 -55.293  1.00  0.00     0.097 N 
HETATM    2  C4  UNL     1     136.278  -0.933 -54.747  1.00  0.00     0.274 C 
HETATM    3  C5  UNL     1     134.822  -1.138 -54.309  1.00  0.00     0.042 C 
HETATM    4  C6  UNL     1     134.818  -1.966 -53.062  1.00  0.00    -0.008 C 
HETATM    5  C7  UNL     1     135.029  -1.133 -51.829  1.00  0.00     0.039 C 
HETATM    6  C8  UNL     1     133.724  -0.391 -51.570  1.00  0.00     0.233 C 
HETATM    7  N3  UNL     1     132.845  -1.341 -50.901  1.00  0.00    -0.075 N 
ATOM      8  H31 UNL     1     131.870  -1.042 -50.926  1.00  0.00     0.277 HD
ATOM      9  H32 UNL     1     132.976  -1.338 -49.890  1.00  0.00     0.277 HD
HETATM   10  C9  UNL     1     133.020  -2.649 -51.462  1.00  0.00     0.233 C 
HETATM   11  C10 UNL     1     133.430  -2.611 -52.933  1.00  0.00     0.039 C 
HETATM   12  C11 UNL     1     135.870  -3.032 -53.226  1.00  0.00     0.159 C 
HETATM   13  C12 UNL     1     136.228  -3.288 -54.674  1.00  0.00     0.248 C 
HETATM   14  C13 UNL     1     137.257  -4.415 -54.664  1.00  0.00     0.045 C 
ENDROOT
BRANCH  12  15
HETATM   15  O1  UNL     1     137.031  -2.749 -52.537  1.00  0.00    -0.393 OA
ATOM     16  H1  UNL     1     137.151  -1.819 -52.382  1.00  0.00     0.210 HD
ENDBRANCH  12  15
BRANCH   1  17
HETATM   17  C3  UNL     1     136.717  -2.186 -56.719  1.00  0.00     0.300 C 
BRANCH  17  18
HETATM   18  C2  UNL     1     136.575  -0.815 -57.332  1.00  0.00     0.262 C 
BRANCH  18  19
HETATM   19  N1  UNL     1     135.535  -0.807 -58.326  1.00  0.00    -0.077 N 
HETATM   20  C1  UNL     1     135.581   0.299 -59.230  1.00  0.00     0.267 C 
ATOM     21  H12 UNL     1     134.619  -0.862 -57.880  1.00  0.00     0.276 HD
ATOM     22  H11 UNL     1     135.532  -1.687 -58.843  1.00  0.00     0.276 HD
ENDBRANCH  18  19
ENDBRANCH  17  18
ENDBRANCH   1  17
TORSDOF 4
ENDMDL
MODEL 5
REMARK VINA RESULT: -5.266486168      3.148      3.992
REMARK  4 active torsions:
REMARK  status: ('A' for Active; 'I' for Inactive)
REMARK    1  A    between atoms: N1_2  and  C2_5 
REMARK    2  A    between atoms: C2_5  and  C3_6 
REMARK    3  A    between atoms: C3_6  and  N2_7 
REMARK    4  A    between atoms: C11_18  and  O1_19 
ROOT
HETATM    1  N2  UNL     1     135.479  -2.228 -55.415  1.00  0.00     0.097 N 
HETATM    2  C4  UNL     1     135.812  -3.586 -55.698  1.00  0.00     0.274 C 
HETATM    3  C5  UNL     1     136.440  -4.287 -54.487  1.00  0.00     0.042 C 
HETATM    4  C6  UNL     1     135.363  -4.539 -53.479  1.00  0.00    -0.008 C 
HETATM    5  C7  UNL     1     134.604  -5.804 -53.766  1.00  0.00     0.039 C 
HETATM    6  C8  UNL     1     135.511  -6.962 -53.369  1.00  0.00     0.233 C 
HETATM    7  N3  UNL     1     135.387  -7.096 -51.924  1.00  0.00    -0.075 N 
ATOM      8  H31 UNL     1     136.144  -7.651 -51.525  1.00  0.00     0.277 HD
ATOM      9  H32 UNL     1     134.607  -7.697 -51.661  1.00  0.00     0.277 HD
HETATM   10  C9  UNL     1     135.294  -5.800 -51.318  1.00  0.00     0.233 C 
HETATM   11  C10 UNL     1     136.035  -4.723 -52.110  1.00  0.00     0.039 C 
HETATM   12  C11 UNL     1     134.472  -3.324 -53.458  1.00  0.00     0.159 C 
HETATM   13  C12 UNL     1     135.151  -2.087 -54.004  1.00  0.00     0.248 C 
HETATM   14  C13 UNL     1     134.141  -0.951 -53.866  1.00  0.00     0.045 C 
ENDROOT
BRANCH  12  15
HETATM   15  O1  UNL     1     133.294  -3.511 -54.150  1.00  0.00    -0.393 OA
ATOM     16  H1  UNL     1     132.970  -2.713 -54.550  1.00  0.00     0.210 HD
ENDBRANCH  12  15
BRANCH   1  17
HETATM   17  C3  UNL     1     136.523  -1.319 -55.782  1.00  0.00     0.300 C 
BRANCH  17  18
HETATM   18  C2  UNL     1     136.661  -1.196 -57.280  1.00  0.00     0.262 C 
BRANCH  18  19
HETATM   19  N1  UNL     1     135.434  -0.726 -57.867  1.00  0.00    -0.077 N 
HETATM   20  C1  UNL     1     135.601   0.080 -59.035  1.00  0.00     0.267 C 
ATOM     21  H12 UNL     1     134.876  -0.231 -57.171  1.00  0.00     0.276 HD
ATOM     22  H11 UNL     1     134.813  -1.511 -58.065  1.00  0.00     0.276 HD
ENDBRANCH  18  19
ENDBRANCH  17  18
ENDBRANCH   1  17
TORSDOF 4
ENDMDL
