MODEL 1
REMARK VINA RESULT: -5.521893201      0.000      0.000
REMARK  5 active torsions:
REMARK  status: ('A' for Active; 'I' for Inactive)
REMARK    1  A    between atoms: C5_5  and  O1_6 
REMARK    2  A    between atoms: C5_5  and  C6_8 
REMARK    3  A    between atoms: C6_8  and  N1_9 
REMARK    4  A    between atoms: C12_17  and  C13_18 
REMARK    5  A    between atoms: C13_18  and  O2_19 
ROOT
HETATM    1  C1  UNL     1     137.968   0.113 -56.377  1.00  0.00     0.010 C 
HETATM    2  C2  UNL     1     137.374  -0.742 -55.275  1.00  0.00    -0.012 C 
HETATM    3  C3  UNL     1     138.449  -1.670 -54.821  1.00  0.00     0.008 C 
HETATM    4  C4  UNL     1     138.012  -2.999 -54.332  1.00  0.00     0.044 C 
HETATM    5  C5  UNL     1     136.592  -2.860 -53.765  1.00  0.00     0.090 C 
HETATM    6  C11 UNL     1     135.731  -2.631 -54.961  1.00  0.00     0.050 C 
HETATM    7  C12 UNL     1     136.116  -1.365 -55.719  1.00  0.00     0.016 C 
ENDROOT
BRANCH   5   8
HETATM    8  O1  UNL     1     136.648  -1.758 -52.874  1.00  0.00    -0.384 OA
ATOM      9  H1  UNL     1     136.118  -2.011 -52.128  1.00  0.00     0.211 HD
ENDBRANCH   5   8
BRANCH   5  10
HETATM   10  C6  UNL     1     136.210  -4.022 -52.937  1.00  0.00     0.100 C 
BRANCH  10  11
HETATM   11  N1  UNL     1     135.335  -4.990 -53.397  1.00  0.00    -0.368 N 
HETATM   12  C7  UNL     1     134.270  -5.494 -52.646  1.00  0.00     0.082 C 
HETATM   13  C8  UNL     1     134.706  -6.498 -51.578  1.00  0.00     0.158 C 
HETATM   14  N2  UNL     1     135.596  -7.434 -52.181  1.00  0.00    -0.415 N 
HETATM   15  C9  UNL     1     135.650  -7.410 -53.615  1.00  0.00     0.134 C 
ATOM     16  H2  UNL     1     136.160  -8.079 -51.628  1.00  0.00     0.153 HD
HETATM   17  C10 UNL     1     135.978  -6.026 -54.157  1.00  0.00     0.146 C 
ENDBRANCH  10  11
ENDBRANCH   5  10
BRANCH   7  18
HETATM   18  C13 UNL     1     135.991  -1.648 -57.191  1.00  0.00     0.169 C 
BRANCH  18  19
HETATM   19  O2  UNL     1     134.892  -1.076 -57.800  1.00  0.00    -0.400 OA
ATOM     20  H2  UNL     1     135.094  -0.390 -58.424  1.00  0.00     0.209 HD
ENDBRANCH  18  19
ENDBRANCH   7  18
TORSDOF 5
ENDMDL
MODEL 2
REMARK VINA RESULT: -5.370406327      1.434      2.138
REMARK  5 active torsions:
REMARK  status: ('A' for Active; 'I' for Inactive)
REMARK    1  A    between atoms: C5_5  and  O1_6 
REMARK    2  A    between atoms: C5_5  and  C6_8 
REMARK    3  A    between atoms: C6_8  and  N1_9 
REMARK    4  A    between atoms: C12_17  and  C13_18 
REMARK    5  A    between atoms: C13_18  and  O2_19 
ROOT
HETATM    1  C1  UNL     1     136.367  -0.645 -57.708  1.00  0.00     0.010 C 
HETATM    2  C2  UNL     1     136.700  -1.796 -56.777  1.00  0.00    -0.012 C 
HETATM    3  C3  UNL     1     135.460  -2.611 -56.639  1.00  0.00     0.008 C 
HETATM    4  C4  UNL     1     135.264  -3.301 -55.342  1.00  0.00     0.044 C 
HETATM    5  C5  UNL     1     136.645  -3.584 -54.734  1.00  0.00     0.090 C 
HETATM    6  C11 UNL     1     137.163  -2.243 -54.338  1.00  0.00     0.050 C 
HETATM    7  C12 UNL     1     137.300  -1.300 -55.529  1.00  0.00     0.016 C 
ENDROOT
BRANCH   5   8
HETATM    8  O1  UNL     1     137.390  -4.209 -55.766  1.00  0.00    -0.384 OA
ATOM      9  H1  UNL     1     138.281  -4.255 -55.442  1.00  0.00     0.211 HD
ENDBRANCH   5   8
BRANCH   5  10
HETATM   10  C6  UNL     1     136.576  -4.573 -53.639  1.00  0.00     0.100 C 
BRANCH  10  11
HETATM   11  N1  UNL     1     135.500  -5.431 -53.498  1.00  0.00    -0.368 N 
HETATM   12  C7  UNL     1     134.622  -5.405 -52.410  1.00  0.00     0.082 C 
HETATM   13  C8  UNL     1     135.205  -6.042 -51.149  1.00  0.00     0.158 C 
HETATM   14  N2  UNL     1     135.783  -7.295 -51.506  1.00  0.00    -0.415 N 
HETATM   15  C9  UNL     1     135.453  -7.784 -52.815  1.00  0.00     0.134 C 
ATOM     16  H2  UNL     1     136.393  -7.812 -50.872  1.00  0.00     0.153 HD
HETATM   17  C10 UNL     1     135.788  -6.778 -53.908  1.00  0.00     0.146 C 
ENDBRANCH  10  11
ENDBRANCH   5  10
BRANCH   7  18
HETATM   18  C13 UNL     1     136.882   0.075 -55.083  1.00  0.00     0.169 C 
BRANCH  18  19
HETATM   19  O2  UNL     1     135.762   0.108 -54.277  1.00  0.00    -0.400 OA
ATOM     20  H2  UNL     1     135.339   0.956 -54.216  1.00  0.00     0.209 HD
ENDBRANCH  18  19
ENDBRANCH   7  18
TORSDOF 5
ENDMDL
MODEL 3
REMARK VINA RESULT: -5.355280790      3.750      5.826
REMARK  5 active torsions:
REMARK  status: ('A' for Active; 'I' for Inactive)
REMARK    1  A    between atoms: C5_5  and  O1_6 
REMARK    2  A    between atoms: C5_5  and  C6_8 
REMARK    3  A    between atoms: C6_8  and  N1_9 
REMARK    4  A    between atoms: C12_17  and  C13_18 
REMARK    5  A    between atoms: C13_18  and  O2_19 
ROOT
HETATM    1  C1  UNL     1     135.762  -3.176 -56.966  1.00  0.00     0.010 C 
HETATM    2  C2  UNL     1     136.074  -2.107 -55.936  1.00  0.00    -0.012 C 
HETATM    3  C3  UNL     1     137.074  -1.191 -56.555  1.00  0.00     0.008 C 
HETATM    4  C4  UNL     1     138.043  -0.551 -55.634  1.00  0.00     0.044 C 
HETATM    5  C5  UNL     1     137.383  -0.425 -54.253  1.00  0.00     0.090 C 
HETATM    6  C11 UNL     1     137.297  -1.824 -53.747  1.00  0.00     0.050 C 
HETATM    7  C12 UNL     1     136.451  -2.716 -54.651  1.00  0.00     0.016 C 
ENDROOT
BRANCH   5   8
HETATM    8  O1  UNL     1     136.123   0.182 -54.493  1.00  0.00    -0.384 OA
ATOM      9  H1  UNL     1     135.711   0.253 -53.640  1.00  0.00     0.211 HD
ENDBRANCH   5   8
BRANCH   5  10
HETATM   10  C6  UNL     1     138.112   0.511 -53.374  1.00  0.00     0.100 C 
BRANCH  10  11
HETATM   11  N1  UNL     1     138.728   0.088 -52.209  1.00  0.00    -0.368 N 
HETATM   12  C7  UNL     1     138.339   0.499 -50.931  1.00  0.00     0.082 C 
HETATM   13  C8  UNL     1     138.810   1.911 -50.582  1.00  0.00     0.158 C 
HETATM   14  N2  UNL     1     140.189   2.021 -50.925  1.00  0.00    -0.415 N 
HETATM   15  C9  UNL     1     140.859   0.787 -51.220  1.00  0.00     0.134 C 
ATOM     16  H2  UNL     1     140.670   2.920 -50.958  1.00  0.00     0.153 HD
HETATM   17  C10 UNL     1     140.158  -0.001 -52.320  1.00  0.00     0.146 C 
ENDBRANCH  10  11
ENDBRANCH   5  10
BRANCH   7  18
HETATM   18  C13 UNL     1     137.109  -4.069 -54.716  1.00  0.00     0.169 C 
BRANCH  18  19
HETATM   19  O2  UNL     1     138.443  -4.082 -54.362  1.00  0.00    -0.400 OA
ATOM     20  H2  UNL     1     138.958  -4.763 -54.777  1.00  0.00     0.209 HD
ENDBRANCH  18  19
ENDBRANCH   7  18
TORSDOF 5
ENDMDL
MODEL 4
REMARK VINA RESULT: -5.242559930      3.660      5.543
REMARK  5 active torsions:
REMARK  status: ('A' for Active; 'I' for Inactive)
REMARK    1  A    between atoms: C5_5  and  O1_6 
REMARK    2  A    between atoms: C5_5  and  C6_8 
REMARK    3  A    between atoms: C6_8  and  N1_9 
REMARK    4  A    between atoms: C12_17  and  C13_18 
REMARK    5  A    between atoms: C13_18  and  O2_19 
ROOT
HETATM    1  C1  UNL     1     140.090  -0.676 -50.220  1.00  0.00     0.010 C 
HETATM    2  C2  UNL     1     139.632  -0.707 -51.665  1.00  0.00    -0.012 C 
HETATM    3  C3  UNL     1     138.175  -1.021 -51.651  1.00  0.00     0.008 C 
HETATM    4  C4  UNL     1     137.652  -1.785 -52.808  1.00  0.00     0.044 C 
HETATM    5  C5  UNL     1     138.533  -1.475 -54.027  1.00  0.00     0.090 C 
HETATM    6  C11 UNL     1     139.833  -2.141 -53.732  1.00  0.00     0.050 C 
HETATM    7  C12 UNL     1     140.487  -1.600 -52.464  1.00  0.00     0.016 C 
ENDROOT
BRANCH   5   8
HETATM    8  O1  UNL     1     138.609  -0.060 -54.086  1.00  0.00    -0.384 OA
ATOM      9  H1  UNL     1     139.390   0.171 -53.597  1.00  0.00     0.211 HD
ENDBRANCH   5   8
BRANCH   5  10
HETATM   10  C6  UNL     1     137.894  -1.891 -55.292  1.00  0.00     0.100 C 
BRANCH  10  11
HETATM   11  N1  UNL     1     136.689  -1.354 -55.712  1.00  0.00    -0.368 N 
HETATM   12  C7  UNL     1     135.476  -2.049 -55.679  1.00  0.00     0.082 C 
HETATM   13  C8  UNL     1     135.334  -3.069 -56.809  1.00  0.00     0.158 C 
HETATM   14  N2  UNL     1     135.706  -2.437 -58.032  1.00  0.00    -0.415 N 
HETATM   15  C9  UNL     1     135.835  -1.009 -57.982  1.00  0.00     0.134 C 
ATOM     16  H2  UNL     1     135.871  -2.967 -58.887  1.00  0.00     0.153 HD
HETATM   17  C10 UNL     1     136.804  -0.554 -56.899  1.00  0.00     0.146 C 
ENDBRANCH  10  11
ENDBRANCH   5  10
BRANCH   7  18
HETATM   18  C13 UNL     1     141.115  -2.757 -51.734  1.00  0.00     0.169 C 
BRANCH  18  19
HETATM   19  O2  UNL     1     140.482  -3.970 -51.917  1.00  0.00    -0.400 OA
ATOM     20  H2  UNL     1     140.885  -4.701 -51.465  1.00  0.00     0.209 HD
ENDBRANCH  18  19
ENDBRANCH   7  18
TORSDOF 5
ENDMDL
MODEL 5
REMARK VINA RESULT: -5.226507801      2.435      6.121
REMARK  5 active torsions:
REMARK  status: ('A' for Active; 'I' for Inactive)
REMARK    1  A    between atoms: C5_5  and  O1_6 
REMARK    2  A    between atoms: C5_5  and  C6_8 
REMARK    3  A    between atoms: C6_8  and  N1_9 
REMARK    4  A    between atoms: C12_17  and  C13_18 
REMARK    5  A    between atoms: C13_18  and  O2_19 
ROOT
HETATM    1  C1  UNL     1     134.473  -7.833 -51.346  1.00  0.00     0.010 C 
HETATM    2  C2  UNL     1     134.360  -6.510 -52.079  1.00  0.00    -0.012 C 
HETATM    3  C3  UNL     1     135.099  -6.664 -53.364  1.00  0.00     0.008 C 
HETATM    4  C4  UNL     1     135.746  -5.445 -53.904  1.00  0.00     0.044 C 
HETATM    5  C5  UNL     1     134.953  -4.223 -53.419  1.00  0.00     0.090 C 
HETATM    6  C11 UNL     1     135.236  -4.147 -51.957  1.00  0.00     0.050 C 
HETATM    7  C12 UNL     1     134.778  -5.397 -51.212  1.00  0.00     0.016 C 
ENDROOT
BRANCH   5   8
HETATM    8  O1  UNL     1     133.598  -4.506 -53.731  1.00  0.00    -0.384 OA
ATOM      9  H1  UNL     1     133.318  -3.801 -54.301  1.00  0.00     0.211 HD
ENDBRANCH   5   8
BRANCH   5  10
HETATM   10  C6  UNL     1     135.289  -3.004 -54.182  1.00  0.00     0.100 C 
BRANCH  10  11
HETATM   11  N1  UNL     1     136.080  -3.050 -55.317  1.00  0.00    -0.368 N 
HETATM   12  C7  UNL     1     137.288  -2.359 -55.451  1.00  0.00     0.082 C 
HETATM   13  C8  UNL     1     137.103  -0.867 -55.726  1.00  0.00     0.158 C 
HETATM   14  N2  UNL     1     136.134  -0.719 -56.761  1.00  0.00    -0.415 N 
HETATM   15  C9  UNL     1     135.792  -1.919 -57.472  1.00  0.00     0.134 C 
ATOM     16  H2  UNL     1     135.711   0.182 -56.983  1.00  0.00     0.153 HD
HETATM   17  C10 UNL     1     135.324  -3.028 -56.539  1.00  0.00     0.146 C 
ENDBRANCH  10  11
ENDBRANCH   5  10
BRANCH   7  18
HETATM   18  C13 UNL     1     135.807  -5.715 -50.161  1.00  0.00     0.169 C 
BRANCH  18  19
HETATM   19  O2  UNL     1     136.995  -5.023 -50.285  1.00  0.00    -0.400 OA
ATOM     20  H2  UNL     1     136.987  -4.330 -50.935  1.00  0.00     0.209 HD
ENDBRANCH  18  19
ENDBRANCH   7  18
TORSDOF 5
ENDMDL
