MODEL 1
REMARK VINA RESULT: -8.654761705      0.000      0.000
REMARK  8 active torsions:
REMARK  status: ('A' for Active; 'I' for Inactive)
REMARK    1  A    between atoms: N1_1  and  C1_4 
REMARK    2  A    between atoms: C1_4  and  C2_5 
REMARK    3  A    between atoms: C2_5  and  C3_6 
REMARK    4  A    between atoms: N2_9  and  C6_10 
REMARK    5  A    between atoms: C6_10  and  C7_11 
REMARK    6  A    between atoms: C7_11  and  N3_12 
REMARK    7  A    between atoms: C8_13  and  O1_14 
REMARK    8  A    between atoms: C11_18  and  O2_19 
ROOT
HETATM    1  N3  UNL     1      13.608  10.545  13.469  1.00  0.00    -0.306 N 
HETATM    2  C8  UNL     1      13.185  11.790  13.806  1.00  0.00     0.152 A 
HETATM    3  C9  UNL     1      12.764  11.764  15.104  1.00  0.00     0.012 A 
HETATM    4  C10 UNL     1      12.936  10.469  15.573  1.00  0.00     0.012 A 
HETATM    5  C11 UNL     1      13.462   9.744  14.527  1.00  0.00     0.152 A 
HETATM    6  C12 UNL     1      12.467  10.481  16.991  1.00  0.00     0.047 C 
HETATM    7  C13 UNL     1      13.406  11.336  17.743  1.00  0.00    -0.021 C 
HETATM    8  C14 UNL     1      13.245  12.586  17.287  1.00  0.00    -0.021 C 
HETATM    9  C15 UNL     1      12.198  12.546  16.234  1.00  0.00     0.047 C 
HETATM   10  C16 UNL     1      11.286  11.463  16.848  1.00  0.00     0.026 C 
ENDROOT
BRANCH   1  11
HETATM   11  C7  UNL     1      14.123  10.198  12.168  1.00  0.00     0.163 C 
BRANCH  11  12
HETATM   12  C6  UNL     1      15.538  10.634  11.989  1.00  0.00     0.292 C 
BRANCH  12  13
HETATM   13  N2  UNL     1      16.339   9.733  11.193  1.00  0.00     0.092 N 
HETATM   14  C5  UNL     1      15.546   9.178  10.159  1.00  0.00     0.275 C 
HETATM   15  C4  UNL     1      16.201   8.917   8.860  1.00  0.00     0.063 C 
HETATM   16  C3  UNL     1      17.611   8.520   8.842  1.00  0.00     0.135 C 
HETATM   17  O3  UNL     1      18.242   8.407  10.061  1.00  0.00    -0.383 OA
HETATM   18  C18 UNL     1      17.557   7.706  11.022  1.00  0.00     0.198 C 
HETATM   19  C17 UNL     1      17.058   8.778  12.008  1.00  0.00     0.298 C 
BRANCH  16  20
HETATM   20  C2  UNL     1      17.809   7.240   8.118  1.00  0.00     0.136 C 
BRANCH  20  21
HETATM   21  C1  UNL     1      16.827   6.550   7.593  1.00  0.00    -0.075 C 
BRANCH  21  22
HETATM   22  N1  UNL     1      16.037   5.876   6.831  1.00  0.00    -0.370 N 
ATOM     23  H12 UNL     1      15.579   6.725   6.497  1.00  0.00     0.165 HD
ATOM     24  H11 UNL     1      15.530   5.156   6.316  1.00  0.00     0.165 HD
ENDBRANCH  21  22
ENDBRANCH  20  21
ENDBRANCH  16  20
ENDBRANCH  12  13
ENDBRANCH  11  12
ENDBRANCH   1  11
BRANCH   2  25
HETATM   25  O1  UNL     1      13.166  12.934  12.991  1.00  0.00    -0.345 OA
ATOM     26  H1  UNL     1      12.699  13.746  13.148  1.00  0.00     0.219 HD
ENDBRANCH   2  25
BRANCH   5  27
HETATM   27  O2  UNL     1      13.786   8.389  14.576  1.00  0.00    -0.345 OA
ATOM     28  H2  UNL     1      14.583   8.020  14.939  1.00  0.00     0.219 HD
ENDBRANCH   5  27
TORSDOF 8
ENDMDL
MODEL 2
REMARK VINA RESULT: -8.469741302      1.329      1.574
REMARK  8 active torsions:
REMARK  status: ('A' for Active; 'I' for Inactive)
REMARK    1  A    between atoms: N1_1  and  C1_4 
REMARK    2  A    between atoms: C1_4  and  C2_5 
REMARK    3  A    between atoms: C2_5  and  C3_6 
REMARK    4  A    between atoms: N2_9  and  C6_10 
REMARK    5  A    between atoms: C6_10  and  C7_11 
REMARK    6  A    between atoms: C7_11  and  N3_12 
REMARK    7  A    between atoms: C8_13  and  O1_14 
REMARK    8  A    between atoms: C11_18  and  O2_19 
ROOT
HETATM    1  N3  UNL     1      13.647   9.821  13.936  1.00  0.00    -0.306 N 
HETATM    2  C8  UNL     1      13.265  11.123  13.970  1.00  0.00     0.152 A 
HETATM    3  C9  UNL     1      12.816  11.407  15.226  1.00  0.00     0.012 A 
HETATM    4  C10 UNL     1      12.927  10.247  15.981  1.00  0.00     0.012 A 
HETATM    5  C11 UNL     1      13.447   9.286  15.143  1.00  0.00     0.152 A 
HETATM    6  C12 UNL     1      12.429  10.597  17.346  1.00  0.00     0.047 C 
HETATM    7  C13 UNL     1      13.384  11.569  17.911  1.00  0.00    -0.021 C 
HETATM    8  C14 UNL     1      13.281  12.687  17.180  1.00  0.00    -0.021 C 
HETATM    9  C15 UNL     1      12.256  12.443  16.133  1.00  0.00     0.047 C 
HETATM   10  C16 UNL     1      11.290  11.558  16.949  1.00  0.00     0.026 C 
ENDROOT
BRANCH   1  11
HETATM   11  C7  UNL     1      14.175   9.170  12.764  1.00  0.00     0.163 C 
BRANCH  11  12
HETATM   12  C6  UNL     1      15.627   9.455  12.569  1.00  0.00     0.292 C 
BRANCH  12  13
HETATM   13  N2  UNL     1      16.016   9.627  11.188  1.00  0.00     0.092 N 
HETATM   14  C5  UNL     1      16.803   8.525  10.774  1.00  0.00     0.275 C 
HETATM   15  C4  UNL     1      16.658   8.066   9.377  1.00  0.00     0.063 C 
HETATM   16  C3  UNL     1      16.372   9.053   8.332  1.00  0.00     0.135 C 
HETATM   17  O3  UNL     1      16.264  10.367   8.728  1.00  0.00    -0.383 OA
HETATM   18  C18 UNL     1      17.257  10.822   9.559  1.00  0.00     0.198 C 
HETATM   19  C17 UNL     1      16.591  10.932  10.943  1.00  0.00     0.298 C 
BRANCH  16  20
HETATM   20  C2  UNL     1      17.375   8.999   7.240  1.00  0.00     0.136 C 
BRANCH  20  21
HETATM   21  C1  UNL     1      18.242   8.025   7.105  1.00  0.00    -0.075 C 
BRANCH  21  22
HETATM   22  N1  UNL     1      19.004   7.076   6.684  1.00  0.00    -0.370 N 
ATOM     23  H12 UNL     1      18.205   6.533   6.357  1.00  0.00     0.165 HD
ATOM     24  H11 UNL     1      19.782   6.465   6.434  1.00  0.00     0.165 HD
ENDBRANCH  21  22
ENDBRANCH  20  21
ENDBRANCH  16  20
ENDBRANCH  12  13
ENDBRANCH  11  12
ENDBRANCH   1  11
BRANCH   2  25
HETATM   25  O1  UNL     1      13.307  12.051  12.917  1.00  0.00    -0.345 OA
ATOM     26  H1  UNL     1      12.764  12.823  12.806  1.00  0.00     0.219 HD
ENDBRANCH   2  25
BRANCH   5  27
HETATM   27  O2  UNL     1      13.718   7.968  15.507  1.00  0.00    -0.345 OA
ATOM     28  H2  UNL     1      13.189   7.431  16.086  1.00  0.00     0.219 HD
ENDBRANCH   5  27
TORSDOF 8
ENDMDL
MODEL 3
REMARK VINA RESULT: -8.423593406      1.364      2.545
REMARK  8 active torsions:
REMARK  status: ('A' for Active; 'I' for Inactive)
REMARK    1  A    between atoms: N1_1  and  C1_4 
REMARK    2  A    between atoms: C1_4  and  C2_5 
REMARK    3  A    between atoms: C2_5  and  C3_6 
REMARK    4  A    between atoms: N2_9  and  C6_10 
REMARK    5  A    between atoms: C6_10  and  C7_11 
REMARK    6  A    between atoms: C7_11  and  N3_12 
REMARK    7  A    between atoms: C8_13  and  O1_14 
REMARK    8  A    between atoms: C11_18  and  O2_19 
ROOT
HETATM    1  N3  UNL     1      13.299  11.033  12.560  1.00  0.00    -0.306 N 
HETATM    2  C8  UNL     1      13.453  10.208  13.627  1.00  0.00     0.152 A 
HETATM    3  C9  UNL     1      13.155  10.909  14.759  1.00  0.00     0.012 A 
HETATM    4  C10 UNL     1      12.809  12.197  14.374  1.00  0.00     0.012 A 
HETATM    5  C11 UNL     1      12.911  12.233  13.001  1.00  0.00     0.152 A 
HETATM    6  C12 UNL     1      12.489  12.930  15.636  1.00  0.00     0.047 C 
HETATM    7  C13 UNL     1      11.273  12.308  16.193  1.00  0.00    -0.021 C 
HETATM    8  C14 UNL     1      11.605  11.063  16.560  1.00  0.00    -0.021 C 
HETATM    9  C15 UNL     1      13.043  10.872  16.240  1.00  0.00     0.047 C 
HETATM   10  C16 UNL     1      13.548  12.295  16.560  1.00  0.00     0.026 C 
ENDROOT
BRANCH   1  11
HETATM   11  C7  UNL     1      13.529  10.631  11.195  1.00  0.00     0.163 C 
BRANCH  11  12
HETATM   12  C6  UNL     1      14.967  10.734  10.814  1.00  0.00     0.292 C 
BRANCH  12  13
HETATM   13  N2  UNL     1      15.396   9.747   9.850  1.00  0.00     0.092 N 
HETATM   14  C5  UNL     1      15.808   8.571  10.524  1.00  0.00     0.275 C 
HETATM   15  C4  UNL     1      15.534   7.276   9.867  1.00  0.00     0.063 C 
HETATM   16  C3  UNL     1      15.570   7.199   8.404  1.00  0.00     0.135 C 
HETATM   17  O3  UNL     1      15.870   8.359   7.727  1.00  0.00    -0.383 OA
HETATM   18  C18 UNL     1      16.952   9.060   8.198  1.00  0.00     0.198 C 
HETATM   19  C17 UNL     1      16.347  10.288   8.902  1.00  0.00     0.298 C 
BRANCH  16  20
HETATM   20  C2  UNL     1      16.512   6.153   7.935  1.00  0.00     0.136 C 
BRANCH  20  21
HETATM   21  C1  UNL     1      16.283   5.390   6.895  1.00  0.00    -0.075 C 
BRANCH  21  22
HETATM   22  N1  UNL     1      16.303   4.778   5.763  1.00  0.00    -0.370 N 
ATOM     23  H12 UNL     1      17.182   5.222   5.498  1.00  0.00     0.165 HD
ATOM     24  H11 UNL     1      16.114   4.198   4.944  1.00  0.00     0.165 HD
ENDBRANCH  21  22
ENDBRANCH  20  21
ENDBRANCH  16  20
ENDBRANCH  12  13
ENDBRANCH  11  12
ENDBRANCH   1  11
BRANCH   2  25
HETATM   25  O1  UNL     1      13.848   8.861  13.612  1.00  0.00    -0.345 OA
ATOM     26  H1  UNL     1      14.193   8.353  14.337  1.00  0.00     0.219 HD
ENDBRANCH   2  25
BRANCH   5  27
HETATM   27  O2  UNL     1      12.649  13.348  12.207  1.00  0.00    -0.345 OA
ATOM     28  H2  UNL     1      13.275  14.026  11.977  1.00  0.00     0.219 HD
ENDBRANCH   5  27
TORSDOF 8
ENDMDL
MODEL 4
REMARK VINA RESULT: -8.395978612      1.059      1.346
REMARK  8 active torsions:
REMARK  status: ('A' for Active; 'I' for Inactive)
REMARK    1  A    between atoms: N1_1  and  C1_4 
REMARK    2  A    between atoms: C1_4  and  C2_5 
REMARK    3  A    between atoms: C2_5  and  C3_6 
REMARK    4  A    between atoms: N2_9  and  C6_10 
REMARK    5  A    between atoms: C6_10  and  C7_11 
REMARK    6  A    between atoms: C7_11  and  N3_12 
REMARK    7  A    between atoms: C8_13  and  O1_14 
REMARK    8  A    between atoms: C11_18  and  O2_19 
ROOT
HETATM    1  N3  UNL     1      13.324  10.778  13.355  1.00  0.00    -0.306 N 
HETATM    2  C8  UNL     1      13.049  12.020  13.830  1.00  0.00     0.152 A 
HETATM    3  C9  UNL     1      12.710  11.911  15.147  1.00  0.00     0.012 A 
HETATM    4  C10 UNL     1      12.780  10.567  15.487  1.00  0.00     0.012 A 
HETATM    5  C11 UNL     1      13.165   9.898  14.347  1.00  0.00     0.152 A 
HETATM    6  C12 UNL     1      12.405  10.489  16.930  1.00  0.00     0.047 C 
HETATM    7  C13 UNL     1      13.469  11.178  17.685  1.00  0.00    -0.021 C 
HETATM    8  C14 UNL     1      13.405  12.475  17.353  1.00  0.00    -0.021 C 
HETATM    9  C15 UNL     1      12.296  12.632  16.379  1.00  0.00     0.047 C 
HETATM   10  C16 UNL     1      11.321  11.586  16.959  1.00  0.00     0.026 C 
ENDROOT
BRANCH   1  11
HETATM   11  C7  UNL     1      13.719  10.508  11.996  1.00  0.00     0.163 C 
BRANCH  11  12
HETATM   12  C6  UNL     1      15.179  10.225  11.880  1.00  0.00     0.292 C 
BRANCH  12  13
HETATM   13  N2  UNL     1      15.559   9.567  10.651  1.00  0.00     0.092 N 
HETATM   14  C5  UNL     1      15.869   8.210  10.914  1.00  0.00     0.275 C 
HETATM   15  C4  UNL     1      15.519   7.215   9.879  1.00  0.00     0.063 C 
HETATM   16  C3  UNL     1      15.584   7.605   8.468  1.00  0.00     0.135 C 
HETATM   17  O3  UNL     1      15.982   8.895   8.196  1.00  0.00    -0.383 OA
HETATM   18  C18 UNL     1      17.099   9.326   8.865  1.00  0.00     0.198 C 
HETATM   19  C17 UNL     1      16.568  10.308   9.925  1.00  0.00     0.298 C 
BRANCH  16  20
HETATM   20  C2  UNL     1      16.459   6.695   7.690  1.00  0.00     0.136 C 
BRANCH  20  21
HETATM   21  C1  UNL     1      16.063   5.534   7.228  1.00  0.00    -0.075 C 
BRANCH  21  22
HETATM   22  N1  UNL     1      15.889   4.287   6.959  1.00  0.00    -0.370 N 
ATOM     23  H12 UNL     1      15.965   4.028   7.942  1.00  0.00     0.165 HD
ATOM     24  H11 UNL     1      15.736   3.379   6.520  1.00  0.00     0.165 HD
ENDBRANCH  21  22
ENDBRANCH  20  21
ENDBRANCH  16  20
ENDBRANCH  12  13
ENDBRANCH  11  12
ENDBRANCH   1  11
BRANCH   2  25
HETATM   25  O1  UNL     1      13.093  13.232  13.122  1.00  0.00    -0.345 OA
ATOM     26  H1  UNL     1      13.084  14.111  13.482  1.00  0.00     0.219 HD
ENDBRANCH   2  25
BRANCH   5  27
HETATM   27  O2  UNL     1      13.354   8.520  14.252  1.00  0.00    -0.345 OA
ATOM     28  H2  UNL     1      13.789   8.066  13.539  1.00  0.00     0.219 HD
ENDBRANCH   5  27
TORSDOF 8
ENDMDL
MODEL 5
REMARK VINA RESULT: -8.322265584      0.555      1.972
REMARK  8 active torsions:
REMARK  status: ('A' for Active; 'I' for Inactive)
REMARK    1  A    between atoms: N1_1  and  C1_4 
REMARK    2  A    between atoms: C1_4  and  C2_5 
REMARK    3  A    between atoms: C2_5  and  C3_6 
REMARK    4  A    between atoms: N2_9  and  C6_10 
REMARK    5  A    between atoms: C6_10  and  C7_11 
REMARK    6  A    between atoms: C7_11  and  N3_12 
REMARK    7  A    between atoms: C8_13  and  O1_14 
REMARK    8  A    between atoms: C11_18  and  O2_19 
ROOT
HETATM    1  N3  UNL     1      13.606  10.743  13.063  1.00  0.00    -0.306 N 
HETATM    2  C8  UNL     1      13.707  10.035  14.217  1.00  0.00     0.152 A 
HETATM    3  C9  UNL     1      13.245  10.812  15.240  1.00  0.00     0.012 A 
HETATM    4  C10 UNL     1      12.851  12.027  14.696  1.00  0.00     0.012 A 
HETATM    5  C11 UNL     1      13.092  11.943  13.343  1.00  0.00     0.152 A 
HETATM    6  C12 UNL     1      12.352  12.846  15.841  1.00  0.00     0.047 C 
HETATM    7  C13 UNL     1      11.131  12.183  16.339  1.00  0.00    -0.021 C 
HETATM    8  C14 UNL     1      11.510  11.008  16.859  1.00  0.00    -0.021 C 
HETATM    9  C15 UNL     1      12.983  10.903  16.700  1.00  0.00     0.047 C 
HETATM   10  C16 UNL     1      13.351  12.385  16.922  1.00  0.00     0.026 C 
ENDROOT
BRANCH   1  11
HETATM   11  C7  UNL     1      14.004  10.237  11.774  1.00  0.00     0.163 C 
BRANCH  11  12
HETATM   12  C6  UNL     1      15.305  10.810  11.322  1.00  0.00     0.292 C 
BRANCH  12  13
HETATM   13  N2  UNL     1      16.176   9.860  10.668  1.00  0.00     0.092 N 
HETATM   14  C5  UNL     1      15.415   9.030   9.810  1.00  0.00     0.275 C 
HETATM   15  C4  UNL     1      16.046   8.588   8.549  1.00  0.00     0.063 C 
HETATM   16  C3  UNL     1      17.492   8.348   8.525  1.00  0.00     0.135 C 
HETATM   17  O3  UNL     1      18.177   8.547   9.703  1.00  0.00    -0.383 OA
HETATM   18  C18 UNL     1      17.615   7.982  10.819  1.00  0.00     0.198 C 
HETATM   19  C17 UNL     1      17.031   9.168  11.609  1.00  0.00     0.298 C 
BRANCH  16  20
HETATM   20  C2  UNL     1      17.811   6.979   8.050  1.00  0.00     0.136 C 
BRANCH  20  21
HETATM   21  C1  UNL     1      16.954   6.219   7.415  1.00  0.00    -0.075 C 
BRANCH  21  22
HETATM   22  N1  UNL     1      16.333   5.454   6.585  1.00  0.00    -0.370 N 
ATOM     23  H12 UNL     1      15.951   6.254   6.080  1.00  0.00     0.165 HD
ATOM     24  H11 UNL     1      15.939   4.674   6.058  1.00  0.00     0.165 HD
ENDBRANCH  21  22
ENDBRANCH  20  21
ENDBRANCH  16  20
ENDBRANCH  12  13
ENDBRANCH  11  12
ENDBRANCH   1  11
BRANCH   2  25
HETATM   25  O1  UNL     1      14.196   8.728  14.375  1.00  0.00    -0.345 OA
ATOM     26  H1  UNL     1      15.064   8.468  14.659  1.00  0.00     0.219 HD
ENDBRANCH   2  25
BRANCH   5  27
HETATM   27  O2  UNL     1      12.836  12.956  12.420  1.00  0.00    -0.345 OA
ATOM     28  H2  UNL     1      12.781  13.885  12.615  1.00  0.00     0.219 HD
ENDBRANCH   5  27
TORSDOF 8
ENDMDL
