MODEL 1
REMARK VINA RESULT: -8.724244888      0.000      0.000
REMARK  7 active torsions:
REMARK  status: ('A' for Active; 'I' for Inactive)
REMARK    1  A    between atoms: O1_1  and  C1_3 
REMARK    2  A    between atoms: C2_4  and  C3_5 
REMARK    3  A    between atoms: C3_5  and  C4_6 
REMARK    4  A    between atoms: C6_13  and  N4_14 
REMARK    5  A    between atoms: N4_14  and  C7_16 
REMARK    6  A    between atoms: C7_16  and  C8_17 
REMARK    7  A    between atoms: N7_27  and  C13_28 
ROOT
HETATM    1  C4  UNL     1      13.732  11.096  12.259  1.00  0.00     0.031 A 
HETATM    2  C5  UNL     1      12.850  11.214  11.210  1.00  0.00     0.124 A 
HETATM    3  N1  UNL     1      11.661  11.692  11.690  1.00  0.00    -0.288 N 
ATOM      4  H1  UNL     1      10.827  11.876  11.134  1.00  0.00     0.188 HD
HETATM    5  N2  UNL     1      11.773  11.873  12.989  1.00  0.00    -0.164 N 
HETATM    6  N3  UNL     1      11.114  12.272  14.054  1.00  0.00    -0.109 N 
ATOM      7  H3  UNL     1      10.146  12.596  14.059  1.00  0.00     0.208 HD
HETATM    8  C6  UNL     1      11.914  12.190  15.144  1.00  0.00     0.696 A 
HETATM    9  N5  UNL     1      13.094  11.720  14.693  1.00  0.00    -0.171 N 
ATOM     10  H5  UNL     1      13.914  11.545  15.274  1.00  0.00     0.186 HD
HETATM   11  C11 UNL     1      13.030  11.518  13.367  1.00  0.00     0.172 A 
ENDROOT
BRANCH   1  12
HETATM   12  C3  UNL     1      14.971  10.665  12.144  1.00  0.00     0.051 C 
BRANCH  12  13
HETATM   13  C2  UNL     1      15.270   9.522  11.261  1.00  0.00     0.087 A 
HETATM   14  C1  UNL     1      15.588   9.626   9.933  1.00  0.00     0.172 A 
HETATM   15  N7  UNL     1      15.800   8.374   9.439  1.00  0.00    -0.298 N 
HETATM   16  C12 UNL     1      15.608   7.542  10.475  1.00  0.00     0.181 A 
HETATM   17  N6  UNL     1      15.286   8.234  11.583  1.00  0.00    -0.329 N 
HETATM   18  S1  UNL     1      15.754   5.918  10.362  1.00  0.00    -0.040 SA
ATOM     19  H6  UNL     1      15.089   7.841  12.503  1.00  0.00     0.168 HD
BRANCH  14  20
HETATM   20  O1  UNL     1      15.680  10.808   9.202  1.00  0.00    -0.344 OA
ATOM     21  H1  UNL     1      16.483  11.262   8.973  1.00  0.00     0.219 HD
ENDBRANCH  14  20
BRANCH  15  22
HETATM   22  C13 UNL     1      16.154   8.101   8.077  1.00  0.00     0.094 A 
HETATM   23  C14 UNL     1      17.438   7.493   7.688  1.00  0.00     0.028 A 
HETATM   24  C15 UNL     1      17.238   8.985   7.510  1.00  0.00     0.028 A 
ENDBRANCH  15  22
ENDBRANCH  12  13
ENDBRANCH   1  12
BRANCH   8  25
HETATM   25  N4  UNL     1      11.624  12.491  16.361  1.00  0.00    -0.224 N 
ATOM     26  H4  UNL     1      11.736  13.455  16.674  1.00  0.00     0.177 HD
BRANCH  25  27
HETATM   27  C7  UNL     1      11.148  11.507  17.288  1.00  0.00     0.142 C 
BRANCH  27  28
HETATM   28  C8  UNL     1      12.272  10.963  18.160  1.00  0.00     0.004 A 
HETATM   29  C9  UNL     1      12.825   9.634  17.738  1.00  0.00     0.007 A 
HETATM   30  C10 UNL     1      11.970   9.746  18.996  1.00  0.00     0.007 A 
ENDBRANCH  27  28
ENDBRANCH  25  27
ENDBRANCH   8  25
TORSDOF 7
ENDMDL
MODEL 2
REMARK VINA RESULT: -8.603823187      1.897      2.816
REMARK  7 active torsions:
REMARK  status: ('A' for Active; 'I' for Inactive)
REMARK    1  A    between atoms: O1_1  and  C1_3 
REMARK    2  A    between atoms: C2_4  and  C3_5 
REMARK    3  A    between atoms: C3_5  and  C4_6 
REMARK    4  A    between atoms: C6_13  and  N4_14 
REMARK    5  A    between atoms: N4_14  and  C7_16 
REMARK    6  A    between atoms: C7_16  and  C8_17 
REMARK    7  A    between atoms: N7_27  and  C13_28 
ROOT
HETATM    1  C4  UNL     1      13.594  11.123  12.377  1.00  0.00     0.031 A 
HETATM    2  C5  UNL     1      12.707  11.276  11.337  1.00  0.00     0.124 A 
HETATM    3  N1  UNL     1      11.529  11.761  11.834  1.00  0.00    -0.288 N 
ATOM      4  H1  UNL     1      10.694  11.970  11.287  1.00  0.00     0.188 HD
HETATM    5  N2  UNL     1      11.651  11.915  13.136  1.00  0.00    -0.164 N 
HETATM    6  N3  UNL     1      11.005  12.302  14.213  1.00  0.00    -0.109 N 
ATOM      7  H3  UNL     1      10.043  12.639  14.231  1.00  0.00     0.208 HD
HETATM    8  C6  UNL     1      11.811  12.185  15.296  1.00  0.00     0.696 A 
HETATM    9  N5  UNL     1      12.980  11.707  14.828  1.00  0.00    -0.171 N 
ATOM     10  H5  UNL     1      13.802  11.507  15.400  1.00  0.00     0.186 HD
HETATM   11  C11 UNL     1      12.906  11.533  13.499  1.00  0.00     0.172 A 
ENDROOT
BRANCH   1  12
HETATM   12  C3  UNL     1      14.825  10.676  12.246  1.00  0.00     0.051 C 
BRANCH  12  13
HETATM   13  C2  UNL     1      15.062   9.239  12.007  1.00  0.00     0.087 A 
HETATM   14  C1  UNL     1      14.949   8.263  12.960  1.00  0.00     0.172 A 
HETATM   15  N7  UNL     1      15.239   7.061  12.385  1.00  0.00    -0.298 N 
HETATM   16  C12 UNL     1      15.520   7.336  11.102  1.00  0.00     0.181 A 
HETATM   17  N6  UNL     1      15.414   8.657  10.868  1.00  0.00    -0.329 N 
HETATM   18  S1  UNL     1      15.930   6.194  10.007  1.00  0.00    -0.040 SA
ATOM     19  H6  UNL     1      15.574   9.125   9.976  1.00  0.00     0.168 HD
BRANCH  14  20
HETATM   20  O1  UNL     1      14.598   8.455  14.294  1.00  0.00    -0.344 OA
ATOM     21  H1  UNL     1      13.765   8.230  14.691  1.00  0.00     0.219 HD
ENDBRANCH  14  20
BRANCH  15  22
HETATM   22  C13 UNL     1      15.220   5.813  13.089  1.00  0.00     0.094 A 
HETATM   23  C14 UNL     1      14.591   4.596  12.549  1.00  0.00     0.028 A 
HETATM   24  C15 UNL     1      13.868   5.396  13.614  1.00  0.00     0.028 A 
ENDBRANCH  15  22
ENDBRANCH  12  13
ENDBRANCH   1  12
BRANCH   8  25
HETATM   25  N4  UNL     1      11.533  12.466  16.521  1.00  0.00    -0.224 N 
ATOM     26  H4  UNL     1      11.670  13.420  16.855  1.00  0.00     0.177 HD
BRANCH  25  27
HETATM   27  C7  UNL     1      11.036  11.473  17.428  1.00  0.00     0.142 C 
BRANCH  27  28
HETATM   28  C8  UNL     1      12.129  10.959  18.356  1.00  0.00     0.004 A 
HETATM   29  C9  UNL     1      12.709   9.626  17.987  1.00  0.00     0.007 A 
HETATM   30  C10 UNL     1      11.805   9.760  19.207  1.00  0.00     0.007 A 
ENDBRANCH  27  28
ENDBRANCH  25  27
ENDBRANCH   8  25
TORSDOF 7
ENDMDL
MODEL 3
REMARK VINA RESULT: -8.337790230      1.096      1.423
REMARK  7 active torsions:
REMARK  status: ('A' for Active; 'I' for Inactive)
REMARK    1  A    between atoms: O1_1  and  C1_3 
REMARK    2  A    between atoms: C2_4  and  C3_5 
REMARK    3  A    between atoms: C3_5  and  C4_6 
REMARK    4  A    between atoms: C6_13  and  N4_14 
REMARK    5  A    between atoms: N4_14  and  C7_16 
REMARK    6  A    between atoms: C7_16  and  C8_17 
REMARK    7  A    between atoms: N7_27  and  C13_28 
ROOT
HETATM    1  C4  UNL     1      13.021  11.738  12.363  1.00  0.00     0.031 A 
HETATM    2  C5  UNL     1      11.794  11.724  11.743  1.00  0.00     0.124 A 
HETATM    3  N1  UNL     1      10.826  11.958  12.682  1.00  0.00    -0.288 N 
ATOM      4  H1  UNL     1       9.823  12.003  12.503  1.00  0.00     0.188 HD
HETATM    5  N2  UNL     1      11.405  12.117  13.853  1.00  0.00    -0.164 N 
HETATM    6  N3  UNL     1      11.158  12.354  15.123  1.00  0.00    -0.109 N 
ATOM      7  H3  UNL     1      10.231  12.492  15.525  1.00  0.00     0.208 HD
HETATM    8  C6  UNL     1      12.322  12.386  15.815  1.00  0.00     0.696 A 
HETATM    9  N5  UNL     1      13.291  12.157  14.908  1.00  0.00    -0.171 N 
ATOM     10  H5  UNL     1      14.290  12.118  15.115  1.00  0.00     0.186 HD
HETATM   11  C11 UNL     1      12.749  11.988  13.691  1.00  0.00     0.172 A 
ENDROOT
BRANCH   1  12
HETATM   12  C3  UNL     1      14.169  11.547  11.747  1.00  0.00     0.051 C 
BRANCH  12  13
HETATM   13  C2  UNL     1      14.649  10.174  11.501  1.00  0.00     0.087 A 
HETATM   14  C1  UNL     1      15.242   9.752  10.341  1.00  0.00     0.172 A 
HETATM   15  N7  UNL     1      15.555   8.432  10.470  1.00  0.00    -0.298 N 
HETATM   16  C12 UNL     1      15.145   8.085  11.700  1.00  0.00     0.181 A 
HETATM   17  N6  UNL     1      14.595   9.138  12.330  1.00  0.00    -0.329 N 
HETATM   18  S1  UNL     1      15.311   6.577  12.310  1.00  0.00    -0.040 SA
ATOM     19  H6  UNL     1      14.206   9.141  13.273  1.00  0.00     0.168 HD
BRANCH  14  20
HETATM   20  O1  UNL     1      15.489  10.534   9.216  1.00  0.00    -0.344 OA
ATOM     21  H1  UNL     1      15.065  11.357   9.002  1.00  0.00     0.219 HD
ENDBRANCH  14  20
BRANCH  15  22
HETATM   22  C13 UNL     1      16.191   7.657   9.446  1.00  0.00     0.094 A 
HETATM   23  C14 UNL     1      16.104   7.994   8.015  1.00  0.00     0.028 A 
HETATM   24  C15 UNL     1      15.252   6.868   8.567  1.00  0.00     0.028 A 
ENDBRANCH  15  22
ENDBRANCH  12  13
ENDBRANCH   1  12
BRANCH   8  25
HETATM   25  N4  UNL     1      12.485  12.591  17.075  1.00  0.00    -0.224 N 
ATOM     26  H4  UNL     1      12.401  13.540  17.439  1.00  0.00     0.177 HD
BRANCH  25  27
HETATM   27  C7  UNL     1      12.783  11.520  17.981  1.00  0.00     0.142 C 
BRANCH  27  28
HETATM   28  C8  UNL     1      11.532  10.739  18.361  1.00  0.00     0.004 A 
HETATM   29  C9  UNL     1      10.961  11.059  19.711  1.00  0.00     0.007 A 
HETATM   30  C10 UNL     1      11.660   9.726  19.469  1.00  0.00     0.007 A 
ENDBRANCH  27  28
ENDBRANCH  25  27
ENDBRANCH   8  25
TORSDOF 7
ENDMDL
MODEL 4
REMARK VINA RESULT: -8.300887462      1.513      1.971
REMARK  7 active torsions:
REMARK  status: ('A' for Active; 'I' for Inactive)
REMARK    1  A    between atoms: O1_1  and  C1_3 
REMARK    2  A    between atoms: C2_4  and  C3_5 
REMARK    3  A    between atoms: C3_5  and  C4_6 
REMARK    4  A    between atoms: C6_13  and  N4_14 
REMARK    5  A    between atoms: N4_14  and  C7_16 
REMARK    6  A    between atoms: C7_16  and  C8_17 
REMARK    7  A    between atoms: N7_27  and  C13_28 
ROOT
HETATM    1  C4  UNL     1      13.763  11.134  12.330  1.00  0.00     0.031 A 
HETATM    2  C5  UNL     1      12.895  11.249  11.270  1.00  0.00     0.124 A 
HETATM    3  N1  UNL     1      11.698  11.722  11.733  1.00  0.00    -0.288 N 
ATOM      4  H1  UNL     1      10.871  11.904  11.165  1.00  0.00     0.188 HD
HETATM    5  N2  UNL     1      11.791  11.904  13.033  1.00  0.00    -0.164 N 
HETATM    6  N3  UNL     1      11.116  12.301  14.089  1.00  0.00    -0.109 N 
ATOM      7  H3  UNL     1      10.147  12.620  14.081  1.00  0.00     0.208 HD
HETATM    8  C6  UNL     1      11.902  12.221  15.189  1.00  0.00     0.696 A 
HETATM    9  N5  UNL     1      13.089  11.756  14.756  1.00  0.00    -0.171 N 
ATOM     10  H5  UNL     1      13.902  11.583  15.348  1.00  0.00     0.186 HD
HETATM   11  C11 UNL     1      13.045  11.553  13.428  1.00  0.00     0.172 A 
ENDROOT
BRANCH   1  12
HETATM   12  C3  UNL     1      15.005  10.708  12.233  1.00  0.00     0.051 C 
BRANCH  12  13
HETATM   13  C2  UNL     1      15.358   9.707  11.208  1.00  0.00     0.087 A 
HETATM   14  C1  UNL     1      15.242   8.352  11.369  1.00  0.00     0.172 A 
HETATM   15  N7  UNL     1      15.657   7.742  10.223  1.00  0.00    -0.298 N 
HETATM   16  C12 UNL     1      16.014   8.738   9.396  1.00  0.00     0.181 A 
HETATM   17  N6  UNL     1      15.835   9.932   9.989  1.00  0.00    -0.329 N 
HETATM   18  S1  UNL     1      16.584   8.489   7.884  1.00  0.00    -0.040 SA
ATOM     19  H6  UNL     1      16.029  10.845   9.577  1.00  0.00     0.168 HD
BRANCH  14  20
HETATM   20  O1  UNL     1      14.779   7.699  12.509  1.00  0.00    -0.344 OA
ATOM     21  H1  UNL     1      14.235   6.921  12.525  1.00  0.00     0.219 HD
ENDBRANCH  14  20
BRANCH  15  22
HETATM   22  C13 UNL     1      15.673   6.322  10.034  1.00  0.00     0.094 A 
HETATM   23  C14 UNL     1      15.827   5.366  11.143  1.00  0.00     0.028 A 
HETATM   24  C15 UNL     1      17.014   5.664  10.248  1.00  0.00     0.028 A 
ENDBRANCH  15  22
ENDBRANCH  12  13
ENDBRANCH   1  12
BRANCH   8  25
HETATM   25  N4  UNL     1      11.594  12.521  16.403  1.00  0.00    -0.224 N 
ATOM     26  H4  UNL     1      11.704  13.485  16.719  1.00  0.00     0.177 HD
BRANCH  25  27
HETATM   27  C7  UNL     1      11.100  11.537  17.321  1.00  0.00     0.142 C 
BRANCH  27  28
HETATM   28  C8  UNL     1      12.202  11.009  18.229  1.00  0.00     0.004 A 
HETATM   29  C9  UNL     1      12.728   9.649  17.876  1.00  0.00     0.007 A 
HETATM   30  C10 UNL     1      11.864   9.841  19.118  1.00  0.00     0.007 A 
ENDBRANCH  27  28
ENDBRANCH  25  27
ENDBRANCH   8  25
TORSDOF 7
ENDMDL
MODEL 5
REMARK VINA RESULT: -8.276789228      0.667      1.021
REMARK  7 active torsions:
REMARK  status: ('A' for Active; 'I' for Inactive)
REMARK    1  A    between atoms: O1_1  and  C1_3 
REMARK    2  A    between atoms: C2_4  and  C3_5 
REMARK    3  A    between atoms: C3_5  and  C4_6 
REMARK    4  A    between atoms: C6_13  and  N4_14 
REMARK    5  A    between atoms: N4_14  and  C7_16 
REMARK    6  A    between atoms: C7_16  and  C8_17 
REMARK    7  A    between atoms: N7_27  and  C13_28 
ROOT
HETATM    1  C4  UNL     1      13.752  11.077  12.227  1.00  0.00     0.031 A 
HETATM    2  C5  UNL     1      12.875  11.195  11.174  1.00  0.00     0.124 A 
HETATM    3  N1  UNL     1      11.685  11.675  11.646  1.00  0.00    -0.288 N 
ATOM      4  H1  UNL     1      10.854  11.860  11.085  1.00  0.00     0.188 HD
HETATM    5  N2  UNL     1      11.790  11.859  12.946  1.00  0.00    -0.164 N 
HETATM    6  N3  UNL     1      11.126  12.261  14.007  1.00  0.00    -0.109 N 
ATOM      7  H3  UNL     1      10.159  12.585  14.006  1.00  0.00     0.208 HD
HETATM    8  C6  UNL     1      11.921  12.179  15.100  1.00  0.00     0.696 A 
HETATM    9  N5  UNL     1      13.101  11.707  14.657  1.00  0.00    -0.171 N 
ATOM     10  H5  UNL     1      13.919  11.531  15.243  1.00  0.00     0.186 HD
HETATM   11  C11 UNL     1      13.045  11.502  13.331  1.00  0.00     0.172 A 
ENDROOT
BRANCH   1  12
HETATM   12  C3  UNL     1      14.990  10.644  12.120  1.00  0.00     0.051 C 
BRANCH  12  13
HETATM   13  C2  UNL     1      15.295   9.506  11.231  1.00  0.00     0.087 A 
HETATM   14  C1  UNL     1      15.628   9.620   9.908  1.00  0.00     0.172 A 
HETATM   15  N7  UNL     1      15.840   8.370   9.406  1.00  0.00    -0.298 N 
HETATM   16  C12 UNL     1      15.632   7.532  10.433  1.00  0.00     0.181 A 
HETATM   17  N6  UNL     1      15.301   8.216  11.543  1.00  0.00    -0.329 N 
HETATM   18  S1  UNL     1      15.772   5.907  10.310  1.00  0.00    -0.040 SA
ATOM     19  H6  UNL     1      15.092   7.816  12.458  1.00  0.00     0.168 HD
BRANCH  14  20
HETATM   20  O1  UNL     1      15.734  10.807   9.188  1.00  0.00    -0.344 OA
ATOM     21  H1  UNL     1      16.542  11.217   8.902  1.00  0.00     0.219 HD
ENDBRANCH  14  20
BRANCH  15  22
HETATM   22  C13 UNL     1      16.209   8.106   8.046  1.00  0.00     0.094 A 
HETATM   23  C14 UNL     1      17.501   7.512   7.665  1.00  0.00     0.028 A 
HETATM   24  C15 UNL     1      17.288   9.003   7.492  1.00  0.00     0.028 A 
ENDBRANCH  15  22
ENDBRANCH  12  13
ENDBRANCH   1  12
BRANCH   8  25
HETATM   25  N4  UNL     1      11.624  12.483  16.316  1.00  0.00    -0.224 N 
ATOM     26  H4  UNL     1      11.384  13.448  16.541  1.00  0.00     0.177 HD
BRANCH  25  27
HETATM   27  C7  UNL     1      11.624  11.500  17.360  1.00  0.00     0.142 C 
BRANCH  27  28
HETATM   28  C8  UNL     1      12.922  11.522  18.156  1.00  0.00     0.004 A 
HETATM   29  C9  UNL     1      12.974  12.525  19.271  1.00  0.00     0.007 A 
HETATM   30  C10 UNL     1      13.802  12.736  18.009  1.00  0.00     0.007 A 
ENDBRANCH  27  28
ENDBRANCH  25  27
ENDBRANCH   8  25
TORSDOF 7
ENDMDL
