MODEL 1
REMARK VINA RESULT: -8.700635646      0.000      0.000
REMARK  7 active torsions:
REMARK  status: ('A' for Active; 'I' for Inactive)
REMARK    1  A    between atoms: O1_1  and  C1_3 
REMARK    2  A    between atoms: C1_3  and  C2_4 
REMARK    3  A    between atoms: C4_7  and  O3_8 
REMARK    4  A    between atoms: C7_12  and  C8_13 
REMARK    5  A    between atoms: C11_16  and  O4_17 
REMARK    6  A    between atoms: C13_21  and  C14_22 
REMARK    7  A    between atoms: N1_23  and  C15_25 
ROOT
HETATM    1  C2  UNL     1      12.432  12.117  14.358  1.00  0.00    -0.029 C 
HETATM    2  C3  UNL     1      13.214  13.053  14.859  1.00  0.00     0.143 C 
HETATM    3  O2  UNL     1      13.795  12.940  16.124  1.00  0.00    -0.332 OA
HETATM    4  C4  UNL     1      13.195  12.119  17.069  1.00  0.00     0.271 C 
HETATM    5  C5  UNL     1      12.357  11.009  16.590  1.00  0.00     0.079 C 
HETATM    6  C6  UNL     1      12.937   9.710  17.029  1.00  0.00    -0.067 C 
HETATM    7  C7  UNL     1      12.872   9.163  18.221  1.00  0.00     0.040 C 
HETATM    8  C12 UNL     1      13.621   9.100  15.874  1.00  0.00     0.045 C 
HETATM    9  C13 UNL     1      12.912   9.703  14.709  1.00  0.00     0.037 C 
HETATM   10  C18 UNL     1      12.140  10.903  15.122  1.00  0.00     0.040 C 
ENDROOT
BRANCH   7  11
HETATM   11  C8  UNL     1      13.449   7.899  18.609  1.00  0.00     0.078 A 
HETATM   12  C9  UNL     1      14.783   7.639  18.818  1.00  0.00     0.042 A 
HETATM   13  C10 UNL     1      14.824   6.284  19.171  1.00  0.00     0.067 A 
HETATM   14  C11 UNL     1      13.533   5.814  19.153  1.00  0.00     0.183 A 
HETATM   15  O5  UNL     1      12.763   6.797  18.818  1.00  0.00    -0.288 OA
BRANCH  14  16
HETATM   16  O4  UNL     1      13.069   4.521  19.434  1.00  0.00    -0.341 OA
ATOM     17  H4  UNL     1      12.343   4.052  19.038  1.00  0.00     0.220 HD
ENDBRANCH  14  16
ENDBRANCH   7  11
BRANCH   4  18
HETATM   18  O3  UNL     1      12.485  12.971  17.946  1.00  0.00    -0.370 OA
ATOM     19  H3  UNL     1      11.565  12.763  17.838  1.00  0.00     0.212 HD
ENDBRANCH   4  18
BRANCH   9  20
HETATM   20  C14 UNL     1      13.932   9.969  13.667  1.00  0.00     0.061 C 
HETATM   21  N1  UNL     1      13.985   9.311  12.592  1.00  0.00    -0.397 N 
ATOM     22  H1  UNL     1      13.289   8.576  12.464  1.00  0.00     0.159 HD
BRANCH  21  23
HETATM   23  C15 UNL     1      14.922   9.497  11.548  1.00  0.00     0.080 A 
HETATM   24  C16 UNL     1      15.663  10.791  11.545  1.00  0.00     0.027 A 
HETATM   25  C17 UNL     1      14.679  10.433  10.428  1.00  0.00     0.027 A 
ENDBRANCH  21  23
ENDBRANCH   9  20
BRANCH   1  26
HETATM   26  C1  UNL     1      11.844  12.290  13.011  1.00  0.00     0.200 C 
BRANCH  26  27
HETATM   27  O1  UNL     1      10.542  11.741  12.994  1.00  0.00    -0.397 OA
ATOM     28  H1  UNL     1      10.392  11.312  12.160  1.00  0.00     0.209 HD
ENDBRANCH  26  27
ENDBRANCH   1  26
TORSDOF 7
ENDMDL
MODEL 2
REMARK VINA RESULT: -8.293471531      3.083      6.191
REMARK  7 active torsions:
REMARK  status: ('A' for Active; 'I' for Inactive)
REMARK    1  A    between atoms: O1_1  and  C1_3 
REMARK    2  A    between atoms: C1_3  and  C2_4 
REMARK    3  A    between atoms: C4_7  and  O3_8 
REMARK    4  A    between atoms: C7_12  and  C8_13 
REMARK    5  A    between atoms: C11_16  and  O4_17 
REMARK    6  A    between atoms: C13_21  and  C14_22 
REMARK    7  A    between atoms: N1_23  and  C15_25 
ROOT
HETATM    1  C2  UNL     1      15.934   7.833  11.504  1.00  0.00    -0.029 C 
HETATM    2  C3  UNL     1      17.080   8.485  11.526  1.00  0.00     0.143 C 
HETATM    3  O2  UNL     1      17.184   9.793  12.004  1.00  0.00    -0.332 OA
HETATM    4  C4  UNL     1      16.056  10.602  11.999  1.00  0.00     0.271 C 
HETATM    5  C5  UNL     1      14.737   9.954  12.040  1.00  0.00     0.079 C 
HETATM    6  C6  UNL     1      14.013  10.352  13.278  1.00  0.00    -0.067 C 
HETATM    7  C7  UNL     1      13.394  11.486  13.517  1.00  0.00     0.040 C 
HETATM    8  C12 UNL     1      14.094   9.235  14.236  1.00  0.00     0.045 C 
HETATM    9  C13 UNL     1      14.285   8.049  13.352  1.00  0.00     0.037 C 
HETATM   10  C18 UNL     1      14.707   8.466  11.990  1.00  0.00     0.040 C 
ENDROOT
BRANCH   7  11
HETATM   11  C8  UNL     1      12.702  11.836  14.732  1.00  0.00     0.078 A 
HETATM   12  C9  UNL     1      11.347  11.754  14.955  1.00  0.00     0.042 A 
HETATM   13  C10 UNL     1      11.182  12.204  16.271  1.00  0.00     0.067 A 
HETATM   14  C11 UNL     1      12.426  12.527  16.756  1.00  0.00     0.183 A 
HETATM   15  O5  UNL     1      13.285  12.295  15.819  1.00  0.00    -0.288 OA
BRANCH  14  16
HETATM   16  O4  UNL     1      12.769  13.022  18.023  1.00  0.00    -0.341 OA
ATOM     17  H4  UNL     1      12.973  13.916  18.275  1.00  0.00     0.220 HD
ENDBRANCH  14  16
ENDBRANCH   7  11
BRANCH   4  18
HETATM   18  O3  UNL     1      16.185  11.461  10.882  1.00  0.00    -0.370 OA
ATOM     19  H3  UNL     1      15.767  12.279  11.123  1.00  0.00     0.212 HD
ENDBRANCH   4  18
BRANCH   9  20
HETATM   20  C14 UNL     1      15.243   7.147  14.032  1.00  0.00     0.061 C 
HETATM   21  N1  UNL     1      14.974   6.579  15.126  1.00  0.00    -0.397 N 
ATOM     22  H1  UNL     1      14.057   6.765  15.532  1.00  0.00     0.159 HD
BRANCH  21  23
HETATM   23  C15 UNL     1      15.826   5.706  15.842  1.00  0.00     0.080 A 
HETATM   24  C16 UNL     1      15.916   5.925  17.315  1.00  0.00     0.027 A 
HETATM   25  C17 UNL     1      17.123   6.151  16.401  1.00  0.00     0.027 A 
ENDBRANCH  21  23
ENDBRANCH   9  20
BRANCH   1  26
HETATM   26  C1  UNL     1      15.884   6.448  10.986  1.00  0.00     0.200 C 
BRANCH  26  27
HETATM   27  O1  UNL     1      15.512   6.471   9.623  1.00  0.00    -0.397 OA
ATOM     28  H1  UNL     1      14.940   5.736   9.440  1.00  0.00     0.209 HD
ENDBRANCH  26  27
ENDBRANCH   1  26
TORSDOF 7
ENDMDL
MODEL 3
REMARK VINA RESULT: -8.182921201      6.069      9.674
REMARK  7 active torsions:
REMARK  status: ('A' for Active; 'I' for Inactive)
REMARK    1  A    between atoms: O1_1  and  C1_3 
REMARK    2  A    between atoms: C1_3  and  C2_4 
REMARK    3  A    between atoms: C4_7  and  O3_8 
REMARK    4  A    between atoms: C7_12  and  C8_13 
REMARK    5  A    between atoms: C11_16  and  O4_17 
REMARK    6  A    between atoms: C13_21  and  C14_22 
REMARK    7  A    between atoms: N1_23  and  C15_25 
ROOT
HETATM    1  C2  UNL     1      16.954   5.181   6.906  1.00  0.00    -0.029 C 
HETATM    2  C3  UNL     1      18.228   5.227   7.243  1.00  0.00     0.143 C 
HETATM    3  O2  UNL     1      18.778   6.308   7.934  1.00  0.00    -0.332 OA
HETATM    4  C4  UNL     1      18.156   7.546   7.849  1.00  0.00     0.271 C 
HETATM    5  C5  UNL     1      16.718   7.580   7.542  1.00  0.00     0.079 C 
HETATM    6  C6  UNL     1      15.971   8.197   8.672  1.00  0.00    -0.067 C 
HETATM    7  C7  UNL     1      15.874   9.473   8.970  1.00  0.00     0.040 C 
HETATM    8  C12 UNL     1      15.325   7.116   9.439  1.00  0.00     0.045 C 
HETATM    9  C13 UNL     1      15.181   6.030   8.428  1.00  0.00     0.037 C 
HETATM   10  C18 UNL     1      16.052   6.281   7.252  1.00  0.00     0.040 C 
ENDROOT
BRANCH   7  11
HETATM   11  C8  UNL     1      15.139  10.033  10.077  1.00  0.00     0.078 A 
HETATM   12  C9  UNL     1      15.638  10.325  11.325  1.00  0.00     0.042 A 
HETATM   13  C10 UNL     1      14.541  10.841  12.028  1.00  0.00     0.067 A 
HETATM   14  C11 UNL     1      13.463  10.829  11.176  1.00  0.00     0.183 A 
HETATM   15  O5  UNL     1      13.863  10.348  10.045  1.00  0.00    -0.288 OA
BRANCH  14  16
HETATM   16  O4  UNL     1      12.147  11.247  11.425  1.00  0.00    -0.341 OA
ATOM     17  H4  UNL     1      11.473  11.485  10.798  1.00  0.00     0.220 HD
ENDBRANCH  14  16
ENDBRANCH   7  11
BRANCH   4  18
HETATM   18  O3  UNL     1      18.908   8.310   6.927  1.00  0.00    -0.370 OA
ATOM     19  H3  UNL     1      18.787   9.221   7.170  1.00  0.00     0.212 HD
ENDBRANCH   4  18
BRANCH   9  20
HETATM   20  C14 UNL     1      15.455   4.749   9.121  1.00  0.00     0.061 C 
HETATM   21  N1  UNL     1      15.417   4.641  10.378  1.00  0.00    -0.397 N 
ATOM     22  H1  UNL     1      15.185   5.481  10.908  1.00  0.00     0.159 HD
BRANCH  21  23
HETATM   23  C15 UNL     1      15.665   3.462  11.120  1.00  0.00     0.080 A 
HETATM   24  C16 UNL     1      14.762   3.204  12.279  1.00  0.00     0.027 A 
HETATM   25  C17 UNL     1      16.252   3.493  12.478  1.00  0.00     0.027 A 
ENDBRANCH  21  23
ENDBRANCH   9  20
BRANCH   1  26
HETATM   26  C1  UNL     1      16.426   4.008   6.174  1.00  0.00     0.200 C 
BRANCH  26  27
HETATM   27  O1  UNL     1      16.617   4.197   4.787  1.00  0.00    -0.397 OA
ATOM     28  H1  UNL     1      15.986   3.674   4.308  1.00  0.00     0.209 HD
ENDBRANCH  26  27
ENDBRANCH   1  26
TORSDOF 7
ENDMDL
MODEL 4
REMARK VINA RESULT: -8.167731397      3.626      6.480
REMARK  7 active torsions:
REMARK  status: ('A' for Active; 'I' for Inactive)
REMARK    1  A    between atoms: O1_1  and  C1_3 
REMARK    2  A    between atoms: C1_3  and  C2_4 
REMARK    3  A    between atoms: C4_7  and  O3_8 
REMARK    4  A    between atoms: C7_12  and  C8_13 
REMARK    5  A    between atoms: C11_16  and  O4_17 
REMARK    6  A    between atoms: C13_21  and  C14_22 
REMARK    7  A    between atoms: N1_23  and  C15_25 
ROOT
HETATM    1  C2  UNL     1      17.084   6.614  12.322  1.00  0.00    -0.029 C 
HETATM    2  C3  UNL     1      16.280   5.703  11.809  1.00  0.00     0.143 C 
HETATM    3  O2  UNL     1      14.912   5.676  12.087  1.00  0.00    -0.332 OA
HETATM    4  C4  UNL     1      14.452   6.262  13.259  1.00  0.00     0.271 C 
HETATM    5  C5  UNL     1      15.260   7.333  13.861  1.00  0.00     0.079 C 
HETATM    6  C6  UNL     1      14.482   8.602  13.889  1.00  0.00    -0.067 C 
HETATM    7  C7  UNL     1      13.525   8.940  14.722  1.00  0.00     0.040 C 
HETATM    8  C12 UNL     1      14.970   9.463  12.796  1.00  0.00     0.045 C 
HETATM    9  C13 UNL     1      16.364   8.978  12.586  1.00  0.00     0.037 C 
HETATM   10  C18 UNL     1      16.564   7.648  13.217  1.00  0.00     0.040 C 
ENDROOT
BRANCH   7  11
HETATM   11  C8  UNL     1      12.792  10.182  14.716  1.00  0.00     0.078 A 
HETATM   12  C9  UNL     1      12.569  11.005  15.795  1.00  0.00     0.042 A 
HETATM   13  C10 UNL     1      11.817  12.066  15.276  1.00  0.00     0.067 A 
HETATM   14  C11 UNL     1      11.633  11.824  13.936  1.00  0.00     0.183 A 
HETATM   15  O5  UNL     1      12.222  10.709  13.654  1.00  0.00    -0.288 OA
BRANCH  14  16
HETATM   16  O4  UNL     1      10.944  12.602  12.993  1.00  0.00    -0.341 OA
ATOM     17  H4  UNL     1      11.040  12.609  12.047  1.00  0.00     0.220 HD
ENDBRANCH  14  16
ENDBRANCH   7  11
BRANCH   4  18
HETATM   18  O3  UNL     1      14.218   5.206  14.169  1.00  0.00    -0.370 OA
ATOM     19  H3  UNL     1      13.653   5.556  14.848  1.00  0.00     0.212 HD
ENDBRANCH   4  18
BRANCH   9  20
HETATM   20  C14 UNL     1      16.619   8.999  11.126  1.00  0.00     0.061 C 
HETATM   21  N1  UNL     1      15.705   9.223  10.286  1.00  0.00    -0.397 N 
ATOM     22  H1  UNL     1      14.769   9.393  10.654  1.00  0.00     0.159 HD
BRANCH  21  23
HETATM   23  C15 UNL     1      15.859   9.261   8.880  1.00  0.00     0.080 A 
HETATM   24  C16 UNL     1      16.987   8.464   8.314  1.00  0.00     0.027 A 
HETATM   25  C17 UNL     1      16.967   9.992   8.226  1.00  0.00     0.027 A 
ENDBRANCH  21  23
ENDBRANCH   9  20
BRANCH   1  26
HETATM   26  C1  UNL     1      18.526   6.593  11.992  1.00  0.00     0.200 C 
BRANCH  26  27
HETATM   27  O1  UNL     1      18.689   6.306  10.618  1.00  0.00    -0.397 OA
ATOM     28  H1  UNL     1      19.250   6.963  10.223  1.00  0.00     0.209 HD
ENDBRANCH  26  27
ENDBRANCH   1  26
TORSDOF 7
ENDMDL
MODEL 5
REMARK VINA RESULT: -8.048897043      3.347      5.745
REMARK  7 active torsions:
REMARK  status: ('A' for Active; 'I' for Inactive)
REMARK    1  A    between atoms: O1_1  and  C1_3 
REMARK    2  A    between atoms: C1_3  and  C2_4 
REMARK    3  A    between atoms: C4_7  and  O3_8 
REMARK    4  A    between atoms: C7_12  and  C8_13 
REMARK    5  A    between atoms: C11_16  and  O4_17 
REMARK    6  A    between atoms: C13_21  and  C14_22 
REMARK    7  A    between atoms: N1_23  and  C15_25 
ROOT
HETATM    1  C2  UNL     1      16.016   7.852  11.206  1.00  0.00    -0.029 C 
HETATM    2  C3  UNL     1      17.108   8.587  11.291  1.00  0.00     0.143 C 
HETATM    3  O2  UNL     1      17.136   9.804  11.974  1.00  0.00    -0.332 OA
HETATM    4  C4  UNL     1      15.951  10.506  12.146  1.00  0.00     0.271 C 
HETATM    5  C5  UNL     1      14.689   9.751  12.130  1.00  0.00     0.079 C 
HETATM    6  C6  UNL     1      14.001   9.882  13.443  1.00  0.00    -0.067 C 
HETATM    7  C7  UNL     1      13.310  10.906  13.890  1.00  0.00     0.040 C 
HETATM    8  C12 UNL     1      14.217   8.635  14.200  1.00  0.00     0.045 C 
HETATM    9  C13 UNL     1      14.452   7.628  13.126  1.00  0.00     0.037 C 
HETATM   10  C18 UNL     1      14.771   8.294  11.837  1.00  0.00     0.040 C 
ENDROOT
BRANCH   7  11
HETATM   11  C8  UNL     1      12.657  10.996  15.172  1.00  0.00     0.078 A 
HETATM   12  C9  UNL     1      11.671  11.886  15.527  1.00  0.00     0.042 A 
HETATM   13  C10 UNL     1      11.377  11.569  16.859  1.00  0.00     0.067 A 
HETATM   14  C11 UNL     1      12.191  10.524  17.224  1.00  0.00     0.183 A 
HETATM   15  O5  UNL     1      12.923  10.223  16.203  1.00  0.00    -0.288 OA
BRANCH  14  16
HETATM   16  O4  UNL     1      12.264   9.862  18.459  1.00  0.00    -0.341 OA
ATOM     17  H4  UNL     1      12.151   8.936  18.641  1.00  0.00     0.220 HD
ENDBRANCH  14  16
ENDBRANCH   7  11
BRANCH   4  18
HETATM   18  O3  UNL     1      15.955  11.541  11.182  1.00  0.00    -0.370 OA
ATOM     19  H3  UNL     1      15.064  11.867  11.133  1.00  0.00     0.212 HD
ENDBRANCH   4  18
BRANCH   9  20
HETATM   20  C14 UNL     1      15.511   6.712  13.611  1.00  0.00     0.061 C 
HETATM   21  N1  UNL     1      16.200   6.961  14.638  1.00  0.00    -0.397 N 
ATOM     22  H1  UNL     1      15.997   7.830  15.132  1.00  0.00     0.159 HD
BRANCH  21  23
HETATM   23  C15 UNL     1      17.227   6.146  15.169  1.00  0.00     0.080 A 
HETATM   24  C16 UNL     1      17.162   5.866  16.633  1.00  0.00     0.027 A 
HETATM   25  C17 UNL     1      18.302   6.690  16.029  1.00  0.00     0.027 A 
ENDBRANCH  21  23
ENDBRANCH   9  20
BRANCH   1  26
HETATM   26  C1  UNL     1      16.045   6.570  10.469  1.00  0.00     0.200 C 
BRANCH  26  27
HETATM   27  O1  UNL     1      15.466   6.750   9.192  1.00  0.00    -0.397 OA
ATOM     28  H1  UNL     1      14.705   7.314   9.268  1.00  0.00     0.209 HD
ENDBRANCH  26  27
ENDBRANCH   1  26
TORSDOF 7
ENDMDL
