MODEL 1
REMARK VINA RESULT: -7.551845725      0.000      0.000
REMARK  5 active torsions:
REMARK  status: ('A' for Active; 'I' for Inactive)
REMARK    1  A    between atoms: C1_4  and  C2_6 
REMARK    2  A    between atoms: C3_11  and  N5_12 
REMARK    3  A    between atoms: N6_15  and  C4_16 
REMARK    4  A    between atoms: C5_22  and  N9_23 
REMARK       I    between atoms: N9_23  and  C6_25 
REMARK       I    between atoms: C6_25  and  N10_26 
REMARK       I    between atoms: C6_25  and  N11_30 
REMARK    5  A    between atoms: N11_30  and  N12_31 
ROOT
HETATM    1  C4  UNL     1      11.672  26.259  49.738  1.00  0.00     0.198 A 
HETATM    2  N7  UNL     1      10.780  26.380  50.766  1.00  0.00    -0.221 N 
ATOM      3  H7  UNL     1       9.877  25.905  50.801  1.00  0.00     0.198 HD
HETATM    4  O1  UNL     1      11.215  27.158  51.676  1.00  0.00    -0.153 OA
HETATM    5  N8  UNL     1      12.385  27.582  51.308  1.00  0.00    -0.222 N 
ATOM      6  H8  UNL     1      12.964  28.222  51.851  1.00  0.00     0.198 HD
HETATM    7  C5  UNL     1      12.733  27.066  50.117  1.00  0.00     0.173 A 
ENDROOT
BRANCH   1   8
HETATM    8  N6  UNL     1      11.560  25.499  48.559  1.00  0.00    -0.106 N 
HETATM    9  C2  UNL     1      11.512  24.155  48.492  1.00  0.00     0.186 A 
HETATM   10  N3  UNL     1      11.403  23.779  47.199  1.00  0.00    -0.267 N 
HETATM   11  N4  UNL     1      11.382  24.866  46.460  1.00  0.00    -0.130 N 
ATOM     12  H3  UNL     1      11.347  22.821  46.856  1.00  0.00     0.189 HD
HETATM   13  C3  UNL     1      11.478  25.931  47.299  1.00  0.00     0.700 A 
ATOM     14  H4  UNL     1      11.308  24.903  45.443  1.00  0.00     0.205 HD
BRANCH   9  15
HETATM   15  C1  UNL     1      11.565  23.200  49.596  1.00  0.00     0.157 C 
HETATM   16  N1  UNL     1      12.705  22.891  50.095  1.00  0.00    -0.385 N 
ATOM     17  H12 UNL     1      12.742  22.224  50.866  1.00  0.00     0.157 HD
ATOM     18  H11 UNL     1      13.532  23.332  49.694  1.00  0.00     0.157 HD
HETATM   19  N2  UNL     1      10.413  22.587  50.153  1.00  0.00    -0.079 NA
ENDBRANCH   9  15
BRANCH  13  20
HETATM   20  N5  UNL     1      11.494  27.183  46.972  1.00  0.00    -0.233 N 
ATOM     21  H52 UNL     1      11.596  27.512  46.013  1.00  0.00     0.174 HD
ATOM     22  H51 UNL     1      11.409  27.983  47.599  1.00  0.00     0.174 HD
ENDBRANCH  13  20
ENDBRANCH   1   8
BRANCH   7  23
HETATM   23  N9  UNL     1      13.811  27.253  49.436  1.00  0.00    -0.330 N 
HETATM   24  C6  UNL     1      14.941  26.381  49.530  1.00  0.00     0.397 C 
HETATM   25  N10 UNL     1      14.953  25.334  48.536  1.00  0.00    -0.042 N 
HETATM   26  N11 UNL     1      16.177  27.154  49.321  1.00  0.00    -0.093 NA
ATOM     27 3H10 UNL     1      14.084  24.800  48.566  1.00  0.00     0.278 HD
ATOM     28 2H10 UNL     1      14.880  25.728  47.599  1.00  0.00     0.278 HD
ATOM     29 1H10 UNL     1      15.759  24.713  48.604  1.00  0.00     0.278 HD
ATOM     30  H9  UNL     1      13.860  28.052  48.805  1.00  0.00     0.164 HD
BRANCH  26  31
HETATM   31  N12 UNL     1      16.171  28.125  50.355  1.00  0.00    -0.345 N 
ATOM     32 2H12 UNL     1      16.165  27.951  51.360  1.00  0.00     0.172 HD
ATOM     33 1H12 UNL     1      16.174  29.021  49.866  1.00  0.00     0.172 HD
ENDBRANCH  26  31
ENDBRANCH   7  23
TORSDOF 5
ENDMDL
MODEL 2
REMARK VINA RESULT: -6.020820936      0.594      1.289
REMARK  5 active torsions:
REMARK  status: ('A' for Active; 'I' for Inactive)
REMARK    1  A    between atoms: C1_4  and  C2_6 
REMARK    2  A    between atoms: C3_11  and  N5_12 
REMARK    3  A    between atoms: N6_15  and  C4_16 
REMARK    4  A    between atoms: C5_22  and  N9_23 
REMARK       I    between atoms: N9_23  and  C6_25 
REMARK       I    between atoms: C6_25  and  N10_26 
REMARK       I    between atoms: C6_25  and  N11_30 
REMARK    5  A    between atoms: N11_30  and  N12_31 
ROOT
HETATM    1  C4  UNL     1      11.691  26.006  49.815  1.00  0.00     0.198 A 
HETATM    2  N7  UNL     1      10.663  26.557  50.527  1.00  0.00    -0.221 N 
ATOM      3  H7  UNL     1       9.682  26.501  50.254  1.00  0.00     0.198 HD
HETATM    4  O1  UNL     1      11.083  27.151  51.573  1.00  0.00    -0.153 OA
HETATM    5  N8  UNL     1      12.374  27.027  51.608  1.00  0.00    -0.222 N 
ATOM      6  H8  UNL     1      12.971  27.409  52.341  1.00  0.00     0.198 HD
HETATM    7  C5  UNL     1      12.821  26.328  50.550  1.00  0.00     0.173 A 
ENDROOT
BRANCH   1   8
HETATM    8  N6  UNL     1      11.638  25.275  48.613  1.00  0.00    -0.106 N 
HETATM    9  C2  UNL     1      11.586  23.934  48.510  1.00  0.00     0.186 A 
HETATM   10  N3  UNL     1      11.544  23.592  47.203  1.00  0.00    -0.267 N 
HETATM   11  N4  UNL     1      11.570  24.697  46.492  1.00  0.00    -0.130 N 
ATOM     12  H3  UNL     1      11.500  22.643  46.833  1.00  0.00     0.189 HD
HETATM   13  C3  UNL     1      11.627  25.740  47.362  1.00  0.00     0.700 A 
ATOM     14  H4  UNL     1      11.550  24.760  45.474  1.00  0.00     0.205 HD
BRANCH   9  15
HETATM   15  C1  UNL     1      11.573  22.952  49.590  1.00  0.00     0.157 C 
HETATM   16  N1  UNL     1      12.688  22.576  50.099  1.00  0.00    -0.385 N 
ATOM     17  H12 UNL     1      12.679  21.889  50.854  1.00  0.00     0.157 HD
ATOM     18  H11 UNL     1      13.542  22.985  49.723  1.00  0.00     0.157 HD
HETATM   19  N2  UNL     1      10.383  22.383  50.113  1.00  0.00    -0.079 NA
ENDBRANCH   9  15
BRANCH  13  20
HETATM   20  N5  UNL     1      11.669  26.999  47.068  1.00  0.00    -0.233 N 
ATOM     21  H52 UNL     1      10.845  27.545  46.817  1.00  0.00     0.174 HD
ATOM     22  H51 UNL     1      12.493  27.600  47.049  1.00  0.00     0.174 HD
ENDBRANCH  13  20
ENDBRANCH   1   8
BRANCH   7  23
HETATM   23  N9  UNL     1      14.030  26.004  50.244  1.00  0.00    -0.330 N 
HETATM   24  C6  UNL     1      14.884  26.857  49.477  1.00  0.00     0.397 C 
HETATM   25  N10 UNL     1      15.725  27.713  50.280  1.00  0.00    -0.042 N 
HETATM   26  N11 UNL     1      15.798  26.037  48.665  1.00  0.00    -0.093 NA
ATOM     27 3H10 UNL     1      15.163  28.260  50.933  1.00  0.00     0.278 HD
ATOM     28 2H10 UNL     1      16.269  27.163  50.944  1.00  0.00     0.278 HD
ATOM     29 1H10 UNL     1      16.334  28.322  49.733  1.00  0.00     0.278 HD
ATOM     30  H9  UNL     1      14.391  25.106  50.562  1.00  0.00     0.164 HD
BRANCH  26  31
HETATM   31  N12 UNL     1      14.944  25.263  47.838  1.00  0.00    -0.345 N 
ATOM     32 2H12 UNL     1      13.925  25.264  47.837  1.00  0.00     0.172 HD
ATOM     33 1H12 UNL     1      15.578  24.715  47.255  1.00  0.00     0.172 HD
ENDBRANCH  26  31
ENDBRANCH   7  23
TORSDOF 5
ENDMDL
MODEL 3
REMARK VINA RESULT: -5.900240310      1.746      2.846
REMARK  5 active torsions:
REMARK  status: ('A' for Active; 'I' for Inactive)
REMARK    1  A    between atoms: C1_4  and  C2_6 
REMARK    2  A    between atoms: C3_11  and  N5_12 
REMARK    3  A    between atoms: N6_15  and  C4_16 
REMARK    4  A    between atoms: C5_22  and  N9_23 
REMARK       I    between atoms: N9_23  and  C6_25 
REMARK       I    between atoms: C6_25  and  N10_26 
REMARK       I    between atoms: C6_25  and  N11_30 
REMARK    5  A    between atoms: N11_30  and  N12_31 
ROOT
HETATM    1  C4  UNL     1      12.434  25.779  48.182  1.00  0.00     0.198 A 
HETATM    2  N7  UNL     1      11.676  26.277  47.161  1.00  0.00    -0.221 N 
ATOM      3  H7  UNL     1      11.165  25.701  46.492  1.00  0.00     0.198 HD
HETATM    4  O1  UNL     1      11.687  27.551  47.147  1.00  0.00    -0.153 OA
HETATM    5  N8  UNL     1      12.431  27.952  48.131  1.00  0.00    -0.222 N 
ATOM      6  H8  UNL     1      12.615  28.930  48.354  1.00  0.00     0.198 HD
HETATM    7  C5  UNL     1      12.928  26.908  48.816  1.00  0.00     0.173 A 
ENDROOT
BRANCH   1   8
HETATM    8  N6  UNL     1      12.672  24.436  48.529  1.00  0.00    -0.106 N 
HETATM    9  C2  UNL     1      11.816  23.629  49.183  1.00  0.00     0.186 A 
HETATM   10  N3  UNL     1      12.384  22.413  49.339  1.00  0.00    -0.267 N 
HETATM   11  N4  UNL     1      13.579  22.450  48.793  1.00  0.00    -0.130 N 
ATOM     12  H3  UNL     1      11.960  21.608  49.799  1.00  0.00     0.189 HD
HETATM   13  C3  UNL     1      13.760  23.699  48.290  1.00  0.00     0.700 A 
ATOM     14  H4  UNL     1      14.248  21.680  48.753  1.00  0.00     0.205 HD
BRANCH   9  15
HETATM   15  C1  UNL     1      10.478  23.950  49.672  1.00  0.00     0.157 C 
HETATM   16  N1  UNL     1       9.466  23.380  49.131  1.00  0.00    -0.385 N 
ATOM     17  H12 UNL     1       8.531  23.605  49.473  1.00  0.00     0.157 HD
ATOM     18  H11 UNL     1       9.643  22.720  48.374  1.00  0.00     0.157 HD
HETATM   19  N2  UNL     1      10.232  24.869  50.726  1.00  0.00    -0.079 NA
ENDBRANCH   9  15
BRANCH  13  20
HETATM   20  N5  UNL     1      14.804  24.149  47.673  1.00  0.00    -0.233 N 
ATOM     21  H52 UNL     1      15.560  24.649  48.140  1.00  0.00     0.174 HD
ATOM     22  H51 UNL     1      15.013  24.069  46.678  1.00  0.00     0.174 HD
ENDBRANCH  13  20
ENDBRANCH   1   8
BRANCH   7  23
HETATM   23  N9  UNL     1      13.701  26.909  49.847  1.00  0.00    -0.330 N 
HETATM   24  C6  UNL     1      15.116  27.099  49.747  1.00  0.00     0.397 C 
HETATM   25  N10 UNL     1      15.532  28.472  49.913  1.00  0.00    -0.042 N 
HETATM   26  N11 UNL     1      15.791  26.339  50.813  1.00  0.00    -0.093 NA
ATOM     27 3H10 UNL     1      15.040  29.078  49.256  1.00  0.00     0.278 HD
ATOM     28 2H10 UNL     1      15.178  28.850  50.791  1.00  0.00     0.278 HD
ATOM     29 1H10 UNL     1      16.540  28.607  49.842  1.00  0.00     0.278 HD
ATOM     30  H9  UNL     1      13.289  26.769  50.769  1.00  0.00     0.164 HD
BRANCH  26  31
HETATM   31  N12 UNL     1      15.422  24.989  50.578  1.00  0.00    -0.345 N 
ATOM     32 2H12 UNL     1      14.777  24.644  49.868  1.00  0.00     0.172 HD
ATOM     33 1H12 UNL     1      15.943  24.456  51.275  1.00  0.00     0.172 HD
ENDBRANCH  26  31
ENDBRANCH   7  23
TORSDOF 5
ENDMDL
MODEL 4
REMARK VINA RESULT: -5.891855753      1.674      4.908
REMARK  5 active torsions:
REMARK  status: ('A' for Active; 'I' for Inactive)
REMARK    1  A    between atoms: C1_4  and  C2_6 
REMARK    2  A    between atoms: C3_11  and  N5_12 
REMARK    3  A    between atoms: N6_15  and  C4_16 
REMARK    4  A    between atoms: C5_22  and  N9_23 
REMARK       I    between atoms: N9_23  and  C6_25 
REMARK       I    between atoms: C6_25  and  N10_26 
REMARK       I    between atoms: C6_25  and  N11_30 
REMARK    5  A    between atoms: N11_30  and  N12_31 
ROOT
HETATM    1  C4  UNL     1      12.816  26.335  48.681  1.00  0.00     0.198 A 
HETATM    2  N7  UNL     1      12.213  27.392  48.061  1.00  0.00    -0.221 N 
ATOM      3  H7  UNL     1      12.699  28.240  47.769  1.00  0.00     0.198 HD
HETATM    4  O1  UNL     1      10.966  27.188  47.892  1.00  0.00    -0.153 OA
HETATM    5  N8  UNL     1      10.687  26.018  48.378  1.00  0.00    -0.222 N 
ATOM      6  H8  UNL     1       9.758  25.599  48.376  1.00  0.00     0.198 HD
HETATM    7  C5  UNL     1      11.786  25.431  48.883  1.00  0.00     0.173 A 
ENDROOT
BRANCH   1   8
HETATM    8  N6  UNL     1      14.168  26.179  49.040  1.00  0.00    -0.106 N 
HETATM    9  C2  UNL     1      14.821  26.894  49.974  1.00  0.00     0.186 A 
HETATM   10  N3  UNL     1      16.101  26.467  50.046  1.00  0.00    -0.267 N 
HETATM   11  N4  UNL     1      16.255  25.498  49.171  1.00  0.00    -0.130 N 
ATOM     12  H3  UNL     1      16.821  26.832  50.669  1.00  0.00     0.189 HD
HETATM   13  C3  UNL     1      15.061  25.317  48.548  1.00  0.00     0.700 A 
ATOM     14  H4  UNL     1      17.114  24.976  48.993  1.00  0.00     0.205 HD
BRANCH   9  15
HETATM   15  C1  UNL     1      14.294  27.970  50.810  1.00  0.00     0.157 C 
HETATM   16  N1  UNL     1      15.117  28.759  51.397  1.00  0.00    -0.385 N 
ATOM     17  H12 UNL     1      14.749  29.510  51.980  1.00  0.00     0.157 HD
ATOM     18  H11 UNL     1      16.113  28.598  51.252  1.00  0.00     0.157 HD
HETATM   19  N2  UNL     1      12.908  28.194  51.012  1.00  0.00    -0.079 NA
ENDBRANCH   9  15
BRANCH  13  20
HETATM   20  N5  UNL     1      14.788  24.459  47.619  1.00  0.00    -0.233 N 
ATOM     21  H52 UNL     1      15.475  23.816  47.229  1.00  0.00     0.174 HD
ATOM     22  H51 UNL     1      13.886  24.309  47.167  1.00  0.00     0.174 HD
ENDBRANCH  13  20
ENDBRANCH   1   8
BRANCH   7  23
HETATM   23  N9  UNL     1      11.903  24.277  49.445  1.00  0.00    -0.330 N 
HETATM   24  C6  UNL     1      11.649  23.053  48.748  1.00  0.00     0.397 C 
HETATM   25  N10 UNL     1      12.829  22.461  48.165  1.00  0.00    -0.042 N 
HETATM   26  N11 UNL     1      11.115  22.054  49.689  1.00  0.00    -0.093 NA
ATOM     27 3H10 UNL     1      13.304  23.129  47.557  1.00  0.00     0.278 HD
ATOM     28 2H10 UNL     1      13.552  22.329  48.871  1.00  0.00     0.278 HD
ATOM     29 1H10 UNL     1      12.648  21.589  47.668  1.00  0.00     0.278 HD
ATOM     30  H9  UNL     1      12.187  24.234  50.423  1.00  0.00     0.164 HD
BRANCH  26  31
HETATM   31  N12 UNL     1       9.921  22.634  50.188  1.00  0.00    -0.345 N 
ATOM     32 2H12 UNL     1       9.843  23.442  50.805  1.00  0.00     0.172 HD
ATOM     33 1H12 UNL     1       9.173  22.064  49.793  1.00  0.00     0.172 HD
ENDBRANCH  26  31
ENDBRANCH   7  23
TORSDOF 5
ENDMDL
MODEL 5
REMARK VINA RESULT: -5.759063861      1.777      4.752
REMARK  5 active torsions:
REMARK  status: ('A' for Active; 'I' for Inactive)
REMARK    1  A    between atoms: C1_4  and  C2_6 
REMARK    2  A    between atoms: C3_11  and  N5_12 
REMARK    3  A    between atoms: N6_15  and  C4_16 
REMARK    4  A    between atoms: C5_22  and  N9_23 
REMARK       I    between atoms: N9_23  and  C6_25 
REMARK       I    between atoms: C6_25  and  N10_26 
REMARK       I    between atoms: C6_25  and  N11_30 
REMARK    5  A    between atoms: N11_30  and  N12_31 
ROOT
HETATM    1  C4  UNL     1      12.512  26.069  47.897  1.00  0.00     0.198 A 
HETATM    2  N7  UNL     1      12.266  27.198  47.167  1.00  0.00    -0.221 N 
ATOM      3  H7  UNL     1      12.772  28.076  47.279  1.00  0.00     0.198 HD
HETATM    4  O1  UNL     1      11.325  27.016  46.327  1.00  0.00    -0.153 OA
HETATM    5  N8  UNL     1      10.911  25.793  46.454  1.00  0.00    -0.222 N 
ATOM      6  H8  UNL     1      10.160  25.378  45.902  1.00  0.00     0.198 HD
HETATM    7  C5  UNL     1      11.602  25.146  47.408  1.00  0.00     0.173 A 
ENDROOT
BRANCH   1   8
HETATM    8  N6  UNL     1      13.465  25.869  48.913  1.00  0.00    -0.106 N 
HETATM    9  C2  UNL     1      13.362  26.302  50.184  1.00  0.00     0.186 A 
HETATM   10  N3  UNL     1      14.463  25.924  50.871  1.00  0.00    -0.267 N 
HETATM   11  N4  UNL     1      15.248  25.263  50.050  1.00  0.00    -0.130 N 
ATOM     12  H3  UNL     1      14.651  26.117  51.854  1.00  0.00     0.189 HD
HETATM   13  C3  UNL     1      14.633  25.227  48.838  1.00  0.00     0.700 A 
ATOM     14  H4  UNL     1      16.154  24.853  50.280  1.00  0.00     0.205 HD
BRANCH   9  15
HETATM   15  C1  UNL     1      12.270  27.060  50.786  1.00  0.00     0.157 C 
HETATM   16  N1  UNL     1      11.154  26.470  51.009  1.00  0.00    -0.385 N 
ATOM     17  H12 UNL     1      10.390  27.000  51.430  1.00  0.00     0.157 HD
ATOM     18  H11 UNL     1      11.079  25.486  50.753  1.00  0.00     0.157 HD
HETATM   19  N2  UNL     1      12.374  28.430  51.143  1.00  0.00    -0.079 NA
ENDBRANCH   9  15
BRANCH  13  20
HETATM   20  N5  UNL     1      15.074  24.672  47.756  1.00  0.00    -0.233 N 
ATOM     21  H52 UNL     1      14.490  24.489  46.940  1.00  0.00     0.174 HD
ATOM     22  H51 UNL     1      16.024  24.353  47.571  1.00  0.00     0.174 HD
ENDBRANCH  13  20
ENDBRANCH   1   8
BRANCH   7  23
HETATM   23  N9  UNL     1      11.478  23.930  47.815  1.00  0.00    -0.330 N 
HETATM   24  C6  UNL     1      10.822  23.592  49.041  1.00  0.00     0.397 C 
HETATM   25  N10 UNL     1       9.422  23.276  48.884  1.00  0.00    -0.042 N 
HETATM   26  N11 UNL     1      11.447  22.390  49.618  1.00  0.00    -0.093 NA
ATOM     27 3H10 UNL     1       8.933  24.037  48.412  1.00  0.00     0.278 HD
ATOM     28 2H10 UNL     1       9.296  22.537  48.193  1.00  0.00     0.278 HD
ATOM     29 1H10 UNL     1       8.955  23.035  49.758  1.00  0.00     0.278 HD
ATOM     30  H9  UNL     1      11.862  23.180  47.242  1.00  0.00     0.164 HD
BRANCH  26  31
HETATM   31  N12 UNL     1      12.802  22.757  49.828  1.00  0.00    -0.345 N 
ATOM     32 2H12 UNL     1      13.333  23.459  49.314  1.00  0.00     0.172 HD
ATOM     33 1H12 UNL     1      13.112  22.164  50.598  1.00  0.00     0.172 HD
ENDBRANCH  26  31
ENDBRANCH   7  23
TORSDOF 5
ENDMDL
