MODEL 1
REMARK VINA RESULT: -9.144137123      0.000      0.000
REMARK  5 active torsions:
REMARK  status: ('A' for Active; 'I' for Inactive)
REMARK    1  A    between atoms: N1_1  and  C1_4 
REMARK    2  A    between atoms: C2_7  and  C3_8 
REMARK    3  A    between atoms: C4_13  and  N5_14 
REMARK    4  A    between atoms: N5_14  and  N6_16 
REMARK    5  A    between atoms: N6_16  and  C5_18 
ROOT
HETATM    1  C1  UNL     1      -8.588  24.471  -8.764  1.00  0.00     0.692 A 
HETATM    2  N2  UNL     1      -9.687  25.081  -9.215  1.00  0.00    -0.171 N 
ATOM      3  H2  UNL     1      -9.672  26.095  -9.322  1.00  0.00     0.186 HD
HETATM    4  C2  UNL     1     -10.810  24.424  -9.534  1.00  0.00     0.201 A 
HETATM    5  N4  UNL     1     -10.835  23.091  -9.395  1.00  0.00    -0.169 N 
ATOM      6  H4  UNL     1     -11.679  22.569  -9.631  1.00  0.00     0.186 HD
HETATM    7  C4  UNL     1      -9.743  22.441  -8.941  1.00  0.00     0.713 A 
HETATM    8  N10 UNL     1      -8.620  23.135  -8.626  1.00  0.00    -0.021 N 
ATOM      9  H10 UNL     1      -7.796  22.640  -8.283  1.00  0.00     0.203 HD
ENDROOT
BRANCH   7  10
HETATM   10  N5  UNL     1      -9.717  21.047  -8.760  1.00  0.00    -0.117 N 
ATOM     11  H5  UNL     1     -10.587  20.518  -8.818  1.00  0.00     0.206 HD
BRANCH  10  12
HETATM   12  N6  UNL     1      -8.529  20.378  -8.504  1.00  0.00    -0.117 N 
ATOM     13  H6  UNL     1      -8.320  20.029  -7.568  1.00  0.00     0.206 HD
BRANCH  12  14
HETATM   14  C5  UNL     1      -7.604  20.185  -9.580  1.00  0.00     0.705 A 
HETATM   15  N7  UNL     1      -8.085  19.782 -10.781  1.00  0.00    -0.139 N 
HETATM   16  C6  UNL     1      -7.241  19.597 -11.811  1.00  0.00     0.342 A 
ATOM     17  H7  UNL     1      -9.084  19.618 -10.903  1.00  0.00     0.189 HD
HETATM   18  O2  UNL     1      -7.691  19.219 -12.948  1.00  0.00    -0.246 OA
HETATM   19  N8  UNL     1      -5.916  19.798 -11.701  1.00  0.00    -0.260 N 
HETATM   20  C7  UNL     1      -5.437  20.199 -10.504  1.00  0.00     0.342 A 
ATOM     21  H8  UNL     1      -5.293  19.652 -12.494  1.00  0.00     0.175 HD
HETATM   22  O3  UNL     1      -4.194  20.380 -10.423  1.00  0.00    -0.246 OA
HETATM   23  N9  UNL     1      -6.283  20.381  -9.483  1.00  0.00    -0.139 N 
ATOM     24  H9  UNL     1      -5.903  20.684  -8.587  1.00  0.00     0.189 HD
ENDBRANCH  12  14
ENDBRANCH  10  12
ENDBRANCH   7  10
BRANCH   4  25
HETATM   25  C3  UNL     1     -11.989  25.127 -10.014  1.00  0.00     0.299 C 
HETATM   26  N3  UNL     1     -11.983  25.758 -11.284  1.00  0.00    -0.054 NA
HETATM   27  O1  UNL     1     -13.007  25.161  -9.281  1.00  0.00    -0.268 OA
ENDBRANCH   4  25
BRANCH   1  28
HETATM   28  N1  UNL     1      -7.536  25.167  -8.475  1.00  0.00    -0.234 N 
ATOM     29  H12 UNL     1      -7.584  26.169  -8.286  1.00  0.00     0.174 HD
ATOM     30  H11 UNL     1      -6.623  24.715  -8.431  1.00  0.00     0.174 HD
ENDBRANCH   1  28
TORSDOF 5
ENDMDL
MODEL 2
REMARK VINA RESULT: -9.124029509      0.054      1.748
REMARK  5 active torsions:
REMARK  status: ('A' for Active; 'I' for Inactive)
REMARK    1  A    between atoms: N1_1  and  C1_4 
REMARK    2  A    between atoms: C2_7  and  C3_8 
REMARK    3  A    between atoms: C4_13  and  N5_14 
REMARK    4  A    between atoms: N5_14  and  N6_16 
REMARK    5  A    between atoms: N6_16  and  C5_18 
ROOT
HETATM    1  C1  UNL     1      -8.588  24.486  -8.765  1.00  0.00     0.692 A 
HETATM    2  N2  UNL     1      -9.688  25.092  -9.220  1.00  0.00    -0.171 N 
ATOM      3  H2  UNL     1      -9.674  26.106  -9.331  1.00  0.00     0.186 HD
HETATM    4  C2  UNL     1     -10.810  24.431  -9.535  1.00  0.00     0.201 A 
HETATM    5  N4  UNL     1     -10.833  23.100  -9.389  1.00  0.00    -0.169 N 
ATOM      6  H4  UNL     1     -11.676  22.575  -9.623  1.00  0.00     0.186 HD
HETATM    7  C4  UNL     1      -9.739  22.454  -8.932  1.00  0.00     0.713 A 
HETATM    8  N10 UNL     1      -8.617  23.151  -8.621  1.00  0.00    -0.021 N 
ATOM      9  H10 UNL     1      -7.793  22.659  -8.275  1.00  0.00     0.203 HD
ENDROOT
BRANCH   7  10
HETATM   10  N5  UNL     1      -9.711  21.060  -8.744  1.00  0.00    -0.117 N 
ATOM     11  H5  UNL     1     -10.585  20.534  -8.767  1.00  0.00     0.206 HD
BRANCH  10  12
HETATM   12  N6  UNL     1      -8.517  20.389  -8.527  1.00  0.00    -0.117 N 
ATOM     13  H6  UNL     1      -8.269  20.057  -7.595  1.00  0.00     0.206 HD
BRANCH  12  14
HETATM   14  C5  UNL     1      -7.640  20.171  -9.639  1.00  0.00     0.705 A 
HETATM   15  N7  UNL     1      -6.315  20.403  -9.471  1.00  0.00    -0.139 N 
HETATM   16  C6  UNL     1      -5.468  20.203 -10.494  1.00  0.00     0.342 A 
ATOM     17  H7  UNL     1      -5.963  20.728  -8.571  1.00  0.00     0.189 HD
HETATM   18  O2  UNL     1      -4.216  20.417 -10.341  1.00  0.00    -0.246 OA
HETATM   19  N8  UNL     1      -5.883  19.776 -11.701  1.00  0.00    -0.260 N 
HETATM   20  C7  UNL     1      -7.202  19.546 -11.867  1.00  0.00     0.342 A 
ATOM     21  H8  UNL     1      -5.223  19.631 -12.464  1.00  0.00     0.175 HD
HETATM   22  O3  UNL     1      -7.570  19.149 -13.003  1.00  0.00    -0.246 OA
HETATM   23  N9  UNL     1      -8.041  19.747 -10.843  1.00  0.00    -0.139 N 
ATOM     24  H9  UNL     1      -9.035  19.568 -10.988  1.00  0.00     0.189 HD
ENDBRANCH  12  14
ENDBRANCH  10  12
ENDBRANCH   7  10
BRANCH   4  25
HETATM   25  C3  UNL     1     -11.990  25.130 -10.020  1.00  0.00     0.299 C 
HETATM   26  N3  UNL     1     -11.983  25.758 -11.290  1.00  0.00    -0.054 NA
HETATM   27  O1  UNL     1     -13.009  25.163  -9.289  1.00  0.00    -0.268 OA
ENDBRANCH   4  25
BRANCH   1  28
HETATM   28  N1  UNL     1      -7.538  25.186  -8.480  1.00  0.00    -0.234 N 
ATOM     29  H12 UNL     1      -7.470  25.738  -7.625  1.00  0.00     0.174 HD
ATOM     30  H11 UNL     1      -6.743  25.195  -9.120  1.00  0.00     0.174 HD
ENDBRANCH   1  28
TORSDOF 5
ENDMDL
MODEL 3
REMARK VINA RESULT: -9.045530590      3.712      6.389
REMARK  5 active torsions:
REMARK  status: ('A' for Active; 'I' for Inactive)
REMARK    1  A    between atoms: N1_1  and  C1_4 
REMARK    2  A    between atoms: C2_7  and  C3_8 
REMARK    3  A    between atoms: C4_13  and  N5_14 
REMARK    4  A    between atoms: N5_14  and  N6_16 
REMARK    5  A    between atoms: N6_16  and  C5_18 
ROOT
HETATM    1  C1  UNL     1      -8.731  20.993  -9.065  1.00  0.00     0.692 A 
HETATM    2  N2  UNL     1      -7.405  21.069  -8.916  1.00  0.00    -0.171 N 
ATOM      3  H2  UNL     1      -7.036  21.490  -8.064  1.00  0.00     0.186 HD
HETATM    4  C2  UNL     1      -6.539  20.619  -9.832  1.00  0.00     0.201 A 
HETATM    5  N4  UNL     1      -7.020  20.065 -10.953  1.00  0.00    -0.169 N 
ATOM      6  H4  UNL     1      -6.379  19.715 -11.666  1.00  0.00     0.186 HD
HETATM    7  C4  UNL     1      -8.353  19.971 -11.139  1.00  0.00     0.713 A 
HETATM    8  N10 UNL     1      -9.207  20.437 -10.192  1.00  0.00    -0.021 N 
ATOM      9  H10 UNL     1     -10.214  20.364 -10.336  1.00  0.00     0.203 HD
ENDROOT
BRANCH   7  10
HETATM   10  N5  UNL     1      -8.915  19.415 -12.302  1.00  0.00    -0.117 N 
ATOM     11  H5  UNL     1      -8.467  18.609 -12.738  1.00  0.00     0.206 HD
BRANCH  10  12
HETATM   12  N6  UNL     1     -10.066  19.943 -12.868  1.00  0.00    -0.117 N 
ATOM     13  H6  UNL     1     -10.530  20.749 -12.447  1.00  0.00     0.206 HD
BRANCH  12  14
HETATM   14  C5  UNL     1     -10.590  19.335 -14.054  1.00  0.00     0.705 A 
HETATM   15  N7  UNL     1     -10.149  18.099 -14.395  1.00  0.00    -0.139 N 
HETATM   16  C6  UNL     1     -10.625  17.502 -15.500  1.00  0.00     0.342 A 
ATOM     17  H7  UNL     1      -9.458  17.625 -13.814  1.00  0.00     0.189 HD
HETATM   18  O2  UNL     1     -10.215  16.334 -15.825  1.00  0.00    -0.246 OA
HETATM   19  N8  UNL     1     -11.536  18.086 -16.299  1.00  0.00    -0.260 N 
HETATM   20  C7  UNL     1     -11.974  19.316 -15.960  1.00  0.00     0.342 A 
ATOM     21  H8  UNL     1     -11.885  17.615 -17.133  1.00  0.00     0.175 HD
HETATM   22  O3  UNL     1     -12.826  19.845 -16.721  1.00  0.00    -0.246 OA
HETATM   23  N9  UNL     1     -11.496  19.906 -14.857  1.00  0.00    -0.139 N 
ATOM     24  H9  UNL     1     -11.839  20.836 -14.617  1.00  0.00     0.189 HD
ENDBRANCH  12  14
ENDBRANCH  10  12
ENDBRANCH   7  10
BRANCH   4  25
HETATM   25  C3  UNL     1      -5.102  20.728  -9.634  1.00  0.00     0.299 C 
HETATM   26  N3  UNL     1      -4.202  20.167 -10.575  1.00  0.00    -0.054 NA
HETATM   27  O1  UNL     1      -4.681  21.328  -8.616  1.00  0.00    -0.268 OA
ENDBRANCH   4  25
BRANCH   1  28
HETATM   28  N1  UNL     1      -9.512  21.446  -8.139  1.00  0.00    -0.234 N 
ATOM     29  H12 UNL     1      -9.150  21.850  -7.275  1.00  0.00     0.174 HD
ATOM     30  H11 UNL     1     -10.524  21.407  -8.262  1.00  0.00     0.174 HD
ENDBRANCH   1  28
TORSDOF 5
ENDMDL
MODEL 4
REMARK VINA RESULT: -8.988600344      3.716      6.252
REMARK  5 active torsions:
REMARK  status: ('A' for Active; 'I' for Inactive)
REMARK    1  A    between atoms: N1_1  and  C1_4 
REMARK    2  A    between atoms: C2_7  and  C3_8 
REMARK    3  A    between atoms: C4_13  and  N5_14 
REMARK    4  A    between atoms: N5_14  and  N6_16 
REMARK    5  A    between atoms: N6_16  and  C5_18 
ROOT
HETATM    1  C1  UNL     1      -8.748  21.276  -9.141  1.00  0.00     0.692 A 
HETATM    2  N2  UNL     1      -7.423  21.301  -8.972  1.00  0.00    -0.171 N 
ATOM      3  H2  UNL     1      -7.046  21.790  -8.161  1.00  0.00     0.186 HD
HETATM    4  C2  UNL     1      -6.567  20.715  -9.819  1.00  0.00     0.201 A 
HETATM    5  N4  UNL     1      -7.058  20.072 -10.886  1.00  0.00    -0.169 N 
ATOM      6  H4  UNL     1      -6.425  19.618 -11.545  1.00  0.00     0.186 HD
HETATM    7  C4  UNL     1      -8.392  20.026 -11.089  1.00  0.00     0.713 A 
HETATM    8  N10 UNL     1      -9.235  20.629 -10.214  1.00  0.00    -0.021 N 
ATOM      9  H10 UNL     1     -10.242  20.593 -10.370  1.00  0.00     0.203 HD
ENDROOT
BRANCH   7  10
HETATM   10  N5  UNL     1      -8.963  19.380 -12.200  1.00  0.00    -0.117 N 
ATOM     11  H5  UNL     1      -8.567  18.497 -12.524  1.00  0.00     0.206 HD
BRANCH  10  12
HETATM   12  N6  UNL     1     -10.054  19.921 -12.863  1.00  0.00    -0.117 N 
ATOM     13  H6  UNL     1     -10.501  20.772 -12.521  1.00  0.00     0.206 HD
BRANCH  12  14
HETATM   14  C5  UNL     1     -10.541  19.261 -14.038  1.00  0.00     0.705 A 
HETATM   15  N7  UNL     1     -11.455  19.901 -14.806  1.00  0.00    -0.139 N 
HETATM   16  C6  UNL     1     -11.926  19.309 -15.917  1.00  0.00     0.342 A 
ATOM     17  H7  UNL     1     -11.785  20.829 -14.543  1.00  0.00     0.189 HD
HETATM   18  O2  UNL     1     -12.787  19.910 -16.648  1.00  0.00    -0.246 OA
HETATM   19  N8  UNL     1     -11.524  18.085 -16.306  1.00  0.00    -0.260 N 
HETATM   20  C7  UNL     1     -10.614  17.448 -15.540  1.00  0.00     0.342 A 
ATOM     21  H8  UNL     1     -11.894  17.653 -17.152  1.00  0.00     0.175 HD
HETATM   22  O3  UNL     1     -10.252  16.305 -15.922  1.00  0.00    -0.246 OA
HETATM   23  N9  UNL     1     -10.149  18.044 -14.436  1.00  0.00    -0.139 N 
ATOM     24  H9  UNL     1      -9.462  17.547 -13.869  1.00  0.00     0.189 HD
ENDBRANCH  12  14
ENDBRANCH  10  12
ENDBRANCH   7  10
BRANCH   4  25
HETATM   25  C3  UNL     1      -5.129  20.773  -9.603  1.00  0.00     0.299 C 
HETATM   26  N3  UNL     1      -4.237  20.201 -10.545  1.00  0.00    -0.054 NA
HETATM   27  O1  UNL     1      -4.700  21.339  -8.569  1.00  0.00    -0.268 OA
ENDBRANCH   4  25
BRANCH   1  28
HETATM   28  N1  UNL     1      -9.519  21.862  -8.283  1.00  0.00    -0.234 N 
ATOM     29  H12 UNL     1      -9.717  22.862  -8.327  1.00  0.00     0.174 HD
ATOM     30  H11 UNL     1      -9.950  21.321  -7.533  1.00  0.00     0.174 HD
ENDBRANCH   1  28
TORSDOF 5
ENDMDL
MODEL 5
REMARK VINA RESULT: -8.916734859      3.718      6.135
REMARK  5 active torsions:
REMARK  status: ('A' for Active; 'I' for Inactive)
REMARK    1  A    between atoms: N1_1  and  C1_4 
REMARK    2  A    between atoms: C2_7  and  C3_8 
REMARK    3  A    between atoms: C4_13  and  N5_14 
REMARK    4  A    between atoms: N5_14  and  N6_16 
REMARK    5  A    between atoms: N6_16  and  C5_18 
ROOT
HETATM    1  C1  UNL     1      -7.731  22.966 -10.264  1.00  0.00     0.692 A 
HETATM    2  N2  UNL     1      -6.667  22.235  -9.918  1.00  0.00    -0.171 N 
ATOM      3  H2  UNL     1      -5.942  22.673  -9.350  1.00  0.00     0.186 HD
HETATM    4  C2  UNL     1      -6.508  20.957 -10.282  1.00  0.00     0.201 A 
HETATM    5  N4  UNL     1      -7.458  20.379 -11.029  1.00  0.00    -0.169 N 
ATOM      6  H4  UNL     1      -7.359  19.406 -11.319  1.00  0.00     0.186 HD
HETATM    7  C4  UNL     1      -8.547  21.086 -11.398  1.00  0.00     0.713 A 
HETATM    8  N10 UNL     1      -8.680  22.381 -11.014  1.00  0.00    -0.021 N 
ATOM      9  H10 UNL     1      -9.504  22.912 -11.295  1.00  0.00     0.203 HD
ENDROOT
BRANCH   7  10
HETATM   10  N5  UNL     1      -9.567  20.537 -12.195  1.00  0.00    -0.117 N 
ATOM     11  H5  UNL     1     -10.408  21.084 -12.379  1.00  0.00     0.206 HD
BRANCH  10  12
HETATM   12  N6  UNL     1      -9.451  19.265 -12.735  1.00  0.00    -0.117 N 
ATOM     13  H6  UNL     1      -8.841  18.570 -12.304  1.00  0.00     0.206 HD
BRANCH  12  14
HETATM   14  C5  UNL     1     -10.205  18.946 -13.911  1.00  0.00     0.705 A 
HETATM   15  N7  UNL     1     -11.156  19.819 -14.324  1.00  0.00    -0.139 N 
HETATM   16  C6  UNL     1     -11.877  19.550 -15.426  1.00  0.00     0.342 A 
ATOM     17  H7  UNL     1     -11.326  20.677 -13.800  1.00  0.00     0.189 HD
HETATM   18  O2  UNL     1     -12.774  20.371 -15.822  1.00  0.00    -0.246 OA
HETATM   19  N8  UNL     1     -11.693  18.431 -16.151  1.00  0.00    -0.260 N 
HETATM   20  C7  UNL     1     -10.746  17.563 -15.739  1.00  0.00     0.342 A 
ATOM     21  H8  UNL     1     -12.250  18.246 -16.984  1.00  0.00     0.175 HD
HETATM   22  O3  UNL     1     -10.590  16.523 -16.431  1.00  0.00    -0.246 OA
HETATM   23  N9  UNL     1     -10.032  17.838 -14.641  1.00  0.00    -0.139 N 
ATOM     24  H9  UNL     1      -9.321  17.169 -14.345  1.00  0.00     0.189 HD
ENDBRANCH  12  14
ENDBRANCH  10  12
ENDBRANCH   7  10
BRANCH   4  25
HETATM   25  C3  UNL     1      -5.330  20.198  -9.891  1.00  0.00     0.299 C 
HETATM   26  N3  UNL     1      -4.152  20.242 -10.678  1.00  0.00    -0.054 NA
HETATM   27  O1  UNL     1      -5.382  19.507  -8.845  1.00  0.00    -0.268 OA
ENDBRANCH   4  25
BRANCH   1  28
HETATM   28  N1  UNL     1      -7.822  24.197  -9.877  1.00  0.00    -0.234 N 
ATOM     29  H12 UNL     1      -7.050  24.856  -9.979  1.00  0.00     0.174 HD
ATOM     30  H11 UNL     1      -8.687  24.534  -9.454  1.00  0.00     0.174 HD
ENDBRANCH   1  28
TORSDOF 5
ENDMDL
