MODEL 1
REMARK VINA RESULT: -8.259687930      0.000      0.000
REMARK  6 active torsions:
REMARK  status: ('A' for Active; 'I' for Inactive)
REMARK    1  A    between atoms: N1_1  and  C1_4 
REMARK    2  A    between atoms: C2_7  and  C3_8 
REMARK       I    between atoms: C3_8  and  N3_10 
REMARK    3  A    between atoms: N3_10  and  N4_12 
REMARK       I    between atoms: N4_12  and  C4_13 
REMARK       I    between atoms: C4_13  and  N5_14 
REMARK       I    between atoms: C4_13  and  N6_18 
REMARK    4  A    between atoms: C5_22  and  N7_23 
REMARK    5  A    between atoms: N8_26  and  C6_27 
REMARK    6  A    between atoms: C6_27  and  O4_29 
ROOT
HETATM    1  C1  UNL     1      -6.905  23.780  -8.719  1.00  0.00     0.688 A 
HETATM    2  N2  UNL     1      -6.062  22.855  -9.102  1.00  0.00    -0.182 N 
ATOM      3  H2  UNL     1      -5.079  23.035  -9.306  1.00  0.00     0.184 HD
HETATM    4  C2  UNL     1      -6.634  21.633  -9.198  1.00  0.00     0.169 A 
HETATM    5  C5  UNL     1      -7.969  21.864  -8.823  1.00  0.00     0.232 A 
HETATM    6  N8  UNL     1      -8.137  23.174  -8.533  1.00  0.00    -0.089 N 
ENDROOT
BRANCH   4   7
HETATM    7  C3  UNL     1      -5.910  20.458  -9.579  1.00  0.00     0.288 C 
HETATM    8  O1  UNL     1      -4.897  20.158  -8.822  1.00  0.00    -0.264 OA
HETATM    9  N3  UNL     1      -6.129  19.608 -10.640  1.00  0.00    -0.265 N 
ATOM     10  H3  UNL     1      -6.902  19.802 -11.275  1.00  0.00     0.185 HD
BRANCH   9  11
HETATM   11  N4  UNL     1      -5.320  18.477 -10.879  1.00  0.00    -0.078 NA
HETATM   12  C4  UNL     1      -5.165  18.303 -12.297  1.00  0.00     0.490 C 
HETATM   13  N5  UNL     1      -6.427  18.068 -12.969  1.00  0.00    -0.035 N 
HETATM   14  N6  UNL     1      -4.230  17.272 -12.646  1.00  0.00    -0.035 N 
ATOM     15  H53 UNL     1      -6.923  17.278 -12.555  1.00  0.00     0.278 HD
ATOM     16  H52 UNL     1      -7.097  18.810 -12.762  1.00  0.00     0.278 HD
ATOM     17  H51 UNL     1      -6.317  17.944 -13.976  1.00  0.00     0.278 HD
ATOM     18  H63 UNL     1      -3.328  17.436 -12.202  1.00  0.00     0.278 HD
ATOM     19  H62 UNL     1      -4.482  16.390 -12.199  1.00  0.00     0.278 HD
ATOM     20  H61 UNL     1      -4.120  17.148 -13.653  1.00  0.00     0.278 HD
ENDBRANCH   9  11
ENDBRANCH   4   7
BRANCH   5  21
HETATM   21  N7  UNL     1      -8.905  20.838  -8.668  1.00  0.00    -0.094 N 
HETATM   22  O2  UNL     1      -9.395  20.248  -9.691  1.00  0.00    -0.530 OA
HETATM   23  O3  UNL     1      -9.349  20.297  -7.518  1.00  0.00    -0.530 OA
ENDBRANCH   5  21
BRANCH   1  24
HETATM   24  N1  UNL     1      -6.662  25.060  -8.533  1.00  0.00    -0.234 N 
ATOM     25  H12 UNL     1      -6.375  25.709  -9.265  1.00  0.00     0.174 HD
ATOM     26  H11 UNL     1      -6.721  25.584  -7.661  1.00  0.00     0.174 HD
ENDBRANCH   1  24
BRANCH   6  27
HETATM   27  C6  UNL     1      -9.253  23.916  -8.116  1.00  0.00     0.253 C 
HETATM   28  N9  UNL     1      -9.724  25.176  -8.517  1.00  0.00    -0.055 NA
BRANCH  27  29
HETATM   29  O4  UNL     1      -9.992  23.345  -7.194  1.00  0.00    -0.334 OA
ATOM     30  H4  UNL     1     -10.797  23.803  -6.980  1.00  0.00     0.220 HD
ENDBRANCH  27  29
ENDBRANCH   6  27
TORSDOF 6
ENDMDL
MODEL 2
REMARK VINA RESULT: -8.175876200      1.837      6.500
REMARK  6 active torsions:
REMARK  status: ('A' for Active; 'I' for Inactive)
REMARK    1  A    between atoms: N1_1  and  C1_4 
REMARK    2  A    between atoms: C2_7  and  C3_8 
REMARK       I    between atoms: C3_8  and  N3_10 
REMARK    3  A    between atoms: N3_10  and  N4_12 
REMARK       I    between atoms: N4_12  and  C4_13 
REMARK       I    between atoms: C4_13  and  N5_14 
REMARK       I    between atoms: C4_13  and  N6_18 
REMARK    4  A    between atoms: C5_22  and  N7_23 
REMARK    5  A    between atoms: N8_26  and  C6_27 
REMARK    6  A    between atoms: C6_27  and  O4_29 
ROOT
HETATM    1  C1  UNL     1      -7.855  19.390 -12.141  1.00  0.00     0.688 A 
HETATM    2  N2  UNL     1      -8.246  20.411 -11.420  1.00  0.00    -0.182 N 
ATOM      3  H2  UNL     1      -9.184  20.809 -11.466  1.00  0.00     0.184 HD
HETATM    4  C2  UNL     1      -7.273  20.881 -10.606  1.00  0.00     0.169 A 
HETATM    5  C5  UNL     1      -6.182  20.036 -10.876  1.00  0.00     0.232 A 
HETATM    6  N8  UNL     1      -6.534  19.128 -11.815  1.00  0.00    -0.089 N 
ENDROOT
BRANCH   4   7
HETATM    7  C3  UNL     1      -7.467  21.978  -9.708  1.00  0.00     0.288 C 
HETATM    8  O1  UNL     1      -7.817  21.653  -8.499  1.00  0.00    -0.264 OA
HETATM    9  N3  UNL     1      -7.345  23.329  -9.946  1.00  0.00    -0.265 N 
ATOM     10  H3  UNL     1      -7.085  23.642 -10.880  1.00  0.00     0.185 HD
BRANCH   9  11
HETATM   11  N4  UNL     1      -7.567  24.294  -8.942  1.00  0.00    -0.078 NA
HETATM   12  C4  UNL     1      -8.974  24.577  -8.866  1.00  0.00     0.490 C 
HETATM   13  N5  UNL     1      -9.498  25.125 -10.101  1.00  0.00    -0.035 N 
HETATM   14  N6  UNL     1      -9.326  25.432  -7.769  1.00  0.00    -0.035 N 
ATOM     15  H53 UNL     1      -8.973  25.952 -10.388  1.00  0.00     0.278 HD
ATOM     16  H52 UNL     1      -9.289  24.515 -10.892  1.00  0.00     0.278 HD
ATOM     17  H51 UNL     1     -10.497  25.326 -10.047  1.00  0.00     0.278 HD
ATOM     18  H63 UNL     1      -8.987  25.047  -6.887  1.00  0.00     0.278 HD
ATOM     19  H62 UNL     1      -8.785  26.296  -7.796  1.00  0.00     0.278 HD
ATOM     20  H61 UNL     1     -10.325  25.633  -7.715  1.00  0.00     0.278 HD
ENDBRANCH   9  11
ENDBRANCH   4   7
BRANCH   5  21
HETATM   21  N7  UNL     1      -4.981  20.091 -10.163  1.00  0.00    -0.094 N 
HETATM   22  O2  UNL     1      -4.967  19.890  -8.901  1.00  0.00    -0.530 OA
HETATM   23  O3  UNL     1      -3.741  20.273 -10.655  1.00  0.00    -0.530 OA
ENDBRANCH   5  21
BRANCH   1  24
HETATM   24  N1  UNL     1      -8.558  18.715 -13.023  1.00  0.00    -0.234 N 
ATOM     25  H12 UNL     1      -9.255  19.122 -13.647  1.00  0.00     0.174 HD
ATOM     26  H11 UNL     1      -8.520  17.713 -13.214  1.00  0.00     0.174 HD
ENDBRANCH   1  24
BRANCH   6  27
HETATM   27  C6  UNL     1      -5.831  18.079 -12.428  1.00  0.00     0.253 C 
HETATM   28  N9  UNL     1      -5.890  17.572 -13.735  1.00  0.00    -0.055 NA
BRANCH  27  29
HETATM   29  O4  UNL     1      -4.969  17.458 -11.659  1.00  0.00    -0.334 OA
ATOM     30  H4  UNL     1      -4.285  16.984 -12.117  1.00  0.00     0.220 HD
ENDBRANCH  27  29
ENDBRANCH   6  27
TORSDOF 6
ENDMDL
MODEL 3
REMARK VINA RESULT: -8.151036824      2.123      6.206
REMARK  6 active torsions:
REMARK  status: ('A' for Active; 'I' for Inactive)
REMARK    1  A    between atoms: N1_1  and  C1_4 
REMARK    2  A    between atoms: C2_7  and  C3_8 
REMARK       I    between atoms: C3_8  and  N3_10 
REMARK    3  A    between atoms: N3_10  and  N4_12 
REMARK       I    between atoms: N4_12  and  C4_13 
REMARK       I    between atoms: C4_13  and  N5_14 
REMARK       I    between atoms: C4_13  and  N6_18 
REMARK    4  A    between atoms: C5_22  and  N7_23 
REMARK    5  A    between atoms: N8_26  and  C6_27 
REMARK    6  A    between atoms: C6_27  and  O4_29 
ROOT
HETATM    1  C1  UNL     1      -6.124  22.446  -8.979  1.00  0.00     0.688 A 
HETATM    2  N2  UNL     1      -7.103  23.156  -8.476  1.00  0.00    -0.182 N 
ATOM      3  H2  UNL     1      -6.974  23.865  -7.754  1.00  0.00     0.184 HD
HETATM    4  C2  UNL     1      -8.304  22.849  -9.018  1.00  0.00     0.169 A 
HETATM    5  C5  UNL     1      -7.997  21.844  -9.951  1.00  0.00     0.232 A 
HETATM    6  N8  UNL     1      -6.667  21.594  -9.927  1.00  0.00    -0.089 N 
ENDROOT
BRANCH   4   7
HETATM    7  C3  UNL     1      -9.520  23.504  -8.645  1.00  0.00     0.288 C 
HETATM    8  O1  UNL     1      -9.751  23.565  -7.367  1.00  0.00    -0.264 OA
HETATM    9  N3  UNL     1     -10.485  24.070  -9.448  1.00  0.00    -0.265 N 
ATOM     10  H3  UNL     1     -10.363  24.040 -10.460  1.00  0.00     0.185 HD
BRANCH   9  11
HETATM   11  N4  UNL     1     -11.637  24.690  -8.921  1.00  0.00    -0.078 NA
HETATM   12  C4  UNL     1     -12.611  24.838  -9.967  1.00  0.00     0.490 C 
HETATM   13  N5  UNL     1     -12.139  25.678 -11.050  1.00  0.00    -0.035 N 
HETATM   14  N6  UNL     1     -13.881  25.316  -9.502  1.00  0.00    -0.035 N 
ATOM     15  H53 UNL     1     -11.832  26.587 -10.703  1.00  0.00     0.278 HD
ATOM     16  H52 UNL     1     -11.252  25.335 -11.420  1.00  0.00     0.278 HD
ATOM     17  H51 UNL     1     -12.830  25.783 -11.793  1.00  0.00     0.278 HD
ATOM     18  H63 UNL     1     -14.240  24.720  -8.756  1.00  0.00     0.278 HD
ATOM     19  H62 UNL     1     -13.771  26.188  -8.984  1.00  0.00     0.278 HD
ATOM     20  H61 UNL     1     -14.572  25.422 -10.245  1.00  0.00     0.278 HD
ENDBRANCH   9  11
ENDBRANCH   4   7
BRANCH   5  21
HETATM   21  N7  UNL     1      -8.940  21.309 -10.832  1.00  0.00    -0.094 N 
HETATM   22  O2  UNL     1      -9.260  20.073 -10.767  1.00  0.00    -0.530 OA
HETATM   23  O3  UNL     1      -9.660  21.963 -11.763  1.00  0.00    -0.530 OA
ENDBRANCH   5  21
BRANCH   1  24
HETATM   24  N1  UNL     1      -4.848  22.504  -8.665  1.00  0.00    -0.234 N 
ATOM     25  H12 UNL     1      -4.087  22.597  -9.337  1.00  0.00     0.174 HD
ATOM     26  H11 UNL     1      -4.434  22.465  -7.733  1.00  0.00     0.174 HD
ENDBRANCH   1  24
BRANCH   6  27
HETATM   27  C6  UNL     1      -5.858  20.701 -10.646  1.00  0.00     0.253 C 
HETATM   28  N9  UNL     1      -5.802  19.299 -10.639  1.00  0.00    -0.055 NA
BRANCH  27  29
HETATM   29  O4  UNL     1      -5.002  21.260 -11.468  1.00  0.00    -0.334 OA
ATOM     30  H4  UNL     1      -4.885  20.811 -12.297  1.00  0.00     0.220 HD
ENDBRANCH  27  29
ENDBRANCH   6  27
TORSDOF 6
ENDMDL
MODEL 4
REMARK VINA RESULT: -7.928205654      2.614      6.712
REMARK  6 active torsions:
REMARK  status: ('A' for Active; 'I' for Inactive)
REMARK    1  A    between atoms: N1_1  and  C1_4 
REMARK    2  A    between atoms: C2_7  and  C3_8 
REMARK       I    between atoms: C3_8  and  N3_10 
REMARK    3  A    between atoms: N3_10  and  N4_12 
REMARK       I    between atoms: N4_12  and  C4_13 
REMARK       I    between atoms: C4_13  and  N5_14 
REMARK       I    between atoms: C4_13  and  N6_18 
REMARK    4  A    between atoms: C5_22  and  N7_23 
REMARK    5  A    between atoms: N8_26  and  C6_27 
REMARK    6  A    between atoms: C6_27  and  O4_29 
ROOT
HETATM    1  C1  UNL     1      -8.057  20.801 -10.725  1.00  0.00     0.688 A 
HETATM    2  N2  UNL     1      -9.159  21.381 -10.320  1.00  0.00    -0.182 N 
ATOM      3  H2  UNL     1     -10.092  21.017 -10.511  1.00  0.00     0.184 HD
HETATM    4  C2  UNL     1      -8.927  22.515  -9.620  1.00  0.00     0.169 A 
HETATM    5  C5  UNL     1      -7.525  22.613  -9.607  1.00  0.00     0.232 A 
HETATM    6  N8  UNL     1      -6.992  21.570 -10.284  1.00  0.00    -0.089 N 
ENDROOT
BRANCH   4   7
HETATM    7  C3  UNL     1      -9.972  23.313  -9.056  1.00  0.00     0.288 C 
HETATM    8  O1  UNL     1      -9.931  23.454  -7.765  1.00  0.00    -0.264 OA
HETATM    9  N3  UNL     1     -11.021  23.945  -9.687  1.00  0.00    -0.265 N 
ATOM     10  H3  UNL     1     -11.111  23.858 -10.699  1.00  0.00     0.185 HD
BRANCH   9  11
HETATM   11  N4  UNL     1     -11.976  24.708  -8.983  1.00  0.00    -0.078 NA
HETATM   12  C4  UNL     1     -13.102  24.958  -9.840  1.00  0.00     0.490 C 
HETATM   13  N5  UNL     1     -12.743  25.718 -11.021  1.00  0.00    -0.035 N 
HETATM   14  N6  UNL     1     -14.200  25.594  -9.171  1.00  0.00    -0.035 N 
ATOM     15  H53 UNL     1     -12.273  26.588 -10.770  1.00  0.00     0.278 HD
ATOM     16  H52 UNL     1     -11.985  25.264 -11.533  1.00  0.00     0.278 HD
ATOM     17  H51 UNL     1     -13.542  25.895 -11.630  1.00  0.00     0.278 HD
ATOM     18  H63 UNL     1     -14.482  25.058  -8.350  1.00  0.00     0.278 HD
ATOM     19  H62 UNL     1     -13.894  26.454  -8.714  1.00  0.00     0.278 HD
ATOM     20  H61 UNL     1     -14.999  25.772  -9.779  1.00  0.00     0.278 HD
ENDBRANCH   9  11
ENDBRANCH   4   7
BRANCH   5  21
HETATM   21  N7  UNL     1      -6.836  23.590  -8.883  1.00  0.00    -0.094 N 
HETATM   22  O2  UNL     1      -5.946  23.256  -8.029  1.00  0.00    -0.530 OA
HETATM   23  O3  UNL     1      -6.931  24.927  -9.009  1.00  0.00    -0.530 OA
ENDBRANCH   5  21
BRANCH   1  24
HETATM   24  N1  UNL     1      -7.944  19.693 -11.425  1.00  0.00    -0.234 N 
ATOM     25  H12 UNL     1      -8.252  18.773 -11.111  1.00  0.00     0.174 HD
ATOM     26  H11 UNL     1      -7.546  19.584 -12.357  1.00  0.00     0.174 HD
ENDBRANCH   1  24
BRANCH   6  27
HETATM   27  C6  UNL     1      -5.668  21.200 -10.564  1.00  0.00     0.253 C 
HETATM   28  N9  UNL     1      -4.716  20.522  -9.787  1.00  0.00    -0.055 NA
BRANCH  27  29
HETATM   29  O4  UNL     1      -5.232  21.540 -11.754  1.00  0.00    -0.334 OA
ATOM     30  H4  UNL     1      -5.844  22.042 -12.281  1.00  0.00     0.220 HD
ENDBRANCH  27  29
ENDBRANCH   6  27
TORSDOF 6
ENDMDL
MODEL 5
REMARK VINA RESULT: -7.895236309      0.991      1.047
REMARK  6 active torsions:
REMARK  status: ('A' for Active; 'I' for Inactive)
REMARK    1  A    between atoms: N1_1  and  C1_4 
REMARK    2  A    between atoms: C2_7  and  C3_8 
REMARK       I    between atoms: C3_8  and  N3_10 
REMARK    3  A    between atoms: N3_10  and  N4_12 
REMARK       I    between atoms: N4_12  and  C4_13 
REMARK       I    between atoms: C4_13  and  N5_14 
REMARK       I    between atoms: C4_13  and  N6_18 
REMARK    4  A    between atoms: C5_22  and  N7_23 
REMARK    5  A    between atoms: N8_26  and  C6_27 
REMARK    6  A    between atoms: C6_27  and  O4_29 
ROOT
HETATM    1  C1  UNL     1      -7.212  23.764  -8.926  1.00  0.00     0.688 A 
HETATM    2  N2  UNL     1      -6.334  22.809  -9.101  1.00  0.00    -0.182 N 
ATOM      3  H2  UNL     1      -5.338  22.915  -8.909  1.00  0.00     0.184 HD
HETATM    4  C2  UNL     1      -6.889  21.666  -9.565  1.00  0.00     0.169 A 
HETATM    5  C5  UNL     1      -8.254  21.982  -9.671  1.00  0.00     0.232 A 
HETATM    6  N8  UNL     1      -8.453  23.263  -9.285  1.00  0.00    -0.089 N 
ENDROOT
BRANCH   4   7
HETATM    7  C3  UNL     1      -6.134  20.476  -9.815  1.00  0.00     0.288 C 
HETATM    8  O1  UNL     1      -5.266  20.163  -8.900  1.00  0.00    -0.264 OA
HETATM    9  N3  UNL     1      -6.191  19.621 -10.893  1.00  0.00    -0.265 N 
ATOM     10  H3  UNL     1      -6.845  19.824 -11.649  1.00  0.00     0.185 HD
BRANCH   9  11
HETATM   11  N4  UNL     1      -5.375  18.474 -10.990  1.00  0.00    -0.078 NA
HETATM   12  C4  UNL     1      -5.115  18.199 -12.376  1.00  0.00     0.490 C 
HETATM   13  N5  UNL     1      -6.325  17.920 -13.124  1.00  0.00    -0.035 N 
HETATM   14  N6  UNL     1      -4.165  17.143 -12.581  1.00  0.00    -0.035 N 
ATOM     15  H53 UNL     1      -6.857  17.163 -12.693  1.00  0.00     0.278 HD
ATOM     16  H52 UNL     1      -7.003  18.676 -13.021  1.00  0.00     0.278 HD
ATOM     17  H51 UNL     1      -6.141  17.724 -14.108  1.00  0.00     0.278 HD
ATOM     18  H63 UNL     1      -3.297  17.337 -12.082  1.00  0.00     0.278 HD
ATOM     19  H62 UNL     1      -4.457  16.296 -12.092  1.00  0.00     0.278 HD
ATOM     20  H61 UNL     1      -3.981  16.947 -13.565  1.00  0.00     0.278 HD
ENDBRANCH   9  11
ENDBRANCH   4   7
BRANCH   5  21
HETATM   21  N7  UNL     1      -9.231  21.041 -10.009  1.00  0.00    -0.094 N 
HETATM   22  O2  UNL     1     -10.470  21.351  -9.968  1.00  0.00    -0.530 OA
HETATM   23  O3  UNL     1      -9.043  19.789 -10.466  1.00  0.00    -0.530 OA
ENDBRANCH   5  21
BRANCH   1  24
HETATM   24  N1  UNL     1      -6.992  24.986  -8.492  1.00  0.00    -0.234 N 
ATOM     25  H12 UNL     1      -6.073  25.424  -8.426  1.00  0.00     0.174 HD
ATOM     26  H11 UNL     1      -7.681  25.663  -8.165  1.00  0.00     0.174 HD
ENDBRANCH   1  24
BRANCH   6  27
HETATM   27  C6  UNL     1      -9.606  24.060  -9.203  1.00  0.00     0.253 C 
HETATM   28  N9  UNL     1      -9.955  25.246  -9.867  1.00  0.00    -0.055 NA
BRANCH  27  29
HETATM   29  O4  UNL     1     -10.522  23.634  -8.366  1.00  0.00    -0.334 OA
ATOM     30  H4  UNL     1     -10.979  22.845  -8.633  1.00  0.00     0.220 HD
ENDBRANCH  27  29
ENDBRANCH   6  27
TORSDOF 6
ENDMDL
