MODEL 1
REMARK VINA RESULT: -8.392381264      0.000      0.000
REMARK  4 active torsions:
REMARK  status: ('A' for Active; 'I' for Inactive)
REMARK    1  A    between atoms: N1_1  and  C1_4 
REMARK       I    between atoms: N6_15  and  C5_17 
REMARK       I    between atoms: C5_17  and  N7_18 
REMARK       I    between atoms: C5_17  and  N8_22 
REMARK    2  A    between atoms: N8_22  and  N9_23 
REMARK    3  A    between atoms: N9_23  and  C6_24 
REMARK    4  A    between atoms: C7_26  and  N10_27 
ROOT
HETATM    1  C1  UNL     1      -5.289  18.500 -11.754  1.00  0.00     0.692 C 
HETATM    2  N2  UNL     1      -6.381  18.564 -12.558  1.00  0.00    -0.021 N 
ATOM      3  H2  UNL     1      -6.339  18.048 -13.436  1.00  0.00     0.203 HD
HETATM    4  C2  UNL     1      -7.525  19.253 -12.300  1.00  0.00     0.721 A 
HETATM    5  N3  UNL     1      -8.696  19.011 -12.904  1.00  0.00    -0.184 N 
ATOM      6  H3  UNL     1      -8.863  18.292 -13.607  1.00  0.00     0.185 HD
HETATM    7  C3  UNL     1      -9.613  19.871 -12.431  1.00  0.00     0.216 A 
HETATM    8  N4  UNL     1      -8.964  20.645 -11.514  1.00  0.00    -0.273 N 
ATOM      9  H4  UNL     1      -9.383  21.400 -10.971  1.00  0.00     0.189 HD
HETATM   10  N5  UNL     1      -7.712  20.260 -11.447  1.00  0.00    -0.065 N 
HETATM   11  C4  UNL     1      -6.835  20.864 -10.591  1.00  0.00     0.188 C 
HETATM   12  N6  UNL     1      -7.160  21.982 -10.213  1.00  0.00    -0.329 N 
ATOM     13  H6  UNL     1      -8.053  22.262 -10.619  1.00  0.00     0.164 HD
HETATM   14  C5  UNL     1      -6.645  22.989  -9.375  1.00  0.00     0.412 C 
HETATM   15  N7  UNL     1      -7.144  22.779  -7.982  1.00  0.00    -0.041 N 
ATOM     16  H71 UNL     1      -6.771  23.509  -7.374  1.00  0.00     0.278 HD
ATOM     17  H72 UNL     1      -6.935  21.843  -7.635  1.00  0.00     0.278 HD
ATOM     18  H73 UNL     1      -8.162  22.725  -7.940  1.00  0.00     0.278 HD
HETATM   19  N8  UNL     1      -7.239  24.287  -9.824  1.00  0.00    -0.005 NA
HETATM   20  C7  UNL     1      -5.677  20.271 -10.170  1.00  0.00     0.161 C 
HETATM   21  N11 UNL     1      -4.916  19.304 -10.749  1.00  0.00    -0.173 N 
ATOM     22  H11 UNL     1      -3.973  19.178 -10.383  1.00  0.00     0.186 HD
ENDROOT
BRANCH  20  23
HETATM   23  N10 UNL     1      -5.228  20.672  -9.058  1.00  0.00    -0.382 N 
ATOM     24 2H10 UNL     1      -5.847  21.326  -8.579  1.00  0.00     0.157 HD
ATOM     25 1H10 UNL     1      -4.317  20.300  -8.789  1.00  0.00     0.157 HD
ENDBRANCH  20  23
BRANCH  19  26
HETATM   26  N9  UNL     1      -8.267  24.676  -9.079  1.00  0.00    -0.301 NA
BRANCH  26  27
HETATM   27  C6  UNL     1      -9.289  25.055  -8.347  1.00  0.00     0.461 C 
HETATM   28  O1  UNL     1     -10.500  24.813  -8.381  1.00  0.00    -0.267 OA
ENDBRANCH  26  27
ENDBRANCH  19  26
BRANCH   1  29
HETATM   29  N1  UNL     1      -4.492  17.497 -11.992  1.00  0.00    -0.234 N 
ATOM     30  H12 UNL     1      -4.740  16.923 -12.798  1.00  0.00     0.174 HD
ATOM     31  H11 UNL     1      -3.706  17.411 -11.347  1.00  0.00     0.174 HD
ENDBRANCH   1  29
TORSDOF 4
ENDMDL
MODEL 2
REMARK VINA RESULT: -8.241524466      2.103      2.844
REMARK  4 active torsions:
REMARK  status: ('A' for Active; 'I' for Inactive)
REMARK    1  A    between atoms: N1_1  and  C1_4 
REMARK       I    between atoms: N6_15  and  C5_17 
REMARK       I    between atoms: C5_17  and  N7_18 
REMARK       I    between atoms: C5_17  and  N8_22 
REMARK    2  A    between atoms: N8_22  and  N9_23 
REMARK    3  A    between atoms: N9_23  and  C6_24 
REMARK    4  A    between atoms: C7_26  and  N10_27 
ROOT
HETATM    1  C1  UNL     1      -6.257  20.290  -9.862  1.00  0.00     0.692 C 
HETATM    2  N2  UNL     1      -6.775  19.897 -11.053  1.00  0.00    -0.021 N 
ATOM      3  H2  UNL     1      -6.164  19.360 -11.669  1.00  0.00     0.203 HD
HETATM    4  C2  UNL     1      -8.032  20.152 -11.502  1.00  0.00     0.721 A 
HETATM    5  N3  UNL     1      -8.632  19.462 -12.481  1.00  0.00    -0.184 N 
ATOM      6  H3  UNL     1      -8.225  18.676 -12.988  1.00  0.00     0.185 HD
HETATM    7  C3  UNL     1      -9.857  19.974 -12.686  1.00  0.00     0.216 A 
HETATM    8  N4  UNL     1      -9.988  21.000 -11.795  1.00  0.00    -0.273 N 
ATOM      9  H4  UNL     1     -10.808  21.597 -11.693  1.00  0.00     0.189 HD
HETATM   10  N5  UNL     1      -8.884  21.092 -11.092  1.00  0.00    -0.065 N 
HETATM   11  C4  UNL     1      -8.751  22.034 -10.112  1.00  0.00     0.188 C 
HETATM   12  N6  UNL     1      -9.511  22.991 -10.201  1.00  0.00    -0.329 N 
ATOM     13  H6  UNL     1     -10.121  22.901 -11.013  1.00  0.00     0.164 HD
HETATM   14  C5  UNL     1      -9.777  24.179  -9.494  1.00  0.00     0.412 C 
HETATM   15  N7  UNL     1     -10.823  23.917  -8.459  1.00  0.00    -0.041 N 
ATOM     16  H71 UNL     1     -11.016  24.778  -7.947  1.00  0.00     0.278 HD
ATOM     17  H72 UNL     1     -10.569  23.148  -7.839  1.00  0.00     0.278 HD
ATOM     18  H73 UNL     1     -11.668  23.508  -8.859  1.00  0.00     0.278 HD
HETATM   19  N8  UNL     1     -10.397  25.140 -10.459  1.00  0.00    -0.005 NA
HETATM   20  C7  UNL     1      -7.845  21.928  -9.094  1.00  0.00     0.161 C 
HETATM   21  N11 UNL     1      -6.667  21.252  -9.024  1.00  0.00    -0.173 N 
ATOM     22  H11 UNL     1      -6.037  21.500  -8.262  1.00  0.00     0.186 HD
ENDROOT
BRANCH  20  23
HETATM   23  N10 UNL     1      -8.137  22.550  -8.033  1.00  0.00    -0.382 N 
ATOM     24 2H10 UNL     1      -9.005  23.082  -8.096  1.00  0.00     0.157 HD
ATOM     25 1H10 UNL     1      -7.474  22.448  -7.263  1.00  0.00     0.157 HD
ENDBRANCH  20  23
BRANCH  19  26
HETATM   26  N9  UNL     1     -11.719  25.196 -10.363  1.00  0.00    -0.301 NA
BRANCH  26  27
HETATM   27  C6  UNL     1     -13.028  25.261 -10.270  1.00  0.00     0.461 C 
HETATM   28  O1  UNL     1     -13.804  25.577  -9.363  1.00  0.00    -0.267 OA
ENDBRANCH  26  27
ENDBRANCH  19  26
BRANCH   1  29
HETATM   29  N1  UNL     1      -5.209  19.620  -9.473  1.00  0.00    -0.234 N 
ATOM     30  H12 UNL     1      -4.959  19.730  -8.489  1.00  0.00     0.174 HD
ATOM     31  H11 UNL     1      -4.766  19.057 -10.199  1.00  0.00     0.174 HD
ENDBRANCH   1  29
TORSDOF 4
ENDMDL
MODEL 3
REMARK VINA RESULT: -6.990010351      2.739      5.711
REMARK  4 active torsions:
REMARK  status: ('A' for Active; 'I' for Inactive)
REMARK    1  A    between atoms: N1_1  and  C1_4 
REMARK       I    between atoms: N6_15  and  C5_17 
REMARK       I    between atoms: C5_17  and  N7_18 
REMARK       I    between atoms: C5_17  and  N8_22 
REMARK    2  A    between atoms: N8_22  and  N9_23 
REMARK    3  A    between atoms: N9_23  and  C6_24 
REMARK    4  A    between atoms: C7_26  and  N10_27 
ROOT
HETATM    1  C1  UNL     1      -8.766  24.370  -8.267  1.00  0.00     0.692 C 
HETATM    2  N2  UNL     1      -9.851  23.592  -8.516  1.00  0.00    -0.021 N 
ATOM      3  H2  UNL     1     -10.704  23.810  -8.002  1.00  0.00     0.203 HD
HETATM    4  C2  UNL     1      -9.905  22.550  -9.388  1.00  0.00     0.721 A 
HETATM    5  N3  UNL     1     -11.043  22.048  -9.885  1.00  0.00    -0.184 N 
ATOM      6  H3  UNL     1     -11.982  22.388  -9.676  1.00  0.00     0.185 HD
HETATM    7  C3  UNL     1     -10.746  21.025 -10.702  1.00  0.00     0.216 A 
HETATM    8  N4  UNL     1      -9.385  20.920 -10.692  1.00  0.00    -0.273 N 
ATOM      9  H4  UNL     1      -8.838  20.235 -11.214  1.00  0.00     0.189 HD
HETATM   10  N5  UNL     1      -8.896  21.844  -9.899  1.00  0.00    -0.065 N 
HETATM   11  C4  UNL     1      -7.549  21.972  -9.716  1.00  0.00     0.188 C 
HETATM   12  N6  UNL     1      -6.887  20.979  -9.992  1.00  0.00    -0.329 N 
ATOM     13  H6  UNL     1      -7.483  20.220 -10.319  1.00  0.00     0.164 HD
HETATM   14  C5  UNL     1      -5.533  20.595  -9.984  1.00  0.00     0.412 C 
HETATM   15  N7  UNL     1      -4.917  20.917 -11.307  1.00  0.00    -0.041 N 
ATOM     16  H71 UNL     1      -3.936  20.638 -11.301  1.00  0.00     0.278 HD
ATOM     17  H72 UNL     1      -5.038  21.897 -11.560  1.00  0.00     0.278 HD
ATOM     18  H73 UNL     1      -5.432  20.501 -12.083  1.00  0.00     0.278 HD
HETATM   19  N8  UNL     1      -5.496  19.103  -9.875  1.00  0.00    -0.005 NA
HETATM   20  C7  UNL     1      -6.964  23.123  -9.265  1.00  0.00     0.161 C 
HETATM   21  N11 UNL     1      -7.470  24.136  -8.511  1.00  0.00    -0.173 N 
ATOM     22  H11 UNL     1      -6.798  24.778  -8.091  1.00  0.00     0.186 HD
ENDROOT
BRANCH  20  23
HETATM   23  N10 UNL     1      -5.757  23.293  -9.599  1.00  0.00    -0.382 N 
ATOM     24 2H10 UNL     1      -5.618  24.067 -10.248  1.00  0.00     0.157 HD
ATOM     25 1H10 UNL     1      -5.088  22.641  -9.189  1.00  0.00     0.157 HD
ENDBRANCH  20  23
BRANCH  19  26
HETATM   26  N9  UNL     1      -5.301  18.499 -11.040  1.00  0.00    -0.301 NA
BRANCH  26  27
HETATM   27  C6  UNL     1      -5.117  17.902 -12.195  1.00  0.00     0.461 C 
HETATM   28  O1  UNL     1      -5.811  17.771 -13.209  1.00  0.00    -0.267 OA
ENDBRANCH  26  27
ENDBRANCH  19  26
BRANCH   1  29
HETATM   29  N1  UNL     1      -9.033  25.522  -7.719  1.00  0.00    -0.234 N 
ATOM     30  H12 UNL     1      -8.515  25.730  -6.865  1.00  0.00     0.174 HD
ATOM     31  H11 UNL     1      -9.724  26.083  -8.217  1.00  0.00     0.174 HD
ENDBRANCH   1  29
TORSDOF 4
ENDMDL
MODEL 4
REMARK VINA RESULT: -6.495201487      2.989      6.494
REMARK  4 active torsions:
REMARK  status: ('A' for Active; 'I' for Inactive)
REMARK    1  A    between atoms: N1_1  and  C1_4 
REMARK       I    between atoms: N6_15  and  C5_17 
REMARK       I    between atoms: C5_17  and  N7_18 
REMARK       I    between atoms: C5_17  and  N8_22 
REMARK    2  A    between atoms: N8_22  and  N9_23 
REMARK    3  A    between atoms: N9_23  and  C6_24 
REMARK    4  A    between atoms: C7_26  and  N10_27 
ROOT
HETATM    1  C1  UNL     1     -10.712  24.231  -9.766  1.00  0.00     0.692 C 
HETATM    2  N2  UNL     1      -9.574  24.797  -9.290  1.00  0.00    -0.021 N 
ATOM      3  H2  UNL     1      -9.609  25.793  -9.071  1.00  0.00     0.203 HD
HETATM    4  C2  UNL     1      -8.392  24.161  -9.077  1.00  0.00     0.721 A 
HETATM    5  N3  UNL     1      -7.422  24.629  -8.281  1.00  0.00    -0.184 N 
ATOM      6  H3  UNL     1      -7.460  25.498  -7.748  1.00  0.00     0.185 HD
HETATM    7  C3  UNL     1      -6.390  23.769  -8.301  1.00  0.00     0.216 A 
HETATM    8  N4  UNL     1      -6.764  22.755  -9.134  1.00  0.00    -0.273 N 
ATOM      9  H4  UNL     1      -6.200  21.937  -9.365  1.00  0.00     0.189 HD
HETATM   10  N5  UNL     1      -7.968  23.005  -9.590  1.00  0.00    -0.065 N 
HETATM   11  C4  UNL     1      -8.593  22.138 -10.441  1.00  0.00     0.188 C 
HETATM   12  N6  UNL     1      -7.851  21.368 -11.039  1.00  0.00    -0.329 N 
ATOM     13  H6  UNL     1      -6.877  21.522 -10.781  1.00  0.00     0.164 HD
HETATM   14  C5  UNL     1      -7.969  20.331 -11.983  1.00  0.00     0.412 C 
HETATM   15  N7  UNL     1      -8.135  19.028 -11.271  1.00  0.00    -0.041 N 
ATOM     16  H71 UNL     1      -8.221  18.276 -11.955  1.00  0.00     0.278 HD
ATOM     17  H72 UNL     1      -8.917  19.044 -10.616  1.00  0.00     0.278 HD
ATOM     18  H73 UNL     1      -7.386  18.856 -10.600  1.00  0.00     0.278 HD
HETATM   19  N8  UNL     1      -6.660  20.233 -12.701  1.00  0.00    -0.005 NA
HETATM   20  C7  UNL     1      -9.948  22.112 -10.617  1.00  0.00     0.161 C 
HETATM   21  N11 UNL     1     -10.883  23.084 -10.437  1.00  0.00    -0.173 N 
ATOM     22  H11 UNL     1     -11.800  22.924 -10.852  1.00  0.00     0.186 HD
ENDROOT
BRANCH  20  23
HETATM   23  N10 UNL     1     -10.430  21.010 -11.005  1.00  0.00    -0.382 N 
ATOM     24 2H10 UNL     1      -9.791  20.223 -10.896  1.00  0.00     0.157 HD
ATOM     25 1H10 UNL     1     -11.380  21.048 -11.376  1.00  0.00     0.157 HD
ENDBRANCH  20  23
BRANCH  19  26
HETATM   26  N9  UNL     1      -5.884  19.258 -12.242  1.00  0.00    -0.301 NA
BRANCH  26  27
HETATM   27  C6  UNL     1      -5.110  18.300 -11.789  1.00  0.00     0.461 C 
HETATM   28  O1  UNL     1      -4.497  17.372 -12.326  1.00  0.00    -0.267 OA
ENDBRANCH  26  27
ENDBRANCH  19  26
BRANCH   1  29
HETATM   29  N1  UNL     1     -11.802  24.902  -9.521  1.00  0.00    -0.234 N 
ATOM     30  H12 UNL     1     -11.751  25.545  -8.730  1.00  0.00     0.174 HD
ATOM     31  H11 UNL     1     -12.576  24.710 -10.157  1.00  0.00     0.174 HD
ENDBRANCH   1  29
TORSDOF 4
ENDMDL
MODEL 5
REMARK VINA RESULT: -6.025302704      1.689      3.525
REMARK  4 active torsions:
REMARK  status: ('A' for Active; 'I' for Inactive)
REMARK    1  A    between atoms: N1_1  and  C1_4 
REMARK       I    between atoms: N6_15  and  C5_17 
REMARK       I    between atoms: C5_17  and  N7_18 
REMARK       I    between atoms: C5_17  and  N8_22 
REMARK    2  A    between atoms: N8_22  and  N9_23 
REMARK    3  A    between atoms: N9_23  and  C6_24 
REMARK    4  A    between atoms: C7_26  and  N10_27 
ROOT
HETATM    1  C1  UNL     1      -5.383  18.664 -11.292  1.00  0.00     0.692 C 
HETATM    2  N2  UNL     1      -4.841  19.309 -10.228  1.00  0.00    -0.021 N 
ATOM      3  H2  UNL     1      -4.064  18.848  -9.754  1.00  0.00     0.203 HD
HETATM    4  C2  UNL     1      -5.236  20.513  -9.735  1.00  0.00     0.721 A 
HETATM    5  N3  UNL     1      -4.477  21.286  -8.948  1.00  0.00    -0.184 N 
ATOM      6  H3  UNL     1      -3.529  21.068  -8.639  1.00  0.00     0.185 HD
HETATM    7  C3  UNL     1      -5.167  22.394  -8.631  1.00  0.00     0.216 A 
HETATM    8  N4  UNL     1      -6.374  22.274  -9.255  1.00  0.00    -0.273 N 
ATOM      9  H4  UNL     1      -7.134  22.954  -9.215  1.00  0.00     0.189 HD
HETATM   10  N5  UNL     1      -6.399  21.140  -9.914  1.00  0.00    -0.065 N 
HETATM   11  C4  UNL     1      -7.494  20.774 -10.643  1.00  0.00     0.188 C 
HETATM   12  N6  UNL     1      -8.539  21.333 -10.334  1.00  0.00    -0.329 N 
ATOM     13  H6  UNL     1      -8.391  21.989  -9.567  1.00  0.00     0.164 HD
HETATM   14  C5  UNL     1      -9.886  21.323 -10.741  1.00  0.00     0.412 C 
HETATM   15  N7  UNL     1     -10.089  22.347 -11.811  1.00  0.00    -0.041 N 
ATOM     16  H71 UNL     1     -11.066  22.340 -12.106  1.00  0.00     0.278 HD
ATOM     17  H72 UNL     1      -9.449  22.218 -12.594  1.00  0.00     0.278 HD
ATOM     18  H73 UNL     1      -9.780  23.275 -11.521  1.00  0.00     0.278 HD
HETATM   19  N8  UNL     1     -10.705  21.789  -9.579  1.00  0.00    -0.005 NA
HETATM   20  C7  UNL     1      -7.443  19.856 -11.655  1.00  0.00     0.161 C 
HETATM   21  N11 UNL     1      -6.575  18.834 -11.880  1.00  0.00    -0.173 N 
ATOM     22  H11 UNL     1      -6.858  18.130 -12.560  1.00  0.00     0.186 HD
ENDROOT
BRANCH  20  23
HETATM   23  N10 UNL     1      -8.339  19.965 -12.541  1.00  0.00    -0.382 N 
ATOM     24 2H10 UNL     1      -9.249  20.238 -12.170  1.00  0.00     0.157 HD
ATOM     25 1H10 UNL     1      -8.043  19.764 -13.496  1.00  0.00     0.157 HD
ENDBRANCH  20  23
BRANCH  19  26
HETATM   26  N9  UNL     1     -11.051  23.067  -9.662  1.00  0.00    -0.301 NA
BRANCH  26  27
HETATM   27  C6  UNL     1     -11.385  24.334  -9.749  1.00  0.00     0.461 C 
HETATM   28  O1  UNL     1     -11.383  25.156 -10.671  1.00  0.00    -0.267 OA
ENDBRANCH  26  27
ENDBRANCH  19  26
BRANCH   1  29
HETATM   29  N1  UNL     1      -4.622  17.751 -11.825  1.00  0.00    -0.234 N 
ATOM     30  H12 UNL     1      -3.747  17.568 -11.333  1.00  0.00     0.174 HD
ATOM     31  H11 UNL     1      -4.998  17.319 -12.670  1.00  0.00     0.174 HD
ENDBRANCH   1  29
TORSDOF 4
ENDMDL
