MODEL 1
REMARK VINA RESULT: -6.987349711      0.000      0.000
REMARK  10 active torsions:
REMARK  status: ('A' for Active; 'I' for Inactive)
REMARK    1  A    between atoms: C1_4  and  N2_5 
REMARK    2  A    between atoms: C1_4  and  C2_11 
REMARK    3  A    between atoms: N2_5  and  N3_7 
REMARK    4  A    between atoms: N3_7  and  N4_8 
REMARK    5  A    between atoms: N7_20  and  C7_21 
REMARK    6  A    between atoms: C7_21  and  C8_22 
REMARK    7  A    between atoms: C8_22  and  O1_23 
REMARK    8  A    between atoms: C9_25  and  C10_26 
REMARK       I    between atoms: C10_26  and  N8_28 
REMARK    9  A    between atoms: N8_28  and  N9_30 
REMARK   10  A    between atoms: N9_30  and  N10_31 
ROOT
HETATM    1  C2  UNL     1     -13.952  -9.453  10.229  1.00  0.00     0.042 A 
HETATM    2  C3  UNL     1     -14.296  -9.845   8.923  1.00  0.00     0.106 A 
HETATM    3  N5  UNL     1     -13.433  -9.781   7.910  1.00  0.00    -0.349 N 
ATOM      4  H5  UNL     1     -13.734 -10.079   6.982  1.00  0.00     0.167 HD
HETATM    5  C4  UNL     1     -12.184  -9.337   8.080  1.00  0.00     0.136 A 
HETATM    6  C5  UNL     1     -11.818  -8.945   9.345  1.00  0.00     0.094 A 
HETATM    7  N6  UNL     1     -10.561  -8.547   9.261  1.00  0.00    -0.348 N 
ATOM      8  H6  UNL     1     -10.002  -8.196  10.039  1.00  0.00     0.167 HD
HETATM    9  C6  UNL     1     -10.131  -8.676   7.990  1.00  0.00     0.185 A 
HETATM   10  N7  UNL     1     -11.137  -9.167   7.255  1.00  0.00    -0.325 N 
HETATM   11  C9  UNL     1     -12.682  -8.988  10.448  1.00  0.00     0.079 A 
ENDROOT
BRANCH   1  12
HETATM   12  C1  UNL     1     -14.926  -9.664  11.256  1.00  0.00     0.124 C 
HETATM   13  N1  UNL     1     -16.121  -9.248  11.294  1.00  0.00    -0.384 N 
ATOM     14  H12 UNL     1     -16.814  -9.399  12.026  1.00  0.00     0.157 HD
ATOM     15  H11 UNL     1     -16.394  -8.695  10.481  1.00  0.00     0.157 HD
BRANCH  12  16
HETATM   16  N2  UNL     1     -14.537 -10.452  12.414  1.00  0.00    -0.269 N 
ATOM     17  H2  UNL     1     -14.201 -11.404  12.272  1.00  0.00     0.185 HD
BRANCH  16  18
HETATM   18  N3  UNL     1     -14.608  -9.955  13.702  1.00  0.00    -0.028 NA
BRANCH  18  19
HETATM   19  N4  UNL     1     -15.708 -10.463  14.353  1.00  0.00    -0.329 N 
ATOM     20  H42 UNL     1     -15.988 -11.443  14.321  1.00  0.00     0.174 HD
ATOM     21  H41 UNL     1     -16.192  -9.724  14.863  1.00  0.00     0.174 HD
ENDBRANCH  18  19
ENDBRANCH  16  18
ENDBRANCH  12  16
ENDBRANCH   1  12
BRANCH  11  22
HETATM   22  C10 UNL     1     -12.206  -8.434  11.690  1.00  0.00     0.272 C 
HETATM   23  O2  UNL     1     -11.085  -8.716  12.153  1.00  0.00    -0.266 OA
HETATM   24  N8  UNL     1     -12.994  -7.517  12.476  1.00  0.00    -0.250 N 
ATOM     25  H8  UNL     1     -13.917  -7.254  12.132  1.00  0.00     0.187 HD
BRANCH  24  26
HETATM   26  N9  UNL     1     -12.559  -6.972  13.679  1.00  0.00    -0.027 NA
BRANCH  26  27
HETATM   27  N10 UNL     1     -12.774  -7.861  14.737  1.00  0.00    -0.329 N 
ATOM     28 2H10 UNL     1     -12.648  -8.871  14.662  1.00  0.00     0.174 HD
ATOM     29 1H10 UNL     1     -13.068  -7.364  15.578  1.00  0.00     0.174 HD
ENDBRANCH  26  27
ENDBRANCH  24  26
ENDBRANCH  11  22
BRANCH  10  30
HETATM   30  C7  UNL     1     -11.076  -9.451   5.844  1.00  0.00     0.157 C 
BRANCH  30  31
HETATM   31  C8  UNL     1     -10.612  -8.189   5.116  1.00  0.00     0.184 C 
BRANCH  31  32
HETATM   32  O1  UNL     1     -10.598  -8.417   3.740  1.00  0.00    -0.399 OA
ATOM     33  H1  UNL     1      -9.703  -8.541   3.444  1.00  0.00     0.209 HD
ENDBRANCH  31  32
ENDBRANCH  30  31
ENDBRANCH  10  30
TORSDOF 10
ENDMDL
MODEL 2
REMARK VINA RESULT: -6.786294176      1.508      2.971
REMARK  10 active torsions:
REMARK  status: ('A' for Active; 'I' for Inactive)
REMARK    1  A    between atoms: C1_4  and  N2_5 
REMARK    2  A    between atoms: C1_4  and  C2_11 
REMARK    3  A    between atoms: N2_5  and  N3_7 
REMARK    4  A    between atoms: N3_7  and  N4_8 
REMARK    5  A    between atoms: N7_20  and  C7_21 
REMARK    6  A    between atoms: C7_21  and  C8_22 
REMARK    7  A    between atoms: C8_22  and  O1_23 
REMARK    8  A    between atoms: C9_25  and  C10_26 
REMARK       I    between atoms: C10_26  and  N8_28 
REMARK    9  A    between atoms: N8_28  and  N9_30 
REMARK   10  A    between atoms: N9_30  and  N10_31 
ROOT
HETATM    1  C2  UNL     1     -12.220  -8.470  11.833  1.00  0.00     0.042 A 
HETATM    2  C3  UNL     1     -10.939  -8.257  11.293  1.00  0.00     0.106 A 
HETATM    3  N5  UNL     1     -10.673  -8.434  10.000  1.00  0.00    -0.349 N 
ATOM      4  H5  UNL     1      -9.726  -8.265   9.660  1.00  0.00     0.167 HD
HETATM    5  C4  UNL     1     -11.615  -8.828   9.138  1.00  0.00     0.136 A 
HETATM    6  C5  UNL     1     -12.877  -9.047   9.634  1.00  0.00     0.094 A 
HETATM    7  N6  UNL     1     -13.619  -9.428   8.610  1.00  0.00    -0.348 N 
ATOM      8  H6  UNL     1     -14.610  -9.665   8.658  1.00  0.00     0.167 HD
HETATM    9  C6  UNL     1     -12.865  -9.456   7.493  1.00  0.00     0.185 A 
HETATM   10  N7  UNL     1     -11.620  -9.083   7.818  1.00  0.00    -0.325 N 
HETATM   11  C9  UNL     1     -13.216  -8.878  10.985  1.00  0.00     0.079 A 
ENDROOT
BRANCH   1  12
HETATM   12  C1  UNL     1     -12.414  -8.146  13.213  1.00  0.00     0.124 C 
HETATM   13  N1  UNL     1     -12.780  -7.041  13.710  1.00  0.00    -0.384 N 
ATOM     14  H12 UNL     1     -12.917  -6.811  14.694  1.00  0.00     0.157 HD
ATOM     15  H11 UNL     1     -12.947  -6.310  13.018  1.00  0.00     0.157 HD
BRANCH  12  16
HETATM   16  N2  UNL     1     -12.176  -9.188  14.199  1.00  0.00    -0.269 N 
ATOM     17  H2  UNL     1     -11.259  -9.246  14.642  1.00  0.00     0.185 HD
BRANCH  16  18
HETATM   18  N3  UNL     1     -13.149 -10.102  14.556  1.00  0.00    -0.028 NA
BRANCH  18  19
HETATM   19  N4  UNL     1     -13.005 -11.263  13.834  1.00  0.00    -0.329 N 
ATOM     20  H42 UNL     1     -12.111 -11.616  13.493  1.00  0.00     0.174 HD
ATOM     21  H41 UNL     1     -13.911 -11.710  13.695  1.00  0.00     0.174 HD
ENDBRANCH  18  19
ENDBRANCH  16  18
ENDBRANCH  12  16
ENDBRANCH   1  12
BRANCH  11  22
HETATM   22  C10 UNL     1     -14.545  -9.257  11.391  1.00  0.00     0.272 C 
HETATM   23  O2  UNL     1     -15.320  -9.867  10.631  1.00  0.00    -0.266 OA
HETATM   24  N8  UNL     1     -15.064  -8.959  12.704  1.00  0.00    -0.250 N 
ATOM     25  H8  UNL     1     -14.461  -8.465  13.361  1.00  0.00     0.187 HD
BRANCH  24  26
HETATM   26  N9  UNL     1     -16.343  -9.310  13.118  1.00  0.00    -0.027 NA
BRANCH  26  27
HETATM   27  N10 UNL     1     -16.308  -9.953  14.360  1.00  0.00    -0.329 N 
ATOM     28 2H10 UNL     1     -16.176 -10.958  14.473  1.00  0.00     0.174 HD
ATOM     29 1H10 UNL     1     -16.430  -9.285  15.121  1.00  0.00     0.174 HD
ENDBRANCH  26  27
ENDBRANCH  24  26
ENDBRANCH  11  22
BRANCH  10  30
HETATM   30  C7  UNL     1     -10.515  -8.983   6.901  1.00  0.00     0.157 C 
BRANCH  30  31
HETATM   31  C8  UNL     1     -11.071  -8.747   5.496  1.00  0.00     0.184 C 
BRANCH  31  32
HETATM   32  O1  UNL     1     -10.477  -7.614   4.938  1.00  0.00    -0.399 OA
ATOM     33  H1  UNL     1      -9.591  -7.820   4.662  1.00  0.00     0.209 HD
ENDBRANCH  31  32
ENDBRANCH  30  31
ENDBRANCH  10  30
TORSDOF 10
ENDMDL
MODEL 3
REMARK VINA RESULT: -6.745051737      2.419      7.061
REMARK  10 active torsions:
REMARK  status: ('A' for Active; 'I' for Inactive)
REMARK    1  A    between atoms: C1_4  and  N2_5 
REMARK    2  A    between atoms: C1_4  and  C2_11 
REMARK    3  A    between atoms: N2_5  and  N3_7 
REMARK    4  A    between atoms: N3_7  and  N4_8 
REMARK    5  A    between atoms: N7_20  and  C7_21 
REMARK    6  A    between atoms: C7_21  and  C8_22 
REMARK    7  A    between atoms: C8_22  and  O1_23 
REMARK    8  A    between atoms: C9_25  and  C10_26 
REMARK       I    between atoms: C10_26  and  N8_28 
REMARK    9  A    between atoms: N8_28  and  N9_30 
REMARK   10  A    between atoms: N9_30  and  N10_31 
ROOT
HETATM    1  C2  UNL     1     -11.301  -9.022   7.933  1.00  0.00     0.042 A 
HETATM    2  C3  UNL     1     -10.389  -8.462   8.845  1.00  0.00     0.106 A 
HETATM    3  N5  UNL     1     -10.670  -8.323  10.139  1.00  0.00    -0.349 N 
ATOM      4  H5  UNL     1      -9.972  -7.911  10.758  1.00  0.00     0.167 HD
HETATM    5  C4  UNL     1     -11.844  -8.711  10.647  1.00  0.00     0.136 A 
HETATM    6  C5  UNL     1     -12.758  -9.261   9.781  1.00  0.00     0.094 A 
HETATM    7  N6  UNL     1     -13.825  -9.555  10.504  1.00  0.00    -0.348 N 
ATOM      8  H6  UNL     1     -14.680  -9.979  10.144  1.00  0.00     0.167 HD
HETATM    9  C6  UNL     1     -13.608  -9.208  11.788  1.00  0.00     0.185 A 
HETATM   10  N7  UNL     1     -12.379  -8.684  11.879  1.00  0.00    -0.325 N 
HETATM   11  C9  UNL     1     -12.519  -9.430   8.410  1.00  0.00     0.079 A 
ENDROOT
BRANCH   1  12
HETATM   12  C1  UNL     1     -10.851  -9.218   6.589  1.00  0.00     0.124 C 
HETATM   13  N1  UNL     1     -10.591 -10.311   6.006  1.00  0.00    -0.384 N 
ATOM     14  H12 UNL     1     -10.270 -10.450   5.048  1.00  0.00     0.157 HD
ATOM     15  H11 UNL     1     -10.725 -11.136   6.592  1.00  0.00     0.157 HD
BRANCH  12  16
HETATM   16  N2  UNL     1     -10.659  -8.043   5.755  1.00  0.00    -0.269 N 
ATOM     17  H2  UNL     1     -10.027  -7.310   6.074  1.00  0.00     0.185 HD
BRANCH  16  18
HETATM   18  N3  UNL     1     -11.305  -7.886   4.542  1.00  0.00    -0.028 NA
BRANCH  18  19
HETATM   19  N4  UNL     1     -10.526  -8.371   3.518  1.00  0.00    -0.329 N 
ATOM     20  H42 UNL     1      -9.637  -7.960   3.233  1.00  0.00     0.174 HD
ATOM     21  H41 UNL     1     -10.964  -9.189   3.095  1.00  0.00     0.174 HD
ENDBRANCH  18  19
ENDBRANCH  16  18
ENDBRANCH  12  16
ENDBRANCH   1  12
BRANCH  11  22
HETATM   22  C10 UNL     1     -13.608  -9.908   7.597  1.00  0.00     0.272 C 
HETATM   23  O2  UNL     1     -14.321 -10.868   7.945  1.00  0.00    -0.266 OA
HETATM   24  N8  UNL     1     -13.946  -9.306   6.330  1.00  0.00    -0.250 N 
ATOM     25  H8  UNL     1     -13.391  -8.514   6.009  1.00  0.00     0.187 HD
BRANCH  24  26
HETATM   26  N9  UNL     1     -14.989  -9.751   5.527  1.00  0.00    -0.027 NA
BRANCH  26  27
HETATM   27  N10 UNL     1     -14.795  -9.364   4.196  1.00  0.00    -0.329 N 
ATOM     28 2H10 UNL     1     -13.901  -9.039   3.826  1.00  0.00     0.174 HD
ATOM     29 1H10 UNL     1     -15.658  -9.452   3.660  1.00  0.00     0.174 HD
ENDBRANCH  26  27
ENDBRANCH  24  26
ENDBRANCH  11  22
BRANCH  10  30
HETATM   30  C7  UNL     1     -11.771  -8.193  13.089  1.00  0.00     0.157 C 
BRANCH  30  31
HETATM   31  C8  UNL     1     -12.855  -7.531  13.941  1.00  0.00     0.184 C 
BRANCH  31  32
HETATM   32  O1  UNL     1     -13.127  -8.324  15.057  1.00  0.00    -0.399 OA
ATOM     33  H1  UNL     1     -12.338  -8.431  15.576  1.00  0.00     0.209 HD
ENDBRANCH  31  32
ENDBRANCH  30  31
ENDBRANCH  10  30
TORSDOF 10
ENDMDL
MODEL 4
REMARK VINA RESULT: -6.710491028      2.747      4.842
REMARK  10 active torsions:
REMARK  status: ('A' for Active; 'I' for Inactive)
REMARK    1  A    between atoms: C1_4  and  N2_5 
REMARK    2  A    between atoms: C1_4  and  C2_11 
REMARK    3  A    between atoms: N2_5  and  N3_7 
REMARK    4  A    between atoms: N3_7  and  N4_8 
REMARK    5  A    between atoms: N7_20  and  C7_21 
REMARK    6  A    between atoms: C7_21  and  C8_22 
REMARK    7  A    between atoms: C8_22  and  O1_23 
REMARK    8  A    between atoms: C9_25  and  C10_26 
REMARK       I    between atoms: C10_26  and  N8_28 
REMARK    9  A    between atoms: N8_28  and  N9_30 
REMARK   10  A    between atoms: N9_30  and  N10_31 
ROOT
HETATM    1  C2  UNL     1     -11.555  -9.231   6.896  1.00  0.00     0.042 A 
HETATM    2  C3  UNL     1     -11.001  -8.958   5.631  1.00  0.00     0.106 A 
HETATM    3  N5  UNL     1     -11.743  -8.901   4.527  1.00  0.00    -0.349 N 
ATOM      4  H5  UNL     1     -11.292  -8.699   3.635  1.00  0.00     0.167 HD
HETATM    5  C4  UNL     1     -13.064  -9.104   4.559  1.00  0.00     0.136 A 
HETATM    6  C5  UNL     1     -13.635  -9.375   5.778  1.00  0.00     0.094 A 
HETATM    7  N6  UNL     1     -14.927  -9.541   5.556  1.00  0.00    -0.348 N 
ATOM      8  H6  UNL     1     -15.623  -9.755   6.270  1.00  0.00     0.167 HD
HETATM    9  C6  UNL     1     -15.181  -9.384   4.242  1.00  0.00     0.185 A 
HETATM   10  N7  UNL     1     -14.027  -9.112   3.620  1.00  0.00    -0.325 N 
HETATM   11  C9  UNL     1     -12.905  -9.448   6.974  1.00  0.00     0.079 A 
ENDROOT
BRANCH   1  12
HETATM   12  C1  UNL     1     -10.679  -9.161   8.025  1.00  0.00     0.124 C 
HETATM   13  N1  UNL     1      -9.918 -10.066   8.477  1.00  0.00    -0.384 N 
ATOM     14  H12 UNL     1      -9.294 -10.016   9.282  1.00  0.00     0.157 HD
ATOM     15  H11 UNL     1      -9.958 -10.942   7.954  1.00  0.00     0.157 HD
BRANCH  12  16
HETATM   16  N2  UNL     1     -10.622  -7.914   8.770  1.00  0.00    -0.269 N 
ATOM     17  H2  UNL     1     -10.010  -7.170   8.437  1.00  0.00     0.185 HD
BRANCH  16  18
HETATM   18  N3  UNL     1     -11.370  -7.703   9.913  1.00  0.00    -0.028 NA
BRANCH  18  19
HETATM   19  N4  UNL     1     -10.638  -8.027  11.032  1.00  0.00    -0.329 N 
ATOM     20  H42 UNL     1      -9.714  -8.457  11.004  1.00  0.00     0.174 HD
ATOM     21  H41 UNL     1     -11.151  -7.776  11.877  1.00  0.00     0.174 HD
ENDBRANCH  18  19
ENDBRANCH  16  18
ENDBRANCH  12  16
ENDBRANCH   1  12
BRANCH  11  22
HETATM   22  C10 UNL     1     -13.610  -9.859   8.161  1.00  0.00     0.272 C 
HETATM   23  O2  UNL     1     -13.998 -11.031   8.328  1.00  0.00    -0.266 OA
HETATM   24  N8  UNL     1     -13.910  -8.942   9.234  1.00  0.00    -0.250 N 
ATOM     25  H8  UNL     1     -13.607  -7.974   9.141  1.00  0.00     0.187 HD
BRANCH  24  26
HETATM   26  N9  UNL     1     -14.592  -9.313  10.387  1.00  0.00    -0.027 NA
BRANCH  26  27
HETATM   27  N10 UNL     1     -14.011  -8.732  11.520  1.00  0.00    -0.329 N 
ATOM     28 2H10 UNL     1     -13.022  -8.817  11.755  1.00  0.00     0.174 HD
ATOM     29 1H10 UNL     1     -14.705  -8.223  12.066  1.00  0.00     0.174 HD
ENDBRANCH  26  27
ENDBRANCH  24  26
ENDBRANCH  11  22
BRANCH  10  30
HETATM   30  C7  UNL     1     -13.877  -8.876   2.207  1.00  0.00     0.157 C 
BRANCH  30  31
HETATM   31  C8  UNL     1     -12.957  -9.952   1.631  1.00  0.00     0.184 C 
BRANCH  31  32
HETATM   32  O1  UNL     1     -11.659  -9.452   1.518  1.00  0.00    -0.399 OA
ATOM     33  H1  UNL     1     -11.685  -8.570   1.164  1.00  0.00     0.209 HD
ENDBRANCH  31  32
ENDBRANCH  30  31
ENDBRANCH  10  30
TORSDOF 10
ENDMDL
MODEL 5
REMARK VINA RESULT: -6.595723327      1.411      3.069
REMARK  10 active torsions:
REMARK  status: ('A' for Active; 'I' for Inactive)
REMARK    1  A    between atoms: C1_4  and  N2_5 
REMARK    2  A    between atoms: C1_4  and  C2_11 
REMARK    3  A    between atoms: N2_5  and  N3_7 
REMARK    4  A    between atoms: N3_7  and  N4_8 
REMARK    5  A    between atoms: N7_20  and  C7_21 
REMARK    6  A    between atoms: C7_21  and  C8_22 
REMARK    7  A    between atoms: C8_22  and  O1_23 
REMARK    8  A    between atoms: C9_25  and  C10_26 
REMARK       I    between atoms: C10_26  and  N8_28 
REMARK    9  A    between atoms: N8_28  and  N9_30 
REMARK   10  A    between atoms: N9_30  and  N10_31 
ROOT
HETATM    1  C2  UNL     1     -12.125  -8.427  11.445  1.00  0.00     0.042 A 
HETATM    2  C3  UNL     1     -10.893  -8.150  10.825  1.00  0.00     0.106 A 
HETATM    3  N5  UNL     1     -10.681  -8.377   9.530  1.00  0.00    -0.349 N 
ATOM      4  H5  UNL     1      -9.769  -8.158   9.130  1.00  0.00     0.167 HD
HETATM    5  C4  UNL     1     -11.634  -8.886   8.743  1.00  0.00     0.136 A 
HETATM    6  C5  UNL     1     -12.848  -9.170   9.319  1.00  0.00     0.094 A 
HETATM    7  N6  UNL     1     -13.611  -9.660   8.358  1.00  0.00    -0.348 N 
ATOM      8  H6  UNL     1     -14.577  -9.966   8.472  1.00  0.00     0.167 HD
HETATM    9  C6  UNL     1     -12.915  -9.693   7.204  1.00  0.00     0.185 A 
HETATM   10  N7  UNL     1     -11.687  -9.213   7.440  1.00  0.00    -0.325 N 
HETATM   11  C9  UNL     1     -13.129  -8.953  10.676  1.00  0.00     0.079 A 
ENDROOT
BRANCH   1  12
HETATM   12  C1  UNL     1     -12.272  -8.043  12.816  1.00  0.00     0.124 C 
HETATM   13  N1  UNL     1     -11.489  -8.286  13.781  1.00  0.00    -0.384 N 
ATOM     14  H12 UNL     1     -11.594  -8.013  14.757  1.00  0.00     0.157 HD
ATOM     15  H11 UNL     1     -10.664  -8.826  13.519  1.00  0.00     0.157 HD
BRANCH  12  16
HETATM   16  N2  UNL     1     -13.448  -7.274  13.189  1.00  0.00    -0.269 N 
ATOM     17  H2  UNL     1     -13.607  -6.371  12.744  1.00  0.00     0.185 HD
BRANCH  16  18
HETATM   18  N3  UNL     1     -14.359  -7.726  14.126  1.00  0.00    -0.028 NA
BRANCH  18  19
HETATM   19  N4  UNL     1     -13.707  -8.326  15.178  1.00  0.00    -0.329 N 
ATOM     20  H42 UNL     1     -12.718  -8.576  15.168  1.00  0.00     0.174 HD
ATOM     21  H41 UNL     1     -14.350  -8.479  15.954  1.00  0.00     0.174 HD
ENDBRANCH  18  19
ENDBRANCH  16  18
ENDBRANCH  12  16
ENDBRANCH   1  12
BRANCH  11  22
HETATM   22  C10 UNL     1     -14.403  -9.406  11.173  1.00  0.00     0.272 C 
HETATM   23  O2  UNL     1     -15.470  -9.160  10.581  1.00  0.00    -0.266 OA
HETATM   24  N8  UNL     1     -14.526 -10.176  12.387  1.00  0.00    -0.250 N 
ATOM     25  H8  UNL     1     -13.676 -10.405  12.902  1.00  0.00     0.187 HD
BRANCH  24  26
HETATM   26  N9  UNL     1     -15.742 -10.622  12.890  1.00  0.00    -0.027 NA
BRANCH  26  27
HETATM   27  N10 UNL     1     -15.777 -10.512  14.284  1.00  0.00    -0.329 N 
ATOM     28 2H10 UNL     1     -15.029 -10.096  14.838  1.00  0.00     0.174 HD
ATOM     29 1H10 UNL     1     -16.642 -10.902  14.659  1.00  0.00     0.174 HD
ENDBRANCH  26  27
ENDBRANCH  24  26
ENDBRANCH  11  22
BRANCH  10  30
HETATM   30  C7  UNL     1     -10.641  -9.082   6.459  1.00  0.00     0.157 C 
BRANCH  30  31
HETATM   31  C8  UNL     1     -11.270  -8.642   5.136  1.00  0.00     0.184 C 
BRANCH  31  32
HETATM   32  O1  UNL     1     -10.597  -7.524   4.643  1.00  0.00    -0.399 OA
ATOM     33  H1  UNL     1     -11.194  -6.787   4.590  1.00  0.00     0.209 HD
ENDBRANCH  31  32
ENDBRANCH  30  31
ENDBRANCH  10  30
TORSDOF 10
ENDMDL
