MODEL 1
REMARK VINA RESULT: -6.978622205      0.000      0.000
REMARK  10 active torsions:
REMARK  status: ('A' for Active; 'I' for Inactive)
REMARK    1  A    between atoms: N1_1  and  C1_4 
REMARK    2  A    between atoms: C2_7  and  N3_8 
REMARK    3  A    between atoms: N4_11  and  C3_12 
REMARK    4  A    between atoms: C3_12  and  O1_13 
REMARK    5  A    between atoms: C3_12  and  C4_15 
REMARK    6  A    between atoms: C4_15  and  S1_16 
REMARK    7  A    between atoms: C4_15  and  C6_19 
REMARK    8  A    between atoms: S1_16  and  C5_17 
REMARK    9  A    between atoms: C7_22  and  N5_23 
REMARK   10  A    between atoms: N5_23  and  N6_25 
ROOT
HETATM    1  C1  UNL     1     -13.273  -8.741  13.878  1.00  0.00     0.705 A 
HETATM    2  N2  UNL     1     -12.908  -7.676  13.120  1.00  0.00    -0.022 N 
ATOM      3  H2  UNL     1     -13.068  -6.733  13.474  1.00  0.00     0.203 HD
HETATM    4  C2  UNL     1     -12.338  -7.839  11.911  1.00  0.00     0.709 A 
HETATM    5  N4  UNL     1     -12.108  -9.065  11.402  1.00  0.00     0.017 N 
HETATM    6  C7  UNL     1     -12.478 -10.145  12.169  1.00  0.00     0.730 A 
HETATM    7  N7  UNL     1     -13.043  -9.969  13.370  1.00  0.00    -0.020 N 
ATOM      8  H7  UNL     1     -13.308 -10.788  13.917  1.00  0.00     0.203 HD
ENDROOT
BRANCH   5   9
HETATM    9  C3  UNL     1     -11.517  -9.330  10.150  1.00  0.00     0.286 C 
BRANCH   9  10
HETATM   10  O1  UNL     1     -10.257  -8.700   9.994  1.00  0.00    -0.373 OA
ATOM     11  H1  UNL     1      -9.584  -9.083  10.543  1.00  0.00     0.212 HD
ENDBRANCH   9  10
BRANCH   9  12
HETATM   12  C4  UNL     1     -12.318  -8.967   8.941  1.00  0.00     0.205 C 
BRANCH  12  13
HETATM   13  S1  UNL     1     -11.434  -9.758   7.528  1.00  0.00    -0.081 SA
BRANCH  13  14
HETATM   14  C5  UNL     1     -10.600  -8.487   6.629  1.00  0.00     0.305 C 
HETATM   15  O2  UNL     1      -9.941  -7.663   7.268  1.00  0.00    -0.295 OA
ENDBRANCH  13  14
ENDBRANCH  12  13
BRANCH  12  16
HETATM   16  C6  UNL     1     -13.678  -9.524   8.924  1.00  0.00     0.192 C 
HETATM   17  O3  UNL     1     -14.606  -8.751   9.340  1.00  0.00    -0.647 OA
HETATM   18  O4  UNL     1     -13.979 -10.804   8.491  1.00  0.00    -0.647 OA
ENDBRANCH  12  16
ENDBRANCH   9  12
ENDBRANCH   5   9
BRANCH   4  19
HETATM   19  N3  UNL     1     -12.008  -6.817  11.232  1.00  0.00    -0.233 N 
ATOM     20  H32 UNL     1     -11.755  -5.958  11.720  1.00  0.00     0.174 HD
ATOM     21  H31 UNL     1     -12.002  -6.872  10.213  1.00  0.00     0.174 HD
ENDBRANCH   4  19
BRANCH   6  22
HETATM   22  N5  UNL     1     -12.284 -11.332  11.749  1.00  0.00    -0.137 N 
ATOM     23  H5  UNL     1     -12.220 -11.454  10.739  1.00  0.00     0.205 HD
BRANCH  22  24
HETATM   24  N6  UNL     1     -12.152 -12.471  12.518  1.00  0.00    -0.331 N 
ATOM     25  H62 UNL     1     -12.943 -12.683  13.126  1.00  0.00     0.177 HD
ATOM     26  H61 UNL     1     -11.356 -13.108  12.536  1.00  0.00     0.177 HD
ENDBRANCH  22  24
ENDBRANCH   6  22
BRANCH   1  27
HETATM   27  N1  UNL     1     -13.817  -8.609  15.030  1.00  0.00    -0.234 N 
ATOM     28  H12 UNL     1     -14.442  -9.329  15.390  1.00  0.00     0.174 HD
ATOM     29  H11 UNL     1     -13.650  -7.795  15.622  1.00  0.00     0.174 HD
ENDBRANCH   1  27
TORSDOF 10
ENDMDL
MODEL 2
REMARK VINA RESULT: -6.976041185      1.929      2.386
REMARK  10 active torsions:
REMARK  status: ('A' for Active; 'I' for Inactive)
REMARK    1  A    between atoms: N1_1  and  C1_4 
REMARK    2  A    between atoms: C2_7  and  N3_8 
REMARK    3  A    between atoms: N4_11  and  C3_12 
REMARK    4  A    between atoms: C3_12  and  O1_13 
REMARK    5  A    between atoms: C3_12  and  C4_15 
REMARK    6  A    between atoms: C4_15  and  S1_16 
REMARK    7  A    between atoms: C4_15  and  C6_19 
REMARK    8  A    between atoms: S1_16  and  C5_17 
REMARK    9  A    between atoms: C7_22  and  N5_23 
REMARK   10  A    between atoms: N5_23  and  N6_25 
ROOT
HETATM    1  C1  UNL     1     -15.577  -9.861  14.485  1.00  0.00     0.705 A 
HETATM    2  N2  UNL     1     -15.377  -8.557  14.170  1.00  0.00    -0.022 N 
ATOM      3  H2  UNL     1     -16.082  -7.867  14.427  1.00  0.00     0.203 HD
HETATM    4  C2  UNL     1     -14.265  -8.156  13.524  1.00  0.00     0.709 A 
HETATM    5  N4  UNL     1     -13.307  -9.031  13.163  1.00  0.00     0.017 N 
HETATM    6  C7  UNL     1     -13.510 -10.353  13.483  1.00  0.00     0.730 A 
HETATM    7  N7  UNL     1     -14.619 -10.740  14.125  1.00  0.00    -0.020 N 
ATOM      8  H7  UNL     1     -14.743 -11.727  14.349  1.00  0.00     0.203 HD
ENDROOT
BRANCH   5   9
HETATM    9  C3  UNL     1     -12.114  -8.702  12.488  1.00  0.00     0.286 C 
BRANCH   9  10
HETATM   10  O1  UNL     1     -11.381  -7.679  13.139  1.00  0.00    -0.373 OA
ATOM     11  H1  UNL     1     -10.500  -7.948  13.369  1.00  0.00     0.212 HD
ENDBRANCH   9  10
BRANCH   9  12
HETATM   12  C4  UNL     1     -12.247  -8.277  11.061  1.00  0.00     0.205 C 
BRANCH  12  13
HETATM   13  S1  UNL     1     -10.524  -8.263  10.404  1.00  0.00    -0.081 SA
BRANCH  13  14
HETATM   14  C5  UNL     1     -10.595  -8.652   8.683  1.00  0.00     0.305 C 
HETATM   15  O2  UNL     1     -10.138  -7.830   7.884  1.00  0.00    -0.295 OA
ENDBRANCH  13  14
ENDBRANCH  12  13
BRANCH  12  16
HETATM   16  C6  UNL     1     -12.991  -9.220  10.213  1.00  0.00     0.192 C 
HETATM   17  O3  UNL     1     -12.579 -10.429  10.222  1.00  0.00    -0.647 OA
HETATM   18  O4  UNL     1     -14.078  -8.861   9.435  1.00  0.00    -0.647 OA
ENDBRANCH  12  16
ENDBRANCH   9  12
ENDBRANCH   5   9
BRANCH   4  19
HETATM   19  N3  UNL     1     -14.113  -6.925  13.247  1.00  0.00    -0.233 N 
ATOM     20  H32 UNL     1     -13.854  -6.278  13.992  1.00  0.00     0.174 HD
ATOM     21  H31 UNL     1     -14.252  -6.605  12.289  1.00  0.00     0.174 HD
ENDBRANCH   4  19
BRANCH   6  22
HETATM   22  N5  UNL     1     -12.641 -11.233  13.175  1.00  0.00    -0.137 N 
ATOM     23  H5  UNL     1     -11.727 -11.146  13.619  1.00  0.00     0.205 HD
BRANCH  22  24
HETATM   24  N6  UNL     1     -12.806 -12.290  12.303  1.00  0.00    -0.331 N 
ATOM     25  H62 UNL     1     -13.759 -12.443  11.975  1.00  0.00     0.177 HD
ATOM     26  H61 UNL     1     -12.081 -12.921  11.962  1.00  0.00     0.177 HD
ENDBRANCH  22  24
ENDBRANCH   6  22
BRANCH   1  27
HETATM   27  N1  UNL     1     -16.627 -10.265  15.099  1.00  0.00    -0.234 N 
ATOM     28  H12 UNL     1     -17.330 -10.816  14.608  1.00  0.00     0.174 HD
ATOM     29  H11 UNL     1     -16.798 -10.057  16.082  1.00  0.00     0.174 HD
ENDBRANCH   1  27
TORSDOF 10
ENDMDL
MODEL 3
REMARK VINA RESULT: -6.938851665      1.114      1.140
REMARK  10 active torsions:
REMARK  status: ('A' for Active; 'I' for Inactive)
REMARK    1  A    between atoms: N1_1  and  C1_4 
REMARK    2  A    between atoms: C2_7  and  N3_8 
REMARK    3  A    between atoms: N4_11  and  C3_12 
REMARK    4  A    between atoms: C3_12  and  O1_13 
REMARK    5  A    between atoms: C3_12  and  C4_15 
REMARK    6  A    between atoms: C4_15  and  S1_16 
REMARK    7  A    between atoms: C4_15  and  C6_19 
REMARK    8  A    between atoms: S1_16  and  C5_17 
REMARK    9  A    between atoms: C7_22  and  N5_23 
REMARK   10  A    between atoms: N5_23  and  N6_25 
ROOT
HETATM    1  C1  UNL     1     -14.515  -9.920  13.817  1.00  0.00     0.705 A 
HETATM    2  N2  UNL     1     -14.259  -8.645  13.430  1.00  0.00    -0.022 N 
ATOM      3  H2  UNL     1     -14.797  -7.881  13.838  1.00  0.00     0.203 HD
HETATM    4  C2  UNL     1     -13.307  -8.368  12.517  1.00  0.00     0.709 A 
HETATM    5  N4  UNL     1     -12.572  -9.344  11.950  1.00  0.00     0.017 N 
HETATM    6  C7  UNL     1     -12.831 -10.636  12.342  1.00  0.00     0.730 A 
HETATM    7  N7  UNL     1     -13.779 -10.899  13.250  1.00  0.00    -0.020 N 
ATOM      8  H7  UNL     1     -13.950 -11.867  13.522  1.00  0.00     0.203 HD
ENDROOT
BRANCH   5   9
HETATM    9  C3  UNL     1     -11.558  -9.148  10.991  1.00  0.00     0.286 C 
BRANCH   9  10
HETATM   10  O1  UNL     1     -10.625  -8.153  11.376  1.00  0.00    -0.373 OA
ATOM     11  H1  UNL     1      -9.954  -8.005  10.720  1.00  0.00     0.212 HD
ENDBRANCH   9  10
BRANCH   9  12
HETATM   12  C4  UNL     1     -12.002  -8.791   9.609  1.00  0.00     0.205 C 
BRANCH  12  13
HETATM   13  S1  UNL     1     -10.671  -9.425   8.501  1.00  0.00    -0.081 SA
BRANCH  13  14
HETATM   14  C5  UNL     1     -10.928  -8.737   6.894  1.00  0.00     0.305 C 
HETATM   15  O2  UNL     1     -10.158  -7.852   6.514  1.00  0.00    -0.295 OA
ENDBRANCH  13  14
ENDBRANCH  12  13
BRANCH  12  16
HETATM   16  C6  UNL     1     -13.236  -9.461   9.176  1.00  0.00     0.192 C 
HETATM   17  O3  UNL     1     -14.288  -8.738   9.146  1.00  0.00    -0.647 OA
HETATM   18  O4  UNL     1     -13.299 -10.796   8.814  1.00  0.00    -0.647 OA
ENDBRANCH  12  16
ENDBRANCH   9  12
ENDBRANCH   5   9
BRANCH   4  19
HETATM   19  N3  UNL     1     -13.095  -7.161  12.181  1.00  0.00    -0.233 N 
ATOM     20  H32 UNL     1     -13.428  -6.833  11.275  1.00  0.00     0.174 HD
ATOM     21  H31 UNL     1     -12.597  -6.543  12.821  1.00  0.00     0.174 HD
ENDBRANCH   4  19
BRANCH   6  22
HETATM   22  N5  UNL     1     -12.169 -11.607  11.848  1.00  0.00    -0.137 N 
ATOM     23  H5  UNL     1     -11.637 -11.411  11.001  1.00  0.00     0.205 HD
BRANCH  22  24
HETATM   24  N6  UNL     1     -12.095 -12.894  12.340  1.00  0.00    -0.331 N 
ATOM     25  H62 UNL     1     -11.656 -12.989  13.255  1.00  0.00     0.177 HD
ATOM     26  H61 UNL     1     -12.431 -13.743  11.886  1.00  0.00     0.177 HD
ENDBRANCH  22  24
ENDBRANCH   6  22
BRANCH   1  27
HETATM   27  N1  UNL     1     -15.415 -10.206  14.682  1.00  0.00    -0.234 N 
ATOM     28  H12 UNL     1     -15.870  -9.466  15.216  1.00  0.00     0.174 HD
ATOM     29  H11 UNL     1     -15.706 -11.166  14.870  1.00  0.00     0.174 HD
ENDBRANCH   1  27
TORSDOF 10
ENDMDL
MODEL 4
REMARK VINA RESULT: -6.745241833      1.946      3.165
REMARK  10 active torsions:
REMARK  status: ('A' for Active; 'I' for Inactive)
REMARK    1  A    between atoms: N1_1  and  C1_4 
REMARK    2  A    between atoms: C2_7  and  N3_8 
REMARK    3  A    between atoms: N4_11  and  C3_12 
REMARK    4  A    between atoms: C3_12  and  O1_13 
REMARK    5  A    between atoms: C3_12  and  C4_15 
REMARK    6  A    between atoms: C4_15  and  S1_16 
REMARK    7  A    between atoms: C4_15  and  C6_19 
REMARK    8  A    between atoms: S1_16  and  C5_17 
REMARK    9  A    between atoms: C7_22  and  N5_23 
REMARK   10  A    between atoms: N5_23  and  N6_25 
ROOT
HETATM    1  C1  UNL     1     -15.674  -9.724  14.393  1.00  0.00     0.705 A 
HETATM    2  N2  UNL     1     -15.332  -8.473  13.995  1.00  0.00    -0.022 N 
ATOM      3  H2  UNL     1     -16.002  -7.713  14.103  1.00  0.00     0.203 HD
HETATM    4  C2  UNL     1     -14.122  -8.215  13.460  1.00  0.00     0.709 A 
HETATM    5  N4  UNL     1     -13.204  -9.186  13.297  1.00  0.00     0.017 N 
HETATM    6  C7  UNL     1     -13.551 -10.455  13.700  1.00  0.00     0.730 A 
HETATM    7  N7  UNL     1     -14.755 -10.699  14.231  1.00  0.00    -0.020 N 
ATOM      8  H7  UNL     1     -14.985 -11.649  14.521  1.00  0.00     0.203 HD
ENDROOT
BRANCH   5   9
HETATM    9  C3  UNL     1     -11.918  -9.008  12.749  1.00  0.00     0.286 C 
BRANCH   9  10
HETATM   10  O1  UNL     1     -11.372  -7.732  13.034  1.00  0.00    -0.373 OA
ATOM     11  H1  UNL     1     -12.038  -7.062  13.134  1.00  0.00     0.212 HD
ENDBRANCH   9  10
BRANCH   9  12
HETATM   12  C4  UNL     1     -11.786  -9.198  11.272  1.00  0.00     0.205 C 
BRANCH  12  13
HETATM   13  S1  UNL     1     -13.514  -9.408  10.661  1.00  0.00    -0.081 SA
BRANCH  13  14
HETATM   14  C5  UNL     1     -13.441  -9.727   8.926  1.00  0.00     0.305 C 
HETATM   15  O2  UNL     1     -13.911 -10.790   8.512  1.00  0.00    -0.295 OA
ENDBRANCH  13  14
ENDBRANCH  12  13
BRANCH  12  16
HETATM   16  C6  UNL     1     -11.247  -8.033  10.556  1.00  0.00     0.192 C 
HETATM   17  O3  UNL     1     -10.062  -8.155  10.096  1.00  0.00    -0.647 OA
HETATM   18  O4  UNL     1     -11.949  -6.854  10.368  1.00  0.00    -0.647 OA
ENDBRANCH  12  16
ENDBRANCH   9  12
ENDBRANCH   5   9
BRANCH   4  19
HETATM   19  N3  UNL     1     -13.838  -7.030  13.101  1.00  0.00    -0.233 N 
ATOM     20  H32 UNL     1     -13.387  -6.880  12.199  1.00  0.00     0.174 HD
ATOM     21  H31 UNL     1     -14.064  -6.250  13.718  1.00  0.00     0.174 HD
ENDBRANCH   4  19
BRANCH   6  22
HETATM   22  N5  UNL     1     -12.727 -11.419  13.578  1.00  0.00    -0.137 N 
ATOM     23  H5  UNL     1     -12.073 -11.560  14.347  1.00  0.00     0.205 HD
BRANCH  22  24
HETATM   24  N6  UNL     1     -12.627 -12.293  12.515  1.00  0.00    -0.331 N 
ATOM     25  H62 UNL     1     -12.292 -13.228  12.746  1.00  0.00     0.177 HD
ATOM     26  H61 UNL     1     -12.852 -12.098  11.539  1.00  0.00     0.177 HD
ENDBRANCH  22  24
ENDBRANCH   6  22
BRANCH   1  27
HETATM   27  N1  UNL     1     -16.818  -9.992  14.904  1.00  0.00    -0.234 N 
ATOM     28  H12 UNL     1     -17.528  -9.265  14.986  1.00  0.00     0.174 HD
ATOM     29  H11 UNL     1     -17.059 -10.923  15.244  1.00  0.00     0.174 HD
ENDBRANCH   1  27
TORSDOF 10
ENDMDL
MODEL 5
REMARK VINA RESULT: -6.545420339      1.882      2.799
REMARK  10 active torsions:
REMARK  status: ('A' for Active; 'I' for Inactive)
REMARK    1  A    between atoms: N1_1  and  C1_4 
REMARK    2  A    between atoms: C2_7  and  N3_8 
REMARK    3  A    between atoms: N4_11  and  C3_12 
REMARK    4  A    between atoms: C3_12  and  O1_13 
REMARK    5  A    between atoms: C3_12  and  C4_15 
REMARK    6  A    between atoms: C4_15  and  S1_16 
REMARK    7  A    between atoms: C4_15  and  C6_19 
REMARK    8  A    between atoms: S1_16  and  C5_17 
REMARK    9  A    between atoms: C7_22  and  N5_23 
REMARK   10  A    between atoms: N5_23  and  N6_25 
ROOT
HETATM    1  C1  UNL     1     -13.185  -8.569  13.909  1.00  0.00     0.705 A 
HETATM    2  N2  UNL     1     -12.068  -8.018  13.371  1.00  0.00    -0.022 N 
ATOM      3  H2  UNL     1     -11.330  -7.681  13.988  1.00  0.00     0.203 HD
HETATM    4  C2  UNL     1     -11.914  -7.909  12.037  1.00  0.00     0.709 A 
HETATM    5  N4  UNL     1     -12.862  -8.339  11.183  1.00  0.00     0.017 N 
HETATM    6  C7  UNL     1     -13.995  -8.897  11.728  1.00  0.00     0.730 A 
HETATM    7  N7  UNL     1     -14.136  -9.000  13.055  1.00  0.00    -0.020 N 
ATOM      8  H7  UNL     1     -14.987  -9.418  13.432  1.00  0.00     0.203 HD
ENDROOT
BRANCH   5   9
HETATM    9  C3  UNL     1     -12.786  -8.267   9.777  1.00  0.00     0.286 C 
BRANCH   9  10
HETATM   10  O1  UNL     1     -14.058  -8.146   9.165  1.00  0.00    -0.373 OA
ATOM     11  H1  UNL     1     -14.689  -8.773   9.499  1.00  0.00     0.212 HD
ENDBRANCH   9  10
BRANCH   9  12
HETATM   12  C4  UNL     1     -12.096  -9.398   9.084  1.00  0.00     0.205 C 
BRANCH  12  13
HETATM   13  S1  UNL     1     -13.089  -9.701   7.560  1.00  0.00    -0.081 SA
BRANCH  13  14
HETATM   14  C5  UNL     1     -12.049  -9.394   6.165  1.00  0.00     0.305 C 
HETATM   15  O2  UNL     1     -12.571  -9.376   5.047  1.00  0.00    -0.295 OA
ENDBRANCH  13  14
ENDBRANCH  12  13
BRANCH  12  16
HETATM   16  C6  UNL     1     -10.736  -9.088   8.621  1.00  0.00     0.192 C 
HETATM   17  O3  UNL     1      -9.978 -10.090   8.392  1.00  0.00    -0.647 OA
HETATM   18  O4  UNL     1     -10.264  -7.800   8.434  1.00  0.00    -0.647 OA
ENDBRANCH  12  16
ENDBRANCH   9  12
ENDBRANCH   5   9
BRANCH   4  19
HETATM   19  N3  UNL     1     -10.853  -7.389  11.571  1.00  0.00    -0.233 N 
ATOM     20  H32 UNL     1      -9.992  -7.936  11.570  1.00  0.00     0.174 HD
ATOM     21  H31 UNL     1     -10.878  -6.437  11.207  1.00  0.00     0.174 HD
ENDBRANCH   4  19
BRANCH   6  22
HETATM   22  N5  UNL     1     -14.929  -9.329  10.976  1.00  0.00    -0.137 N 
ATOM     23  H5  UNL     1     -14.670 -10.034  10.286  1.00  0.00     0.205 HD
BRANCH  22  24
HETATM   24  N6  UNL     1     -16.254  -8.943  10.997  1.00  0.00    -0.331 N 
ATOM     25  H62 UNL     1     -16.828  -9.383  11.715  1.00  0.00     0.177 HD
ATOM     26  H61 UNL     1     -16.706  -8.272  10.375  1.00  0.00     0.177 HD
ENDBRANCH  22  24
ENDBRANCH   6  22
BRANCH   1  27
HETATM   27  N1  UNL     1     -13.353  -8.683  15.174  1.00  0.00    -0.234 N 
ATOM     28  H12 UNL     1     -12.547  -8.711  15.799  1.00  0.00     0.174 HD
ATOM     29  H11 UNL     1     -14.277  -8.748  15.599  1.00  0.00     0.174 HD
ENDBRANCH   1  27
TORSDOF 10
ENDMDL
