MODEL 1
REMARK VINA RESULT: -7.063224308      0.000      0.000
REMARK  6 active torsions:
REMARK  status: ('A' for Active; 'I' for Inactive)
REMARK    1  A    between atoms: C2_4  and  N2_5 
REMARK    2  A    between atoms: C2_4  and  C4_16 
REMARK       I    between atoms: N2_5  and  C3_7 
REMARK       I    between atoms: C3_7  and  N3_8 
REMARK       I    between atoms: C3_7  and  N4_12 
REMARK    3  A    between atoms: N4_12  and  N5_13 
REMARK    4  A    between atoms: C4_16  and  N6_17 
REMARK    5  A    between atoms: C4_16  and  C5_21 
REMARK    6  A    between atoms: C5_21  and  N7_22 
ROOT
HETATM    1  C4  UNL     1     -11.719  -8.615   9.815  1.00  0.00     0.289 C 
ENDROOT
BRANCH   1   2
HETATM    2  C2  UNL     1     -11.871  -9.156   8.449  1.00  0.00     0.111 C 
HETATM    3  N1  UNL     1     -12.819  -9.803   8.032  1.00  0.00    -0.382 N 
HETATM    4  C1  UNL     1     -14.045 -10.343   8.356  1.00  0.00     0.147 C 
ATOM      5  H1  UNL     1     -12.628 -10.035   7.058  1.00  0.00     0.160 HD
BRANCH   2   6
HETATM    6  N2  UNL     1     -10.797  -8.915   7.492  1.00  0.00    -0.337 N 
HETATM    7  C3  UNL     1     -11.190  -8.540   6.153  1.00  0.00     0.397 C 
HETATM    8  N3  UNL     1     -10.010  -8.319   5.312  1.00  0.00    -0.042 N 
HETATM    9  N4  UNL     1     -11.940  -9.598   5.496  1.00  0.00    -0.093 NA
ATOM     10  H33 UNL     1      -9.374  -7.636   5.725  1.00  0.00     0.278 HD
ATOM     11  H32 UNL     1      -9.388  -9.127   5.312  1.00  0.00     0.278 HD
ATOM     12  H31 UNL     1     -10.287  -8.054   4.367  1.00  0.00     0.278 HD
ATOM     13  H2  UNL     1      -9.816  -9.006   7.755  1.00  0.00     0.164 HD
BRANCH   9  14
HETATM   14  N5  UNL     1     -12.315  -9.209   4.203  1.00  0.00    -0.345 N 
ATOM     15  H52 UNL     1     -11.921  -9.610   3.352  1.00  0.00     0.172 HD
ATOM     16  H51 UNL     1     -13.026  -8.478   4.240  1.00  0.00     0.172 HD
ENDBRANCH   9  14
ENDBRANCH   2   6
ENDBRANCH   1   2
BRANCH   1  17
HETATM   17  N6  UNL     1     -10.290  -8.245   9.870  1.00  0.00    -0.064 N 
ATOM     18  H63 UNL     1      -9.654  -9.026  10.030  1.00  0.00     0.275 HD
ATOM     19  H62 UNL     1      -9.888  -7.966   8.975  1.00  0.00     0.275 HD
ATOM     20  H61 UNL     1     -10.266  -7.523  10.590  1.00  0.00     0.275 HD
ENDBRANCH   1  17
BRANCH   1  21
HETATM   21  C5  UNL     1     -12.064  -9.508  10.894  1.00  0.00     0.126 C 
BRANCH  21  22
HETATM   22  N7  UNL     1     -12.936  -9.077  11.954  1.00  0.00    -0.272 N 
HETATM   23  N8  UNL     1     -14.171  -9.545  11.634  1.00  0.00    -0.270 N 
HETATM   24  C6  UNL     1     -15.496  -9.510  12.108  1.00  0.00     0.203 C 
ATOM     25  H8  UNL     1     -14.123 -10.098  10.779  1.00  0.00     0.190 HD
HETATM   26  N9  UNL     1     -16.489  -9.410  11.053  1.00  0.00    -0.062 NA
HETATM   27  N10 UNL     1     -16.047  -9.548  13.275  1.00  0.00    -0.362 N 
HETATM   28  C7  UNL     1     -15.510  -9.642  14.588  1.00  0.00     0.150 C 
ATOM     29  H10 UNL     1     -17.065  -9.502  13.250  1.00  0.00     0.162 HD
HETATM   30  C8  UNL     1     -14.274  -8.792  14.782  1.00  0.00     0.254 C 
HETATM   31  N11 UNL     1     -13.190  -9.587  14.309  1.00  0.00    -0.051 N 
HETATM   32  C9  UNL     1     -12.442  -8.964  13.236  1.00  0.00     0.301 C 
ATOM     33 2H11 UNL     1     -12.571  -9.847  15.077  1.00  0.00     0.279 HD
ATOM     34 1H11 UNL     1     -13.516 -10.513  14.033  1.00  0.00     0.279 HD
HETATM   35  C10 UNL     1     -12.055  -7.581  13.733  1.00  0.00     0.065 C 
ENDBRANCH  21  22
ENDBRANCH   1  21
TORSDOF 6
ENDMDL
MODEL 2
REMARK VINA RESULT: -6.957261307      1.212      1.523
REMARK  6 active torsions:
REMARK  status: ('A' for Active; 'I' for Inactive)
REMARK    1  A    between atoms: C2_4  and  N2_5 
REMARK    2  A    between atoms: C2_4  and  C4_16 
REMARK       I    between atoms: N2_5  and  C3_7 
REMARK       I    between atoms: C3_7  and  N3_8 
REMARK       I    between atoms: C3_7  and  N4_12 
REMARK    3  A    between atoms: N4_12  and  N5_13 
REMARK    4  A    between atoms: C4_16  and  N6_17 
REMARK    5  A    between atoms: C4_16  and  C5_21 
REMARK    6  A    between atoms: C5_21  and  N7_22 
ROOT
HETATM    1  C4  UNL     1     -11.674  -9.167   8.374  1.00  0.00     0.289 C 
ENDROOT
BRANCH   1   2
HETATM    2  C2  UNL     1     -12.143  -9.412   6.996  1.00  0.00     0.111 C 
HETATM    3  N1  UNL     1     -13.287  -9.674   6.660  1.00  0.00    -0.382 N 
HETATM    4  C1  UNL     1     -14.577  -9.871   7.107  1.00  0.00     0.147 C 
ATOM      5  H1  UNL     1     -13.292  -9.793   5.647  1.00  0.00     0.160 HD
BRANCH   2   6
HETATM    6  N2  UNL     1     -11.164  -9.350   5.916  1.00  0.00    -0.337 N 
HETATM    7  C3  UNL     1     -11.534  -8.590   4.744  1.00  0.00     0.397 C 
HETATM    8  N3  UNL     1     -10.452  -8.606   3.756  1.00  0.00    -0.042 N 
HETATM    9  N4  UNL     1     -12.684  -9.170   4.068  1.00  0.00    -0.093 NA
ATOM     10  H33 UNL     1      -9.571  -8.282   4.154  1.00  0.00     0.278 HD
ATOM     11  H32 UNL     1     -10.170  -9.558   3.518  1.00  0.00     0.278 HD
ATOM     12  H31 UNL     1     -10.713  -8.070   2.929  1.00  0.00     0.278 HD
ATOM     13  H2  UNL     1     -10.261  -9.820   5.985  1.00  0.00     0.164 HD
BRANCH   9  14
HETATM   14  N5  UNL     1     -13.027  -8.412   2.940  1.00  0.00    -0.345 N 
ATOM     15  H52 UNL     1     -13.043  -7.393   2.923  1.00  0.00     0.172 HD
ATOM     16  H51 UNL     1     -13.254  -9.022   2.154  1.00  0.00     0.172 HD
ENDBRANCH   9  14
ENDBRANCH   2   6
ENDBRANCH   1   2
BRANCH   1  17
HETATM   17  N6  UNL     1     -10.261  -9.599   8.328  1.00  0.00    -0.064 N 
ATOM     18  H63 UNL     1      -9.929 -10.059   9.175  1.00  0.00     0.275 HD
ATOM     19  H62 UNL     1     -10.077 -10.384   7.703  1.00  0.00     0.275 HD
ATOM     20  H61 UNL     1      -9.766  -8.740   8.089  1.00  0.00     0.275 HD
ENDBRANCH   1  17
BRANCH   1  21
HETATM   21  C5  UNL     1     -12.390  -9.855   9.421  1.00  0.00     0.126 C 
BRANCH  21  22
HETATM   22  N7  UNL     1     -12.827  -9.151  10.596  1.00  0.00    -0.272 N 
HETATM   23  N8  UNL     1     -14.102  -9.564  10.826  1.00  0.00    -0.270 N 
HETATM   24  C6  UNL     1     -15.175  -9.322  11.704  1.00  0.00     0.203 C 
ATOM     25  H8  UNL     1     -14.365 -10.275  10.144  1.00  0.00     0.190 HD
HETATM   26  N9  UNL     1     -16.475  -9.344  11.055  1.00  0.00    -0.062 NA
HETATM   27  N10 UNL     1     -15.281  -9.083  12.968  1.00  0.00    -0.362 N 
HETATM   28  C7  UNL     1     -14.317  -8.963  14.006  1.00  0.00     0.150 C 
ATOM     29  H10 UNL     1     -16.242  -8.954  13.282  1.00  0.00     0.162 HD
HETATM   30  C8  UNL     1     -13.081  -8.202  13.581  1.00  0.00     0.254 C 
HETATM   31  N11 UNL     1     -12.243  -9.166  12.948  1.00  0.00    -0.051 N 
HETATM   32  C9  UNL     1     -11.913  -8.833  11.578  1.00  0.00     0.301 C 
ATOM     33 2H11 UNL     1     -11.397  -9.324  13.496  1.00  0.00     0.279 HD
ATOM     34 1H11 UNL     1     -12.657 -10.096  13.005  1.00  0.00     0.279 HD
HETATM   35  C10 UNL     1     -11.358  -7.418  11.604  1.00  0.00     0.065 C 
ENDBRANCH  21  22
ENDBRANCH   1  21
TORSDOF 6
ENDMDL
MODEL 3
REMARK VINA RESULT: -6.582603724      1.424      2.449
REMARK  6 active torsions:
REMARK  status: ('A' for Active; 'I' for Inactive)
REMARK    1  A    between atoms: C2_4  and  N2_5 
REMARK    2  A    between atoms: C2_4  and  C4_16 
REMARK       I    between atoms: N2_5  and  C3_7 
REMARK       I    between atoms: C3_7  and  N3_8 
REMARK       I    between atoms: C3_7  and  N4_12 
REMARK    3  A    between atoms: N4_12  and  N5_13 
REMARK    4  A    between atoms: C4_16  and  N6_17 
REMARK    5  A    between atoms: C4_16  and  C5_21 
REMARK    6  A    between atoms: C5_21  and  N7_22 
ROOT
HETATM    1  C4  UNL     1     -13.261  -9.874   8.603  1.00  0.00     0.289 C 
ENDROOT
BRANCH   1   2
HETATM    2  C2  UNL     1     -12.470  -9.470   7.423  1.00  0.00     0.111 C 
HETATM    3  N1  UNL     1     -11.309  -9.095   7.428  1.00  0.00    -0.382 N 
HETATM    4  C1  UNL     1     -10.208  -8.843   8.220  1.00  0.00     0.147 C 
ATOM      5  H1  UNL     1     -11.049  -8.884   6.465  1.00  0.00     0.160 HD
BRANCH   2   6
HETATM    6  N2  UNL     1     -13.119  -9.508   6.117  1.00  0.00    -0.337 N 
HETATM    7  C3  UNL     1     -12.254  -9.536   4.960  1.00  0.00     0.397 C 
HETATM    8  N3  UNL     1     -13.044  -9.585   3.727  1.00  0.00    -0.042 N 
HETATM    9  N4  UNL     1     -11.452  -8.327   4.859  1.00  0.00    -0.093 NA
ATOM     10  H33 UNL     1     -13.699 -10.367   3.728  1.00  0.00     0.278 HD
ATOM     11  H32 UNL     1     -13.718  -8.821   3.677  1.00  0.00     0.278 HD
ATOM     12  H31 UNL     1     -12.433  -9.606   2.910  1.00  0.00     0.278 HD
ATOM     13  H2  UNL     1     -14.135  -9.514   6.024  1.00  0.00     0.164 HD
BRANCH   9  14
HETATM   14  N5  UNL     1     -10.618  -8.382   3.734  1.00  0.00    -0.345 N 
ATOM     15  H52 UNL     1     -10.340  -9.248   3.273  1.00  0.00     0.172 HD
ATOM     16  H51 UNL     1     -10.335  -7.443   3.451  1.00  0.00     0.172 HD
ENDBRANCH   9  14
ENDBRANCH   2   6
ENDBRANCH   1   2
BRANCH   1  17
HETATM   17  N6  UNL     1     -14.331 -10.709   8.019  1.00  0.00    -0.064 N 
ATOM     18  H63 UNL     1     -14.161 -11.006   7.058  1.00  0.00     0.275 HD
ATOM     19  H62 UNL     1     -14.396 -11.650   8.407  1.00  0.00     0.275 HD
ATOM     20  H61 UNL     1     -15.165 -10.137   8.147  1.00  0.00     0.275 HD
ENDBRANCH   1  17
BRANCH   1  21
HETATM   21  C5  UNL     1     -13.816  -8.802   9.393  1.00  0.00     0.126 C 
BRANCH  21  22
HETATM   22  N7  UNL     1     -13.515  -8.692  10.795  1.00  0.00    -0.272 N 
HETATM   23  N8  UNL     1     -14.558  -9.271  11.448  1.00  0.00    -0.270 N 
HETATM   24  C6  UNL     1     -15.014  -9.510  12.758  1.00  0.00     0.203 C 
ATOM     25  H8  UNL     1     -15.220  -9.654  10.773  1.00  0.00     0.190 HD
HETATM   26  N9  UNL     1     -16.453  -9.372  12.906  1.00  0.00    -0.062 NA
HETATM   27  N10 UNL     1     -14.451  -9.828  13.874  1.00  0.00    -0.362 N 
HETATM   28  C7  UNL     1     -13.097 -10.070  14.232  1.00  0.00     0.150 C 
ATOM     29  H10 UNL     1     -15.105  -9.926  14.651  1.00  0.00     0.162 HD
HETATM   30  C8  UNL     1     -12.133  -9.097  13.588  1.00  0.00     0.254 C 
HETATM   31  N11 UNL     1     -11.862  -9.634  12.296  1.00  0.00    -0.051 N 
HETATM   32  C9  UNL     1     -12.202  -8.733  11.213  1.00  0.00     0.301 C 
ATOM     33 2H11 UNL     1     -10.889  -9.931  12.226  1.00  0.00     0.279 HD
ATOM     34 1H11 UNL     1     -12.323 -10.535  12.175  1.00  0.00     0.279 HD
HETATM   35  C10 UNL     1     -11.509  -7.416  11.520  1.00  0.00     0.065 C 
ENDBRANCH  21  22
ENDBRANCH   1  21
TORSDOF 6
ENDMDL
MODEL 4
REMARK VINA RESULT: -6.197987644      0.966      1.701
REMARK  6 active torsions:
REMARK  status: ('A' for Active; 'I' for Inactive)
REMARK    1  A    between atoms: C2_4  and  N2_5 
REMARK    2  A    between atoms: C2_4  and  C4_16 
REMARK       I    between atoms: N2_5  and  C3_7 
REMARK       I    between atoms: C3_7  and  N3_8 
REMARK       I    between atoms: C3_7  and  N4_12 
REMARK    3  A    between atoms: N4_12  and  N5_13 
REMARK    4  A    between atoms: C4_16  and  N6_17 
REMARK    5  A    between atoms: C4_16  and  C5_21 
REMARK    6  A    between atoms: C5_21  and  N7_22 
ROOT
HETATM    1  C4  UNL     1     -12.412  -9.629   9.304  1.00  0.00     0.289 C 
ENDROOT
BRANCH   1   2
HETATM    2  C2  UNL     1     -11.099  -9.101   8.879  1.00  0.00     0.111 C 
HETATM    3  N1  UNL     1     -10.352  -8.405   9.547  1.00  0.00    -0.382 N 
HETATM    4  C1  UNL     1     -10.178  -7.785  10.767  1.00  0.00     0.147 C 
ATOM      5  H1  UNL     1      -9.531  -8.199   8.978  1.00  0.00     0.160 HD
BRANCH   2   6
HETATM    6  N2  UNL     1     -10.633  -9.422   7.534  1.00  0.00    -0.337 N 
HETATM    7  C3  UNL     1     -11.519  -9.092   6.441  1.00  0.00     0.397 C 
HETATM    8  N3  UNL     1     -10.913  -9.458   5.158  1.00  0.00    -0.042 N 
HETATM    9  N4  UNL     1     -12.762  -9.843   6.511  1.00  0.00    -0.093 NA
ATOM     10  H33 UNL     1      -9.993  -9.035   5.040  1.00  0.00     0.278 HD
ATOM     11  H32 UNL     1     -10.634 -10.439   5.137  1.00  0.00     0.278 HD
ATOM     12  H31 UNL     1     -11.538  -9.225   4.387  1.00  0.00     0.278 HD
ATOM     13  H2  UNL     1      -9.725  -9.858   7.373  1.00  0.00     0.164 HD
BRANCH   9  14
HETATM   14  N5  UNL     1     -13.606  -9.501   5.445  1.00  0.00    -0.345 N 
ATOM     15  H52 UNL     1     -14.527  -9.913   5.295  1.00  0.00     0.172 HD
ATOM     16  H51 UNL     1     -13.169  -8.793   4.855  1.00  0.00     0.172 HD
ENDBRANCH   9  14
ENDBRANCH   2   6
ENDBRANCH   1   2
BRANCH   1  17
HETATM   17  N6  UNL     1     -13.276  -8.431   9.283  1.00  0.00    -0.064 N 
ATOM     18  H63 UNL     1     -13.588  -8.116  10.201  1.00  0.00     0.275 HD
ATOM     19  H62 UNL     1     -12.797  -7.565   9.033  1.00  0.00     0.275 HD
ATOM     20  H61 UNL     1     -14.027  -8.700   8.647  1.00  0.00     0.275 HD
ENDBRANCH   1  17
BRANCH   1  21
HETATM   21  C5  UNL     1     -12.450 -10.271  10.595  1.00  0.00     0.126 C 
BRANCH  21  22
HETATM   22  N7  UNL     1     -13.141  -9.659  11.698  1.00  0.00    -0.272 N 
HETATM   23  N8  UNL     1     -14.464  -9.891  11.485  1.00  0.00    -0.270 N 
HETATM   24  C6  UNL     1     -15.718  -9.594  12.051  1.00  0.00     0.203 C 
ATOM     25  H8  UNL     1     -14.586 -10.461  10.649  1.00  0.00     0.190 HD
HETATM   26  N9  UNL     1     -16.752  -9.330  11.066  1.00  0.00    -0.062 NA
HETATM   27  N10 UNL     1     -16.175  -9.501  13.255  1.00  0.00    -0.362 N 
HETATM   28  C7  UNL     1     -15.565  -9.667  14.528  1.00  0.00     0.150 C 
ATOM     29  H10 UNL     1     -17.165  -9.263  13.301  1.00  0.00     0.162 HD
HETATM   30  C8  UNL     1     -14.180  -9.063  14.603  1.00  0.00     0.254 C 
HETATM   31  N11 UNL     1     -13.305 -10.060  14.083  1.00  0.00    -0.051 N 
HETATM   32  C9  UNL     1     -12.538  -9.614  12.937  1.00  0.00     0.301 C 
ATOM     33 2H11 UNL     1     -12.688 -10.416  14.813  1.00  0.00     0.279 HD
ATOM     34 1H11 UNL     1     -13.819 -10.913  13.864  1.00  0.00     0.279 HD
HETATM   35  C10 UNL     1     -11.861  -8.320  13.355  1.00  0.00     0.065 C 
ENDBRANCH  21  22
ENDBRANCH   1  21
TORSDOF 6
ENDMDL
MODEL 5
REMARK VINA RESULT: -6.094332047      1.520      2.668
REMARK  6 active torsions:
REMARK  status: ('A' for Active; 'I' for Inactive)
REMARK    1  A    between atoms: C2_4  and  N2_5 
REMARK    2  A    between atoms: C2_4  and  C4_16 
REMARK       I    between atoms: N2_5  and  C3_7 
REMARK       I    between atoms: C3_7  and  N3_8 
REMARK       I    between atoms: C3_7  and  N4_12 
REMARK    3  A    between atoms: N4_12  and  N5_13 
REMARK    4  A    between atoms: C4_16  and  N6_17 
REMARK    5  A    between atoms: C4_16  and  C5_21 
REMARK    6  A    between atoms: C5_21  and  N7_22 
ROOT
HETATM    1  C4  UNL     1     -11.813  -9.057   7.931  1.00  0.00     0.289 C 
ENDROOT
BRANCH   1   2
HETATM    2  C2  UNL     1     -12.130  -9.113   6.489  1.00  0.00     0.111 C 
HETATM    3  N1  UNL     1     -11.370  -8.843   5.574  1.00  0.00    -0.382 N 
HETATM    4  C1  UNL     1     -10.093  -8.434   5.251  1.00  0.00     0.147 C 
ATOM      5  H1  UNL     1     -11.881  -8.972   4.701  1.00  0.00     0.160 HD
BRANCH   2   6
HETATM    6  N2  UNL     1     -13.476  -9.518   6.098  1.00  0.00    -0.337 N 
HETATM    7  C3  UNL     1     -13.749  -9.588   4.681  1.00  0.00     0.397 C 
HETATM    8  N3  UNL     1     -15.129 -10.019   4.443  1.00  0.00    -0.042 N 
HETATM    9  N4  UNL     1     -13.635  -8.285   4.046  1.00  0.00    -0.093 NA
ATOM     10  H33 UNL     1     -15.337 -10.901   4.913  1.00  0.00     0.278 HD
ATOM     11  H32 UNL     1     -15.801  -9.425   4.929  1.00  0.00     0.278 HD
ATOM     12  H31 UNL     1     -15.322 -10.069   3.443  1.00  0.00     0.278 HD
ATOM     13  H2  UNL     1     -14.191  -9.740   6.792  1.00  0.00     0.164 HD
BRANCH   9  14
HETATM   14  N5  UNL     1     -13.898  -8.381   2.672  1.00  0.00    -0.345 N 
ATOM     15  H52 UNL     1     -14.177  -9.244   2.206  1.00  0.00     0.172 HD
ATOM     16  H51 UNL     1     -13.771  -7.476   2.218  1.00  0.00     0.172 HD
ENDBRANCH   9  14
ENDBRANCH   2   6
ENDBRANCH   1   2
BRANCH   1  17
HETATM   17  N6  UNL     1     -10.508  -9.745   8.012  1.00  0.00    -0.064 N 
ATOM     18  H63 UNL     1     -10.405 -10.368   8.813  1.00  0.00     0.275 HD
ATOM     19  H62 UNL     1     -10.361 -10.463   7.302  1.00  0.00     0.275 HD
ATOM     20  H61 UNL     1      -9.839  -8.976   7.984  1.00  0.00     0.275 HD
ENDBRANCH   1  17
BRANCH   1  21
HETATM   21  C5  UNL     1     -12.774  -9.666   8.817  1.00  0.00     0.126 C 
BRANCH  21  22
HETATM   22  N7  UNL     1     -13.011  -9.123  10.128  1.00  0.00    -0.272 N 
HETATM   23  N8  UNL     1     -14.248  -9.554  10.493  1.00  0.00    -0.270 N 
HETATM   24  C6  UNL     1     -15.170  -9.426  11.549  1.00  0.00     0.203 C 
ATOM     25  H8  UNL     1     -14.629 -10.166   9.771  1.00  0.00     0.190 HD
HETATM   26  N9  UNL     1     -16.552  -9.352  11.108  1.00  0.00    -0.062 NA
HETATM   27  N10 UNL     1     -15.078  -9.358  12.834  1.00  0.00    -0.362 N 
HETATM   28  C7  UNL     1     -13.966  -9.386  13.720  1.00  0.00     0.150 C 
ATOM     29  H10 UNL     1     -15.977  -9.266  13.306  1.00  0.00     0.162 HD
HETATM   30  C8  UNL     1     -12.788  -8.582  13.215  1.00  0.00     0.254 C 
HETATM   31  N11 UNL     1     -12.081  -9.458  12.341  1.00  0.00    -0.051 N 
HETATM   32  C9  UNL     1     -11.952  -8.946  10.991  1.00  0.00     0.301 C 
ATOM     33 2H11 UNL     1     -11.167  -9.694  12.727  1.00  0.00     0.279 HD
ATOM     34 1H11 UNL     1     -12.507 -10.384  12.336  1.00  0.00     0.279 HD
HETATM   35  C10 UNL     1     -11.361  -7.552  11.120  1.00  0.00     0.065 C 
ENDBRANCH  21  22
ENDBRANCH   1  21
TORSDOF 6
ENDMDL
