MODEL 1
REMARK VINA RESULT: -7.366822587      0.000      0.000
REMARK  9 active torsions:
REMARK  status: ('A' for Active; 'I' for Inactive)
REMARK    1  A    between atoms: N1_2  and  C2_3 
REMARK    2  A    between atoms: N1_2  and  C4_13 
REMARK    3  A    between atoms: C2_3  and  C3_4 
REMARK    4  A    between atoms: C3_4  and  N2_5 
REMARK    5  A    between atoms: C3_4  and  N3_9 
REMARK    6  A    between atoms: N3_9  and  N4_10 
REMARK    7  A    between atoms: C6_19  and  N7_20 
REMARK    8  A    between atoms: N8_23  and  N9_24 
REMARK    9  A    between atoms: C7_27  and  N10_28 
ROOT
HETATM    1  C4  UNL     1     -12.771  -9.691  10.105  1.00  0.00     0.684 A 
HETATM    2  N5  UNL     1     -13.637  -9.768   9.080  1.00  0.00    -0.175 N 
ATOM      3  H5  UNL     1     -14.615  -9.958   9.294  1.00  0.00     0.186 HD
HETATM    4  C5  UNL     1     -13.295  -9.613   7.802  1.00  0.00     0.156 A 
HETATM    5  N6  UNL     1     -14.227  -9.705   6.815  1.00  0.00    -0.173 N 
ATOM      6  H6  UNL     1     -15.204  -9.896   7.041  1.00  0.00     0.186 HD
HETATM    7  C6  UNL     1     -13.846  -9.543   5.549  1.00  0.00     0.700 A 
HETATM    8  N8  UNL     1     -12.563  -9.292   5.235  1.00  0.00    -0.076 N 
HETATM    9  C7  UNL     1     -11.622  -9.195   6.184  1.00  0.00     0.158 A 
HETATM   10  C8  UNL     1     -11.971  -9.356   7.511  1.00  0.00     0.123 A 
HETATM   11  C9  UNL     1     -11.075  -9.272   8.533  1.00  0.00     0.277 A 
HETATM   12  O1  UNL     1      -9.874  -9.040   8.269  1.00  0.00    -0.266 OA
HETATM   13  N11 UNL     1     -11.493  -9.442   9.818  1.00  0.00    -0.155 N 
ATOM     14  H11 UNL     1     -10.815  -9.378  10.578  1.00  0.00     0.187 HD
ENDROOT
BRANCH   1  15
HETATM   15  N1  UNL     1     -13.274  -9.874  11.413  1.00  0.00    -0.218 N 
HETATM   16  C1  UNL     1     -12.623 -10.778  12.335  1.00  0.00     0.168 C 
BRANCH  15  17
HETATM   17  C2  UNL     1     -14.439  -9.175  11.884  1.00  0.00     0.192 C 
BRANCH  17  18
HETATM   18  C3  UNL     1     -14.463  -9.002  13.374  1.00  0.00     0.313 C 
BRANCH  18  19
HETATM   19  N2  UNL     1     -15.747  -9.148  13.979  1.00  0.00    -0.058 N 
ATOM     20  H23 UNL     1     -15.661  -9.140  14.995  1.00  0.00     0.276 HD
ATOM     21  H22 UNL     1     -16.299  -8.301  13.840  1.00  0.00     0.276 HD
ATOM     22  H21 UNL     1     -16.276  -9.966  13.676  1.00  0.00     0.276 HD
ENDBRANCH  18  19
BRANCH  18  23
HETATM   23  N3  UNL     1     -13.978  -7.665  13.699  1.00  0.00    -0.113 NA
BRANCH  23  24
HETATM   24  N4  UNL     1     -12.656  -7.673  14.156  1.00  0.00    -0.346 N 
ATOM     25  H42 UNL     1     -11.866  -7.393  13.574  1.00  0.00     0.172 HD
ATOM     26  H41 UNL     1     -12.580  -7.988  15.123  1.00  0.00     0.172 HD
ENDBRANCH  23  24
ENDBRANCH  18  23
ENDBRANCH  17  18
ENDBRANCH  15  17
ENDBRANCH   1  15
BRANCH   7  27
HETATM   27  N7  UNL     1     -14.736  -9.629   4.590  1.00  0.00    -0.233 N 
ATOM     28  H72 UNL     1     -15.619 -10.105   4.771  1.00  0.00     0.174 HD
ATOM     29  H71 UNL     1     -14.532  -9.220   3.678  1.00  0.00     0.174 HD
ENDBRANCH   7  27
BRANCH   9  30
HETATM   30  N10 UNL     1     -10.377  -8.955   5.915  1.00  0.00    -0.383 N 
ATOM     31 2H10 UNL     1     -10.096  -8.954   4.934  1.00  0.00     0.157 HD
ATOM     32 1H10 UNL     1      -9.682  -8.769   6.638  1.00  0.00     0.157 HD
ENDBRANCH   9  30
BRANCH   8  33
HETATM   33  N9  UNL     1     -12.175  -9.124   3.904  1.00  0.00    -0.322 N 
ATOM     34  H92 UNL     1     -11.328  -8.588   3.714  1.00  0.00     0.178 HD
ATOM     35  H91 UNL     1     -12.725  -9.528   3.146  1.00  0.00     0.178 HD
ENDBRANCH   8  33
TORSDOF 9
ENDMDL
MODEL 2
REMARK VINA RESULT: -7.354903210      1.187      1.851
REMARK  9 active torsions:
REMARK  status: ('A' for Active; 'I' for Inactive)
REMARK    1  A    between atoms: N1_2  and  C2_3 
REMARK    2  A    between atoms: N1_2  and  C4_13 
REMARK    3  A    between atoms: C2_3  and  C3_4 
REMARK    4  A    between atoms: C3_4  and  N2_5 
REMARK    5  A    between atoms: C3_4  and  N3_9 
REMARK    6  A    between atoms: N3_9  and  N4_10 
REMARK    7  A    between atoms: C6_19  and  N7_20 
REMARK    8  A    between atoms: N8_23  and  N9_24 
REMARK    9  A    between atoms: C7_27  and  N10_28 
ROOT
HETATM    1  C4  UNL     1     -13.490  -9.388  10.703  1.00  0.00     0.684 A 
HETATM    2  N5  UNL     1     -13.945  -9.590   9.455  1.00  0.00    -0.175 N 
ATOM      3  H5  UNL     1     -14.922  -9.859   9.340  1.00  0.00     0.186 HD
HETATM    4  C5  UNL     1     -13.199  -9.462   8.360  1.00  0.00     0.156 A 
HETATM    5  N6  UNL     1     -13.729  -9.683   7.125  1.00  0.00    -0.173 N 
ATOM      6  H6  UNL     1     -14.708  -9.952   7.023  1.00  0.00     0.186 HD
HETATM    7  C6  UNL     1     -12.950  -9.544   6.054  1.00  0.00     0.700 A 
HETATM    8  N8  UNL     1     -11.659  -9.191   6.173  1.00  0.00    -0.076 N 
HETATM    9  C7  UNL     1     -11.108  -8.966   7.374  1.00  0.00     0.158 A 
HETATM   10  C8  UNL     1     -11.878  -9.099   8.513  1.00  0.00     0.123 A 
HETATM   11  C9  UNL     1     -11.393  -8.888   9.769  1.00  0.00     0.277 A 
HETATM   12  O1  UNL     1     -10.193  -8.559   9.908  1.00  0.00    -0.266 OA
HETATM   13  N11 UNL     1     -12.212  -9.038  10.847  1.00  0.00    -0.155 N 
ATOM     14  H11 UNL     1     -11.840  -8.878  11.783  1.00  0.00     0.187 HD
ENDROOT
BRANCH   1  15
HETATM   15  N1  UNL     1     -14.396  -9.558  11.775  1.00  0.00    -0.218 N 
HETATM   16  C1  UNL     1     -15.818  -9.396  11.574  1.00  0.00     0.168 C 
BRANCH  15  17
HETATM   17  C2  UNL     1     -13.950  -9.901  13.099  1.00  0.00     0.192 C 
BRANCH  17  18
HETATM   18  C3  UNL     1     -14.223  -8.826  14.111  1.00  0.00     0.313 C 
BRANCH  18  19
HETATM   19  N2  UNL     1     -13.062  -8.183  14.635  1.00  0.00    -0.058 N 
ATOM     20  H23 UNL     1     -13.277  -7.216  14.881  1.00  0.00     0.276 HD
ATOM     21  H22 UNL     1     -12.840  -8.556  15.557  1.00  0.00     0.276 HD
ATOM     22  H21 UNL     1     -12.239  -8.218  14.032  1.00  0.00     0.276 HD
ENDBRANCH  18  19
BRANCH  18  23
HETATM   23  N3  UNL     1     -14.941  -9.415  15.237  1.00  0.00    -0.113 NA
BRANCH  23  24
HETATM   24  N4  UNL     1     -16.079 -10.120  14.833  1.00  0.00    -0.346 N 
ATOM     25  H42 UNL     1     -16.059 -11.108  14.578  1.00  0.00     0.172 HD
ATOM     26  H41 UNL     1     -16.916  -9.537  14.825  1.00  0.00     0.172 HD
ENDBRANCH  23  24
ENDBRANCH  18  23
ENDBRANCH  17  18
ENDBRANCH  15  17
ENDBRANCH   1  15
BRANCH   7  27
HETATM   27  N7  UNL     1     -13.450  -9.753   4.860  1.00  0.00    -0.233 N 
ATOM     28  H72 UNL     1     -12.874  -9.566   4.040  1.00  0.00     0.174 HD
ATOM     29  H71 UNL     1     -14.406 -10.098   4.768  1.00  0.00     0.174 HD
ENDBRANCH   7  27
BRANCH   9  30
HETATM   30  N10 UNL     1      -9.866  -8.625   7.523  1.00  0.00    -0.383 N 
ATOM     31 2H10 UNL     1      -9.263  -8.660   6.701  1.00  0.00     0.157 HD
ATOM     32 1H10 UNL     1      -9.479  -8.328   8.419  1.00  0.00     0.157 HD
ENDBRANCH   9  30
BRANCH   8  33
HETATM   33  N9  UNL     1     -10.852  -9.048   5.042  1.00  0.00    -0.322 N 
ATOM     34  H92 UNL     1     -11.153  -9.497   4.177  1.00  0.00     0.178 HD
ATOM     35  H91 UNL     1      -9.986  -8.511   5.084  1.00  0.00     0.178 HD
ENDBRANCH   8  33
TORSDOF 9
ENDMDL
MODEL 3
REMARK VINA RESULT: -7.352348073      1.461      6.809
REMARK  9 active torsions:
REMARK  status: ('A' for Active; 'I' for Inactive)
REMARK    1  A    between atoms: N1_2  and  C2_3 
REMARK    2  A    between atoms: N1_2  and  C4_13 
REMARK    3  A    between atoms: C2_3  and  C3_4 
REMARK    4  A    between atoms: C3_4  and  N2_5 
REMARK    5  A    between atoms: C3_4  and  N3_9 
REMARK    6  A    between atoms: N3_9  and  N4_10 
REMARK    7  A    between atoms: C6_19  and  N7_20 
REMARK    8  A    between atoms: N8_23  and  N9_24 
REMARK    9  A    between atoms: C7_27  and  N10_28 
ROOT
HETATM    1  C4  UNL     1     -12.538  -9.142   8.291  1.00  0.00     0.684 A 
HETATM    2  N5  UNL     1     -13.567  -9.240   9.150  1.00  0.00    -0.175 N 
ATOM      3  H5  UNL     1     -14.480  -9.495   8.774  1.00  0.00     0.186 HD
HETATM    4  C5  UNL     1     -13.469  -9.024  10.460  1.00  0.00     0.156 A 
HETATM    5  N6  UNL     1     -14.557  -9.141  11.270  1.00  0.00    -0.173 N 
ATOM      6  H6  UNL     1     -15.465  -9.397  10.883  1.00  0.00     0.186 HD
HETATM    7  C6  UNL     1     -14.417  -8.917  12.575  1.00  0.00     0.700 A 
HETATM    8  N8  UNL     1     -13.227  -8.580  13.101  1.00  0.00    -0.076 N 
HETATM    9  C7  UNL     1     -12.137  -8.457  12.330  1.00  0.00     0.158 A 
HETATM   10  C8  UNL     1     -12.234  -8.679  10.970  1.00  0.00     0.123 A 
HETATM   11  C9  UNL     1     -11.175  -8.574  10.120  1.00  0.00     0.277 A 
HETATM   12  O1  UNL     1     -10.055  -8.260  10.582  1.00  0.00    -0.266 OA
HETATM   13  N11 UNL     1     -11.347  -8.808   8.789  1.00  0.00    -0.155 N 
ATOM     14  H11 UNL     1     -10.548  -8.727   8.160  1.00  0.00     0.187 HD
ENDROOT
BRANCH   1  15
HETATM   15  N1  UNL     1     -12.787  -9.402   6.924  1.00  0.00    -0.218 N 
HETATM   16  C1  UNL     1     -14.128  -9.671   6.456  1.00  0.00     0.168 C 
BRANCH  15  17
HETATM   17  C2  UNL     1     -11.732  -9.406   5.948  1.00  0.00     0.192 C 
BRANCH  17  18
HETATM   18  C3  UNL     1     -12.082  -8.655   4.696  1.00  0.00     0.313 C 
BRANCH  18  19
HETATM   19  N2  UNL     1     -12.555  -9.464   3.620  1.00  0.00    -0.058 N 
ATOM     20  H23 UNL     1     -11.770  -9.903   3.138  1.00  0.00     0.276 HD
ATOM     21  H22 UNL     1     -13.026 -10.292   3.983  1.00  0.00     0.276 HD
ATOM     22  H21 UNL     1     -13.155  -8.983   2.950  1.00  0.00     0.276 HD
ENDBRANCH  18  19
BRANCH  18  23
HETATM   23  N3  UNL     1     -10.894  -7.952   4.224  1.00  0.00    -0.113 NA
BRANCH  23  24
HETATM   24  N4  UNL     1     -10.339  -8.548   3.086  1.00  0.00    -0.346 N 
ATOM     25  H42 UNL     1      -9.379  -8.892   3.052  1.00  0.00     0.172 HD
ATOM     26  H41 UNL     1     -10.999  -8.594   2.310  1.00  0.00     0.172 HD
ENDBRANCH  23  24
ENDBRANCH  18  23
ENDBRANCH  17  18
ENDBRANCH  15  17
ENDBRANCH   1  15
BRANCH   7  27
HETATM   27  N7  UNL     1     -15.457  -9.029  13.365  1.00  0.00    -0.233 N 
ATOM     28  H72 UNL     1     -16.135  -8.268  13.406  1.00  0.00     0.174 HD
ATOM     29  H71 UNL     1     -15.574  -9.872  13.927  1.00  0.00     0.174 HD
ENDBRANCH   7  27
BRANCH   9  30
HETATM   30  N10 UNL     1     -10.975  -8.132  12.805  1.00  0.00    -0.383 N 
ATOM     31 2H10 UNL     1     -10.552  -8.757  13.492  1.00  0.00     0.157 HD
ATOM     32 1H10 UNL     1     -10.479  -7.288  12.518  1.00  0.00     0.157 HD
ENDBRANCH   9  30
BRANCH   8  33
HETATM   33  N9  UNL     1     -13.092  -8.347  14.471  1.00  0.00    -0.322 N 
ATOM     34  H92 UNL     1     -13.161  -9.145  15.103  1.00  0.00     0.178 HD
ATOM     35  H91 UNL     1     -12.930  -7.405  14.827  1.00  0.00     0.178 HD
ENDBRANCH   8  33
TORSDOF 9
ENDMDL
MODEL 4
REMARK VINA RESULT: -7.253429246      1.044      1.493
REMARK  9 active torsions:
REMARK  status: ('A' for Active; 'I' for Inactive)
REMARK    1  A    between atoms: N1_2  and  C2_3 
REMARK    2  A    between atoms: N1_2  and  C4_13 
REMARK    3  A    between atoms: C2_3  and  C3_4 
REMARK    4  A    between atoms: C3_4  and  N2_5 
REMARK    5  A    between atoms: C3_4  and  N3_9 
REMARK    6  A    between atoms: N3_9  and  N4_10 
REMARK    7  A    between atoms: C6_19  and  N7_20 
REMARK    8  A    between atoms: N8_23  and  N9_24 
REMARK    9  A    between atoms: C7_27  and  N10_28 
ROOT
HETATM    1  C4  UNL     1     -12.918  -9.494   9.486  1.00  0.00     0.684 A 
HETATM    2  N5  UNL     1     -13.756  -9.573   8.438  1.00  0.00    -0.175 N 
ATOM      3  H5  UNL     1     -14.746  -9.722   8.628  1.00  0.00     0.186 HD
HETATM    4  C5  UNL     1     -13.372  -9.469   7.167  1.00  0.00     0.156 A 
HETATM    5  N6  UNL     1     -14.279  -9.559   6.156  1.00  0.00    -0.173 N 
ATOM      6  H6  UNL     1     -15.267  -9.709   6.358  1.00  0.00     0.186 HD
HETATM    7  C6  UNL     1     -13.855  -9.449   4.898  1.00  0.00     0.700 A 
HETATM    8  N8  UNL     1     -12.556  -9.251   4.615  1.00  0.00    -0.076 N 
HETATM    9  C7  UNL     1     -11.640  -9.157   5.589  1.00  0.00     0.158 A 
HETATM   10  C8  UNL     1     -12.033  -9.266   6.908  1.00  0.00     0.123 A 
HETATM   11  C9  UNL     1     -11.164  -9.182   7.954  1.00  0.00     0.277 A 
HETATM   12  O1  UNL     1      -9.948  -8.999   7.719  1.00  0.00    -0.266 OA
HETATM   13  N11 UNL     1     -11.625  -9.298   9.231  1.00  0.00    -0.155 N 
ATOM     14  H11 UNL     1     -10.966  -9.235  10.007  1.00  0.00     0.187 HD
ENDROOT
BRANCH   1  15
HETATM   15  N1  UNL     1     -13.465  -9.620  10.784  1.00  0.00    -0.218 N 
HETATM   16  C1  UNL     1     -14.890  -9.510  10.999  1.00  0.00     0.168 C 
BRANCH  15  17
HETATM   17  C2  UNL     1     -12.639  -9.866  11.934  1.00  0.00     0.192 C 
BRANCH  17  18
HETATM   18  C3  UNL     1     -12.814  -8.841  13.017  1.00  0.00     0.313 C 
BRANCH  18  19
HETATM   19  N2  UNL     1     -11.646  -8.081  13.323  1.00  0.00    -0.058 N 
ATOM     20  H23 UNL     1     -11.383  -8.218  14.299  1.00  0.00     0.276 HD
ATOM     21  H22 UNL     1     -10.833  -8.486  12.860  1.00  0.00     0.276 HD
ATOM     22  H21 UNL     1     -11.713  -7.085  13.113  1.00  0.00     0.276 HD
ENDBRANCH  18  19
BRANCH  18  23
HETATM   23  N3  UNL     1     -13.226  -9.520  14.242  1.00  0.00    -0.113 NA
BRANCH  23  24
HETATM   24  N4  UNL     1     -13.594  -8.623  15.250  1.00  0.00    -0.346 N 
ATOM     25  H42 UNL     1     -12.965  -7.906  15.612  1.00  0.00     0.172 HD
ATOM     26  H41 UNL     1     -14.550  -8.771  15.573  1.00  0.00     0.172 HD
ENDBRANCH  23  24
ENDBRANCH  18  23
ENDBRANCH  17  18
ENDBRANCH  15  17
ENDBRANCH   1  15
BRANCH   7  27
HETATM   27  N7  UNL     1     -14.720  -9.533   3.915  1.00  0.00    -0.233 N 
ATOM     28  H72 UNL     1     -15.376 -10.313   3.895  1.00  0.00     0.174 HD
ATOM     29  H71 UNL     1     -14.722  -8.820   3.186  1.00  0.00     0.174 HD
ENDBRANCH   7  27
BRANCH   9  30
HETATM   30  N10 UNL     1     -10.380  -8.968   5.349  1.00  0.00    -0.383 N 
ATOM     31 2H10 UNL     1     -10.077  -8.970   4.375  1.00  0.00     0.157 HD
ATOM     32 1H10 UNL     1      -9.694  -8.818   6.090  1.00  0.00     0.157 HD
ENDBRANCH   9  30
BRANCH   8  33
HETATM   33  N9  UNL     1     -12.124  -9.137   3.292  1.00  0.00    -0.322 N 
ATOM     34  H92 UNL     1     -12.562  -8.429   2.702  1.00  0.00     0.178 HD
ATOM     35  H91 UNL     1     -11.391  -9.746   2.929  1.00  0.00     0.178 HD
ENDBRANCH   8  33
TORSDOF 9
ENDMDL
MODEL 5
REMARK VINA RESULT: -6.936299918      1.493      2.271
REMARK  9 active torsions:
REMARK  status: ('A' for Active; 'I' for Inactive)
REMARK    1  A    between atoms: N1_2  and  C2_3 
REMARK    2  A    between atoms: N1_2  and  C4_13 
REMARK    3  A    between atoms: C2_3  and  C3_4 
REMARK    4  A    between atoms: C3_4  and  N2_5 
REMARK    5  A    between atoms: C3_4  and  N3_9 
REMARK    6  A    between atoms: N3_9  and  N4_10 
REMARK    7  A    between atoms: C6_19  and  N7_20 
REMARK    8  A    between atoms: N8_23  and  N9_24 
REMARK    9  A    between atoms: C7_27  and  N10_28 
ROOT
HETATM    1  C4  UNL     1     -12.957  -8.549  11.691  1.00  0.00     0.684 A 
HETATM    2  N5  UNL     1     -13.686  -8.846  10.602  1.00  0.00    -0.175 N 
ATOM      3  H5  UNL     1     -14.694  -8.954  10.716  1.00  0.00     0.186 HD
HETATM    4  C5  UNL     1     -13.176  -9.008   9.383  1.00  0.00     0.156 A 
HETATM    5  N6  UNL     1     -13.977  -9.308   8.325  1.00  0.00    -0.173 N 
ATOM      6  H6  UNL     1     -14.984  -9.414   8.452  1.00  0.00     0.186 HD
HETATM    7  C6  UNL     1     -13.428  -9.461   7.122  1.00  0.00     0.700 A 
HETATM    8  N8  UNL     1     -12.103  -9.325   6.938  1.00  0.00    -0.076 N 
HETATM    9  C7  UNL     1     -11.288  -9.029   7.959  1.00  0.00     0.158 A 
HETATM   10  C8  UNL     1     -11.813  -8.861   9.226  1.00  0.00     0.123 A 
HETATM   11  C9  UNL     1     -11.052  -8.560  10.315  1.00  0.00     0.277 A 
HETATM   12  O1  UNL     1      -9.815  -8.428  10.172  1.00  0.00    -0.266 OA
HETATM   13  N11 UNL     1     -11.640  -8.409  11.534  1.00  0.00    -0.155 N 
ATOM     14  H11 UNL     1     -11.062  -8.184  12.344  1.00  0.00     0.187 HD
ENDROOT
BRANCH   1  15
HETATM   15  N1  UNL     1     -13.633  -8.404  12.923  1.00  0.00    -0.218 N 
HETATM   16  C1  UNL     1     -12.906  -8.084  14.131  1.00  0.00     0.168 C 
BRANCH  15  17
HETATM   17  C2  UNL     1     -15.058  -8.560  13.031  1.00  0.00     0.192 C 
BRANCH  17  18
HETATM   18  C3  UNL     1     -15.468  -9.529  14.101  1.00  0.00     0.313 C 
BRANCH  18  19
HETATM   19  N2  UNL     1     -15.666 -10.870  13.657  1.00  0.00    -0.058 N 
ATOM     20  H23 UNL     1     -16.522 -10.935  13.105  1.00  0.00     0.276 HD
ATOM     21  H22 UNL     1     -14.976 -11.111  12.946  1.00  0.00     0.276 HD
ATOM     22  H21 UNL     1     -15.670 -11.574  14.397  1.00  0.00     0.276 HD
ENDBRANCH  18  19
BRANCH  18  23
HETATM   23  N3  UNL     1     -16.723  -9.074  14.689  1.00  0.00    -0.113 NA
BRANCH  23  24
HETATM   24  N4  UNL     1     -17.331 -10.058  15.476  1.00  0.00    -0.346 N 
ATOM     25  H42 UNL     1     -17.351 -11.044  15.215  1.00  0.00     0.172 HD
ATOM     26  H41 UNL     1     -17.744  -9.676  16.327  1.00  0.00     0.172 HD
ENDBRANCH  23  24
ENDBRANCH  18  23
ENDBRANCH  17  18
ENDBRANCH  15  17
ENDBRANCH   1  15
BRANCH   7  27
HETATM   27  N7  UNL     1     -14.191  -9.749   6.094  1.00  0.00    -0.233 N 
ATOM     28  H72 UNL     1     -14.522  -8.995   5.493  1.00  0.00     0.174 HD
ATOM     29  H71 UNL     1     -14.442 -10.721   5.912  1.00  0.00     0.174 HD
ENDBRANCH   7  27
BRANCH   9  30
HETATM   30  N10 UNL     1     -10.006  -8.891   7.816  1.00  0.00    -0.383 N 
ATOM     31 2H10 UNL     1      -9.546  -9.457   7.103  1.00  0.00     0.157 HD
ATOM     32 1H10 UNL     1      -9.454  -8.247   8.383  1.00  0.00     0.157 HD
ENDBRANCH   9  30
BRANCH   8  33
HETATM   33  N9  UNL     1     -11.538  -9.488   5.671  1.00  0.00    -0.322 N 
ATOM     34  H92 UNL     1     -10.560  -9.771   5.614  1.00  0.00     0.178 HD
ATOM     35  H91 UNL     1     -12.091  -9.327   4.829  1.00  0.00     0.178 HD
ENDBRANCH   8  33
TORSDOF 9
ENDMDL
