MODEL 1
REMARK VINA RESULT: -7.745580561      0.000      0.000
REMARK  10 active torsions:
REMARK  status: ('A' for Active; 'I' for Inactive)
REMARK    1  A    between atoms: C2_2  and  O1_3 
REMARK    2  A    between atoms: C2_2  and  N1_5 
REMARK    3  A    between atoms: N1_5  and  N2_6 
REMARK    4  A    between atoms: N2_6  and  C3_7 
REMARK    5  A    between atoms: C3_7  and  C4_8 
REMARK    6  A    between atoms: C3_7  and  C5_11 
REMARK    7  A    between atoms: C5_11  and  O3_12 
REMARK    8  A    between atoms: C5_11  and  N4_14 
REMARK    9  A    between atoms: C7_16  and  N5_17 
REMARK   10  A    between atoms: N5_17  and  N6_19 
ROOT
HETATM    1  N4  UNL     1     -13.242 -10.020  10.382  1.00  0.00    -0.264 N 
HETATM    2  C6  UNL     1     -12.520 -10.964  11.072  1.00  0.00     0.152 A 
HETATM    3  C7  UNL     1     -12.756 -11.325  12.365  1.00  0.00     0.137 A 
HETATM    4  N7  UNL     1     -13.770 -10.710  13.003  1.00  0.00    -0.322 N 
ATOM      5  H7  UNL     1     -13.975 -10.957  13.971  1.00  0.00     0.169 HD
HETATM    6  C8  UNL     1     -14.516  -9.781  12.391  1.00  0.00     0.170 A 
HETATM    7  N8  UNL     1     -15.494  -9.165  12.961  1.00  0.00    -0.381 N 
ATOM      8  H81 UNL     1     -16.062  -8.458  12.496  1.00  0.00     0.157 HD
ATOM      9  H82 UNL     1     -15.706  -9.406  13.930  1.00  0.00     0.157 HD
HETATM   10  C9  UNL     1     -14.225  -9.449  11.054  1.00  0.00     0.297 A 
HETATM   11  O4  UNL     1     -14.970  -8.568  10.534  1.00  0.00    -0.263 OA
ENDROOT
BRANCH   1  12
HETATM   12  C5  UNL     1     -12.922  -9.760   9.049  1.00  0.00     0.155 C 
BRANCH  12  13
HETATM   13  C3  UNL     1     -11.849  -8.883   8.601  1.00  0.00     0.259 C 
BRANCH  13  14
HETATM   14  N2  UNL     1     -10.637  -9.714   8.260  1.00  0.00    -0.123 NA
BRANCH  14  15
HETATM   15  N1  UNL     1     -10.700  -9.889   6.890  1.00  0.00    -0.116 NA
BRANCH  15  16
HETATM   16  C2  UNL     1     -10.957  -8.679   6.150  1.00  0.00     0.223 C 
HETATM   17  C1  UNL     1     -11.786  -8.966   4.921  1.00  0.00     0.059 C 
BRANCH  16  18
HETATM   18  O1  UNL     1      -9.837  -7.938   5.877  1.00  0.00    -0.379 OA
ATOM     19  H1  UNL     1      -9.960  -7.010   6.038  1.00  0.00     0.211 HD
ENDBRANCH  16  18
ENDBRANCH  15  16
ENDBRANCH  14  15
ENDBRANCH  13  14
BRANCH  13  20
HETATM   20  C4  UNL     1     -11.339  -8.102   9.771  1.00  0.00     0.259 C 
HETATM   21  N3  UNL     1     -10.116  -8.432  10.394  1.00  0.00    -0.060 NA
HETATM   22  O2  UNL     1     -11.977  -7.138  10.216  1.00  0.00    -0.274 OA
ENDBRANCH  13  20
ENDBRANCH  12  13
BRANCH  12  23
HETATM   23  O3  UNL     1     -13.651 -10.354   8.141  1.00  0.00    -0.347 OA
ATOM     24  H3  UNL     1     -14.379  -9.872   7.765  1.00  0.00     0.219 HD
ENDBRANCH  12  23
ENDBRANCH   1  12
BRANCH   3  25
HETATM   25  N5  UNL     1     -11.976 -12.304  13.039  1.00  0.00    -0.291 N 
ATOM     26  H5  UNL     1     -11.385 -12.034  13.825  1.00  0.00     0.188 HD
BRANCH  25  27
HETATM   27  N6  UNL     1     -12.021 -13.622  12.630  1.00  0.00    -0.344 N 
ATOM     28  H62 UNL     1     -12.675 -13.890  11.894  1.00  0.00     0.176 HD
ATOM     29  H61 UNL     1     -11.405 -14.310  13.062  1.00  0.00     0.176 HD
ENDBRANCH  25  27
ENDBRANCH   3  25
TORSDOF 10
ENDMDL
MODEL 2
REMARK VINA RESULT: -7.694547065      2.511      6.494
REMARK  10 active torsions:
REMARK  status: ('A' for Active; 'I' for Inactive)
REMARK    1  A    between atoms: C2_2  and  O1_3 
REMARK    2  A    between atoms: C2_2  and  N1_5 
REMARK    3  A    between atoms: N1_5  and  N2_6 
REMARK    4  A    between atoms: N2_6  and  C3_7 
REMARK    5  A    between atoms: C3_7  and  C4_8 
REMARK    6  A    between atoms: C3_7  and  C5_11 
REMARK    7  A    between atoms: C5_11  and  O3_12 
REMARK    8  A    between atoms: C5_11  and  N4_14 
REMARK    9  A    between atoms: C7_16  and  N5_17 
REMARK   10  A    between atoms: N5_17  and  N6_19 
ROOT
HETATM    1  N4  UNL     1     -11.640  -9.051   6.860  1.00  0.00    -0.264 N 
HETATM    2  C6  UNL     1     -12.910  -9.436   6.510  1.00  0.00     0.152 A 
HETATM    3  C7  UNL     1     -13.401  -9.424   5.238  1.00  0.00     0.137 A 
HETATM    4  N7  UNL     1     -12.573  -9.006   4.262  1.00  0.00    -0.322 N 
ATOM      5  H7  UNL     1     -12.906  -8.986   3.298  1.00  0.00     0.169 HD
HETATM    6  C8  UNL     1     -11.319  -8.617   4.530  1.00  0.00     0.170 A 
HETATM    7  N8  UNL     1     -10.493  -8.208   3.630  1.00  0.00    -0.381 N 
ATOM      8  H81 UNL     1      -9.539  -7.912   3.835  1.00  0.00     0.157 HD
ATOM      9  H82 UNL     1     -10.819  -8.183   2.663  1.00  0.00     0.157 HD
HETATM   10  C9  UNL     1     -10.869  -8.651   5.865  1.00  0.00     0.297 A 
HETATM   11  O4  UNL     1      -9.675  -8.275   6.049  1.00  0.00    -0.263 OA
ENDROOT
BRANCH   1  12
HETATM   12  C5  UNL     1     -11.245  -9.138   8.196  1.00  0.00     0.155 C 
BRANCH  12  13
HETATM   13  C3  UNL     1     -11.981  -8.583   9.323  1.00  0.00     0.259 C 
BRANCH  13  14
HETATM   14  N2  UNL     1     -11.042  -8.396  10.488  1.00  0.00    -0.123 NA
BRANCH  14  15
HETATM   15  N1  UNL     1     -11.519  -7.281  11.154  1.00  0.00    -0.116 NA
BRANCH  15  16
HETATM   16  C2  UNL     1     -12.116  -7.567  12.434  1.00  0.00     0.223 C 
HETATM   17  C1  UNL     1     -11.579  -8.860  13.000  1.00  0.00     0.059 C 
BRANCH  16  18
HETATM   18  O1  UNL     1     -13.484  -7.508  12.442  1.00  0.00    -0.379 OA
ATOM     19  H1  UNL     1     -13.860  -7.508  11.569  1.00  0.00     0.211 HD
ENDBRANCH  16  18
ENDBRANCH  15  16
ENDBRANCH  14  15
ENDBRANCH  13  14
BRANCH  13  20
HETATM   20  C4  UNL     1     -12.903  -9.629   9.866  1.00  0.00     0.259 C 
HETATM   21  N3  UNL     1     -14.282  -9.375  10.027  1.00  0.00    -0.060 NA
HETATM   22  O2  UNL     1     -12.476 -10.749  10.179  1.00  0.00    -0.274 OA
ENDBRANCH  13  20
ENDBRANCH  12  13
BRANCH  12  23
HETATM   23  O3  UNL     1     -10.126  -9.768   8.440  1.00  0.00    -0.347 OA
ATOM     24  H3  UNL     1      -9.907 -10.517   7.898  1.00  0.00     0.219 HD
ENDBRANCH  12  23
ENDBRANCH   1  12
BRANCH   3  25
HETATM   25  N5  UNL     1     -14.728  -9.827   4.926  1.00  0.00    -0.291 N 
ATOM     26  H5  UNL     1     -15.199 -10.522   5.503  1.00  0.00     0.188 HD
BRANCH  25  27
HETATM   27  N6  UNL     1     -15.377  -9.275   3.840  1.00  0.00    -0.344 N 
ATOM     28  H62 UNL     1     -14.878  -8.611   3.249  1.00  0.00     0.176 HD
ATOM     29  H61 UNL     1     -16.343  -9.533   3.640  1.00  0.00     0.176 HD
ENDBRANCH  25  27
ENDBRANCH   3  25
TORSDOF 10
ENDMDL
MODEL 3
REMARK VINA RESULT: -7.687335141      1.430      1.624
REMARK  10 active torsions:
REMARK  status: ('A' for Active; 'I' for Inactive)
REMARK    1  A    between atoms: C2_2  and  O1_3 
REMARK    2  A    between atoms: C2_2  and  N1_5 
REMARK    3  A    between atoms: N1_5  and  N2_6 
REMARK    4  A    between atoms: N2_6  and  C3_7 
REMARK    5  A    between atoms: C3_7  and  C4_8 
REMARK    6  A    between atoms: C3_7  and  C5_11 
REMARK    7  A    between atoms: C5_11  and  O3_12 
REMARK    8  A    between atoms: C5_11  and  N4_14 
REMARK    9  A    between atoms: C7_16  and  N5_17 
REMARK   10  A    between atoms: N5_17  and  N6_19 
ROOT
HETATM    1  N4  UNL     1     -13.297  -9.696  11.384  1.00  0.00    -0.264 N 
HETATM    2  C6  UNL     1     -12.724 -10.941  11.296  1.00  0.00     0.152 A 
HETATM    3  C7  UNL     1     -12.366 -11.706  12.367  1.00  0.00     0.137 A 
HETATM    4  N7  UNL     1     -12.594 -11.197  13.592  1.00  0.00    -0.322 N 
ATOM      5  H7  UNL     1     -12.339 -11.742  14.415  1.00  0.00     0.169 HD
HETATM    6  C8  UNL     1     -13.151  -9.988  13.752  1.00  0.00     0.170 A 
HETATM    7  N8  UNL     1     -13.386  -9.461  14.904  1.00  0.00    -0.381 N 
ATOM      8  H81 UNL     1     -13.809  -8.541  15.026  1.00  0.00     0.157 HD
ATOM      9  H82 UNL     1     -13.133  -9.999  15.733  1.00  0.00     0.157 HD
HETATM   10  C9  UNL     1     -13.500  -9.245  12.608  1.00  0.00     0.297 A 
HETATM   11  O4  UNL     1     -14.025  -8.115  12.829  1.00  0.00    -0.263 OA
ENDROOT
BRANCH   1  12
HETATM   12  C5  UNL     1     -13.648  -9.024  10.212  1.00  0.00     0.155 C 
BRANCH  12  13
HETATM   13  C3  UNL     1     -12.724  -8.658   9.148  1.00  0.00     0.259 C 
BRANCH  13  14
HETATM   14  N2  UNL     1     -12.248  -9.907   8.449  1.00  0.00    -0.123 NA
BRANCH  14  15
HETATM   15  N1  UNL     1     -12.893  -9.896   7.225  1.00  0.00    -0.116 NA
BRANCH  15  16
HETATM   16  C2  UNL     1     -12.105  -9.358   6.146  1.00  0.00     0.223 C 
HETATM   17  C1  UNL     1     -12.894  -9.345   4.859  1.00  0.00     0.059 C 
BRANCH  16  18
HETATM   18  O1  UNL     1     -10.870  -9.936   6.009  1.00  0.00    -0.379 OA
ATOM     19  H1  UNL     1     -10.376  -9.949   6.820  1.00  0.00     0.211 HD
ENDBRANCH  16  18
ENDBRANCH  15  16
ENDBRANCH  14  15
ENDBRANCH  13  14
BRANCH  13  20
HETATM   20  C4  UNL     1     -11.448  -8.170   9.758  1.00  0.00     0.259 C 
HETATM   21  N3  UNL     1     -10.203  -8.724   9.392  1.00  0.00    -0.060 NA
HETATM   22  O2  UNL     1     -11.455  -7.259  10.598  1.00  0.00    -0.274 OA
ENDBRANCH  13  20
ENDBRANCH  12  13
BRANCH  12  23
HETATM   23  O3  UNL     1     -14.908  -8.704  10.071  1.00  0.00    -0.347 OA
ATOM     24  H3  UNL     1     -15.447  -9.244   9.505  1.00  0.00     0.219 HD
ENDBRANCH  12  23
ENDBRANCH   1  12
BRANCH   3  25
HETATM   25  N5  UNL     1     -11.769 -12.988  12.225  1.00  0.00    -0.291 N 
ATOM     26  H5  UNL     1     -10.852 -13.079  11.790  1.00  0.00     0.188 HD
BRANCH  25  27
HETATM   27  N6  UNL     1     -12.434 -14.110  12.677  1.00  0.00    -0.344 N 
ATOM     28  H62 UNL     1     -12.879 -14.086  13.594  1.00  0.00     0.176 HD
ATOM     29  H61 UNL     1     -12.474 -14.947  12.095  1.00  0.00     0.176 HD
ENDBRANCH  25  27
ENDBRANCH   3  25
TORSDOF 10
ENDMDL
MODEL 4
REMARK VINA RESULT: -7.683588914      2.451      6.387
REMARK  10 active torsions:
REMARK  status: ('A' for Active; 'I' for Inactive)
REMARK    1  A    between atoms: C2_2  and  O1_3 
REMARK    2  A    between atoms: C2_2  and  N1_5 
REMARK    3  A    between atoms: N1_5  and  N2_6 
REMARK    4  A    between atoms: N2_6  and  C3_7 
REMARK    5  A    between atoms: C3_7  and  C4_8 
REMARK    6  A    between atoms: C3_7  and  C5_11 
REMARK    7  A    between atoms: C5_11  and  O3_12 
REMARK    8  A    between atoms: C5_11  and  N4_14 
REMARK    9  A    between atoms: C7_16  and  N5_17 
REMARK   10  A    between atoms: N5_17  and  N6_19 
ROOT
HETATM    1  N4  UNL     1     -11.813  -9.224   6.711  1.00  0.00    -0.264 N 
HETATM    2  C6  UNL     1     -10.943  -8.850   5.716  1.00  0.00     0.152 A 
HETATM    3  C7  UNL     1     -11.274  -8.745   4.398  1.00  0.00     0.137 A 
HETATM    4  N7  UNL     1     -12.546  -9.028   4.056  1.00  0.00    -0.322 N 
ATOM      5  H7  UNL     1     -12.828  -8.958   3.079  1.00  0.00     0.169 HD
HETATM    6  C8  UNL     1     -13.448  -9.398   4.975  1.00  0.00     0.170 A 
HETATM    7  N8  UNL     1     -14.674  -9.680   4.694  1.00  0.00    -0.381 N 
ATOM      8  H81 UNL     1     -15.361  -9.962   5.394  1.00  0.00     0.157 HD
ATOM      9  H82 UNL     1     -14.965  -9.614   3.719  1.00  0.00     0.157 HD
HETATM   10  C9  UNL     1     -13.047  -9.489   6.322  1.00  0.00     0.297 A 
HETATM   11  O4  UNL     1     -13.948  -9.839   7.139  1.00  0.00    -0.263 OA
ENDROOT
BRANCH   1  12
HETATM   12  C5  UNL     1     -11.361  -9.265   8.031  1.00  0.00     0.155 C 
BRANCH  12  13
HETATM   13  C3  UNL     1     -12.059  -8.692   9.173  1.00  0.00     0.259 C 
BRANCH  13  14
HETATM   14  N2  UNL     1     -11.065  -8.395  10.267  1.00  0.00    -0.123 NA
BRANCH  14  15
HETATM   15  N1  UNL     1     -11.556  -7.265  10.896  1.00  0.00    -0.116 NA
BRANCH  15  16
HETATM   16  C2  UNL     1     -12.040  -7.495  12.234  1.00  0.00     0.223 C 
HETATM   17  C1  UNL     1     -11.463  -8.769  12.802  1.00  0.00     0.059 C 
BRANCH  16  18
HETATM   18  O1  UNL     1     -13.402  -7.423  12.359  1.00  0.00    -0.379 OA
ATOM     19  H1  UNL     1     -13.679  -6.898  13.100  1.00  0.00     0.211 HD
ENDBRANCH  16  18
ENDBRANCH  15  16
ENDBRANCH  14  15
ENDBRANCH  13  14
BRANCH  13  20
HETATM   20  C4  UNL     1     -12.887  -9.756   9.821  1.00  0.00     0.259 C 
HETATM   21  N3  UNL     1     -14.206  -9.496  10.252  1.00  0.00    -0.060 NA
HETATM   22  O2  UNL     1     -12.435 -10.897   9.989  1.00  0.00    -0.274 OA
ENDBRANCH  13  20
ENDBRANCH  12  13
BRANCH  12  23
HETATM   23  O3  UNL     1     -10.220  -9.866   8.244  1.00  0.00    -0.347 OA
ATOM     24  H3  UNL     1      -9.966 -10.566   7.654  1.00  0.00     0.219 HD
ENDBRANCH  12  23
ENDBRANCH   1  12
BRANCH   3  25
HETATM   25  N5  UNL     1     -10.335  -8.360   3.402  1.00  0.00    -0.291 N 
ATOM     26  H5  UNL     1      -9.669  -7.611   3.591  1.00  0.00     0.188 HD
BRANCH  25  27
HETATM   27  N6  UNL     1     -10.327  -9.000   2.179  1.00  0.00    -0.344 N 
ATOM     28  H62 UNL     1     -11.093  -8.833   1.527  1.00  0.00     0.176 HD
ATOM     29  H61 UNL     1      -9.561  -9.629   1.940  1.00  0.00     0.176 HD
ENDBRANCH  25  27
ENDBRANCH   3  25
TORSDOF 10
ENDMDL
MODEL 5
REMARK VINA RESULT: -7.667761009      1.656      2.355
REMARK  10 active torsions:
REMARK  status: ('A' for Active; 'I' for Inactive)
REMARK    1  A    between atoms: C2_2  and  O1_3 
REMARK    2  A    between atoms: C2_2  and  N1_5 
REMARK    3  A    between atoms: N1_5  and  N2_6 
REMARK    4  A    between atoms: N2_6  and  C3_7 
REMARK    5  A    between atoms: C3_7  and  C4_8 
REMARK    6  A    between atoms: C3_7  and  C5_11 
REMARK    7  A    between atoms: C5_11  and  O3_12 
REMARK    8  A    between atoms: C5_11  and  N4_14 
REMARK    9  A    between atoms: C7_16  and  N5_17 
REMARK   10  A    between atoms: N5_17  and  N6_19 
ROOT
HETATM    1  N4  UNL     1     -12.359  -9.225  11.797  1.00  0.00    -0.264 N 
HETATM    2  C6  UNL     1     -12.323 -10.590  11.950  1.00  0.00     0.152 A 
HETATM    3  C7  UNL     1     -12.683 -11.251  13.086  1.00  0.00     0.137 A 
HETATM    4  N7  UNL     1     -13.104 -10.506  14.126  1.00  0.00    -0.322 N 
ATOM      5  H7  UNL     1     -13.382 -10.968  14.992  1.00  0.00     0.169 HD
HETATM    6  C8  UNL     1     -13.165  -9.170  14.047  1.00  0.00     0.170 A 
HETATM    7  N8  UNL     1     -13.559  -8.417  15.016  1.00  0.00    -0.381 N 
ATOM      8  H81 UNL     1     -13.605  -7.400  14.956  1.00  0.00     0.157 HD
ATOM      9  H82 UNL     1     -13.838  -8.872  15.887  1.00  0.00     0.157 HD
HETATM   10  C9  UNL     1     -12.780  -8.543  12.846  1.00  0.00     0.297 A 
HETATM   11  O4  UNL     1     -12.865  -7.280  12.836  1.00  0.00    -0.263 OA
ENDROOT
BRANCH   1  12
HETATM   12  C5  UNL     1     -11.994  -8.668  10.570  1.00  0.00     0.155 C 
BRANCH  12  13
HETATM   13  C3  UNL     1     -12.000  -9.372   9.296  1.00  0.00     0.259 C 
BRANCH  13  14
HETATM   14  N2  UNL     1     -11.384  -8.493   8.237  1.00  0.00    -0.123 NA
BRANCH  14  15
HETATM   15  N1  UNL     1     -10.545  -9.329   7.524  1.00  0.00    -0.116 NA
BRANCH  15  16
HETATM   16  C2  UNL     1     -10.817  -9.374   6.109  1.00  0.00     0.223 C 
HETATM   17  C1  UNL     1     -10.505  -8.048   5.460  1.00  0.00     0.059 C 
BRANCH  16  18
HETATM   18  O1  UNL     1     -12.064  -9.844   5.792  1.00  0.00    -0.379 OA
ATOM     19  H1  UNL     1     -12.463 -10.340   6.496  1.00  0.00     0.211 HD
ENDBRANCH  16  18
ENDBRANCH  15  16
ENDBRANCH  14  15
ENDBRANCH  13  14
BRANCH  13  20
HETATM   20  C4  UNL     1     -13.408  -9.471   8.801  1.00  0.00     0.259 C 
HETATM   21  N3  UNL     1     -13.892 -10.655   8.203  1.00  0.00    -0.060 NA
HETATM   22  O2  UNL     1     -14.188  -8.515   8.912  1.00  0.00    -0.274 OA
ENDBRANCH  13  20
ENDBRANCH  12  13
BRANCH  12  23
HETATM   23  O3  UNL     1     -11.618  -7.416  10.581  1.00  0.00    -0.347 OA
ATOM     24  H3  UNL     1     -12.283  -6.750  10.708  1.00  0.00     0.219 HD
ENDBRANCH  12  23
ENDBRANCH   1  12
BRANCH   3  25
HETATM   25  N5  UNL     1     -12.623 -12.667  13.199  1.00  0.00    -0.291 N 
ATOM     26  H5  UNL     1     -13.286 -13.160  13.796  1.00  0.00     0.188 HD
BRANCH  25  27
HETATM   27  N6  UNL     1     -11.666 -13.373  12.499  1.00  0.00    -0.344 N 
ATOM     28  H62 UNL     1     -10.817 -13.668  12.981  1.00  0.00     0.176 HD
ATOM     29  H61 UNL     1     -11.814 -13.592  11.514  1.00  0.00     0.176 HD
ENDBRANCH  25  27
ENDBRANCH   3  25
TORSDOF 10
ENDMDL
