MODEL 1
REMARK VINA RESULT: -7.348451831      0.000      0.000
REMARK  9 active torsions:
REMARK  status: ('A' for Active; 'I' for Inactive)
REMARK    1  A    between atoms: N1_1  and  C1_4 
REMARK    2  A    between atoms: C2_7  and  N3_8 
REMARK    3  A    between atoms: C3_13  and  N5_14 
REMARK    4  A    between atoms: N5_14  and  C4_16 
REMARK    5  A    between atoms: C4_16  and  N6_17 
REMARK    6  A    between atoms: N6_17  and  N7_19 
REMARK    7  A    between atoms: N9_26  and  N10_27 
REMARK    8  A    between atoms: N10_27  and  O4_28 
REMARK    9  A    between atoms: O4_28  and  N11_29 
ROOT
HETATM    1  N5  UNL     1     -13.930  -9.674  10.848  1.00  0.00    -0.174 N 
ATOM      2  H5  UNL     1     -14.817 -10.177  10.839  1.00  0.00     0.182 HD
ENDROOT
BRANCH   1   3
HETATM    3  C3  UNL     1     -13.310  -9.645   9.730  1.00  0.00     0.710 A 
HETATM    4  N4  UNL     1     -14.007  -9.645   8.553  1.00  0.00    -0.022 N 
HETATM    5  C2  UNL     1     -13.358  -9.614   7.380  1.00  0.00     0.705 A 
ATOM      6  H4  UNL     1     -15.027  -9.668   8.567  1.00  0.00     0.203 HD
HETATM    7  N2  UNL     1     -12.003  -9.583   7.385  1.00  0.00    -0.022 N 
HETATM    8  C1  UNL     1     -11.332  -9.584   8.548  1.00  0.00     0.705 A 
ATOM      9  H2  UNL     1     -11.492  -9.560   6.503  1.00  0.00     0.203 HD
HETATM   10  N12 UNL     1     -11.967  -9.615   9.741  1.00  0.00    -0.022 N 
ATOM     11  H12 UNL     1     -11.445  -9.616  10.617  1.00  0.00     0.203 HD
BRANCH   5  12
HETATM   12  N3  UNL     1     -14.010  -9.613   6.269  1.00  0.00    -0.234 N 
ATOM     13  H32 UNL     1     -13.524  -9.740   5.381  1.00  0.00     0.174 HD
ATOM     14  H31 UNL     1     -15.022  -9.487   6.261  1.00  0.00     0.174 HD
ENDBRANCH   5  12
BRANCH   8  15
HETATM   15  N1  UNL     1     -10.044  -9.555   8.526  1.00  0.00    -0.234 N 
ATOM     16  H12 UNL     1      -9.566  -9.508   7.626  1.00  0.00     0.174 HD
ATOM     17  H11 UNL     1      -9.534  -9.579   9.409  1.00  0.00     0.174 HD
ENDBRANCH   8  15
ENDBRANCH   1   3
BRANCH   1  18
HETATM   18  C4  UNL     1     -13.570  -9.116  12.092  1.00  0.00     0.276 C 
HETATM   19  C5  UNL     1     -14.552  -9.318  13.180  1.00  0.00     0.165 C 
HETATM   20  N8  UNL     1     -13.864  -9.412  14.269  1.00  0.00    -0.255 N 
HETATM   21  O3  UNL     1     -12.507  -9.289  13.983  1.00  0.00    -0.160 OA
ATOM     22  H8  UNL     1     -14.257  -9.555  15.199  1.00  0.00     0.195 HD
HETATM   23  N9  UNL     1     -12.413  -9.815  12.692  1.00  0.00     0.003 NA
BRANCH  18  24
HETATM   24  N6  UNL     1     -13.171  -7.732  12.052  1.00  0.00    -0.226 N 
ATOM     25  H6  UNL     1     -13.625  -7.083  12.694  1.00  0.00     0.191 HD
BRANCH  24  26
HETATM   26  N7  UNL     1     -12.207  -7.230  11.191  1.00  0.00    -0.040 N 
HETATM   27  O1  UNL     1     -12.549  -6.669  10.138  1.00  0.00    -0.517 OA
HETATM   28  O2  UNL     1     -10.890  -7.372  11.537  1.00  0.00    -0.517 OA
ENDBRANCH  24  26
ENDBRANCH  18  24
BRANCH  23  29
HETATM   29  N10 UNL     1     -12.749 -11.170  12.817  1.00  0.00     0.053 NA
BRANCH  29  30
HETATM   30  O4  UNL     1     -12.042 -11.934  11.940  1.00  0.00    -0.152 OA
BRANCH  30  31
HETATM   31  N11 UNL     1     -11.884 -13.195  12.398  1.00  0.00    -0.289 N 
ATOM     32 2H11 UNL     1     -10.976 -13.649  12.495  1.00  0.00     0.186 HD
ATOM     33 1H11 UNL     1     -12.781 -13.623  12.630  1.00  0.00     0.186 HD
ENDBRANCH  30  31
ENDBRANCH  29  30
ENDBRANCH  23  29
ENDBRANCH   1  18
TORSDOF 9
ENDMDL
MODEL 2
REMARK VINA RESULT: -7.275114620      0.071      1.743
REMARK  9 active torsions:
REMARK  status: ('A' for Active; 'I' for Inactive)
REMARK    1  A    between atoms: N1_1  and  C1_4 
REMARK    2  A    between atoms: C2_7  and  N3_8 
REMARK    3  A    between atoms: C3_13  and  N5_14 
REMARK    4  A    between atoms: N5_14  and  C4_16 
REMARK    5  A    between atoms: C4_16  and  N6_17 
REMARK    6  A    between atoms: N6_17  and  N7_19 
REMARK    7  A    between atoms: N9_26  and  N10_27 
REMARK    8  A    between atoms: N10_27  and  O4_28 
REMARK    9  A    between atoms: O4_28  and  N11_29 
ROOT
HETATM    1  N5  UNL     1     -13.886  -9.744  10.870  1.00  0.00    -0.174 N 
ATOM      2  H5  UNL     1     -14.753 -10.282  10.865  1.00  0.00     0.182 HD
ENDROOT
BRANCH   1   3
HETATM    3  C3  UNL     1     -13.277  -9.686   9.747  1.00  0.00     0.710 A 
HETATM    4  N4  UNL     1     -11.911  -9.611   9.705  1.00  0.00    -0.022 N 
HETATM    5  C2  UNL     1     -11.272  -9.549   8.529  1.00  0.00     0.705 A 
ATOM      6  H4  UNL     1     -11.376  -9.602  10.574  1.00  0.00     0.203 HD
HETATM    7  N2  UNL     1     -12.002  -9.562   7.387  1.00  0.00    -0.022 N 
HETATM    8  C1  UNL     1     -13.342  -9.636   7.444  1.00  0.00     0.705 A 
ATOM      9  H2  UNL     1     -11.533  -9.517   6.482  1.00  0.00     0.203 HD
HETATM   10  N12 UNL     1     -14.006  -9.699   8.619  1.00  0.00    -0.022 N 
ATOM     11  H12 UNL     1     -15.024  -9.754   8.648  1.00  0.00     0.203 HD
BRANCH   5  12
HETATM   12  N3  UNL     1      -9.985  -9.479   8.483  1.00  0.00    -0.234 N 
ATOM     13  H32 UNL     1      -9.426 -10.311   8.296  1.00  0.00     0.174 HD
ATOM     14  H31 UNL     1      -9.509  -8.590   8.633  1.00  0.00     0.174 HD
ENDBRANCH   5  12
BRANCH   8  15
HETATM   15  N1  UNL     1     -14.014  -9.647   6.344  1.00  0.00    -0.234 N 
ATOM     16  H12 UNL     1     -13.869  -8.897   5.669  1.00  0.00     0.174 HD
ATOM     17  H11 UNL     1     -14.674 -10.406   6.176  1.00  0.00     0.174 HD
ENDBRANCH   8  15
ENDBRANCH   1   3
BRANCH   1  18
HETATM   18  C4  UNL     1     -13.540  -9.178  12.114  1.00  0.00     0.276 C 
HETATM   19  C5  UNL     1     -14.529  -9.378  13.195  1.00  0.00     0.165 C 
HETATM   20  N8  UNL     1     -13.849  -9.463  14.289  1.00  0.00    -0.255 N 
HETATM   21  O3  UNL     1     -12.491  -9.334  14.013  1.00  0.00    -0.160 OA
ATOM     22  H8  UNL     1     -14.248  -9.603  15.217  1.00  0.00     0.195 HD
HETATM   23  N9  UNL     1     -12.383  -9.867  12.727  1.00  0.00     0.003 NA
BRANCH  18  24
HETATM   24  N6  UNL     1     -13.148  -7.791  12.069  1.00  0.00    -0.226 N 
ATOM     25  H6  UNL     1     -13.588  -7.146  12.725  1.00  0.00     0.191 HD
BRANCH  24  26
HETATM   26  N7  UNL     1     -12.208  -7.281  11.186  1.00  0.00    -0.040 N 
HETATM   27  O1  UNL     1     -12.576  -6.777  10.113  1.00  0.00    -0.517 OA
HETATM   28  O2  UNL     1     -10.886  -7.353  11.532  1.00  0.00    -0.517 OA
ENDBRANCH  24  26
ENDBRANCH  18  24
BRANCH  23  29
HETATM   29  N10 UNL     1     -12.713 -11.223  12.856  1.00  0.00     0.053 NA
BRANCH  29  30
HETATM   30  O4  UNL     1     -12.011 -11.984  11.974  1.00  0.00    -0.152 OA
BRANCH  30  31
HETATM   31  N11 UNL     1     -11.860 -13.250  12.424  1.00  0.00    -0.289 N 
ATOM     32 2H11 UNL     1     -11.276 -13.497  13.223  1.00  0.00     0.186 HD
ATOM     33 1H11 UNL     1     -12.400 -13.912  11.866  1.00  0.00     0.186 HD
ENDBRANCH  30  31
ENDBRANCH  29  30
ENDBRANCH  23  29
ENDBRANCH   1  18
TORSDOF 9
ENDMDL
MODEL 3
REMARK VINA RESULT: -7.261199956      1.690      3.639
REMARK  9 active torsions:
REMARK  status: ('A' for Active; 'I' for Inactive)
REMARK    1  A    between atoms: N1_1  and  C1_4 
REMARK    2  A    between atoms: C2_7  and  N3_8 
REMARK    3  A    between atoms: C3_13  and  N5_14 
REMARK    4  A    between atoms: N5_14  and  C4_16 
REMARK    5  A    between atoms: C4_16  and  N6_17 
REMARK    6  A    between atoms: N6_17  and  N7_19 
REMARK    7  A    between atoms: N9_26  and  N10_27 
REMARK    8  A    between atoms: N10_27  and  O4_28 
REMARK    9  A    between atoms: O4_28  and  N11_29 
ROOT
HETATM    1  N5  UNL     1     -13.141 -10.031  11.654  1.00  0.00    -0.174 N 
ATOM      2  H5  UNL     1     -13.026 -10.982  12.002  1.00  0.00     0.182 HD
ENDROOT
BRANCH   1   3
HETATM    3  C3  UNL     1     -12.843  -9.863  10.422  1.00  0.00     0.710 A 
HETATM    4  N4  UNL     1     -11.555  -9.581  10.054  1.00  0.00    -0.022 N 
HETATM    5  C2  UNL     1     -11.242  -9.405   8.763  1.00  0.00     0.705 A 
ATOM      6  H4  UNL     1     -10.829  -9.505  10.767  1.00  0.00     0.203 HD
HETATM    7  N2  UNL     1     -12.223  -9.511   7.833  1.00  0.00    -0.022 N 
HETATM    8  C1  UNL     1     -13.482  -9.788   8.209  1.00  0.00     0.705 A 
ATOM      9  H2  UNL     1     -12.003  -9.381   6.845  1.00  0.00     0.203 HD
HETATM   10  N12 UNL     1     -13.819  -9.969   9.505  1.00  0.00    -0.022 N 
ATOM     11  H12 UNL     1     -14.779 -10.178   9.776  1.00  0.00     0.203 HD
BRANCH   5  12
HETATM   12  N3  UNL     1     -10.031  -9.140   8.411  1.00  0.00    -0.234 N 
ATOM     13  H32 UNL     1      -9.268  -9.207   9.085  1.00  0.00     0.174 HD
ATOM     14  H31 UNL     1      -9.818  -8.861   7.454  1.00  0.00     0.174 HD
ENDBRANCH   5  12
BRANCH   8  15
HETATM   15  N1  UNL     1     -14.396  -9.883   7.305  1.00  0.00    -0.234 N 
ATOM     16  H12 UNL     1     -15.310 -10.256   7.563  1.00  0.00     0.174 HD
ATOM     17  H11 UNL     1     -14.184  -9.584   6.354  1.00  0.00     0.174 HD
ENDBRANCH   8  15
ENDBRANCH   1   3
BRANCH   1  18
HETATM   18  C4  UNL     1     -13.605  -9.097  12.604  1.00  0.00     0.276 C 
HETATM   19  C5  UNL     1     -13.109  -9.302  13.982  1.00  0.00     0.165 C 
HETATM   20  N8  UNL     1     -13.011  -8.126  14.505  1.00  0.00    -0.255 N 
HETATM   21  O3  UNL     1     -13.402  -7.163  13.578  1.00  0.00    -0.160 OA
ATOM     22  H8  UNL     1     -12.694  -7.931  15.454  1.00  0.00     0.195 HD
HETATM   23  N9  UNL     1     -13.055  -7.746  12.358  1.00  0.00     0.003 NA
BRANCH  18  24
HETATM   24  N6  UNL     1     -15.033  -8.904  12.628  1.00  0.00    -0.226 N 
ATOM     25  H6  UNL     1     -15.452  -8.328  11.897  1.00  0.00     0.191 HD
BRANCH  24  26
HETATM   26  N7  UNL     1     -15.872  -9.454  13.585  1.00  0.00    -0.040 N 
HETATM   27  O1  UNL     1     -16.165 -10.658  13.532  1.00  0.00    -0.517 OA
HETATM   28  O2  UNL     1     -16.356  -8.637  14.571  1.00  0.00    -0.517 OA
ENDBRANCH  24  26
ENDBRANCH  18  24
BRANCH  23  29
HETATM   29  N10 UNL     1     -11.657  -7.844  12.377  1.00  0.00     0.053 NA
BRANCH  29  30
HETATM   30  O4  UNL     1     -11.099  -7.091  11.390  1.00  0.00    -0.152 OA
BRANCH  30  31
HETATM   31  N11 UNL     1     -12.044  -6.484  10.637  1.00  0.00    -0.289 N 
ATOM     32 2H11 UNL     1     -12.279  -6.775   9.688  1.00  0.00     0.186 HD
ATOM     33 1H11 UNL     1     -12.482  -5.711  11.139  1.00  0.00     0.186 HD
ENDBRANCH  30  31
ENDBRANCH  29  30
ENDBRANCH  23  29
ENDBRANCH   1  18
TORSDOF 9
ENDMDL
MODEL 4
REMARK VINA RESULT: -7.252674201      1.686      3.213
REMARK  9 active torsions:
REMARK  status: ('A' for Active; 'I' for Inactive)
REMARK    1  A    between atoms: N1_1  and  C1_4 
REMARK    2  A    between atoms: C2_7  and  N3_8 
REMARK    3  A    between atoms: C3_13  and  N5_14 
REMARK    4  A    between atoms: N5_14  and  C4_16 
REMARK    5  A    between atoms: C4_16  and  N6_17 
REMARK    6  A    between atoms: N6_17  and  N7_19 
REMARK    7  A    between atoms: N9_26  and  N10_27 
REMARK    8  A    between atoms: N10_27  and  O4_28 
REMARK    9  A    between atoms: O4_28  and  N11_29 
ROOT
HETATM    1  N5  UNL     1     -13.116 -10.032  11.652  1.00  0.00    -0.174 N 
ATOM      2  H5  UNL     1     -12.982 -10.979  12.004  1.00  0.00     0.182 HD
ENDROOT
BRANCH   1   3
HETATM    3  C3  UNL     1     -12.827  -9.864  10.417  1.00  0.00     0.710 A 
HETATM    4  N4  UNL     1     -13.801  -9.955   9.461  1.00  0.00    -0.022 N 
HETATM    5  C2  UNL     1     -13.499  -9.780   8.167  1.00  0.00     0.705 A 
ATOM      6  H4  UNL     1     -14.763 -10.157   9.734  1.00  0.00     0.203 HD
HETATM    7  N2  UNL     1     -12.214  -9.511   7.827  1.00  0.00    -0.022 N 
HETATM    8  C1  UNL     1     -11.269  -9.425   8.777  1.00  0.00     0.705 A 
ATOM      9  H2  UNL     1     -11.965  -9.374   6.847  1.00  0.00     0.203 HD
HETATM   10  N12 UNL     1     -11.552  -9.598  10.087  1.00  0.00    -0.022 N 
ATOM     11  H12 UNL     1     -10.825  -9.531  10.798  1.00  0.00     0.203 HD
BRANCH   5  12
HETATM   12  N3  UNL     1     -14.412  -9.864   7.261  1.00  0.00    -0.234 N 
ATOM     13  H32 UNL     1     -14.806 -10.769   7.004  1.00  0.00     0.174 HD
ATOM     14  H31 UNL     1     -14.755  -9.026   6.791  1.00  0.00     0.174 HD
ENDBRANCH   5  12
BRANCH   8  15
HETATM   15  N1  UNL     1     -10.055  -9.168   8.428  1.00  0.00    -0.234 N 
ATOM     16  H12 UNL     1      -9.888  -8.523   7.656  1.00  0.00     0.174 HD
ATOM     17  H11 UNL     1      -9.291  -9.618   8.932  1.00  0.00     0.174 HD
ENDBRANCH   8  15
ENDBRANCH   1   3
BRANCH   1  18
HETATM   18  C4  UNL     1     -13.592  -9.103  12.600  1.00  0.00     0.276 C 
HETATM   19  C5  UNL     1     -13.105  -9.307  13.981  1.00  0.00     0.165 C 
HETATM   20  N8  UNL     1     -13.018  -8.131  14.506  1.00  0.00    -0.255 N 
HETATM   21  O3  UNL     1     -13.409  -7.169  13.579  1.00  0.00    -0.160 OA
ATOM     22  H8  UNL     1     -12.710  -7.936  15.459  1.00  0.00     0.195 HD
HETATM   23  N9  UNL     1     -13.049  -7.748  12.360  1.00  0.00     0.003 NA
BRANCH  18  24
HETATM   24  N6  UNL     1     -15.022  -8.918  12.613  1.00  0.00    -0.226 N 
ATOM     25  H6  UNL     1     -15.439  -8.348  11.879  1.00  0.00     0.191 HD
BRANCH  24  26
HETATM   26  N7  UNL     1     -15.864  -9.471  13.567  1.00  0.00    -0.040 N 
HETATM   27  O1  UNL     1     -16.157 -10.676  13.509  1.00  0.00    -0.517 OA
HETATM   28  O2  UNL     1     -16.350  -8.657  14.554  1.00  0.00    -0.517 OA
ENDBRANCH  24  26
ENDBRANCH  18  24
BRANCH  23  29
HETATM   29  N10 UNL     1     -11.651  -7.837  12.388  1.00  0.00     0.053 NA
BRANCH  29  30
HETATM   30  O4  UNL     1     -11.092  -7.097  11.393  1.00  0.00    -0.152 OA
BRANCH  30  31
HETATM   31  N11 UNL     1     -12.035  -6.490  10.639  1.00  0.00    -0.289 N 
ATOM     32 2H11 UNL     1     -12.245  -6.758   9.677  1.00  0.00     0.186 HD
ATOM     33 1H11 UNL     1     -12.501  -5.742  11.154  1.00  0.00     0.186 HD
ENDBRANCH  30  31
ENDBRANCH  29  30
ENDBRANCH  23  29
ENDBRANCH   1  18
TORSDOF 9
ENDMDL
MODEL 5
REMARK VINA RESULT: -7.210703958      2.201      3.861
REMARK  9 active torsions:
REMARK  status: ('A' for Active; 'I' for Inactive)
REMARK    1  A    between atoms: N1_1  and  C1_4 
REMARK    2  A    between atoms: C2_7  and  N3_8 
REMARK    3  A    between atoms: C3_13  and  N5_14 
REMARK    4  A    between atoms: N5_14  and  C4_16 
REMARK    5  A    between atoms: C4_16  and  N6_17 
REMARK    6  A    between atoms: N6_17  and  N7_19 
REMARK    7  A    between atoms: N9_26  and  N10_27 
REMARK    8  A    between atoms: N10_27  and  O4_28 
REMARK    9  A    between atoms: O4_28  and  N11_29 
ROOT
HETATM    1  N5  UNL     1     -13.470  -9.786   8.014  1.00  0.00    -0.174 N 
ATOM      2  H5  UNL     1     -14.274 -10.379   8.219  1.00  0.00     0.182 HD
ENDROOT
BRANCH   1   3
HETATM    3  C3  UNL     1     -13.245  -9.585   6.771  1.00  0.00     0.710 A 
HETATM    4  N4  UNL     1     -11.975  -9.332   6.331  1.00  0.00    -0.022 N 
HETATM    5  C2  UNL     1     -11.739  -9.121   5.028  1.00  0.00     0.705 A 
ATOM      6  H4  UNL     1     -11.203  -9.305   6.997  1.00  0.00     0.203 HD
HETATM    7  N2  UNL     1     -12.780  -9.164   4.161  1.00  0.00    -0.022 N 
HETATM    8  C1  UNL     1     -14.021  -9.413   4.608  1.00  0.00     0.705 A 
ATOM      9  H2  UNL     1     -12.619  -9.006   3.166  1.00  0.00     0.203 HD
HETATM   10  N12 UNL     1     -14.281  -9.628   5.917  1.00  0.00    -0.022 N 
ATOM     11  H12 UNL     1     -15.229  -9.815   6.243  1.00  0.00     0.203 HD
BRANCH   5  12
HETATM   12  N3  UNL     1     -10.544  -8.884   4.607  1.00  0.00    -0.234 N 
ATOM     13  H32 UNL     1      -9.811  -9.587   4.701  1.00  0.00     0.174 HD
ATOM     14  H31 UNL     1     -10.315  -7.989   4.174  1.00  0.00     0.174 HD
ENDBRANCH   5  12
BRANCH   8  15
HETATM   15  N1  UNL     1     -14.994  -9.447   3.763  1.00  0.00    -0.234 N 
ATOM     16  H12 UNL     1     -15.845  -8.925   3.968  1.00  0.00     0.174 HD
ATOM     17  H11 UNL     1     -14.888  -9.995   2.910  1.00  0.00     0.174 HD
ENDBRANCH   8  15
ENDBRANCH   1   3
BRANCH   1  18
HETATM   18  C4  UNL     1     -12.773  -9.311   9.144  1.00  0.00     0.276 C 
HETATM   19  C5  UNL     1     -13.008  -7.889   9.478  1.00  0.00     0.165 C 
HETATM   20  N8  UNL     1     -12.926  -7.807  10.764  1.00  0.00    -0.255 N 
HETATM   21  O3  UNL     1     -12.657  -9.063  11.302  1.00  0.00    -0.160 OA
ATOM     22  H8  UNL     1     -13.042  -6.950  11.305  1.00  0.00     0.195 HD
HETATM   23  N9  UNL     1     -13.269  -9.928  10.393  1.00  0.00     0.003 NA
BRANCH  18  24
HETATM   24  N6  UNL     1     -11.356  -9.581   9.149  1.00  0.00    -0.226 N 
ATOM     25  H6  UNL     1     -11.054 -10.554   9.177  1.00  0.00     0.191 HD
BRANCH  24  26
HETATM   26  N7  UNL     1     -10.381  -8.595   9.119  1.00  0.00    -0.040 N 
HETATM   27  O1  UNL     1      -9.828  -8.240  10.172  1.00  0.00    -0.517 OA
HETATM   28  O2  UNL     1     -10.057  -8.040   7.911  1.00  0.00    -0.517 OA
ENDBRANCH  24  26
ENDBRANCH  18  24
BRANCH  23  29
HETATM   29  N10 UNL     1     -14.641  -9.658  10.488  1.00  0.00     0.053 NA
BRANCH  29  30
HETATM   30  O4  UNL     1     -15.111  -9.937  11.734  1.00  0.00    -0.152 OA
BRANCH  30  31
HETATM   31  N11 UNL     1     -15.449  -8.809  12.399  1.00  0.00    -0.289 N 
ATOM     32 2H11 UNL     1     -15.367  -7.875  11.998  1.00  0.00     0.186 HD
ATOM     33 1H11 UNL     1     -15.790  -9.017  13.337  1.00  0.00     0.186 HD
ENDBRANCH  30  31
ENDBRANCH  29  30
ENDBRANCH  23  29
ENDBRANCH   1  18
TORSDOF 9
ENDMDL
