MODEL 1
REMARK VINA RESULT: -6.920303210      0.000      0.000
REMARK  9 active torsions:
REMARK  status: ('A' for Active; 'I' for Inactive)
REMARK    1  A    between atoms: C2_2  and  O1_3 
REMARK    2  A    between atoms: C2_2  and  C3_5 
REMARK    3  A    between atoms: C3_5  and  O2_6 
REMARK    4  A    between atoms: O2_6  and  C4_7 
REMARK    5  A    between atoms: C9_12  and  O3_13 
REMARK    6  A    between atoms: C14_19  and  C15_20 
REMARK    7  A    between atoms: C15_20  and  O4_21 
REMARK    8  A    between atoms: C18_26  and  C19_27 
REMARK    9  A    between atoms: C19_27  and  O6_28 
ROOT
HETATM    1  C4  UNL     1      87.971  72.671  30.787  1.00  0.00     0.177 C 
HETATM    2  C5  UNL     1      88.302  71.204  31.102  1.00  0.00     0.040 C 
HETATM    3  C6  UNL     1      89.166  70.726  29.954  1.00  0.00     0.019 C 
HETATM    4  C7  UNL     1      90.552  71.307  30.030  1.00  0.00     0.012 C 
HETATM    5  C8  UNL     1      90.416  72.741  30.389  1.00  0.00     0.020 C 
HETATM    6  C9  UNL     1      89.292  73.344  30.720  1.00  0.00     0.069 C 
HETATM    7  C10 UNL     1      91.285  70.616  31.166  1.00  0.00     0.003 C 
HETATM    8  C11 UNL     1      92.506  71.342  31.619  1.00  0.00     0.010 C 
HETATM    9  C12 UNL     1      93.736  70.432  31.771  1.00  0.00     0.037 C 
HETATM   10  C13 UNL     1      94.054  69.765  30.471  1.00  0.00    -0.053 C 
HETATM   11  C14 UNL     1      95.227  69.363  30.079  1.00  0.00     0.004 C 
HETATM   12  C16 UNL     1      92.822  69.582  29.601  1.00  0.00     0.151 C 
HETATM   13  C17 UNL     1      91.739  69.268  30.630  1.00  0.00     0.042 C 
HETATM   14  O5  UNL     1      92.632  70.793  28.988  1.00  0.00    -0.373 OA
HETATM   15  C18 UNL     1      91.330  71.160  28.761  1.00  0.00     0.158 C 
ENDROOT
BRANCH  15  16
HETATM   16  C19 UNL     1      90.737  70.264  27.733  1.00  0.00     0.197 C 
BRANCH  16  17
HETATM   17  O6  UNL     1      91.199  70.738  26.478  1.00  0.00    -0.398 OA
ATOM     18  H6  UNL     1      91.018  70.049  25.850  1.00  0.00     0.209 HD
ENDBRANCH  16  17
ENDBRANCH  15  16
BRANCH   6  19
HETATM   19  O3  UNL     1      89.302  74.712  31.039  1.00  0.00    -0.363 OA
ATOM     20  H3  UNL     1      89.325  75.310  30.301  1.00  0.00     0.217 HD
ENDBRANCH   6  19
BRANCH   1  21
HETATM   21  O2  UNL     1      87.205  73.221  31.820  1.00  0.00    -0.377 OA
BRANCH  21  22
HETATM   22  C3  UNL     1      85.909  73.431  31.415  1.00  0.00     0.199 C 
BRANCH  22  23
HETATM   23  C2  UNL     1      85.895  74.715  30.576  1.00  0.00     0.138 C 
HETATM   24  C1  UNL     1      84.528  74.966  29.983  1.00  0.00     0.041 C 
BRANCH  23  25
HETATM   25  O1  UNL     1      86.344  75.795  31.315  1.00  0.00    -0.394 OA
ATOM     26  H1  UNL     1      85.868  76.590  31.106  1.00  0.00     0.210 HD
ENDBRANCH  23  25
ENDBRANCH  22  23
ENDBRANCH  21  22
ENDBRANCH   1  21
BRANCH  11  27
HETATM   27  C15 UNL     1      96.432  69.514  30.883  1.00  0.00     0.191 C 
BRANCH  27  28
HETATM   28  O4  UNL     1      96.814  68.294  31.481  1.00  0.00    -0.397 OA
ATOM     29  H4  UNL     1      97.758  68.226  31.564  1.00  0.00     0.209 HD
ENDBRANCH  27  28
ENDBRANCH  11  27
TORSDOF 9
ENDMDL
MODEL 2
REMARK VINA RESULT: -6.753683137      2.772      6.890
REMARK  9 active torsions:
REMARK  status: ('A' for Active; 'I' for Inactive)
REMARK    1  A    between atoms: C2_2  and  O1_3 
REMARK    2  A    between atoms: C2_2  and  C3_5 
REMARK    3  A    between atoms: C3_5  and  O2_6 
REMARK    4  A    between atoms: O2_6  and  C4_7 
REMARK    5  A    between atoms: C9_12  and  O3_13 
REMARK    6  A    between atoms: C14_19  and  C15_20 
REMARK    7  A    between atoms: C15_20  and  O4_21 
REMARK    8  A    between atoms: C18_26  and  C19_27 
REMARK    9  A    between atoms: C19_27  and  O6_28 
ROOT
HETATM    1  C4  UNL     1      92.249  72.948  31.156  1.00  0.00     0.177 C 
HETATM    2  C5  UNL     1      91.188  72.511  32.178  1.00  0.00     0.040 C 
HETATM    3  C6  UNL     1      89.854  72.879  31.564  1.00  0.00     0.019 C 
HETATM    4  C7  UNL     1      89.495  71.953  30.434  1.00  0.00     0.012 C 
HETATM    5  C8  UNL     1      90.720  71.741  29.623  1.00  0.00     0.020 C 
HETATM    6  C9  UNL     1      91.926  72.173  29.931  1.00  0.00     0.069 C 
HETATM    7  C10 UNL     1      89.104  70.615  31.036  1.00  0.00     0.003 C 
HETATM    8  C11 UNL     1      89.106  69.494  30.053  1.00  0.00     0.010 C 
HETATM    9  C12 UNL     1      87.843  68.620  30.121  1.00  0.00     0.037 C 
HETATM   10  C13 UNL     1      86.623  69.448  29.870  1.00  0.00    -0.053 C 
HETATM   11  C14 UNL     1      85.500  69.031  29.364  1.00  0.00     0.004 C 
HETATM   12  C16 UNL     1      86.816  70.897  30.284  1.00  0.00     0.151 C 
HETATM   13  C17 UNL     1      87.677  70.767  31.537  1.00  0.00     0.042 C 
HETATM   14  O5  UNL     1      87.486  71.483  29.242  1.00  0.00    -0.373 OA
HETATM   15  C18 UNL     1      88.384  72.466  29.574  1.00  0.00     0.158 C 
ENDROOT
BRANCH  15  16
HETATM   16  C19 UNL     1      87.649  73.648  30.095  1.00  0.00     0.197 C 
BRANCH  16  17
HETATM   17  O6  UNL     1      87.156  74.341  28.959  1.00  0.00    -0.398 OA
ATOM     18  H6  UNL     1      87.688  75.124  28.872  1.00  0.00     0.209 HD
ENDBRANCH  16  17
ENDBRANCH  15  16
BRANCH   6  19
HETATM   19  O3  UNL     1      93.004  71.903  29.073  1.00  0.00    -0.363 OA
ATOM     20  H3  UNL     1      93.212  70.985  28.942  1.00  0.00     0.217 HD
ENDBRANCH   6  19
BRANCH   1  21
HETATM   21  O2  UNL     1      93.525  72.609  31.614  1.00  0.00    -0.377 OA
BRANCH  21  22
HETATM   22  C3  UNL     1      93.487  71.470  32.382  1.00  0.00     0.199 C 
BRANCH  22  23
HETATM   23  C2  UNL     1      94.824  71.377  33.127  1.00  0.00     0.138 C 
HETATM   24  C1  UNL     1      95.853  70.627  32.314  1.00  0.00     0.041 C 
BRANCH  23  25
HETATM   25  O1  UNL     1      95.273  72.633  33.499  1.00  0.00    -0.394 OA
ATOM     26  H1  UNL     1      94.576  73.166  33.862  1.00  0.00     0.210 HD
ENDBRANCH  23  25
ENDBRANCH  22  23
ENDBRANCH  21  22
ENDBRANCH   1  21
BRANCH  11  27
HETATM   27  C15 UNL     1      85.272  67.650  28.958  1.00  0.00     0.191 C 
BRANCH  27  28
HETATM   28  O4  UNL     1      84.303  67.025  29.771  1.00  0.00    -0.397 OA
ATOM     29  H4  UNL     1      83.827  66.355  29.294  1.00  0.00     0.209 HD
ENDBRANCH  27  28
ENDBRANCH  11  27
TORSDOF 9
ENDMDL
MODEL 3
REMARK VINA RESULT: -6.745764969      1.858      7.668
REMARK  9 active torsions:
REMARK  status: ('A' for Active; 'I' for Inactive)
REMARK    1  A    between atoms: C2_2  and  O1_3 
REMARK    2  A    between atoms: C2_2  and  C3_5 
REMARK    3  A    between atoms: C3_5  and  O2_6 
REMARK    4  A    between atoms: O2_6  and  C4_7 
REMARK    5  A    between atoms: C9_12  and  O3_13 
REMARK    6  A    between atoms: C14_19  and  C15_20 
REMARK    7  A    between atoms: C15_20  and  O4_21 
REMARK    8  A    between atoms: C18_26  and  C19_27 
REMARK    9  A    between atoms: C19_27  and  O6_28 
ROOT
HETATM    1  C4  UNL     1      93.618  70.441  31.346  1.00  0.00     0.177 C 
HETATM    2  C5  UNL     1      92.554  70.030  30.317  1.00  0.00     0.040 C 
HETATM    3  C6  UNL     1      91.279  69.828  31.108  1.00  0.00     0.019 C 
HETATM    4  C7  UNL     1      90.692  71.141  31.549  1.00  0.00     0.012 C 
HETATM    5  C8  UNL     1      91.809  71.990  32.033  1.00  0.00     0.020 C 
HETATM    6  C9  UNL     1      93.090  71.691  31.948  1.00  0.00     0.069 C 
HETATM    7  C10 UNL     1      90.094  71.817  30.329  1.00  0.00     0.003 C 
HETATM    8  C11 UNL     1      89.834  73.273  30.519  1.00  0.00     0.010 C 
HETATM    9  C12 UNL     1      88.437  73.710  30.050  1.00  0.00     0.037 C 
HETATM   10  C13 UNL     1      87.379  72.954  30.790  1.00  0.00    -0.053 C 
HETATM   11  C14 UNL     1      86.172  73.366  31.042  1.00  0.00     0.004 C 
HETATM   12  C16 UNL     1      87.860  71.585  31.242  1.00  0.00     0.151 C 
HETATM   13  C17 UNL     1      88.750  71.152  30.081  1.00  0.00     0.042 C 
HETATM   14  O5  UNL     1      88.568  71.815  32.393  1.00  0.00    -0.373 OA
HETATM   15  C18 UNL     1      89.649  70.999  32.612  1.00  0.00     0.158 C 
ENDROOT
BRANCH  15  16
HETATM   16  C19 UNL     1      89.175  69.616  32.882  1.00  0.00     0.197 C 
BRANCH  16  17
HETATM   17  O6  UNL     1      88.951  69.538  34.281  1.00  0.00    -0.398 OA
ATOM     18  H6  UNL     1      88.413  68.768  34.422  1.00  0.00     0.209 HD
ENDBRANCH  16  17
ENDBRANCH  15  16
BRANCH   6  19
HETATM   19  O3  UNL     1      94.050  72.586  32.447  1.00  0.00    -0.363 OA
ATOM     20  H3  UNL     1      93.897  73.505  32.260  1.00  0.00     0.217 HD
ENDBRANCH   6  19
BRANCH   1  21
HETATM   21  O2  UNL     1      94.834  70.695  30.703  1.00  0.00    -0.377 OA
BRANCH  21  22
HETATM   22  C3  UNL     1      95.741  69.693  30.949  1.00  0.00     0.199 C 
BRANCH  22  23
HETATM   23  C2  UNL     1      95.871  69.558  32.471  1.00  0.00     0.138 C 
HETATM   24  C1  UNL     1      96.143  68.127  32.872  1.00  0.00     0.041 C 
BRANCH  23  25
HETATM   25  O1  UNL     1      96.831  70.425  32.965  1.00  0.00    -0.394 OA
ATOM     26  H1  UNL     1      96.691  70.621  33.884  1.00  0.00     0.210 HD
ENDBRANCH  23  25
ENDBRANCH  22  23
ENDBRANCH  21  22
ENDBRANCH   1  21
BRANCH  11  27
HETATM   27  C15 UNL     1      85.670  74.669  30.623  1.00  0.00     0.191 C 
BRANCH  27  28
HETATM   28  O4  UNL     1      86.003  75.676  31.553  1.00  0.00    -0.397 OA
ATOM     29  H4  UNL     1      85.245  75.950  32.057  1.00  0.00     0.209 HD
ENDBRANCH  27  28
ENDBRANCH  11  27
TORSDOF 9
ENDMDL
MODEL 4
REMARK VINA RESULT: -6.731874287      3.068      5.039
REMARK  9 active torsions:
REMARK  status: ('A' for Active; 'I' for Inactive)
REMARK    1  A    between atoms: C2_2  and  O1_3 
REMARK    2  A    between atoms: C2_2  and  C3_5 
REMARK    3  A    between atoms: C3_5  and  O2_6 
REMARK    4  A    between atoms: O2_6  and  C4_7 
REMARK    5  A    between atoms: C9_12  and  O3_13 
REMARK    6  A    between atoms: C14_19  and  C15_20 
REMARK    7  A    between atoms: C15_20  and  O4_21 
REMARK    8  A    between atoms: C18_26  and  C19_27 
REMARK    9  A    between atoms: C19_27  and  O6_28 
ROOT
HETATM    1  C4  UNL     1      89.638  69.970  28.226  1.00  0.00     0.177 C 
HETATM    2  C5  UNL     1      90.942  70.716  27.900  1.00  0.00     0.040 C 
HETATM    3  C6  UNL     1      91.163  71.672  29.052  1.00  0.00     0.019 C 
HETATM    4  C7  UNL     1      91.606  70.946  30.293  1.00  0.00     0.012 C 
HETATM    5  C8  UNL     1      90.775  69.722  30.415  1.00  0.00     0.020 C 
HETATM    6  C9  UNL     1      89.913  69.289  29.517  1.00  0.00     0.069 C 
HETATM    7  C10 UNL     1      93.045  70.506  30.086  1.00  0.00     0.003 C 
HETATM    8  C11 UNL     1      93.491  69.451  31.040  1.00  0.00     0.010 C 
HETATM    9  C12 UNL     1      94.857  69.745  31.681  1.00  0.00     0.037 C 
HETATM   10  C13 UNL     1      94.816  71.045  32.420  1.00  0.00    -0.053 C 
HETATM   11  C14 UNL     1      95.544  71.369  33.447  1.00  0.00     0.004 C 
HETATM   12  C16 UNL     1      93.799  72.009  31.833  1.00  0.00     0.151 C 
HETATM   13  C17 UNL     1      93.910  71.731  30.337  1.00  0.00     0.042 C 
HETATM   14  O5  UNL     1      92.593  71.620  32.354  1.00  0.00    -0.373 OA
HETATM   15  C18 UNL     1      91.502  71.771  31.536  1.00  0.00     0.158 C 
ENDROOT
BRANCH  15  16
HETATM   16  C19 UNL     1      91.233  73.220  31.336  1.00  0.00     0.197 C 
BRANCH  16  17
HETATM   17  O6  UNL     1      90.763  73.712  32.581  1.00  0.00    -0.398 OA
ATOM     18  H6  UNL     1      90.043  74.299  32.381  1.00  0.00     0.209 HD
ENDBRANCH  16  17
ENDBRANCH  15  16
BRANCH   6  19
HETATM   19  O3  UNL     1      89.187  68.111  29.757  1.00  0.00    -0.363 OA
ATOM     20  H3  UNL     1      89.327  67.702  30.603  1.00  0.00     0.217 HD
ENDBRANCH   6  19
BRANCH   1  21
HETATM   21  O2  UNL     1      89.367  69.022  27.234  1.00  0.00    -0.377 OA
BRANCH  21  22
HETATM   22  C3  UNL     1      90.127  69.251  26.113  1.00  0.00     0.199 C 
BRANCH  22  23
HETATM   23  C2  UNL     1      89.222  69.032  24.895  1.00  0.00     0.138 C 
HETATM   24  C1  UNL     1      87.888  68.451  25.302  1.00  0.00     0.041 C 
BRANCH  23  25
HETATM   25  O1  UNL     1      89.077  70.201  24.169  1.00  0.00    -0.394 OA
ATOM     26  H1  UNL     1      88.707  70.040  23.309  1.00  0.00     0.210 HD
ENDBRANCH  23  25
ENDBRANCH  22  23
ENDBRANCH  21  22
ENDBRANCH   1  21
BRANCH  11  27
HETATM   27  C15 UNL     1      96.534  70.477  34.038  1.00  0.00     0.191 C 
BRANCH  27  28
HETATM   28  O4  UNL     1      96.195  70.132  35.364  1.00  0.00    -0.397 OA
ATOM     29  H4  UNL     1      96.969  70.019  35.903  1.00  0.00     0.209 HD
ENDBRANCH  27  28
ENDBRANCH  11  27
TORSDOF 9
ENDMDL
MODEL 5
REMARK VINA RESULT: -6.724398658      2.226      3.649
REMARK  9 active torsions:
REMARK  status: ('A' for Active; 'I' for Inactive)
REMARK    1  A    between atoms: C2_2  and  O1_3 
REMARK    2  A    between atoms: C2_2  and  C3_5 
REMARK    3  A    between atoms: C3_5  and  O2_6 
REMARK    4  A    between atoms: O2_6  and  C4_7 
REMARK    5  A    between atoms: C9_12  and  O3_13 
REMARK    6  A    between atoms: C14_19  and  C15_20 
REMARK    7  A    between atoms: C15_20  and  O4_21 
REMARK    8  A    between atoms: C18_26  and  C19_27 
REMARK    9  A    between atoms: C19_27  and  O6_28 
ROOT
HETATM    1  C4  UNL     1      86.263  72.573  30.718  1.00  0.00     0.177 C 
HETATM    2  C5  UNL     1      87.375  73.586  31.033  1.00  0.00     0.040 C 
HETATM    3  C6  UNL     1      88.355  72.851  31.923  1.00  0.00     0.019 C 
HETATM    4  C7  UNL     1      89.159  71.847  31.143  1.00  0.00     0.012 C 
HETATM    5  C8  UNL     1      88.228  71.145  30.225  1.00  0.00     0.020 C 
HETATM    6  C9  UNL     1      86.962  71.456  30.034  1.00  0.00     0.069 C 
HETATM    7  C10 UNL     1      90.157  72.610  30.291  1.00  0.00     0.003 C 
HETATM    8  C11 UNL     1      90.744  71.799  29.186  1.00  0.00     0.010 C 
HETATM    9  C12 UNL     1      92.273  71.919  29.086  1.00  0.00     0.037 C 
HETATM   10  C13 UNL     1      92.914  71.484  30.366  1.00  0.00    -0.053 C 
HETATM   11  C14 UNL     1      94.106  70.980  30.497  1.00  0.00     0.004 C 
HETATM   12  C16 UNL     1      92.007  71.697  31.565  1.00  0.00     0.151 C 
HETATM   13  C17 UNL     1      91.300  73.003  31.213  1.00  0.00     0.042 C 
HETATM   14  O5  UNL     1      91.158  70.622  31.570  1.00  0.00    -0.373 OA
HETATM   15  C18 UNL     1      89.879  70.861  32.007  1.00  0.00     0.158 C 
ENDROOT
BRANCH  15  16
HETATM   16  C19 UNL     1      89.905  71.164  33.462  1.00  0.00     0.197 C 
BRANCH  16  17
HETATM   17  O6  UNL     1      89.072  70.199  34.084  1.00  0.00    -0.398 OA
ATOM     18  H6  UNL     1      88.315  70.671  34.411  1.00  0.00     0.209 HD
ENDBRANCH  16  17
ENDBRANCH  15  16
BRANCH   6  19
HETATM   19  O3  UNL     1      86.187  70.708  29.132  1.00  0.00    -0.363 OA
ATOM     20  H3  UNL     1      86.662  70.294  28.421  1.00  0.00     0.217 HD
ENDBRANCH   6  19
BRANCH   1  21
HETATM   21  O2  UNL     1      85.321  73.147  29.858  1.00  0.00    -0.377 OA
BRANCH  21  22
HETATM   22  C3  UNL     1      84.133  73.373  30.509  1.00  0.00     0.199 C 
BRANCH  22  23
HETATM   23  C2  UNL     1      83.887  72.179  31.439  1.00  0.00     0.138 C 
HETATM   24  C1  UNL     1      82.959  72.550  32.572  1.00  0.00     0.041 C 
BRANCH  23  25
HETATM   25  O1  UNL     1      83.424  71.085  30.729  1.00  0.00    -0.394 OA
ATOM     26  H1  UNL     1      84.126  70.636  30.272  1.00  0.00     0.210 HD
ENDBRANCH  23  25
ENDBRANCH  22  23
ENDBRANCH  21  22
ENDBRANCH   1  21
BRANCH  11  27
HETATM   27  C15 UNL     1      95.009  70.763  29.374  1.00  0.00     0.191 C 
BRANCH  27  28
HETATM   28  O4  UNL     1      94.784  69.512  28.762  1.00  0.00    -0.397 OA
ATOM     29  H4  UNL     1      95.600  69.059  28.583  1.00  0.00     0.209 HD
ENDBRANCH  27  28
ENDBRANCH  11  27
TORSDOF 9
ENDMDL
