MODEL 1
REMARK VINA RESULT: -6.626071427      0.000      0.000
REMARK  8 active torsions:
REMARK  status: ('A' for Active; 'I' for Inactive)
REMARK    1  A    between atoms: C2_2  and  C3_3 
REMARK    2  A    between atoms: C4_4  and  C5_5 
REMARK    3  A    between atoms: C5_5  and  O1_6 
REMARK    4  A    between atoms: C8_10  and  O3_11 
REMARK    5  A    between atoms: C10_14  and  C12_16 
REMARK    6  A    between atoms: C17_21  and  C18_22 
REMARK    7  A    between atoms: C18_22  and  O4_23 
REMARK    8  A    between atoms: C20_26  and  O5_27 
ROOT
HETATM    1  C3  UNL     1      87.330  71.866  30.847  1.00  0.00    -0.024 C 
HETATM    2  C4  UNL     1      87.521  73.332  30.843  1.00  0.00     0.177 C 
HETATM    3  O2  UNL     1      88.866  73.712  30.973  1.00  0.00    -0.371 OA
HETATM    4  C7  UNL     1      89.664  72.655  31.019  1.00  0.00     0.159 C 
HETATM    5  C8  UNL     1      91.163  72.977  30.727  1.00  0.00     0.153 C 
HETATM    6  C9  UNL     1      91.581  71.530  30.665  1.00  0.00     0.036 C 
HETATM    7  C10 UNL     1      92.963  71.144  30.813  1.00  0.00    -0.037 C 
HETATM    8  C11 UNL     1      93.980  71.785  29.894  1.00  0.00     0.015 C 
HETATM    9  C14 UNL     1      93.070  69.638  30.673  1.00  0.00     0.010 C 
HETATM   10  C15 UNL     1      91.819  68.879  30.549  1.00  0.00     0.002 C 
HETATM   11  C16 UNL     1      90.594  69.500  29.985  1.00  0.00     0.013 C 
HETATM   12  C17 UNL     1      90.708  70.959  29.624  1.00  0.00    -0.004 C 
HETATM   13  C19 UNL     1      89.461  71.778  29.796  1.00  0.00     0.061 C 
HETATM   14  C20 UNL     1      88.148  71.146  29.769  1.00  0.00     0.157 C 
ENDROOT
BRANCH   2  15
HETATM   15  C5  UNL     1      86.974  74.106  29.694  1.00  0.00     0.203 C 
BRANCH  15  16
HETATM   16  O1  UNL     1      86.104  75.085  30.161  1.00  0.00    -0.393 OA
HETATM   17  C6  UNL     1      84.775  74.826  30.086  1.00  0.00     0.201 C 
ENDBRANCH  15  16
ENDBRANCH   2  15
BRANCH   1  18
HETATM   18  C2  UNL     1      85.982  71.360  31.039  1.00  0.00    -0.023 C 
HETATM   19  C1  UNL     1      85.618  69.950  30.874  1.00  0.00     0.036 C 
ENDBRANCH   1  18
BRANCH  14  20
HETATM   20  O5  UNL     1      87.528  71.331  28.509  1.00  0.00    -0.391 OA
ATOM     21  H5  UNL     1      87.518  70.505  28.039  1.00  0.00     0.210 HD
ENDBRANCH  14  20
BRANCH   5  22
HETATM   22  O3  UNL     1      91.576  73.668  31.834  1.00  0.00    -0.393 OA
ATOM     23  H3  UNL     1      92.064  74.402  31.479  1.00  0.00     0.210 HD
ENDBRANCH   5  22
BRANCH  12  24
HETATM   24  C18 UNL     1      91.060  71.013  28.193  1.00  0.00     0.174 C 
BRANCH  24  25
HETATM   25  O4  UNL     1      90.266  70.299  27.311  1.00  0.00    -0.400 OA
ATOM     26  H4  UNL     1      90.221  70.606  26.413  1.00  0.00     0.209 HD
ENDBRANCH  24  25
ENDBRANCH  12  24
BRANCH   7  27
HETATM   27  C12 UNL     1      93.486  71.487  32.212  1.00  0.00     0.005 C 
HETATM   28  C13 UNL     1      94.882  71.117  32.464  1.00  0.00     0.006 C 
ENDBRANCH   7  27
TORSDOF 8
ENDMDL
MODEL 2
REMARK VINA RESULT: -6.343211027      2.434      3.466
REMARK  8 active torsions:
REMARK  status: ('A' for Active; 'I' for Inactive)
REMARK    1  A    between atoms: C2_2  and  C3_3 
REMARK    2  A    between atoms: C4_4  and  C5_5 
REMARK    3  A    between atoms: C5_5  and  O1_6 
REMARK    4  A    between atoms: C8_10  and  O3_11 
REMARK    5  A    between atoms: C10_14  and  C12_16 
REMARK    6  A    between atoms: C17_21  and  C18_22 
REMARK    7  A    between atoms: C18_22  and  O4_23 
REMARK    8  A    between atoms: C20_26  and  O5_27 
ROOT
HETATM    1  C3  UNL     1      86.160  73.234  31.679  1.00  0.00    -0.024 C 
HETATM    2  C4  UNL     1      87.285  74.062  31.193  1.00  0.00     0.177 C 
HETATM    3  O2  UNL     1      88.491  73.352  31.100  1.00  0.00    -0.371 OA
HETATM    4  C7  UNL     1      88.328  72.078  31.426  1.00  0.00     0.159 C 
HETATM    5  C8  UNL     1      89.483  71.145  30.942  1.00  0.00     0.153 C 
HETATM    6  C9  UNL     1      88.766  69.874  31.317  1.00  0.00     0.036 C 
HETATM    7  C10 UNL     1      89.483  68.632  31.484  1.00  0.00    -0.037 C 
HETATM    8  C11 UNL     1      90.352  68.158  30.340  1.00  0.00     0.015 C 
HETATM    9  C14 UNL     1      88.494  67.535  31.825  1.00  0.00     0.010 C 
HETATM   10  C15 UNL     1      87.095  67.928  32.037  1.00  0.00     0.002 C 
HETATM   11  C16 UNL     1      86.528  69.138  31.391  1.00  0.00     0.013 C 
HETATM   12  C17 UNL     1      87.494  69.958  30.577  1.00  0.00    -0.004 C 
HETATM   13  C19 UNL     1      87.253  71.440  30.565  1.00  0.00     0.061 C 
HETATM   14  C20 UNL     1      85.925  71.978  30.832  1.00  0.00     0.157 C 
ENDROOT
BRANCH   2  15
HETATM   15  C5  UNL     1      87.118  74.780  29.898  1.00  0.00     0.203 C 
BRANCH  15  16
HETATM   16  O1  UNL     1      87.261  76.147  30.099  1.00  0.00    -0.393 OA
HETATM   17  C6  UNL     1      88.495  76.605  30.426  1.00  0.00     0.201 C 
ENDBRANCH  15  16
ENDBRANCH   2  15
BRANCH   1  18
HETATM   18  C2  UNL     1      84.956  73.918  32.116  1.00  0.00    -0.023 C 
HETATM   19  C1  UNL     1      83.729  73.219  32.511  1.00  0.00     0.036 C 
ENDBRANCH   1  18
BRANCH  14  20
HETATM   20  O5  UNL     1      85.277  72.340  29.626  1.00  0.00    -0.391 OA
ATOM     21  H5  UNL     1      85.925  72.436  28.938  1.00  0.00     0.210 HD
ENDBRANCH  14  20
BRANCH   5  22
HETATM   22  O3  UNL     1      90.542  71.487  31.739  1.00  0.00    -0.393 OA
ATOM     23  H3  UNL     1      90.723  72.391  31.506  1.00  0.00     0.210 HD
ENDBRANCH   5  22
BRANCH  12  24
HETATM   24  C18 UNL     1      87.370  69.493  29.182  1.00  0.00     0.174 C 
BRANCH  24  25
HETATM   25  O4  UNL     1      87.306  70.458  28.190  1.00  0.00    -0.400 OA
ATOM     26  H4  UNL     1      87.232  70.159  27.291  1.00  0.00     0.209 HD
ENDBRANCH  24  25
ENDBRANCH  12  24
BRANCH   7  27
HETATM   27  C12 UNL     1      90.462  68.714  32.660  1.00  0.00     0.005 C 
HETATM   28  C13 UNL     1      90.586  67.488  33.455  1.00  0.00     0.006 C 
ENDBRANCH   7  27
TORSDOF 8
ENDMDL
MODEL 3
REMARK VINA RESULT: -6.312169222      2.120      6.208
REMARK  8 active torsions:
REMARK  status: ('A' for Active; 'I' for Inactive)
REMARK    1  A    between atoms: C2_2  and  C3_3 
REMARK    2  A    between atoms: C4_4  and  C5_5 
REMARK    3  A    between atoms: C5_5  and  O1_6 
REMARK    4  A    between atoms: C8_10  and  O3_11 
REMARK    5  A    between atoms: C10_14  and  C12_16 
REMARK    6  A    between atoms: C17_21  and  C18_22 
REMARK    7  A    between atoms: C18_22  and  O4_23 
REMARK    8  A    between atoms: C20_26  and  O5_27 
ROOT
HETATM    1  C3  UNL     1      93.021  71.046  30.603  1.00  0.00    -0.024 C 
HETATM    2  C4  UNL     1      93.358  72.156  31.520  1.00  0.00     0.177 C 
HETATM    3  O2  UNL     1      92.288  73.038  31.734  1.00  0.00    -0.371 OA
HETATM    4  C7  UNL     1      91.197  72.638  31.095  1.00  0.00     0.159 C 
HETATM    5  C8  UNL     1      89.880  73.295  31.614  1.00  0.00     0.153 C 
HETATM    6  C9  UNL     1      88.979  72.404  30.798  1.00  0.00     0.036 C 
HETATM    7  C10 UNL     1      87.610  72.771  30.528  1.00  0.00    -0.037 C 
HETATM    8  C11 UNL     1      86.718  73.095  31.707  1.00  0.00     0.015 C 
HETATM    9  C14 UNL     1      86.956  71.668  29.718  1.00  0.00     0.010 C 
HETATM   10  C15 UNL     1      87.810  70.559  29.273  1.00  0.00     0.002 C 
HETATM   11  C16 UNL     1      89.032  70.178  30.024  1.00  0.00     0.013 C 
HETATM   12  C17 UNL     1      89.365  71.043  31.212  1.00  0.00    -0.004 C 
HETATM   13  C19 UNL     1      90.827  71.224  31.505  1.00  0.00     0.061 C 
HETATM   14  C20 UNL     1      91.801  70.235  31.058  1.00  0.00     0.157 C 
ENDROOT
BRANCH   2  15
HETATM   15  C5  UNL     1      93.896  71.813  32.866  1.00  0.00     0.203 C 
BRANCH  15  16
HETATM   16  O1  UNL     1      95.061  72.532  33.102  1.00  0.00    -0.393 OA
HETATM   17  C6  UNL     1      95.866  72.107  34.108  1.00  0.00     0.201 C 
ENDBRANCH  15  16
ENDBRANCH   2  15
BRANCH   1  18
HETATM   18  C2  UNL     1      94.115  70.261  30.059  1.00  0.00    -0.023 C 
HETATM   19  C1  UNL     1      93.922  69.139  29.136  1.00  0.00     0.036 C 
ENDBRANCH   1  18
BRANCH  14  20
HETATM   20  O5  UNL     1      92.176  69.382  32.124  1.00  0.00    -0.391 OA
ATOM     21  H5  UNL     1      92.169  69.874  32.938  1.00  0.00     0.210 HD
ENDBRANCH  14  20
BRANCH   5  22
HETATM   22  O3  UNL     1      89.969  74.594  31.194  1.00  0.00    -0.393 OA
ATOM     23  H3  UNL     1      89.080  74.922  31.269  1.00  0.00     0.210 HD
ENDBRANCH   5  22
BRANCH  12  24
HETATM   24  C18 UNL     1      88.771  70.387  32.392  1.00  0.00     0.174 C 
BRANCH  24  25
HETATM   25  O4  UNL     1      89.460  70.479  33.590  1.00  0.00    -0.400 OA
ATOM     26  H4  UNL     1      90.379  70.243  33.587  1.00  0.00     0.209 HD
ENDBRANCH  24  25
ENDBRANCH  12  24
BRANCH   7  27
HETATM   27  C12 UNL     1      87.536  74.038  29.671  1.00  0.00     0.005 C 
HETATM   28  C13 UNL     1      86.648  75.087  30.183  1.00  0.00     0.006 C 
ENDBRANCH   7  27
TORSDOF 8
ENDMDL
MODEL 4
REMARK VINA RESULT: -6.283765073      2.716      4.497
REMARK  8 active torsions:
REMARK  status: ('A' for Active; 'I' for Inactive)
REMARK    1  A    between atoms: C2_2  and  C3_3 
REMARK    2  A    between atoms: C4_4  and  C5_5 
REMARK    3  A    between atoms: C5_5  and  O1_6 
REMARK    4  A    between atoms: C8_10  and  O3_11 
REMARK    5  A    between atoms: C10_14  and  C12_16 
REMARK    6  A    between atoms: C17_21  and  C18_22 
REMARK    7  A    between atoms: C18_22  and  O4_23 
REMARK    8  A    between atoms: C20_26  and  O5_27 
ROOT
HETATM    1  C3  UNL     1      88.167  72.798  30.582  1.00  0.00    -0.024 C 
HETATM    2  C4  UNL     1      89.052  73.242  31.681  1.00  0.00     0.177 C 
HETATM    3  O2  UNL     1      89.420  72.201  32.547  1.00  0.00    -0.371 OA
HETATM    4  C7  UNL     1      88.922  71.040  32.145  1.00  0.00     0.159 C 
HETATM    5  C8  UNL     1      89.621  69.796  32.778  1.00  0.00     0.153 C 
HETATM    6  C9  UNL     1      88.913  68.804  31.890  1.00  0.00     0.036 C 
HETATM    7  C10 UNL     1      88.831  67.408  32.245  1.00  0.00    -0.037 C 
HETATM    8  C11 UNL     1      90.122  66.675  32.539  1.00  0.00     0.015 C 
HETATM    9  C14 UNL     1      88.094  66.665  31.148  1.00  0.00     0.010 C 
HETATM   10  C15 UNL     1      87.521  67.463  30.057  1.00  0.00     0.002 C 
HETATM   11  C16 UNL     1      88.099  68.776  29.678  1.00  0.00     0.013 C 
HETATM   12  C17 UNL     1      89.248  69.254  30.527  1.00  0.00    -0.004 C 
HETATM   13  C19 UNL     1      89.351  70.740  30.720  1.00  0.00     0.061 C 
HETATM   14  C20 UNL     1      88.763  71.656  29.750  1.00  0.00     0.157 C 
ENDROOT
BRANCH   2  15
HETATM   15  C5  UNL     1      90.310  73.955  31.322  1.00  0.00     0.203 C 
BRANCH  15  16
HETATM   16  O1  UNL     1      91.384  73.371  31.984  1.00  0.00    -0.393 OA
HETATM   17  C6  UNL     1      92.332  72.765  31.225  1.00  0.00     0.201 C 
ENDBRANCH  15  16
ENDBRANCH   2  15
BRANCH   1  18
HETATM   18  C2  UNL     1      87.471  73.819  29.820  1.00  0.00    -0.023 C 
HETATM   19  C1  UNL     1      86.761  74.943  30.437  1.00  0.00     0.036 C 
ENDBRANCH   1  18
BRANCH  14  20
HETATM   20  O5  UNL     1      89.756  72.176  28.884  1.00  0.00    -0.391 OA
ATOM     21  H5  UNL     1      89.968  71.527  28.224  1.00  0.00     0.210 HD
ENDBRANCH  14  20
BRANCH   5  22
HETATM   22  O3  UNL     1      89.216  69.817  34.085  1.00  0.00    -0.393 OA
ATOM     23  H3  UNL     1      88.329  69.478  34.057  1.00  0.00     0.210 HD
ENDBRANCH   5  22
BRANCH  12  24
HETATM   24  C18 UNL     1      90.484  68.825  29.845  1.00  0.00     0.174 C 
BRANCH  24  25
HETATM   25  O4  UNL     1      91.503  69.756  29.722  1.00  0.00    -0.400 OA
ATOM     26  H4  UNL     1      91.769  70.002  28.844  1.00  0.00     0.209 HD
ENDBRANCH  24  25
ENDBRANCH  12  24
BRANCH   7  27
HETATM   27  C12 UNL     1      88.014  67.211  33.526  1.00  0.00     0.005 C 
HETATM   28  C13 UNL     1      88.702  66.488  34.601  1.00  0.00     0.006 C 
ENDBRANCH   7  27
TORSDOF 8
ENDMDL
MODEL 5
REMARK VINA RESULT: -6.119261228      2.003      3.017
REMARK  8 active torsions:
REMARK  status: ('A' for Active; 'I' for Inactive)
REMARK    1  A    between atoms: C2_2  and  C3_3 
REMARK    2  A    between atoms: C4_4  and  C5_5 
REMARK    3  A    between atoms: C5_5  and  O1_6 
REMARK    4  A    between atoms: C8_10  and  O3_11 
REMARK    5  A    between atoms: C10_14  and  C12_16 
REMARK    6  A    between atoms: C17_21  and  C18_22 
REMARK    7  A    between atoms: C18_22  and  O4_23 
REMARK    8  A    between atoms: C20_26  and  O5_27 
ROOT
HETATM    1  C3  UNL     1      89.463  72.343  31.749  1.00  0.00    -0.024 C 
HETATM    2  C4  UNL     1      90.164  73.529  32.284  1.00  0.00     0.177 C 
HETATM    3  O2  UNL     1      91.508  73.279  32.601  1.00  0.00    -0.371 OA
HETATM    4  C7  UNL     1      91.852  72.036  32.296  1.00  0.00     0.159 C 
HETATM    5  C8  UNL     1      93.394  71.808  32.206  1.00  0.00     0.153 C 
HETATM    6  C9  UNL     1      93.270  70.415  31.643  1.00  0.00     0.036 C 
HETATM    7  C10 UNL     1      94.371  69.484  31.701  1.00  0.00    -0.037 C 
HETATM    8  C11 UNL     1      95.699  69.922  31.122  1.00  0.00     0.015 C 
HETATM    9  C14 UNL     1      93.955  68.190  31.030  1.00  0.00     0.010 C 
HETATM   10  C15 UNL     1      92.560  68.075  30.585  1.00  0.00     0.002 C 
HETATM   11  C16 UNL     1      91.764  69.277  30.232  1.00  0.00     0.013 C 
HETATM   12  C17 UNL     1      92.455  70.601  30.429  1.00  0.00    -0.004 C 
HETATM   13  C19 UNL     1      91.575  71.749  30.831  1.00  0.00     0.061 C 
HETATM   14  C20 UNL     1      90.151  71.738  30.520  1.00  0.00     0.157 C 
ENDROOT
BRANCH   2  15
HETATM   15  C5  UNL     1      90.149  74.778  31.471  1.00  0.00     0.203 C 
BRANCH  15  16
HETATM   16  O1  UNL     1      90.950  75.740  32.075  1.00  0.00    -0.393 OA
HETATM   17  C6  UNL     1      90.496  77.018  32.079  1.00  0.00     0.201 C 
ENDBRANCH  15  16
ENDBRANCH   2  15
BRANCH   1  18
HETATM   18  C2  UNL     1      88.013  72.384  31.686  1.00  0.00    -0.023 C 
HETATM   19  C1  UNL     1      87.206  71.377  30.992  1.00  0.00     0.036 C 
ENDBRANCH   1  18
BRANCH  14  20
HETATM   20  O5  UNL     1      89.879  72.542  29.387  1.00  0.00    -0.391 OA
ATOM     21  H5  UNL     1      90.694  72.895  29.048  1.00  0.00     0.210 HD
ENDBRANCH  14  20
BRANCH   5  22
HETATM   22  O3  UNL     1      93.818  71.888  33.505  1.00  0.00    -0.393 OA
ATOM     23  H3  UNL     1      93.262  71.270  33.967  1.00  0.00     0.210 HD
ENDBRANCH   5  22
BRANCH  12  24
HETATM   24  C18 UNL     1      93.058  70.959  29.131  1.00  0.00     0.174 C 
BRANCH  24  25
HETATM   25  O4  UNL     1      92.828  72.238  28.650  1.00  0.00    -0.400 OA
ATOM     26  H4  UNL     1      93.397  72.556  27.959  1.00  0.00     0.209 HD
ENDBRANCH  24  25
ENDBRANCH  12  24
BRANCH   7  27
HETATM   27  C12 UNL     1      94.718  69.129  33.150  1.00  0.00     0.005 C 
HETATM   28  C13 UNL     1      94.919  67.700  33.411  1.00  0.00     0.006 C 
ENDBRANCH   7  27
TORSDOF 8
ENDMDL
