MODEL 1
REMARK VINA RESULT: -6.130445867      0.000      0.000
REMARK  6 active torsions:
REMARK  status: ('A' for Active; 'I' for Inactive)
REMARK    1  A    between atoms: N1_1  and  N2_4 
REMARK    2  A    between atoms: N2_4  and  N3_5 
REMARK    3  A    between atoms: N3_5  and  S1_7 
REMARK    4  A    between atoms: S1_7  and  C1_10 
REMARK    5  A    between atoms: C1_10  and  C2_11 
REMARK    6  A    between atoms: C2_11  and  N4_12 
ROOT
HETATM    1  C2  UNL     1     -12.121 -28.291  19.105  1.00  0.00     0.232 C 
HETATM    2  C3  UNL     1     -11.163 -29.215  19.794  1.00  0.00     0.137 C 
HETATM    3  S2  UNL     1     -11.552 -29.413  21.558  1.00  0.00    -0.163 SA
HETATM    4  C4  UNL     1     -11.472 -27.866  22.478  1.00  0.00     0.095 C 
HETATM    5  C5  UNL     1     -10.700 -26.837  21.739  1.00  0.00     0.151 C 
HETATM    6  N5  UNL     1     -11.488 -25.825  21.107  1.00  0.00    -0.322 N 
ATOM      7  H5  UNL     1     -11.328 -24.835  21.296  1.00  0.00     0.181 HD
HETATM    8  N6  UNL     1     -12.452 -26.227  20.251  1.00  0.00    -0.249 N 
ATOM      9  H6  UNL     1     -12.933 -25.549  19.660  1.00  0.00     0.207 HD
HETATM   10  N7  UNL     1     -12.772 -27.543  20.185  1.00  0.00    -0.285 N 
ATOM     11  H7  UNL     1     -13.420 -27.981  20.840  1.00  0.00     0.184 HD
ENDROOT
BRANCH   1  12
HETATM   12  C1  UNL     1     -13.239 -28.977  18.366  1.00  0.00     0.227 C 
BRANCH  12  13
HETATM   13  S1  UNL     1     -14.695 -28.049  18.141  1.00  0.00     0.246 S 
HETATM   14  O1  UNL     1     -15.503 -28.001  19.423  1.00  0.00    -0.205 OA
HETATM   15  O2  UNL     1     -14.481 -26.654  17.684  1.00  0.00    -0.205 OA
BRANCH  13  16
HETATM   16  N3  UNL     1     -15.658 -28.858  16.929  1.00  0.00    -0.211 N 
ATOM     17  H3  UNL     1     -15.584 -29.848  16.697  1.00  0.00     0.197 HD
BRANCH  16  18
HETATM   18  N2  UNL     1     -16.537 -27.967  16.323  1.00  0.00    -0.020 NA
BRANCH  18  19
HETATM   19  N1  UNL     1     -17.406 -27.488  17.322  1.00  0.00    -0.328 N 
ATOM     20  H12 UNL     1     -18.425 -27.503  17.277  1.00  0.00     0.174 HD
ATOM     21  H11 UNL     1     -16.830 -27.129  18.082  1.00  0.00     0.174 HD
ENDBRANCH  18  19
ENDBRANCH  16  18
ENDBRANCH  13  16
ENDBRANCH  12  13
ENDBRANCH   1  12
BRANCH   1  22
HETATM   22  N4  UNL     1     -11.440 -27.374  18.206  1.00  0.00    -0.050 N 
ATOM     23  H43 UNL     1     -12.030 -27.092  17.424  1.00  0.00     0.277 HD
ATOM     24  H42 UNL     1     -11.302 -26.454  18.624  1.00  0.00     0.277 HD
ATOM     25  H41 UNL     1     -10.562 -27.792  17.897  1.00  0.00     0.277 HD
ENDBRANCH   1  22
TORSDOF 6
ENDMDL
MODEL 2
REMARK VINA RESULT: -5.944503955      0.821      1.058
REMARK  6 active torsions:
REMARK  status: ('A' for Active; 'I' for Inactive)
REMARK    1  A    between atoms: N1_1  and  N2_4 
REMARK    2  A    between atoms: N2_4  and  N3_5 
REMARK    3  A    between atoms: N3_5  and  S1_7 
REMARK    4  A    between atoms: S1_7  and  C1_10 
REMARK    5  A    between atoms: C1_10  and  C2_11 
REMARK    6  A    between atoms: C2_11  and  N4_12 
ROOT
HETATM    1  C2  UNL     1     -12.229 -28.356  19.024  1.00  0.00     0.232 C 
HETATM    2  C3  UNL     1     -11.233 -29.179  19.783  1.00  0.00     0.137 C 
HETATM    3  S2  UNL     1     -11.687 -29.362  21.532  1.00  0.00    -0.163 SA
HETATM    4  C4  UNL     1     -11.777 -27.791  22.408  1.00  0.00     0.095 C 
HETATM    5  C5  UNL     1     -11.057 -26.721  21.674  1.00  0.00     0.151 C 
HETATM    6  N5  UNL     1     -11.895 -25.795  20.977  1.00  0.00    -0.322 N 
ATOM      7  H5  UNL     1     -11.825 -24.791  21.143  1.00  0.00     0.181 HD
HETATM    8  N6  UNL     1     -12.781 -26.298  20.091  1.00  0.00    -0.249 N 
ATOM      9  H6  UNL     1     -13.288 -25.677  19.459  1.00  0.00     0.207 HD
HETATM   10  N7  UNL     1     -12.989 -27.636  20.051  1.00  0.00    -0.285 N 
ATOM     11  H7  UNL     1     -13.630 -28.110  20.689  1.00  0.00     0.184 HD
ENDROOT
BRANCH   1  12
HETATM   12  C1  UNL     1     -13.251 -29.152  18.256  1.00  0.00     0.227 C 
BRANCH  12  13
HETATM   13  S1  UNL     1     -14.129 -28.290  17.023  1.00  0.00     0.246 S 
HETATM   14  O1  UNL     1     -14.211 -26.813  17.357  1.00  0.00    -0.205 OA
HETATM   15  O2  UNL     1     -13.569 -28.418  15.655  1.00  0.00    -0.205 OA
BRANCH  13  16
HETATM   16  N3  UNL     1     -15.755 -28.924  16.988  1.00  0.00    -0.211 N 
ATOM     17  H3  UNL     1     -16.020 -29.858  17.302  1.00  0.00     0.197 HD
BRANCH  16  18
HETATM   18  N2  UNL     1     -16.640 -27.984  16.472  1.00  0.00    -0.020 NA
BRANCH  18  19
HETATM   19  N1  UNL     1     -17.316 -27.400  17.560  1.00  0.00    -0.328 N 
ATOM     20  H12 UNL     1     -17.715 -27.906  18.351  1.00  0.00     0.174 HD
ATOM     21  H11 UNL     1     -17.331 -26.393  17.405  1.00  0.00     0.174 HD
ENDBRANCH  18  19
ENDBRANCH  16  18
ENDBRANCH  13  16
ENDBRANCH  12  13
ENDBRANCH   1  12
BRANCH   1  22
HETATM   22  N4  UNL     1     -11.583 -27.409  18.129  1.00  0.00    -0.050 N 
ATOM     23  H43 UNL     1     -11.708 -27.659  17.148  1.00  0.00     0.277 HD
ATOM     24  H42 UNL     1     -12.060 -26.508  18.112  1.00  0.00     0.277 HD
ATOM     25  H41 UNL     1     -10.600 -27.321  18.383  1.00  0.00     0.277 HD
ENDBRANCH   1  22
TORSDOF 6
ENDMDL
MODEL 3
REMARK VINA RESULT: -5.942928979      3.599      4.181
REMARK  6 active torsions:
REMARK  status: ('A' for Active; 'I' for Inactive)
REMARK    1  A    between atoms: N1_1  and  N2_4 
REMARK    2  A    between atoms: N2_4  and  N3_5 
REMARK    3  A    between atoms: N3_5  and  S1_7 
REMARK    4  A    between atoms: S1_7  and  C1_10 
REMARK    5  A    between atoms: C1_10  and  C2_11 
REMARK    6  A    between atoms: C2_11  and  N4_12 
ROOT
HETATM    1  C2  UNL     1     -14.446 -26.616  22.532  1.00  0.00     0.232 C 
HETATM    2  C3  UNL     1     -13.262 -27.163  23.270  1.00  0.00     0.137 C 
HETATM    3  S2  UNL     1     -13.675 -28.659  24.214  1.00  0.00    -0.163 SA
HETATM    4  C4  UNL     1     -14.935 -28.378  25.470  1.00  0.00     0.095 C 
HETATM    5  C5  UNL     1     -15.073 -26.934  25.784  1.00  0.00     0.151 C 
HETATM    6  N5  UNL     1     -16.223 -26.298  25.221  1.00  0.00    -0.322 N 
ATOM      7  H5  UNL     1     -16.889 -25.795  25.807  1.00  0.00     0.181 HD
HETATM    8  N6  UNL     1     -16.396 -26.388  23.884  1.00  0.00    -0.249 N 
ATOM      9  H6  UNL     1     -17.107 -25.826  23.417  1.00  0.00     0.207 HD
HETATM   10  N7  UNL     1     -15.612 -27.234  23.171  1.00  0.00    -0.285 N 
ATOM     11  H7  UNL     1     -15.819 -28.230  23.085  1.00  0.00     0.184 HD
ENDROOT
BRANCH   1  12
HETATM   12  C1  UNL     1     -14.528 -27.018  21.083  1.00  0.00     0.227 C 
BRANCH  12  13
HETATM   13  S1  UNL     1     -16.059 -26.754  20.296  1.00  0.00     0.246 S 
HETATM   14  O1  UNL     1     -16.982 -27.937  20.512  1.00  0.00    -0.205 OA
HETATM   15  O2  UNL     1     -16.778 -25.529  20.726  1.00  0.00    -0.205 OA
BRANCH  13  16
HETATM   16  N3  UNL     1     -15.758 -26.613  18.582  1.00  0.00    -0.211 N 
ATOM     17  H3  UNL     1     -15.308 -25.812  18.137  1.00  0.00     0.197 HD
BRANCH  16  18
HETATM   18  N2  UNL     1     -16.214 -27.739  17.907  1.00  0.00    -0.020 NA
BRANCH  18  19
HETATM   19  N1  UNL     1     -17.490 -27.434  17.394  1.00  0.00    -0.328 N 
ATOM     20  H12 UNL     1     -17.676 -26.869  16.566  1.00  0.00     0.174 HD
ATOM     21  H11 UNL     1     -18.177 -27.880  18.001  1.00  0.00     0.174 HD
ENDBRANCH  18  19
ENDBRANCH  16  18
ENDBRANCH  13  16
ENDBRANCH  12  13
ENDBRANCH   1  12
BRANCH   1  22
HETATM   22  N4  UNL     1     -14.531 -25.169  22.636  1.00  0.00    -0.050 N 
ATOM     23  H43 UNL     1     -13.716 -24.767  23.099  1.00  0.00     0.277 HD
ATOM     24  H42 UNL     1     -14.426 -24.709  21.732  1.00  0.00     0.277 HD
ATOM     25  H41 UNL     1     -15.403 -24.914  23.099  1.00  0.00     0.277 HD
ENDBRANCH   1  22
TORSDOF 6
ENDMDL
MODEL 4
REMARK VINA RESULT: -5.835890477      4.655      5.577
REMARK  6 active torsions:
REMARK  status: ('A' for Active; 'I' for Inactive)
REMARK    1  A    between atoms: N1_1  and  N2_4 
REMARK    2  A    between atoms: N2_4  and  N3_5 
REMARK    3  A    between atoms: N3_5  and  S1_7 
REMARK    4  A    between atoms: S1_7  and  C1_10 
REMARK    5  A    between atoms: C1_10  and  C2_11 
REMARK    6  A    between atoms: C2_11  and  N4_12 
ROOT
HETATM    1  C2  UNL     1     -14.106 -27.867  24.328  1.00  0.00     0.232 C 
HETATM    2  C3  UNL     1     -13.012 -28.808  24.733  1.00  0.00     0.137 C 
HETATM    3  S2  UNL     1     -13.499 -30.547  24.539  1.00  0.00    -0.163 SA
HETATM    4  C4  UNL     1     -14.920 -31.001  25.548  1.00  0.00     0.095 C 
HETATM    5  C5  UNL     1     -15.141 -30.022  26.642  1.00  0.00     0.151 C 
HETATM    6  N5  UNL     1     -16.227 -29.115  26.433  1.00  0.00    -0.322 N 
ATOM      7  H5  UNL     1     -16.979 -29.024  27.116  1.00  0.00     0.181 HD
HETATM    8  N6  UNL     1     -16.221 -28.384  25.297  1.00  0.00    -0.249 N 
ATOM      9  H6  UNL     1     -16.882 -27.617  25.174  1.00  0.00     0.207 HD
HETATM   10  N7  UNL     1     -15.326 -28.680  24.323  1.00  0.00    -0.285 N 
ATOM     11  H7  UNL     1     -15.489 -29.417  23.636  1.00  0.00     0.184 HD
ENDROOT
BRANCH   1  12
HETATM   12  C1  UNL     1     -13.985 -27.324  22.928  1.00  0.00     0.227 C 
BRANCH  12  13
HETATM   13  S1  UNL     1     -15.081 -26.037  22.506  1.00  0.00     0.246 S 
HETATM   14  O1  UNL     1     -16.384 -26.172  23.270  1.00  0.00    -0.205 OA
HETATM   15  O2  UNL     1     -14.555 -24.669  22.737  1.00  0.00    -0.205 OA
BRANCH  13  16
HETATM   16  N3  UNL     1     -15.439 -26.183  20.803  1.00  0.00    -0.211 N 
ATOM     17  H3  UNL     1     -14.785 -26.531  20.102  1.00  0.00     0.197 HD
BRANCH  16  18
HETATM   18  N2  UNL     1     -16.734 -25.758  20.534  1.00  0.00    -0.020 NA
BRANCH  18  19
HETATM   19  N1  UNL     1     -17.530 -26.909  20.373  1.00  0.00    -0.328 N 
ATOM     20  H12 UNL     1     -17.188 -27.835  20.117  1.00  0.00     0.174 HD
ATOM     21  H11 UNL     1     -18.496 -26.640  20.557  1.00  0.00     0.174 HD
ENDBRANCH  18  19
ENDBRANCH  16  18
ENDBRANCH  13  16
ENDBRANCH  12  13
ENDBRANCH   1  12
BRANCH   1  22
HETATM   22  N4  UNL     1     -14.248 -26.764  25.263  1.00  0.00    -0.050 N 
ATOM     23  H43 UNL     1     -13.386 -26.228  25.361  1.00  0.00     0.277 HD
ATOM     24  H42 UNL     1     -14.841 -26.019  24.896  1.00  0.00     0.277 HD
ATOM     25  H41 UNL     1     -14.585 -27.119  26.157  1.00  0.00     0.277 HD
ENDBRANCH   1  22
TORSDOF 6
ENDMDL
MODEL 5
REMARK VINA RESULT: -5.635253021      1.916      2.435
REMARK  6 active torsions:
REMARK  status: ('A' for Active; 'I' for Inactive)
REMARK    1  A    between atoms: N1_1  and  N2_4 
REMARK    2  A    between atoms: N2_4  and  N3_5 
REMARK    3  A    between atoms: N3_5  and  S1_7 
REMARK    4  A    between atoms: S1_7  and  C1_10 
REMARK    5  A    between atoms: C1_10  and  C2_11 
REMARK    6  A    between atoms: C2_11  and  N4_12 
ROOT
HETATM    1  C2  UNL     1     -12.307 -28.391  19.717  1.00  0.00     0.232 C 
HETATM    2  C3  UNL     1     -12.369 -28.219  21.204  1.00  0.00     0.137 C 
HETATM    3  S2  UNL     1     -12.466 -26.470  21.687  1.00  0.00    -0.163 SA
HETATM    4  C4  UNL     1     -11.039 -25.509  21.152  1.00  0.00     0.095 C 
HETATM    5  C5  UNL     1      -9.890 -26.386  20.817  1.00  0.00     0.151 C 
HETATM    6  N5  UNL     1      -9.651 -26.563  19.418  1.00  0.00    -0.322 N 
ATOM      7  H5  UNL     1      -8.740 -26.357  19.008  1.00  0.00     0.181 HD
HETATM    8  N6  UNL     1     -10.674 -27.014  18.661  1.00  0.00    -0.249 N 
ATOM      9  H6  UNL     1     -10.513 -27.304  17.696  1.00  0.00     0.207 HD
HETATM   10  N7  UNL     1     -11.917 -27.076  19.197  1.00  0.00    -0.285 N 
ATOM     11  H7  UNL     1     -12.538 -26.267  19.237  1.00  0.00     0.184 HD
ENDROOT
BRANCH   1  12
HETATM   12  C1  UNL     1     -13.628 -28.702  19.062  1.00  0.00     0.227 C 
BRANCH  12  13
HETATM   13  S1  UNL     1     -13.663 -28.613  17.323  1.00  0.00     0.246 S 
HETATM   14  O1  UNL     1     -14.302 -27.316  16.866  1.00  0.00    -0.205 OA
HETATM   15  O2  UNL     1     -12.337 -28.725  16.666  1.00  0.00    -0.205 OA
BRANCH  13  16
HETATM   16  N3  UNL     1     -14.650 -29.932  16.745  1.00  0.00    -0.211 N 
ATOM     17  H3  UNL     1     -14.787 -30.813  17.239  1.00  0.00     0.197 HD
BRANCH  16  18
HETATM   18  N2  UNL     1     -15.224 -29.617  15.518  1.00  0.00    -0.020 NA
BRANCH  18  19
HETATM   19  N1  UNL     1     -14.196 -29.636  14.555  1.00  0.00    -0.328 N 
ATOM     20  H12 UNL     1     -13.233 -29.925  14.722  1.00  0.00     0.174 HD
ATOM     21  H11 UNL     1     -14.596 -29.311  13.676  1.00  0.00     0.174 HD
ENDBRANCH  18  19
ENDBRANCH  16  18
ENDBRANCH  13  16
ENDBRANCH  12  13
ENDBRANCH   1  12
BRANCH   1  22
HETATM   22  N4  UNL     1     -11.328 -29.391  19.326  1.00  0.00    -0.050 N 
ATOM     23  H43 UNL     1     -10.780 -29.097  18.517  1.00  0.00     0.277 HD
ATOM     24  H42 UNL     1     -10.564 -29.468  19.998  1.00  0.00     0.277 HD
ATOM     25  H41 UNL     1     -11.797 -30.283  19.171  1.00  0.00     0.277 HD
ENDBRANCH   1  22
TORSDOF 6
ENDMDL
