MODEL 1
REMARK VINA RESULT: -8.357800735      0.000      0.000
REMARK  6 active torsions:
REMARK  status: ('A' for Active; 'I' for Inactive)
REMARK    1  A    between atoms: N1_1  and  C1_4 
REMARK    2  A    between atoms: C2_7  and  N3_8 
REMARK       I    between atoms: N3_8  and  C3_10 
REMARK       I    between atoms: C3_10  and  N4_11 
REMARK       I    between atoms: C3_10  and  N5_15 
REMARK    3  A    between atoms: C5_23  and  C6_24 
REMARK    4  A    between atoms: C6_24  and  O1_25 
REMARK    5  A    between atoms: C6_24  and  N8_27 
REMARK    6  A    between atoms: N8_27  and  N9_29 
ROOT
HETATM    1  C1  UNL     1     -16.267 -27.505  17.552  1.00  0.00     0.132 A 
HETATM    2  N2  UNL     1     -15.512 -27.901  16.512  1.00  0.00    -0.176 N 
ATOM      3  H2  UNL     1     -15.920 -27.921  15.577  1.00  0.00     0.186 HD
HETATM    4  C2  UNL     1     -14.206 -28.279  16.681  1.00  0.00     0.684 A 
HETATM    5  N6  UNL     1     -13.676 -28.253  17.907  1.00  0.00    -0.178 N 
ATOM      6  H6  UNL     1     -12.704 -28.532  18.042  1.00  0.00     0.185 HD
HETATM    7  C4  UNL     1     -14.404 -27.864  18.956  1.00  0.00     0.150 A 
HETATM    8  N7  UNL     1     -13.787 -27.849  20.246  1.00  0.00    -0.081 NA
HETATM    9  C5  UNL     1     -15.742 -27.474  18.803  1.00  0.00     0.102 A 
ENDROOT
BRANCH   4  10
HETATM   10  N3  UNL     1     -13.562 -28.623  15.654  1.00  0.00    -0.173 N 
HETATM   11  C3  UNL     1     -13.834 -29.215  14.424  1.00  0.00     0.494 C 
HETATM   12  N4  UNL     1     -14.784 -30.297  14.393  1.00  0.00    -0.032 N 
HETATM   13  N5  UNL     1     -12.547 -29.803  13.952  1.00  0.00    -0.032 N 
ATOM     14  H43 UNL     1     -14.493 -31.018  15.054  1.00  0.00     0.278 HD
ATOM     15  H42 UNL     1     -15.658 -29.988  14.817  1.00  0.00     0.278 HD
ATOM     16  H41 UNL     1     -14.983 -30.731  13.492  1.00  0.00     0.278 HD
ATOM     17  H53 UNL     1     -11.781 -29.130  13.918  1.00  0.00     0.278 HD
ATOM     18  H52 UNL     1     -12.122 -30.442  14.624  1.00  0.00     0.278 HD
ATOM     19  H51 UNL     1     -12.747 -30.237  13.051  1.00  0.00     0.278 HD
ATOM     20  H3  UNL     1     -12.569 -28.408  15.749  1.00  0.00     0.181 HD
ENDBRANCH   4  10
BRANCH   1  21
HETATM   21  N1  UNL     1     -17.494 -27.154  17.364  1.00  0.00    -0.384 N 
ATOM     22  H12 UNL     1     -18.248 -27.776  17.655  1.00  0.00     0.157 HD
ATOM     23  H11 UNL     1     -17.709 -26.258  16.926  1.00  0.00     0.157 HD
ENDBRANCH   1  21
BRANCH   9  24
HETATM   24  C6  UNL     1     -16.458 -27.065  19.987  1.00  0.00     0.177 C 
BRANCH  24  25
HETATM   25  O1  UNL     1     -17.417 -27.847  20.398  1.00  0.00    -0.344 OA
ATOM     26  H1  UNL     1     -17.902 -27.568  21.167  1.00  0.00     0.219 HD
ENDBRANCH  24  25
BRANCH  24  27
HETATM   27  N8  UNL     1     -16.290 -25.942  20.794  1.00  0.00    -0.219 N 
ATOM     28  H8  UNL     1     -16.591 -25.029  20.453  1.00  0.00     0.195 HD
BRANCH  27  29
HETATM   29  N9  UNL     1     -15.705 -26.052  22.090  1.00  0.00    -0.037 N 
HETATM   30  O2  UNL     1     -15.943 -27.023  22.820  1.00  0.00    -0.516 OA
HETATM   31  O3  UNL     1     -14.861 -25.089  22.571  1.00  0.00    -0.516 OA
ENDBRANCH  27  29
ENDBRANCH  24  27
ENDBRANCH   9  24
TORSDOF 6
ENDMDL
MODEL 2
REMARK VINA RESULT: -7.829259214      3.486      5.331
REMARK  6 active torsions:
REMARK  status: ('A' for Active; 'I' for Inactive)
REMARK    1  A    between atoms: N1_1  and  C1_4 
REMARK    2  A    between atoms: C2_7  and  N3_8 
REMARK       I    between atoms: N3_8  and  C3_10 
REMARK       I    between atoms: C3_10  and  N4_11 
REMARK       I    between atoms: C3_10  and  N5_15 
REMARK    3  A    between atoms: C5_23  and  C6_24 
REMARK    4  A    between atoms: C6_24  and  O1_25 
REMARK    5  A    between atoms: C6_24  and  N8_27 
REMARK    6  A    between atoms: N8_27  and  N9_29 
ROOT
HETATM    1  C1  UNL     1     -12.271 -28.204  17.688  1.00  0.00     0.132 A 
HETATM    2  N2  UNL     1     -11.090 -27.712  18.102  1.00  0.00    -0.176 N 
ATOM      3  H2  UNL     1     -10.277 -27.784  17.491  1.00  0.00     0.186 HD
HETATM    4  C2  UNL     1     -10.955 -27.117  19.329  1.00  0.00     0.684 A 
HETATM    5  N6  UNL     1     -12.022 -27.026  20.128  1.00  0.00    -0.178 N 
ATOM      6  H6  UNL     1     -11.931 -26.585  21.043  1.00  0.00     0.185 HD
HETATM    7  C4  UNL     1     -13.206 -27.508  19.741  1.00  0.00     0.150 A 
HETATM    8  N7  UNL     1     -14.317 -27.380  20.632  1.00  0.00    -0.081 NA
HETATM    9  C5  UNL     1     -13.364 -28.119  18.490  1.00  0.00     0.102 A 
ENDROOT
BRANCH   4  10
HETATM   10  N3  UNL     1      -9.818 -26.668  19.636  1.00  0.00    -0.173 N 
HETATM   11  C3  UNL     1      -9.017 -25.584  19.292  1.00  0.00     0.494 C 
HETATM   12  N4  UNL     1      -8.984 -25.183  17.909  1.00  0.00    -0.032 N 
HETATM   13  N5  UNL     1      -7.617 -25.980  19.623  1.00  0.00    -0.032 N 
ATOM     14  H43 UNL     1      -8.726 -25.985  17.334  1.00  0.00     0.278 HD
ATOM     15  H42 UNL     1      -9.936 -25.012  17.587  1.00  0.00     0.278 HD
ATOM     16  H41 UNL     1      -8.396 -24.389  17.656  1.00  0.00     0.278 HD
ATOM     17  H53 UNL     1      -7.498 -26.281  20.591  1.00  0.00     0.278 HD
ATOM     18  H52 UNL     1      -7.327 -26.854  19.184  1.00  0.00     0.278 HD
ATOM     19  H51 UNL     1      -7.030 -25.185  19.371  1.00  0.00     0.278 HD
ATOM     20  H3  UNL     1      -9.359 -27.263  20.327  1.00  0.00     0.181 HD
ENDBRANCH   4  10
BRANCH   1  21
HETATM   21  N1  UNL     1     -12.370 -28.759  16.528  1.00  0.00    -0.384 N 
ATOM     22  H12 UNL     1     -12.747 -28.227  15.744  1.00  0.00     0.157 HD
ATOM     23  H11 UNL     1     -12.072 -29.726  16.396  1.00  0.00     0.157 HD
ENDBRANCH   1  21
BRANCH   9  24
HETATM   24  C6  UNL     1     -14.676 -28.610  18.148  1.00  0.00     0.177 C 
BRANCH  24  25
HETATM   25  O1  UNL     1     -14.776 -29.876  17.850  1.00  0.00    -0.344 OA
ATOM     26  H1  UNL     1     -14.388 -30.159  17.031  1.00  0.00     0.219 HD
ENDBRANCH  24  25
BRANCH  24  27
HETATM   27  N8  UNL     1     -15.895 -27.940  18.080  1.00  0.00    -0.219 N 
ATOM     28  H8  UNL     1     -16.255 -27.466  18.909  1.00  0.00     0.195 HD
BRANCH  27  29
HETATM   29  N9  UNL     1     -16.647 -27.906  16.868  1.00  0.00    -0.037 N 
HETATM   30  O2  UNL     1     -16.106 -28.113  15.774  1.00  0.00    -0.516 OA
HETATM   31  O3  UNL     1     -17.989 -27.644  16.873  1.00  0.00    -0.516 OA
ENDBRANCH  27  29
ENDBRANCH  24  27
ENDBRANCH   9  24
TORSDOF 6
ENDMDL
MODEL 3
REMARK VINA RESULT: -7.795126868      1.766      2.903
REMARK  6 active torsions:
REMARK  status: ('A' for Active; 'I' for Inactive)
REMARK    1  A    between atoms: N1_1  and  C1_4 
REMARK    2  A    between atoms: C2_7  and  N3_8 
REMARK       I    between atoms: N3_8  and  C3_10 
REMARK       I    between atoms: C3_10  and  N4_11 
REMARK       I    between atoms: C3_10  and  N5_15 
REMARK    3  A    between atoms: C5_23  and  C6_24 
REMARK    4  A    between atoms: C6_24  and  O1_25 
REMARK    5  A    between atoms: C6_24  and  N8_27 
REMARK    6  A    between atoms: N8_27  and  N9_29 
ROOT
HETATM    1  C1  UNL     1     -13.734 -26.755  20.095  1.00  0.00     0.132 A 
HETATM    2  N2  UNL     1     -13.593 -27.151  18.819  1.00  0.00    -0.176 N 
ATOM      3  H2  UNL     1     -12.672 -27.113  18.383  1.00  0.00     0.186 HD
HETATM    4  C2  UNL     1     -14.661 -27.606  18.090  1.00  0.00     0.684 A 
HETATM    5  N6  UNL     1     -15.865 -27.653  18.663  1.00  0.00    -0.178 N 
ATOM      6  H6  UNL     1     -16.666 -27.990  18.129  1.00  0.00     0.185 HD
HETATM    7  C4  UNL     1     -16.033 -27.265  19.930  1.00  0.00     0.150 A 
HETATM    8  N7  UNL     1     -17.343 -27.341  20.498  1.00  0.00    -0.081 NA
HETATM    9  C5  UNL     1     -14.954 -26.798  20.692  1.00  0.00     0.102 A 
ENDROOT
BRANCH   4  10
HETATM   10  N3  UNL     1     -14.441 -27.972  16.904  1.00  0.00    -0.173 N 
HETATM   11  C3  UNL     1     -14.812 -29.023  16.071  1.00  0.00     0.494 C 
HETATM   12  N4  UNL     1     -14.879 -30.344  16.641  1.00  0.00    -0.032 N 
HETATM   13  N5  UNL     1     -13.766 -29.102  15.010  1.00  0.00    -0.032 N 
ATOM     14  H43 UNL     1     -13.985 -30.565  17.081  1.00  0.00     0.278 HD
ATOM     15  H42 UNL     1     -15.495 -30.327  17.454  1.00  0.00     0.278 HD
ATOM     16  H41 UNL     1     -15.151 -31.114  16.031  1.00  0.00     0.278 HD
ATOM     17  H53 UNL     1     -13.623 -28.222  14.514  1.00  0.00     0.278 HD
ATOM     18  H52 UNL     1     -12.820 -29.192  15.380  1.00  0.00     0.278 HD
ATOM     19  H51 UNL     1     -14.038 -29.873  14.400  1.00  0.00     0.278 HD
ATOM     20  H3  UNL     1     -13.822 -27.319  16.423  1.00  0.00     0.181 HD
ENDBRANCH   4  10
BRANCH   1  21
HETATM   21  N1  UNL     1     -12.712 -26.332  20.759  1.00  0.00    -0.384 N 
ATOM     22  H12 UNL     1     -12.479 -25.339  20.749  1.00  0.00     0.157 HD
ATOM     23  H11 UNL     1     -12.140 -26.988  21.290  1.00  0.00     0.157 HD
ENDBRANCH   1  21
BRANCH   9  24
HETATM   24  C6  UNL     1     -15.219 -26.400  22.053  1.00  0.00     0.177 C 
BRANCH  24  25
HETATM   25  O1  UNL     1     -15.050 -25.141  22.346  1.00  0.00    -0.344 OA
ATOM     26  H1  UNL     1     -14.883 -24.548  21.622  1.00  0.00     0.219 HD
ENDBRANCH  24  25
BRANCH  24  27
HETATM   27  N8  UNL     1     -15.642 -27.158  23.142  1.00  0.00    -0.219 N 
ATOM     28  H8  UNL     1     -15.888 -28.139  23.008  1.00  0.00     0.195 HD
BRANCH  27  29
HETATM   29  N9  UNL     1     -15.736 -26.581  24.444  1.00  0.00    -0.037 N 
HETATM   30  O2  UNL     1     -16.793 -26.620  25.087  1.00  0.00    -0.516 OA
HETATM   31  O3  UNL     1     -14.662 -25.964  25.025  1.00  0.00    -0.516 OA
ENDBRANCH  27  29
ENDBRANCH  24  27
ENDBRANCH   9  24
TORSDOF 6
ENDMDL
MODEL 4
REMARK VINA RESULT: -7.790339533      2.961      6.868
REMARK  6 active torsions:
REMARK  status: ('A' for Active; 'I' for Inactive)
REMARK    1  A    between atoms: N1_1  and  C1_4 
REMARK    2  A    between atoms: C2_7  and  N3_8 
REMARK       I    between atoms: N3_8  and  C3_10 
REMARK       I    between atoms: C3_10  and  N4_11 
REMARK       I    between atoms: C3_10  and  N5_15 
REMARK    3  A    between atoms: C5_23  and  C6_24 
REMARK    4  A    between atoms: C6_24  and  O1_25 
REMARK    5  A    between atoms: C6_24  and  N8_27 
REMARK    6  A    between atoms: N8_27  and  N9_29 
ROOT
HETATM    1  C1  UNL     1     -13.792 -26.581  20.692  1.00  0.00     0.132 A 
HETATM    2  N2  UNL     1     -13.895 -26.056  21.926  1.00  0.00    -0.176 N 
ATOM      3  H2  UNL     1     -13.053 -25.735  22.404  1.00  0.00     0.186 HD
HETATM    4  C2  UNL     1     -15.107 -25.942  22.554  1.00  0.00     0.684 A 
HETATM    5  N6  UNL     1     -16.206 -26.365  21.925  1.00  0.00    -0.178 N 
ATOM      6  H6  UNL     1     -17.114 -26.284  22.385  1.00  0.00     0.185 HD
HETATM    7  C4  UNL     1     -16.132 -26.891  20.700  1.00  0.00     0.150 A 
HETATM    8  N7  UNL     1     -17.340 -27.323  20.069  1.00  0.00    -0.081 NA
HETATM    9  C5  UNL     1     -14.901 -27.015  20.041  1.00  0.00     0.102 A 
ENDROOT
BRANCH   4  10
HETATM   10  N3  UNL     1     -15.120 -25.425  23.704  1.00  0.00    -0.173 N 
HETATM   11  C3  UNL     1     -15.440 -25.816  25.000  1.00  0.00     0.494 C 
HETATM   12  N4  UNL     1     -16.595 -26.656  25.185  1.00  0.00    -0.032 N 
HETATM   13  N5  UNL     1     -15.737 -24.562  25.751  1.00  0.00    -0.032 N 
ATOM     14  H43 UNL     1     -17.407 -26.207  24.761  1.00  0.00     0.278 HD
ATOM     15  H42 UNL     1     -16.504 -27.485  24.597  1.00  0.00     0.278 HD
ATOM     16  H41 UNL     1     -16.829 -26.943  26.135  1.00  0.00     0.278 HD
ATOM     17  H53 UNL     1     -14.985 -23.875  25.709  1.00  0.00     0.278 HD
ATOM     18  H52 UNL     1     -16.456 -23.987  25.312  1.00  0.00     0.278 HD
ATOM     19  H51 UNL     1     -15.972 -24.849  26.701  1.00  0.00     0.278 HD
ATOM     20  H3  UNL     1     -14.811 -24.453  23.676  1.00  0.00     0.181 HD
ENDBRANCH   4  10
BRANCH   1  21
HETATM   21  N1  UNL     1     -12.638 -26.675  20.124  1.00  0.00    -0.384 N 
ATOM     22  H12 UNL     1     -12.190 -25.840  19.746  1.00  0.00     0.157 HD
ATOM     23  H11 UNL     1     -12.175 -27.582  20.051  1.00  0.00     0.157 HD
ENDBRANCH   1  21
BRANCH   9  24
HETATM   24  C6  UNL     1     -14.907 -27.592  18.719  1.00  0.00     0.177 C 
BRANCH  24  25
HETATM   25  O1  UNL     1     -14.388 -28.781  18.589  1.00  0.00    -0.344 OA
ATOM     26  H1  UNL     1     -14.844 -29.499  19.013  1.00  0.00     0.219 HD
ENDBRANCH  24  25
BRANCH  24  27
HETATM   27  N8  UNL     1     -15.392 -27.078  17.518  1.00  0.00    -0.219 N 
ATOM     28  H8  UNL     1     -15.133 -26.133  17.234  1.00  0.00     0.195 HD
BRANCH  27  29
HETATM   29  N9  UNL     1     -16.245 -27.856  16.680  1.00  0.00    -0.037 N 
HETATM   30  O2  UNL     1     -15.778 -28.646  15.849  1.00  0.00    -0.516 OA
HETATM   31  O3  UNL     1     -17.606 -27.755  16.764  1.00  0.00    -0.516 OA
ENDBRANCH  27  29
ENDBRANCH  24  27
ENDBRANCH   9  24
TORSDOF 6
ENDMDL
MODEL 5
REMARK VINA RESULT: -7.751115607      3.024      6.842
REMARK  6 active torsions:
REMARK  status: ('A' for Active; 'I' for Inactive)
REMARK    1  A    between atoms: N1_1  and  C1_4 
REMARK    2  A    between atoms: C2_7  and  N3_8 
REMARK       I    between atoms: N3_8  and  C3_10 
REMARK       I    between atoms: C3_10  and  N4_11 
REMARK       I    between atoms: C3_10  and  N5_15 
REMARK    3  A    between atoms: C5_23  and  C6_24 
REMARK    4  A    between atoms: C6_24  and  O1_25 
REMARK    5  A    between atoms: C6_24  and  N8_27 
REMARK    6  A    between atoms: N8_27  and  N9_29 
ROOT
HETATM    1  C1  UNL     1     -13.731 -26.681  20.670  1.00  0.00     0.132 A 
HETATM    2  N2  UNL     1     -13.598 -26.157  21.902  1.00  0.00    -0.176 N 
ATOM      3  H2  UNL     1     -12.665 -25.956  22.261  1.00  0.00     0.186 HD
HETATM    4  C2  UNL     1     -14.690 -25.888  22.684  1.00  0.00     0.684 A 
HETATM    5  N6  UNL     1     -15.910 -26.154  22.211  1.00  0.00    -0.178 N 
ATOM      6  H6  UNL     1     -16.729 -25.957  22.786  1.00  0.00     0.185 HD
HETATM    7  C4  UNL     1     -16.070 -26.675  20.991  1.00  0.00     0.150 A 
HETATM    8  N7  UNL     1     -17.398 -26.936  20.530  1.00  0.00    -0.081 NA
HETATM    9  C5  UNL     1     -14.965 -26.956  20.176  1.00  0.00     0.102 A 
ENDROOT
BRANCH   4  10
HETATM   10  N3  UNL     1     -14.482 -25.385  23.821  1.00  0.00    -0.173 N 
HETATM   11  C3  UNL     1     -14.567 -24.131  24.417  1.00  0.00     0.494 C 
HETATM   12  N4  UNL     1     -14.138 -22.989  23.650  1.00  0.00    -0.032 N 
HETATM   13  N5  UNL     1     -13.664 -24.172  25.604  1.00  0.00    -0.032 N 
ATOM     14  H43 UNL     1     -13.183 -23.142  23.328  1.00  0.00     0.278 HD
ATOM     15  H42 UNL     1     -14.642 -22.974  22.763  1.00  0.00     0.278 HD
ATOM     16  H41 UNL     1     -14.201 -22.070  24.087  1.00  0.00     0.278 HD
ATOM     17  H53 UNL     1     -13.868 -24.940  26.243  1.00  0.00     0.278 HD
ATOM     18  H52 UNL     1     -12.709 -24.449  25.377  1.00  0.00     0.278 HD
ATOM     19  H51 UNL     1     -13.726 -23.253  26.040  1.00  0.00     0.278 HD
ATOM     20  H3  UNL     1     -14.163 -26.090  24.486  1.00  0.00     0.181 HD
ENDBRANCH   4  10
BRANCH   1  21
HETATM   21  N1  UNL     1     -12.686 -26.923  19.954  1.00  0.00    -0.384 N 
ATOM     22  H12 UNL     1     -12.147 -27.774  20.118  1.00  0.00     0.157 HD
ATOM     23  H11 UNL     1     -12.400 -26.267  19.227  1.00  0.00     0.157 HD
ENDBRANCH   1  21
BRANCH   9  24
HETATM   24  C6  UNL     1     -15.224 -27.515  18.871  1.00  0.00     0.177 C 
BRANCH  24  25
HETATM   25  O1  UNL     1     -14.868 -28.754  18.676  1.00  0.00    -0.344 OA
ATOM     26  H1  UNL     1     -15.554 -29.369  18.440  1.00  0.00     0.219 HD
ENDBRANCH  24  25
BRANCH  24  27
HETATM   27  N8  UNL     1     -15.811 -26.937  17.748  1.00  0.00    -0.219 N 
ATOM     28  H8  UNL     1     -15.724 -25.932  17.596  1.00  0.00     0.195 HD
BRANCH  27  29
HETATM   29  N9  UNL     1     -16.530 -27.732  16.806  1.00  0.00    -0.037 N 
HETATM   30  O2  UNL     1     -17.768 -27.738  16.788  1.00  0.00    -0.516 OA
HETATM   31  O3  UNL     1     -15.878 -28.514  15.894  1.00  0.00    -0.516 OA
ENDBRANCH  27  29
ENDBRANCH  24  27
ENDBRANCH   9  24
TORSDOF 6
ENDMDL
