MODEL 1
REMARK VINA RESULT: -7.828210095      0.000      0.000
REMARK  9 active torsions:
REMARK  status: ('A' for Active; 'I' for Inactive)
REMARK    1  A    between atoms: N1_1  and  C1_4 
REMARK    2  A    between atoms: N3_9  and  N4_10 
REMARK    3  A    between atoms: C3_13  and  N5_14 
REMARK    4  A    between atoms: N5_14  and  C4_16 
REMARK    5  A    between atoms: C4_16  and  N6_17 
REMARK    6  A    between atoms: C4_16  and  C5_25 
REMARK    7  A    between atoms: N6_17  and  N7_19 
REMARK    8  A    between atoms: N7_19  and  O2_23 
REMARK    9  A    between atoms: N10_27  and  O3_29 
ROOT
HETATM    1  N5  UNL     1     -15.116 -27.320  19.364  1.00  0.00    -0.194 N 
ATOM      2  H5  UNL     1     -16.076 -27.581  19.592  1.00  0.00     0.180 HD
ENDROOT
BRANCH   1   3
HETATM    3  C3  UNL     1     -14.443 -26.729  20.268  1.00  0.00     0.719 A 
HETATM    4  N3  UNL     1     -15.101 -26.254  21.342  1.00  0.00    -0.037 N 
HETATM    5  C2  UNL     1     -14.427 -25.612  22.339  1.00  0.00     0.374 A 
HETATM    6  N2  UNL     1     -13.078 -25.448  22.254  1.00  0.00    -0.139 N 
HETATM    7  O1  UNL     1     -15.049 -25.171  23.341  1.00  0.00    -0.244 OA
HETATM    8  C1  UNL     1     -12.417 -25.922  21.182  1.00  0.00     0.694 A 
ATOM      9  H2  UNL     1     -12.571 -24.970  22.999  1.00  0.00     0.189 HD
HETATM   10  N11 UNL     1     -13.111 -26.544  20.224  1.00  0.00    -0.021 N 
ATOM     11  H11 UNL     1     -12.603 -26.899  19.415  1.00  0.00     0.203 HD
BRANCH   4  12
HETATM   12  N4  UNL     1     -16.473 -26.383  21.501  1.00  0.00    -0.320 N 
ATOM     13  H42 UNL     1     -17.066 -25.619  21.827  1.00  0.00     0.178 HD
ATOM     14  H41 UNL     1     -16.876 -27.292  21.273  1.00  0.00     0.178 HD
ENDBRANCH   4  12
BRANCH   8  15
HETATM   15  N1  UNL     1     -11.123 -25.760  21.106  1.00  0.00    -0.234 N 
ATOM     16  H12 UNL     1     -10.688 -25.229  20.353  1.00  0.00     0.174 HD
ATOM     17  H11 UNL     1     -10.527 -26.176  21.822  1.00  0.00     0.174 HD
ENDBRANCH   8  15
ENDBRANCH   1   3
BRANCH   1  18
HETATM   18  C4  UNL     1     -14.640 -27.651  18.048  1.00  0.00     0.285 C 
BRANCH  18  19
HETATM   19  N6  UNL     1     -13.762 -28.798  18.038  1.00  0.00    -0.265 N 
ATOM     20  H6  UNL     1     -14.006 -29.660  18.527  1.00  0.00     0.187 HD
BRANCH  19  21
HETATM   21  N7  UNL     1     -12.563 -28.678  17.328  1.00  0.00    -0.104 N 
HETATM   22  N8  UNL     1     -12.495 -28.954  16.086  1.00  0.00    -0.304 N 
ATOM     23  H82 UNL     1     -13.319 -29.271  15.574  1.00  0.00     0.180 HD
ATOM     24  H81 UNL     1     -11.621 -28.866  15.568  1.00  0.00     0.180 HD
BRANCH  21  25
HETATM   25  O2  UNL     1     -11.449 -28.250  18.020  1.00  0.00    -0.254 OA
ATOM     26  H2  UNL     1     -10.636 -28.720  17.882  1.00  0.00     0.248 HD
ENDBRANCH  21  25
ENDBRANCH  19  21
ENDBRANCH  18  19
BRANCH  18  27
HETATM   27  C5  UNL     1     -15.822 -27.827  17.173  1.00  0.00     0.157 C 
HETATM   28  N9  UNL     1     -15.756 -28.516  15.935  1.00  0.00    -0.081 NA
HETATM   29  N10 UNL     1     -16.962 -27.322  17.570  1.00  0.00    -0.256 N 
ATOM     30  H10 UNL     1     -16.987 -26.831  18.464  1.00  0.00     0.195 HD
BRANCH  29  31
HETATM   31  O3  UNL     1     -18.110 -27.416  16.860  1.00  0.00    -0.289 OA
ATOM     32  H3  UNL     1     -18.328 -26.841  16.136  1.00  0.00     0.244 HD
ENDBRANCH  29  31
ENDBRANCH  18  27
ENDBRANCH   1  18
TORSDOF 9
ENDMDL
MODEL 2
REMARK VINA RESULT: -7.792906161      1.754      2.283
REMARK  9 active torsions:
REMARK  status: ('A' for Active; 'I' for Inactive)
REMARK    1  A    between atoms: N1_1  and  C1_4 
REMARK    2  A    between atoms: N3_9  and  N4_10 
REMARK    3  A    between atoms: C3_13  and  N5_14 
REMARK    4  A    between atoms: N5_14  and  C4_16 
REMARK    5  A    between atoms: C4_16  and  N6_17 
REMARK    6  A    between atoms: C4_16  and  C5_25 
REMARK    7  A    between atoms: N6_17  and  N7_19 
REMARK    8  A    between atoms: N7_19  and  O2_23 
REMARK    9  A    between atoms: N10_27  and  O3_29 
ROOT
HETATM    1  N5  UNL     1     -14.512 -28.389  18.546  1.00  0.00    -0.194 N 
ATOM      2  H5  UNL     1     -14.826 -29.349  18.692  1.00  0.00     0.180 HD
ENDROOT
BRANCH   1   3
HETATM    3  C3  UNL     1     -14.688 -27.567  19.502  1.00  0.00     0.719 A 
HETATM    4  N3  UNL     1     -15.931 -27.098  19.717  1.00  0.00    -0.037 N 
HETATM    5  C2  UNL     1     -16.173 -26.216  20.728  1.00  0.00     0.374 A 
HETATM    6  N2  UNL     1     -15.153 -25.801  21.530  1.00  0.00    -0.139 N 
HETATM    7  O1  UNL     1     -17.338 -25.782  20.924  1.00  0.00    -0.244 OA
HETATM    8  C1  UNL     1     -13.909 -26.268  21.317  1.00  0.00     0.694 A 
ATOM      9  H2  UNL     1     -15.331 -25.142  22.288  1.00  0.00     0.189 HD
HETATM   10  N11 UNL     1     -13.710 -27.131  20.316  1.00  0.00    -0.021 N 
ATOM     11  H11 UNL     1     -12.764 -27.478  20.162  1.00  0.00     0.203 HD
BRANCH   4  12
HETATM   12  N4  UNL     1     -17.020 -27.474  18.945  1.00  0.00    -0.320 N 
ATOM     13  H42 UNL     1     -17.981 -27.425  19.284  1.00  0.00     0.178 HD
ATOM     14  H41 UNL     1     -16.819 -27.808  18.002  1.00  0.00     0.178 HD
ENDBRANCH   4  12
BRANCH   8  15
HETATM   15  N1  UNL     1     -12.936 -25.865  22.089  1.00  0.00    -0.234 N 
ATOM     16  H12 UNL     1     -12.875 -26.138  23.070  1.00  0.00     0.174 HD
ATOM     17  H11 UNL     1     -12.211 -25.259  21.704  1.00  0.00     0.174 HD
ENDBRANCH   8  15
ENDBRANCH   1   3
BRANCH   1  18
HETATM   18  C4  UNL     1     -13.911 -28.080  17.277  1.00  0.00     0.285 C 
BRANCH  18  19
HETATM   19  N6  UNL     1     -12.610 -28.684  17.107  1.00  0.00    -0.265 N 
ATOM     20  H6  UNL     1     -12.431 -29.361  16.365  1.00  0.00     0.187 HD
BRANCH  19  21
HETATM   21  N7  UNL     1     -11.606 -28.300  18.001  1.00  0.00    -0.104 N 
HETATM   22  N8  UNL     1     -10.852 -27.301  17.766  1.00  0.00    -0.304 N 
ATOM     23  H82 UNL     1     -10.962 -26.751  16.913  1.00  0.00     0.180 HD
ATOM     24  H81 UNL     1     -10.120 -27.021  18.418  1.00  0.00     0.180 HD
BRANCH  21  25
HETATM   25  O2  UNL     1     -11.457 -29.044  19.153  1.00  0.00    -0.254 OA
ATOM     26  H2  UNL     1     -10.573 -29.216  19.456  1.00  0.00     0.248 HD
ENDBRANCH  21  25
ENDBRANCH  19  21
ENDBRANCH  18  19
BRANCH  18  27
HETATM   27  C5  UNL     1     -14.869 -28.474  16.217  1.00  0.00     0.157 C 
HETATM   28  N9  UNL     1     -16.198 -27.982  16.172  1.00  0.00    -0.081 NA
HETATM   29  N10 UNL     1     -14.458 -29.307  15.296  1.00  0.00    -0.256 N 
ATOM     30  H10 UNL     1     -13.498 -29.649  15.347  1.00  0.00     0.195 HD
BRANCH  29  31
HETATM   31  O3  UNL     1     -15.237 -29.741  14.279  1.00  0.00    -0.289 OA
ATOM     32  H3  UNL     1     -14.913 -30.268  13.557  1.00  0.00     0.244 HD
ENDBRANCH  29  31
ENDBRANCH  18  27
ENDBRANCH   1  18
TORSDOF 9
ENDMDL
MODEL 3
REMARK VINA RESULT: -7.560532795      2.155      4.070
REMARK  9 active torsions:
REMARK  status: ('A' for Active; 'I' for Inactive)
REMARK    1  A    between atoms: N1_1  and  C1_4 
REMARK    2  A    between atoms: N3_9  and  N4_10 
REMARK    3  A    between atoms: C3_13  and  N5_14 
REMARK    4  A    between atoms: N5_14  and  C4_16 
REMARK    5  A    between atoms: C4_16  and  N6_17 
REMARK    6  A    between atoms: C4_16  and  C5_25 
REMARK    7  A    between atoms: N6_17  and  N7_19 
REMARK    8  A    between atoms: N7_19  and  O2_23 
REMARK    9  A    between atoms: N10_27  and  O3_29 
ROOT
HETATM    1  N5  UNL     1     -13.377 -27.756  17.632  1.00  0.00    -0.194 N 
ATOM      2  H5  UNL     1     -12.647 -27.437  16.995  1.00  0.00     0.180 HD
ENDROOT
BRANCH   1   3
HETATM    3  C3  UNL     1     -13.116 -27.731  18.878  1.00  0.00     0.719 A 
HETATM    4  N3  UNL     1     -12.378 -28.732  19.393  1.00  0.00    -0.037 N 
HETATM    5  C2  UNL     1     -12.069 -28.752  20.721  1.00  0.00     0.374 A 
HETATM    6  N2  UNL     1     -12.509 -27.756  21.539  1.00  0.00    -0.139 N 
HETATM    7  O1  UNL     1     -11.378 -29.691  21.195  1.00  0.00    -0.244 OA
HETATM    8  C1  UNL     1     -13.248 -26.755  21.027  1.00  0.00     0.694 A 
ATOM      9  H2  UNL     1     -12.279 -27.769  22.532  1.00  0.00     0.189 HD
HETATM   10  N11 UNL     1     -13.531 -26.768  19.721  1.00  0.00    -0.021 N 
ATOM     11  H11 UNL     1     -14.092 -26.006  19.342  1.00  0.00     0.203 HD
BRANCH   4  12
HETATM   12  N4  UNL     1     -11.893 -29.780  18.625  1.00  0.00    -0.320 N 
ATOM     13  H42 UNL     1     -11.300 -30.517  19.007  1.00  0.00     0.178 HD
ATOM     14  H41 UNL     1     -12.159 -29.788  17.640  1.00  0.00     0.178 HD
ENDBRANCH   4  12
BRANCH   8  15
HETATM   15  N1  UNL     1     -13.667 -25.803  21.817  1.00  0.00    -0.234 N 
ATOM     16  H12 UNL     1     -14.076 -25.998  22.730  1.00  0.00     0.174 HD
ATOM     17  H11 UNL     1     -13.584 -24.831  21.515  1.00  0.00     0.174 HD
ENDBRANCH   8  15
ENDBRANCH   1   3
BRANCH   1  18
HETATM   18  C4  UNL     1     -14.614 -28.196  17.046  1.00  0.00     0.285 C 
BRANCH  18  19
HETATM   19  N6  UNL     1     -15.579 -27.132  16.897  1.00  0.00    -0.265 N 
ATOM     20  H6  UNL     1     -15.368 -26.296  16.350  1.00  0.00     0.187 HD
BRANCH  19  21
HETATM   21  N7  UNL     1     -16.813 -27.294  17.533  1.00  0.00    -0.104 N 
HETATM   22  N8  UNL     1     -16.916 -27.258  18.802  1.00  0.00    -0.304 N 
ATOM     23  H82 UNL     1     -16.096 -27.107  19.390  1.00  0.00     0.180 HD
ATOM     24  H81 UNL     1     -17.817 -27.376  19.266  1.00  0.00     0.180 HD
BRANCH  21  25
HETATM   25  O2  UNL     1     -17.921 -27.497  16.738  1.00  0.00    -0.254 OA
ATOM     26  H2  UNL     1     -18.301 -28.368  16.724  1.00  0.00     0.248 HD
ENDBRANCH  21  25
ENDBRANCH  19  21
ENDBRANCH  18  19
BRANCH  18  27
HETATM   27  C5  UNL     1     -14.292 -28.862  15.762  1.00  0.00     0.157 C 
HETATM   28  N9  UNL     1     -15.287 -29.444  14.936  1.00  0.00    -0.081 NA
HETATM   29  N10 UNL     1     -13.038 -28.905  15.390  1.00  0.00    -0.256 N 
ATOM     30  H10 UNL     1     -12.338 -28.480  15.999  1.00  0.00     0.195 HD
BRANCH  29  31
HETATM   31  O3  UNL     1     -12.618 -29.484  14.241  1.00  0.00    -0.289 OA
ATOM     32  H3  UNL     1     -11.739 -29.386  13.894  1.00  0.00     0.244 HD
ENDBRANCH  29  31
ENDBRANCH  18  27
ENDBRANCH   1  18
TORSDOF 9
ENDMDL
MODEL 4
REMARK VINA RESULT: -7.557154669      2.097      4.445
REMARK  9 active torsions:
REMARK  status: ('A' for Active; 'I' for Inactive)
REMARK    1  A    between atoms: N1_1  and  C1_4 
REMARK    2  A    between atoms: N3_9  and  N4_10 
REMARK    3  A    between atoms: C3_13  and  N5_14 
REMARK    4  A    between atoms: N5_14  and  C4_16 
REMARK    5  A    between atoms: C4_16  and  N6_17 
REMARK    6  A    between atoms: C4_16  and  C5_25 
REMARK    7  A    between atoms: N6_17  and  N7_19 
REMARK    8  A    between atoms: N7_19  and  O2_23 
REMARK    9  A    between atoms: N10_27  and  O3_29 
ROOT
HETATM    1  N5  UNL     1     -13.129 -27.187  19.087  1.00  0.00    -0.194 N 
ATOM      2  H5  UNL     1     -12.564 -26.342  19.180  1.00  0.00     0.180 HD
ENDROOT
BRANCH   1   3
HETATM    3  C3  UNL     1     -14.389 -27.062  19.215  1.00  0.00     0.719 A 
HETATM    4  N3  UNL     1     -14.872 -26.672  20.410  1.00  0.00    -0.037 N 
HETATM    5  C2  UNL     1     -16.214 -26.523  20.600  1.00  0.00     0.374 A 
HETATM    6  N2  UNL     1     -17.078 -26.769  19.577  1.00  0.00    -0.139 N 
HETATM    7  O1  UNL     1     -16.657 -26.158  21.720  1.00  0.00    -0.244 OA
HETATM    8  C1  UNL     1     -16.599 -27.159  18.382  1.00  0.00     0.694 A 
ATOM      9  H2  UNL     1     -18.082 -26.657  19.716  1.00  0.00     0.189 HD
HETATM   10  N11 UNL     1     -15.278 -27.295  18.233  1.00  0.00    -0.021 N 
ATOM     11  H11 UNL     1     -14.925 -27.592  17.324  1.00  0.00     0.203 HD
BRANCH   4  12
HETATM   12  N4  UNL     1     -14.055 -26.402  21.498  1.00  0.00    -0.320 N 
ATOM     13  H42 UNL     1     -13.777 -27.117  22.171  1.00  0.00     0.178 HD
ATOM     14  H41 UNL     1     -13.735 -25.440  21.603  1.00  0.00     0.178 HD
ENDBRANCH   4  12
BRANCH   8  15
HETATM   15  N1  UNL     1     -17.435 -27.393  17.405  1.00  0.00    -0.234 N 
ATOM     16  H12 UNL     1     -18.208 -28.050  17.501  1.00  0.00     0.174 HD
ATOM     17  H11 UNL     1     -17.313 -26.906  16.517  1.00  0.00     0.174 HD
ENDBRANCH   8  15
ENDBRANCH   1   3
BRANCH   1  18
HETATM   18  C4  UNL     1     -12.433 -28.417  18.824  1.00  0.00     0.285 C 
BRANCH  18  19
HETATM   19  N6  UNL     1     -12.008 -28.542  17.449  1.00  0.00    -0.265 N 
ATOM     20  H6  UNL     1     -11.064 -28.284  17.159  1.00  0.00     0.187 HD
BRANCH  19  21
HETATM   21  N7  UNL     1     -12.943 -29.031  16.533  1.00  0.00    -0.104 N 
HETATM   22  N8  UNL     1     -12.767 -28.915  15.276  1.00  0.00    -0.304 N 
ATOM     23  H82 UNL     1     -11.933 -28.460  14.905  1.00  0.00     0.180 HD
ATOM     24  H81 UNL     1     -13.450 -29.273  14.608  1.00  0.00     0.180 HD
BRANCH  21  25
HETATM   25  O2  UNL     1     -14.071 -29.646  17.036  1.00  0.00    -0.254 OA
ATOM     26  H2  UNL     1     -14.835 -29.104  17.196  1.00  0.00     0.248 HD
ENDBRANCH  21  25
ENDBRANCH  19  21
ENDBRANCH  18  19
BRANCH  18  27
HETATM   27  C5  UNL     1     -11.307 -28.511  19.783  1.00  0.00     0.157 C 
HETATM   28  N9  UNL     1     -10.491 -27.398  20.110  1.00  0.00    -0.081 NA
HETATM   29  N10 UNL     1     -11.070 -29.671  20.341  1.00  0.00    -0.256 N 
ATOM     30  H10 UNL     1     -11.670 -30.458  20.092  1.00  0.00     0.195 HD
BRANCH  29  31
HETATM   31  O3  UNL     1     -10.073 -29.884  21.230  1.00  0.00    -0.289 OA
ATOM     32  H3  UNL     1     -10.037 -30.636  21.809  1.00  0.00     0.244 HD
ENDBRANCH  29  31
ENDBRANCH  18  27
ENDBRANCH   1  18
TORSDOF 9
ENDMDL
MODEL 5
REMARK VINA RESULT: -7.527562086      1.880      3.724
REMARK  9 active torsions:
REMARK  status: ('A' for Active; 'I' for Inactive)
REMARK    1  A    between atoms: N1_1  and  C1_4 
REMARK    2  A    between atoms: N3_9  and  N4_10 
REMARK    3  A    between atoms: C3_13  and  N5_14 
REMARK    4  A    between atoms: N5_14  and  C4_16 
REMARK    5  A    between atoms: C4_16  and  N6_17 
REMARK    6  A    between atoms: C4_16  and  C5_25 
REMARK    7  A    between atoms: N6_17  and  N7_19 
REMARK    8  A    between atoms: N7_19  and  O2_23 
REMARK    9  A    between atoms: N10_27  and  O3_29 
ROOT
HETATM    1  N5  UNL     1     -14.242 -27.451  17.943  1.00  0.00    -0.194 N 
ATOM      2  H5  UNL     1     -14.457 -26.765  17.219  1.00  0.00     0.180 HD
ENDROOT
BRANCH   1   3
HETATM    3  C3  UNL     1     -14.715 -27.238  19.105  1.00  0.00     0.719 A 
HETATM    4  N3  UNL     1     -16.052 -27.153  19.242  1.00  0.00    -0.037 N 
HETATM    5  C2  UNL     1     -16.609 -26.926  20.466  1.00  0.00     0.374 A 
HETATM    6  N2  UNL     1     -15.814 -26.783  21.562  1.00  0.00    -0.139 N 
HETATM    7  O1  UNL     1     -17.860 -26.849  20.586  1.00  0.00    -0.244 OA
HETATM    8  C1  UNL     1     -14.478 -26.867  21.428  1.00  0.00     0.694 A 
ATOM      9  H2  UNL     1     -16.228 -26.614  22.478  1.00  0.00     0.189 HD
HETATM   10  N11 UNL     1     -13.967 -27.090  20.213  1.00  0.00    -0.021 N 
ATOM     11  H11 UNL     1     -12.953 -27.150  20.121  1.00  0.00     0.203 HD
BRANCH   4  12
HETATM   12  N4  UNL     1     -16.927 -27.289  18.175  1.00  0.00    -0.320 N 
ATOM     13  H42 UNL     1     -17.785 -27.837  18.230  1.00  0.00     0.178 HD
ATOM     14  H41 UNL     1     -16.674 -26.807  17.311  1.00  0.00     0.178 HD
ENDBRANCH   4  12
BRANCH   8  15
HETATM   15  N1  UNL     1     -13.721 -26.728  22.483  1.00  0.00    -0.234 N 
ATOM     16  H12 UNL     1     -13.924 -27.205  23.361  1.00  0.00     0.174 HD
ATOM     17  H11 UNL     1     -12.899 -26.125  22.432  1.00  0.00     0.174 HD
ENDBRANCH   8  15
ENDBRANCH   1   3
BRANCH   1  18
HETATM   18  C4  UNL     1     -13.431 -28.576  17.563  1.00  0.00     0.285 C 
BRANCH  18  19
HETATM   19  N6  UNL     1     -13.493 -28.865  16.149  1.00  0.00    -0.265 N 
ATOM     20  H6  UNL     1     -12.671 -28.773  15.551  1.00  0.00     0.187 HD
BRANCH  19  21
HETATM   21  N7  UNL     1     -14.726 -29.276  15.635  1.00  0.00    -0.104 N 
HETATM   22  N8  UNL     1     -14.854 -30.384  15.018  1.00  0.00    -0.304 N 
ATOM     23  H82 UNL     1     -14.054 -31.002  14.883  1.00  0.00     0.180 HD
ATOM     24  H81 UNL     1     -15.754 -30.684  14.643  1.00  0.00     0.180 HD
BRANCH  21  25
HETATM   25  O2  UNL     1     -15.807 -28.439  15.817  1.00  0.00    -0.254 OA
ATOM     26  H2  UNL     1     -15.904 -27.706  15.221  1.00  0.00     0.248 HD
ENDBRANCH  21  25
ENDBRANCH  19  21
ENDBRANCH  18  19
BRANCH  18  27
HETATM   27  C5  UNL     1     -12.051 -28.315  18.035  1.00  0.00     0.157 C 
HETATM   28  N9  UNL     1     -11.451 -29.060  19.082  1.00  0.00    -0.081 NA
HETATM   29  N10 UNL     1     -11.373 -27.359  17.453  1.00  0.00    -0.256 N 
ATOM     30  H10 UNL     1     -11.823 -26.836  16.702  1.00  0.00     0.195 HD
BRANCH  29  31
HETATM   31  O3  UNL     1     -10.107 -27.026  17.794  1.00  0.00    -0.289 OA
ATOM     32  H3  UNL     1      -9.650 -26.270  17.445  1.00  0.00     0.244 HD
ENDBRANCH  29  31
ENDBRANCH  18  27
ENDBRANCH   1  18
TORSDOF 9
ENDMDL
