MODEL 1
REMARK VINA RESULT: -8.714623563      0.000      0.000
REMARK  5 active torsions:
REMARK  status: ('A' for Active; 'I' for Inactive)
REMARK       I    between atoms: C1_4  and  N2_5 
REMARK       I    between atoms: C1_4  and  N11_29 
REMARK    1  A    between atoms: N2_5  and  C2_7 
REMARK    2  A    between atoms: C3_13  and  N5_14 
REMARK    3  A    between atoms: N5_14  and  N7_18 
REMARK       I    between atoms: N7_18  and  C4_20 
REMARK       I    between atoms: C4_20  and  N9_24 
REMARK    4  A    between atoms: N9_24  and  N10_26 
REMARK    5  A    between atoms: N11_29  and  N12_31 
ROOT
HETATM    1  C2  UNL     1     -15.083 -27.086  19.927  1.00  0.00     0.192 A 
HETATM    2  N3  UNL     1     -15.485 -26.728  21.154  1.00  0.00    -0.221 N 
ATOM      3  H3  UNL     1     -14.884 -26.633  21.973  1.00  0.00     0.198 HD
HETATM    4  O1  UNL     1     -16.771 -26.521  21.126  1.00  0.00    -0.153 OA
HETATM    5  N4  UNL     1     -17.245 -26.727  19.931  1.00  0.00    -0.219 N 
ATOM      6  H4  UNL     1     -18.220 -26.634  19.650  1.00  0.00     0.198 HD
HETATM    7  C3  UNL     1     -16.211 -27.089  19.125  1.00  0.00     0.213 A 
ENDROOT
BRANCH   7   8
HETATM    8  N5  UNL     1     -16.275 -27.410  17.744  1.00  0.00    -0.166 N 
HETATM    9  N6  UNL     1     -17.423 -27.522  17.229  1.00  0.00    -0.322 N 
ATOM     10  H62 UNL     1     -18.294 -27.399  17.744  1.00  0.00     0.179 HD
ATOM     11  H61 UNL     1     -17.468 -27.753  16.237  1.00  0.00     0.179 HD
BRANCH   8  12
HETATM   12  N7  UNL     1     -15.094 -27.578  17.044  1.00  0.00    -0.108 N 
HETATM   13  C4  UNL     1     -14.604 -28.830  16.591  1.00  0.00     0.706 C 
HETATM   14  N8  UNL     1     -15.026 -29.945  17.032  1.00  0.00    -0.232 N 
HETATM   15  N9  UNL     1     -13.581 -28.884  15.587  1.00  0.00    -0.138 N 
ATOM     16  H82 UNL     1     -15.753 -29.907  17.745  1.00  0.00     0.174 HD
ATOM     17  H81 UNL     1     -14.674 -30.845  16.706  1.00  0.00     0.174 HD
ATOM     18  H9  UNL     1     -12.718 -28.354  15.710  1.00  0.00     0.205 HD
ATOM     19  H7  UNL     1     -14.539 -26.747  16.841  1.00  0.00     0.208 HD
BRANCH  15  20
HETATM   20  N10 UNL     1     -13.762 -29.651  14.457  1.00  0.00    -0.331 N 
ATOM     21 2H10 UNL     1     -13.435 -29.294  13.560  1.00  0.00     0.177 HD
ATOM     22 1H10 UNL     1     -14.216 -30.561  14.525  1.00  0.00     0.177 HD
ENDBRANCH  15  20
ENDBRANCH   8  12
ENDBRANCH   7   8
BRANCH   1  23
HETATM   23  N2  UNL     1     -13.908 -27.372  19.513  1.00  0.00    -0.170 N 
HETATM   24  C1  UNL     1     -12.784 -27.533  20.329  1.00  0.00     0.697 C 
HETATM   25  N1  UNL     1     -12.393 -26.688  21.216  1.00  0.00    -0.233 N 
HETATM   26  N11 UNL     1     -11.999 -28.720  20.178  1.00  0.00    -0.072 N 
ATOM     27  H12 UNL     1     -12.953 -25.841  21.324  1.00  0.00     0.174 HD
ATOM     28  H11 UNL     1     -11.573 -26.805  21.812  1.00  0.00     0.174 HD
ATOM     29  H11 UNL     1     -11.777 -29.077  19.249  1.00  0.00     0.212 HD
ATOM     30  H2  UNL     1     -13.780 -27.494  18.509  1.00  0.00     0.186 HD
BRANCH  26  31
HETATM   31  N12 UNL     1     -11.542 -29.385  21.318  1.00  0.00    -0.024 N 
HETATM   32  O2  UNL     1     -12.357 -29.628  22.229  1.00  0.00    -0.516 OA
HETATM   33  O3  UNL     1     -10.243 -29.792  21.499  1.00  0.00    -0.516 OA
ENDBRANCH  26  31
ENDBRANCH   1  23
TORSDOF 5
ENDMDL
MODEL 2
REMARK VINA RESULT: -8.480863759      3.147      4.531
REMARK  5 active torsions:
REMARK  status: ('A' for Active; 'I' for Inactive)
REMARK       I    between atoms: C1_4  and  N2_5 
REMARK       I    between atoms: C1_4  and  N11_29 
REMARK    1  A    between atoms: N2_5  and  C2_7 
REMARK    2  A    between atoms: C3_13  and  N5_14 
REMARK    3  A    between atoms: N5_14  and  N7_18 
REMARK       I    between atoms: N7_18  and  C4_20 
REMARK       I    between atoms: C4_20  and  N9_24 
REMARK    4  A    between atoms: N9_24  and  N10_26 
REMARK    5  A    between atoms: N11_29  and  N12_31 
ROOT
HETATM    1  C2  UNL     1     -14.530 -27.996  24.014  1.00  0.00     0.192 A 
HETATM    2  N3  UNL     1     -15.138 -28.240  25.182  1.00  0.00    -0.221 N 
ATOM      3  H3  UNL     1     -14.832 -28.916  25.883  1.00  0.00     0.198 HD
HETATM    4  O1  UNL     1     -16.185 -27.469  25.275  1.00  0.00    -0.153 OA
HETATM    5  N4  UNL     1     -16.301 -26.721  24.216  1.00  0.00    -0.219 N 
ATOM      6  H4  UNL     1     -17.036 -26.036  24.045  1.00  0.00     0.198 HD
HETATM    7  C3  UNL     1     -15.271 -27.015  23.377  1.00  0.00     0.213 A 
ENDROOT
BRANCH   7   8
HETATM    8  N5  UNL     1     -15.011 -26.438  22.107  1.00  0.00    -0.166 N 
HETATM    9  N6  UNL     1     -14.522 -25.274  22.089  1.00  0.00    -0.322 N 
ATOM     10  H62 UNL     1     -14.308 -24.732  22.927  1.00  0.00     0.179 HD
ATOM     11  H61 UNL     1     -14.335 -24.860  21.177  1.00  0.00     0.179 HD
BRANCH   8  12
HETATM   12  N7  UNL     1     -15.300 -27.172  20.971  1.00  0.00    -0.108 N 
HETATM   13  C4  UNL     1     -16.500 -27.049  20.224  1.00  0.00     0.706 C 
HETATM   14  N8  UNL     1     -17.548 -26.490  20.675  1.00  0.00    -0.232 N 
HETATM   15  N9  UNL     1     -16.576 -27.571  18.890  1.00  0.00    -0.138 N 
ATOM     16  H82 UNL     1     -17.495 -26.119  21.623  1.00  0.00     0.174 HD
ATOM     17  H81 UNL     1     -18.410 -26.401  20.138  1.00  0.00     0.174 HD
ATOM     18  H9  UNL     1     -16.312 -28.539  18.705  1.00  0.00     0.205 HD
ATOM     19  H7  UNL     1     -14.605 -27.845  20.650  1.00  0.00     0.208 HD
BRANCH  15  20
HETATM   20  N10 UNL     1     -17.003 -26.765  17.857  1.00  0.00    -0.331 N 
ATOM     21 2H10 UNL     1     -17.473 -25.887  18.077  1.00  0.00     0.177 HD
ATOM     22 1H10 UNL     1     -16.849 -27.050  16.890  1.00  0.00     0.177 HD
ENDBRANCH  15  20
ENDBRANCH   8  12
ENDBRANCH   7   8
BRANCH   1  23
HETATM   23  N2  UNL     1     -13.472 -28.522  23.528  1.00  0.00    -0.170 N 
HETATM   24  C1  UNL     1     -12.800 -29.623  24.068  1.00  0.00     0.697 C 
HETATM   25  N1  UNL     1     -12.431 -29.731  25.295  1.00  0.00    -0.233 N 
HETATM   26  N11 UNL     1     -12.492 -30.722  23.203  1.00  0.00    -0.072 N 
ATOM     27  H12 UNL     1     -12.651 -28.948  25.911  1.00  0.00     0.174 HD
ATOM     28  H11 UNL     1     -11.941 -30.534  25.689  1.00  0.00     0.174 HD
ATOM     29  H11 UNL     1     -12.132 -30.554  22.263  1.00  0.00     0.212 HD
ATOM     30  H2  UNL     1     -13.087 -28.107  22.679  1.00  0.00     0.186 HD
BRANCH  26  31
HETATM   31  N12 UNL     1     -12.689 -32.027  23.660  1.00  0.00    -0.024 N 
HETATM   32  O2  UNL     1     -13.774 -32.304  24.205  1.00  0.00    -0.516 OA
HETATM   33  O3  UNL     1     -11.757 -33.029  23.544  1.00  0.00    -0.516 OA
ENDBRANCH  26  31
ENDBRANCH   1  23
TORSDOF 5
ENDMDL
MODEL 3
REMARK VINA RESULT: -8.475259015      3.100      5.913
REMARK  5 active torsions:
REMARK  status: ('A' for Active; 'I' for Inactive)
REMARK       I    between atoms: C1_4  and  N2_5 
REMARK       I    between atoms: C1_4  and  N11_29 
REMARK    1  A    between atoms: N2_5  and  C2_7 
REMARK    2  A    between atoms: C3_13  and  N5_14 
REMARK    3  A    between atoms: N5_14  and  N7_18 
REMARK       I    between atoms: N7_18  and  C4_20 
REMARK       I    between atoms: C4_20  and  N9_24 
REMARK    4  A    between atoms: N9_24  and  N10_26 
REMARK    5  A    between atoms: N11_29  and  N12_31 
ROOT
HETATM    1  C2  UNL     1     -15.279 -27.633  18.758  1.00  0.00     0.192 A 
HETATM    2  N3  UNL     1     -16.532 -27.576  18.286  1.00  0.00    -0.221 N 
ATOM      3  H3  UNL     1     -16.845 -27.931  17.382  1.00  0.00     0.198 HD
HETATM    4  O1  UNL     1     -17.284 -26.990  19.174  1.00  0.00    -0.153 OA
HETATM    5  N4  UNL     1     -16.585 -26.653  20.220  1.00  0.00    -0.219 N 
ATOM      6  H4  UNL     1     -16.940 -26.181  21.051  1.00  0.00     0.198 HD
HETATM    7  C3  UNL     1     -15.298 -27.041  20.009  1.00  0.00     0.213 A 
ENDROOT
BRANCH   7   8
HETATM    8  N5  UNL     1     -14.197 -26.869  20.888  1.00  0.00    -0.166 N 
HETATM    9  N6  UNL     1     -13.158 -26.328  20.415  1.00  0.00    -0.322 N 
ATOM     10  H62 UNL     1     -13.068 -26.015  19.449  1.00  0.00     0.179 HD
ATOM     11  H61 UNL     1     -12.368 -26.205  21.047  1.00  0.00     0.179 HD
BRANCH   8  12
HETATM   12  N7  UNL     1     -14.320 -27.292  22.199  1.00  0.00    -0.108 N 
HETATM   13  C4  UNL     1     -14.840 -26.495  23.251  1.00  0.00     0.706 C 
HETATM   14  N8  UNL     1     -14.961 -25.233  23.176  1.00  0.00    -0.232 N 
HETATM   15  N9  UNL     1     -15.259 -27.106  24.479  1.00  0.00    -0.138 N 
ATOM     16  H82 UNL     1     -14.663 -24.798  22.303  1.00  0.00     0.174 HD
ATOM     17  H81 UNL     1     -15.335 -24.660  23.932  1.00  0.00     0.174 HD
ATOM     18  H9  UNL     1     -14.626 -27.729  24.981  1.00  0.00     0.205 HD
ATOM     19  H7  UNL     1     -14.017 -28.240  22.423  1.00  0.00     0.208 HD
BRANCH  15  20
HETATM   20  N10 UNL     1     -16.517 -26.854  24.982  1.00  0.00    -0.331 N 
ATOM     21 2H10 UNL     1     -17.016 -26.021  24.670  1.00  0.00     0.177 HD
ATOM     22 1H10 UNL     1     -16.937 -27.495  25.655  1.00  0.00     0.177 HD
ENDBRANCH  15  20
ENDBRANCH   8  12
ENDBRANCH   7   8
BRANCH   1  23
HETATM   23  N2  UNL     1     -14.234 -28.129  18.215  1.00  0.00    -0.170 N 
HETATM   24  C1  UNL     1     -14.231 -29.134  17.243  1.00  0.00     0.697 C 
HETATM   25  N1  UNL     1     -14.853 -30.254  17.342  1.00  0.00    -0.233 N 
HETATM   26  N11 UNL     1     -13.483 -28.915  16.043  1.00  0.00    -0.072 N 
ATOM     27  H12 UNL     1     -15.386 -30.411  18.198  1.00  0.00     0.174 HD
ATOM     28  H11 UNL     1     -14.852 -30.988  16.633  1.00  0.00     0.174 HD
ATOM     29  H11 UNL     1     -12.551 -28.502  16.083  1.00  0.00     0.212 HD
ATOM     30  H2  UNL     1     -13.330 -27.762  18.515  1.00  0.00     0.186 HD
BRANCH  26  31
HETATM   31  N12 UNL     1     -14.044 -29.272  14.814  1.00  0.00    -0.024 N 
HETATM   32  O2  UNL     1     -15.285 -29.315  14.722  1.00  0.00    -0.516 OA
HETATM   33  O3  UNL     1     -13.309 -29.579  13.696  1.00  0.00    -0.516 OA
ENDBRANCH  26  31
ENDBRANCH   1  23
TORSDOF 5
ENDMDL
MODEL 4
REMARK VINA RESULT: -8.424327941      2.028      4.889
REMARK  5 active torsions:
REMARK  status: ('A' for Active; 'I' for Inactive)
REMARK       I    between atoms: C1_4  and  N2_5 
REMARK       I    between atoms: C1_4  and  N11_29 
REMARK    1  A    between atoms: N2_5  and  C2_7 
REMARK    2  A    between atoms: C3_13  and  N5_14 
REMARK    3  A    between atoms: N5_14  and  N7_18 
REMARK       I    between atoms: N7_18  and  C4_20 
REMARK       I    between atoms: C4_20  and  N9_24 
REMARK    4  A    between atoms: N9_24  and  N10_26 
REMARK    5  A    between atoms: N11_29  and  N12_31 
ROOT
HETATM    1  C2  UNL     1     -15.183 -27.964  17.870  1.00  0.00     0.192 A 
HETATM    2  N3  UNL     1     -15.921 -28.713  17.040  1.00  0.00    -0.221 N 
ATOM      3  H3  UNL     1     -16.914 -28.586  16.846  1.00  0.00     0.198 HD
HETATM    4  O1  UNL     1     -15.157 -29.632  16.520  1.00  0.00    -0.153 OA
HETATM    5  N4  UNL     1     -13.940 -29.527  16.969  1.00  0.00    -0.219 N 
ATOM      6  H4  UNL     1     -13.155 -30.127  16.718  1.00  0.00     0.198 HD
HETATM    7  C3  UNL     1     -13.899 -28.478  17.835  1.00  0.00     0.213 A 
ENDROOT
BRANCH   7   8
HETATM    8  N5  UNL     1     -12.772 -28.009  18.559  1.00  0.00    -0.166 N 
HETATM    9  N6  UNL     1     -11.878 -27.400  17.907  1.00  0.00    -0.322 N 
ATOM     10  H62 UNL     1     -11.921 -27.230  16.902  1.00  0.00     0.179 HD
ATOM     11  H61 UNL     1     -11.069 -27.063  18.427  1.00  0.00     0.179 HD
BRANCH   8  12
HETATM   12  N7  UNL     1     -12.713 -28.239  19.921  1.00  0.00    -0.108 N 
HETATM   13  C4  UNL     1     -11.705 -29.007  20.560  1.00  0.00     0.706 C 
HETATM   14  N8  UNL     1     -10.938 -29.805  19.938  1.00  0.00    -0.232 N 
HETATM   15  N9  UNL     1     -11.512 -28.906  21.978  1.00  0.00    -0.138 N 
ATOM     16  H82 UNL     1     -11.075 -29.877  18.930  1.00  0.00     0.174 HD
ATOM     17  H81 UNL     1     -10.213 -30.356  20.397  1.00  0.00     0.174 HD
ATOM     18  H9  UNL     1     -12.302 -29.031  22.610  1.00  0.00     0.205 HD
ATOM     19  H7  UNL     1     -13.442 -27.829  20.505  1.00  0.00     0.208 HD
BRANCH  15  20
HETATM   20  N10 UNL     1     -10.260 -28.641  22.487  1.00  0.00    -0.331 N 
ATOM     21 2H10 UNL     1      -9.626 -29.418  22.672  1.00  0.00     0.177 HD
ATOM     22 1H10 UNL     1      -9.977 -27.679  22.673  1.00  0.00     0.177 HD
ENDBRANCH  15  20
ENDBRANCH   8  12
ENDBRANCH   7   8
BRANCH   1  23
HETATM   23  N2  UNL     1     -15.533 -26.958  18.576  1.00  0.00    -0.170 N 
HETATM   24  C1  UNL     1     -16.097 -27.029  19.854  1.00  0.00     0.697 C 
HETATM   25  N1  UNL     1     -17.111 -27.753  20.171  1.00  0.00    -0.233 N 
HETATM   26  N11 UNL     1     -15.514 -26.242  20.898  1.00  0.00    -0.072 N 
ATOM     27  H12 UNL     1     -17.527 -28.313  19.427  1.00  0.00     0.174 HD
ATOM     28  H11 UNL     1     -17.523 -27.805  21.103  1.00  0.00     0.174 HD
ATOM     29  H11 UNL     1     -15.234 -25.277  20.722  1.00  0.00     0.212 HD
ATOM     30  H2  UNL     1     -15.390 -26.030  18.177  1.00  0.00     0.186 HD
BRANCH  26  31
HETATM   31  N12 UNL     1     -15.333 -26.811  22.161  1.00  0.00    -0.024 N 
HETATM   32  O2  UNL     1     -16.152 -26.533  23.057  1.00  0.00    -0.516 OA
HETATM   33  O3  UNL     1     -14.302 -27.661  22.478  1.00  0.00    -0.516 OA
ENDBRANCH  26  31
ENDBRANCH   1  23
TORSDOF 5
ENDMDL
MODEL 5
REMARK VINA RESULT: -8.351159833      1.420      2.064
REMARK  5 active torsions:
REMARK  status: ('A' for Active; 'I' for Inactive)
REMARK       I    between atoms: C1_4  and  N2_5 
REMARK       I    between atoms: C1_4  and  N11_29 
REMARK    1  A    between atoms: N2_5  and  C2_7 
REMARK    2  A    between atoms: C3_13  and  N5_14 
REMARK    3  A    between atoms: N5_14  and  N7_18 
REMARK       I    between atoms: N7_18  and  C4_20 
REMARK       I    between atoms: C4_20  and  N9_24 
REMARK    4  A    between atoms: N9_24  and  N10_26 
REMARK    5  A    between atoms: N11_29  and  N12_31 
ROOT
HETATM    1  C2  UNL     1     -15.524 -26.676  20.942  1.00  0.00     0.192 A 
HETATM    2  N3  UNL     1     -16.762 -26.392  21.369  1.00  0.00    -0.221 N 
ATOM      3  H3  UNL     1     -17.000 -25.970  22.267  1.00  0.00     0.198 HD
HETATM    4  O1  UNL     1     -17.611 -26.745  20.446  1.00  0.00    -0.153 OA
HETATM    5  N4  UNL     1     -16.992 -27.253  19.420  1.00  0.00    -0.219 N 
ATOM      6  H4  UNL     1     -17.431 -27.605  18.570  1.00  0.00     0.198 HD
HETATM    7  C3  UNL     1     -15.657 -27.233  19.682  1.00  0.00     0.213 A 
ENDROOT
BRANCH   7   8
HETATM    8  N5  UNL     1     -14.613 -27.694  18.838  1.00  0.00    -0.166 N 
HETATM    9  N6  UNL     1     -13.555 -27.006  18.799  1.00  0.00    -0.322 N 
ATOM     10  H62 UNL     1     -13.412 -26.148  19.331  1.00  0.00     0.179 HD
ATOM     11  H61 UNL     1     -12.805 -27.338  18.193  1.00  0.00     0.179 HD
BRANCH   8  12
HETATM   12  N7  UNL     1     -14.805 -28.858  18.117  1.00  0.00    -0.108 N 
HETATM   13  C4  UNL     1     -15.215 -28.898  16.758  1.00  0.00     0.706 C 
HETATM   14  N8  UNL     1     -15.735 -27.907  16.157  1.00  0.00    -0.232 N 
HETATM   15  N9  UNL     1     -15.052 -30.099  15.991  1.00  0.00    -0.138 N 
ATOM     16  H82 UNL     1     -15.851 -27.053  16.703  1.00  0.00     0.174 HD
ATOM     17  H81 UNL     1     -16.029 -27.935  15.181  1.00  0.00     0.174 HD
ATOM     18  H9  UNL     1     -15.415 -30.983  16.345  1.00  0.00     0.205 HD
ATOM     19  H7  UNL     1     -14.643 -29.745  18.592  1.00  0.00     0.208 HD
BRANCH  15  20
HETATM   20  N10 UNL     1     -14.404 -30.059  14.776  1.00  0.00    -0.331 N 
ATOM     21 2H10 UNL     1     -14.667 -30.728  14.053  1.00  0.00     0.177 HD
ATOM     22 1H10 UNL     1     -13.674 -29.366  14.608  1.00  0.00     0.177 HD
ENDBRANCH  15  20
ENDBRANCH   8  12
ENDBRANCH   7   8
BRANCH   1  23
HETATM   23  N2  UNL     1     -14.404 -26.488  21.528  1.00  0.00    -0.170 N 
HETATM   24  C1  UNL     1     -13.862 -27.319  22.512  1.00  0.00     0.697 C 
HETATM   25  N1  UNL     1     -14.482 -27.710  23.569  1.00  0.00    -0.233 N 
HETATM   26  N11 UNL     1     -12.516 -27.777  22.348  1.00  0.00    -0.072 N 
ATOM     27  H12 UNL     1     -15.442 -27.383  23.686  1.00  0.00     0.174 HD
ATOM     28  H11 UNL     1     -14.087 -28.317  24.287  1.00  0.00     0.174 HD
ATOM     29  H11 UNL     1     -11.788 -27.138  22.029  1.00  0.00     0.212 HD
ATOM     30  H2  UNL     1     -13.863 -25.667  21.256  1.00  0.00     0.186 HD
BRANCH  26  31
HETATM   31  N12 UNL     1     -12.210 -29.111  22.629  1.00  0.00    -0.024 N 
HETATM   32  O2  UNL     1     -11.896 -29.858  21.682  1.00  0.00    -0.516 OA
HETATM   33  O3  UNL     1     -12.232 -29.654  23.890  1.00  0.00    -0.516 OA
ENDBRANCH  26  31
ENDBRANCH   1  23
TORSDOF 5
ENDMDL
