MODEL 1
REMARK VINA RESULT: -7.624305255      0.000      0.000
REMARK  8 active torsions:
REMARK  status: ('A' for Active; 'I' for Inactive)
REMARK    1  A    between atoms: N1_1  and  C1_4 
REMARK    2  A    between atoms: N3_9  and  N4_10 
REMARK    3  A    between atoms: N4_10  and  N5_12 
REMARK    4  A    between atoms: C4_16  and  N6_17 
REMARK    5  A    between atoms: N6_17  and  C5_19 
REMARK    6  A    between atoms: C5_19  and  O2_20 
REMARK    7  A    between atoms: C5_19  and  S1_22 
REMARK    8  A    between atoms: S1_22  and  N7_23 
ROOT
HETATM    1  C1  UNL     1     -16.259 -26.472  20.694  1.00  0.00     0.131 A 
HETATM    2  N2  UNL     1     -15.632 -25.794  21.677  1.00  0.00    -0.291 N 
ATOM      3  H2  UNL     1     -16.186 -25.306  22.381  1.00  0.00     0.172 HD
HETATM    4  C2  UNL     1     -14.282 -25.749  21.746  1.00  0.00     0.348 A 
HETATM    5  O1  UNL     1     -13.749 -25.101  22.683  1.00  0.00    -0.245 OA
HETATM    6  N3  UNL     1     -13.561 -26.392  20.820  1.00  0.00    -0.200 N 
HETATM    7  C3  UNL     1     -14.174 -27.084  19.821  1.00  0.00     0.156 A 
HETATM    8  C4  UNL     1     -15.546 -27.148  19.722  1.00  0.00     0.093 A 
ENDROOT
BRANCH   8   9
HETATM    9  N6  UNL     1     -16.220 -27.861  18.728  1.00  0.00    -0.346 N 
ATOM     10  H6  UNL     1     -16.772 -28.653  19.056  1.00  0.00     0.163 HD
BRANCH   9  11
HETATM   11  C5  UNL     1     -16.244 -27.640  17.324  1.00  0.00     0.365 C 
BRANCH  11  12
HETATM   12  O2  UNL     1     -17.484 -27.779  16.714  1.00  0.00    -0.362 OA
ATOM     13  H2  UNL     1     -17.529 -27.506  15.805  1.00  0.00     0.213 HD
ENDBRANCH  11  12
BRANCH  11  14
HETATM   14  S1  UNL     1     -15.052 -28.631  16.481  1.00  0.00     0.270 S 
HETATM   15  O3  UNL     1     -13.699 -28.020  16.442  1.00  0.00    -0.202 OA
HETATM   16  O4  UNL     1     -15.533 -28.974  15.075  1.00  0.00    -0.202 OA
BRANCH  14  17
HETATM   17  N7  UNL     1     -14.953 -30.176  17.295  1.00  0.00    -0.325 N 
ATOM     18  H72 UNL     1     -14.653 -30.313  18.261  1.00  0.00     0.168 HD
ATOM     19  H71 UNL     1     -15.244 -30.900  16.640  1.00  0.00     0.168 HD
ENDBRANCH  14  17
ENDBRANCH  11  14
ENDBRANCH   9  11
ENDBRANCH   8   9
BRANCH   1  20
HETATM   20  N1  UNL     1     -17.541 -26.497  20.653  1.00  0.00    -0.383 N 
ATOM     21  H12 UNL     1     -18.016 -27.399  20.638  1.00  0.00     0.157 HD
ATOM     22  H11 UNL     1     -18.066 -25.622  20.637  1.00  0.00     0.157 HD
ENDBRANCH   1  20
BRANCH   6  23
HETATM   23  N4  UNL     1     -12.166 -26.364  20.867  1.00  0.00    -0.239 N 
ATOM     24  H4  UNL     1     -11.646 -27.240  20.917  1.00  0.00     0.208 HD
BRANCH  23  25
HETATM   25  N5  UNL     1     -11.469 -25.141  20.845  1.00  0.00    -0.330 N 
ATOM     26  H52 UNL     1     -11.702 -24.459  20.124  1.00  0.00     0.178 HD
ATOM     27  H51 UNL     1     -10.744 -24.941  21.536  1.00  0.00     0.178 HD
ENDBRANCH  23  25
ENDBRANCH   6  23
TORSDOF 8
ENDMDL
MODEL 2
REMARK VINA RESULT: -7.075028791      2.631      5.594
REMARK  8 active torsions:
REMARK  status: ('A' for Active; 'I' for Inactive)
REMARK    1  A    between atoms: N1_1  and  C1_4 
REMARK    2  A    between atoms: N3_9  and  N4_10 
REMARK    3  A    between atoms: N4_10  and  N5_12 
REMARK    4  A    between atoms: C4_16  and  N6_17 
REMARK    5  A    between atoms: N6_17  and  C5_19 
REMARK    6  A    between atoms: C5_19  and  O2_20 
REMARK    7  A    between atoms: C5_19  and  S1_22 
REMARK    8  A    between atoms: S1_22  and  N7_23 
ROOT
HETATM    1  C1  UNL     1     -15.825 -27.665  18.122  1.00  0.00     0.131 A 
HETATM    2  N2  UNL     1     -16.034 -28.450  17.046  1.00  0.00    -0.291 N 
ATOM      3  H2  UNL     1     -16.988 -28.698  16.785  1.00  0.00     0.172 HD
HETATM    4  C2  UNL     1     -15.001 -28.914  16.305  1.00  0.00     0.348 A 
HETATM    5  O1  UNL     1     -15.253 -29.642  15.312  1.00  0.00    -0.245 OA
HETATM    6  N3  UNL     1     -13.752 -28.583  16.652  1.00  0.00    -0.200 N 
HETATM    7  C3  UNL     1     -13.519 -27.792  17.734  1.00  0.00     0.156 A 
HETATM    8  C4  UNL     1     -14.548 -27.305  18.508  1.00  0.00     0.093 A 
ENDROOT
BRANCH   8   9
HETATM    9  N6  UNL     1     -14.360 -26.473  19.615  1.00  0.00    -0.346 N 
ATOM     10  H6  UNL     1     -14.549 -25.483  19.455  1.00  0.00     0.163 HD
BRANCH   9  11
HETATM   11  C5  UNL     1     -13.942 -26.808  20.931  1.00  0.00     0.365 C 
BRANCH  11  12
HETATM   12  O2  UNL     1     -13.516 -28.117  21.113  1.00  0.00    -0.362 OA
ATOM     13  H2  UNL     1     -13.742 -28.513  21.946  1.00  0.00     0.213 HD
ENDBRANCH  11  12
BRANCH  11  14
HETATM   14  S1  UNL     1     -15.171 -26.411  22.133  1.00  0.00     0.270 S 
HETATM   15  O3  UNL     1     -15.362 -27.470  23.155  1.00  0.00    -0.202 OA
HETATM   16  O4  UNL     1     -16.494 -26.066  21.457  1.00  0.00    -0.202 OA
BRANCH  14  17
HETATM   17  N7  UNL     1     -14.693 -24.931  22.933  1.00  0.00    -0.325 N 
ATOM     18  H72 UNL     1     -13.882 -24.364  22.683  1.00  0.00     0.168 HD
ATOM     19  H71 UNL     1     -15.360 -24.743  23.680  1.00  0.00     0.168 HD
ENDBRANCH  14  17
ENDBRANCH  11  14
ENDBRANCH   9  11
ENDBRANCH   8   9
BRANCH   1  20
HETATM   20  N1  UNL     1     -16.823 -27.240  18.806  1.00  0.00    -0.383 N 
ATOM     21  H12 UNL     1     -17.627 -26.849  18.315  1.00  0.00     0.157 HD
ATOM     22  H11 UNL     1     -16.803 -27.299  19.825  1.00  0.00     0.157 HD
ENDBRANCH   1  20
BRANCH   6  23
HETATM   23  N4  UNL     1     -12.666 -29.047  15.907  1.00  0.00    -0.239 N 
ATOM     24  H4  UNL     1     -11.861 -29.450  16.386  1.00  0.00     0.208 HD
BRANCH  23  25
HETATM   25  N5  UNL     1     -12.668 -28.963  14.501  1.00  0.00    -0.330 N 
ATOM     26  H52 UNL     1     -12.415 -28.077  14.065  1.00  0.00     0.178 HD
ATOM     27  H51 UNL     1     -12.916 -29.771  13.930  1.00  0.00     0.178 HD
ENDBRANCH  23  25
ENDBRANCH   6  23
TORSDOF 8
ENDMDL
MODEL 3
REMARK VINA RESULT: -7.010378158      2.727      5.482
REMARK  8 active torsions:
REMARK  status: ('A' for Active; 'I' for Inactive)
REMARK    1  A    between atoms: N1_1  and  C1_4 
REMARK    2  A    between atoms: N3_9  and  N4_10 
REMARK    3  A    between atoms: N4_10  and  N5_12 
REMARK    4  A    between atoms: C4_16  and  N6_17 
REMARK    5  A    between atoms: N6_17  and  C5_19 
REMARK    6  A    between atoms: C5_19  and  O2_20 
REMARK    7  A    between atoms: C5_19  and  S1_22 
REMARK    8  A    between atoms: S1_22  and  N7_23 
ROOT
HETATM    1  C1  UNL     1     -14.104 -28.234  16.610  1.00  0.00     0.131 A 
HETATM    2  N2  UNL     1     -15.420 -28.284  16.320  1.00  0.00    -0.291 N 
ATOM      3  H2  UNL     1     -15.725 -28.727  15.453  1.00  0.00     0.172 HD
HETATM    4  C2  UNL     1     -16.342 -27.758  17.157  1.00  0.00     0.348 A 
HETATM    5  O1  UNL     1     -17.556 -27.832  16.838  1.00  0.00    -0.245 OA
HETATM    6  N3  UNL     1     -15.935 -27.180  18.293  1.00  0.00    -0.200 N 
HETATM    7  C3  UNL     1     -14.612 -27.119  18.605  1.00  0.00     0.156 A 
HETATM    8  C4  UNL     1     -13.649 -27.644  17.773  1.00  0.00     0.093 A 
ENDROOT
BRANCH   8   9
HETATM    9  N6  UNL     1     -12.281 -27.625  18.060  1.00  0.00    -0.346 N 
ATOM     10  H6  UNL     1     -11.745 -26.902  17.581  1.00  0.00     0.163 HD
BRANCH   9  11
HETATM   11  C5  UNL     1     -11.532 -28.468  18.925  1.00  0.00     0.365 C 
BRANCH  11  12
HETATM   12  O2  UNL     1     -11.865 -29.816  18.889  1.00  0.00    -0.362 OA
ATOM     13  H2  UNL     1     -12.747 -30.016  18.599  1.00  0.00     0.213 HD
ENDBRANCH  11  12
BRANCH  11  14
HETATM   14  S1  UNL     1     -11.561 -27.893  20.593  1.00  0.00     0.270 S 
HETATM   15  O3  UNL     1     -10.333 -28.231  21.355  1.00  0.00    -0.202 OA
HETATM   16  O4  UNL     1     -12.805 -28.400  21.316  1.00  0.00    -0.202 OA
BRANCH  14  17
HETATM   17  N7  UNL     1     -11.752 -26.155  20.567  1.00  0.00    -0.325 N 
ATOM     18  H72 UNL     1     -11.710 -25.571  19.731  1.00  0.00     0.168 HD
ATOM     19  H71 UNL     1     -11.911 -25.837  21.523  1.00  0.00     0.168 HD
ENDBRANCH  14  17
ENDBRANCH  11  14
ENDBRANCH   9  11
ENDBRANCH   8   9
BRANCH   1  20
HETATM   20  N1  UNL     1     -13.251 -28.741  15.796  1.00  0.00    -0.383 N 
ATOM     21  H12 UNL     1     -12.381 -28.239  15.618  1.00  0.00     0.157 HD
ATOM     22  H11 UNL     1     -13.451 -29.632  15.341  1.00  0.00     0.157 HD
ENDBRANCH   1  20
BRANCH   6  23
HETATM   23  N4  UNL     1     -16.864 -26.628  19.178  1.00  0.00    -0.239 N 
ATOM     24  H4  UNL     1     -17.129 -25.648  19.084  1.00  0.00     0.208 HD
BRANCH  23  25
HETATM   25  N5  UNL     1     -17.441 -27.409  20.198  1.00  0.00    -0.330 N 
ATOM     26  H52 UNL     1     -17.159 -28.386  20.283  1.00  0.00     0.178 HD
ATOM     27  H51 UNL     1     -18.125 -27.008  20.839  1.00  0.00     0.178 HD
ENDBRANCH  23  25
ENDBRANCH   6  23
TORSDOF 8
ENDMDL
MODEL 4
REMARK VINA RESULT: -6.985509868      2.786      5.423
REMARK  8 active torsions:
REMARK  status: ('A' for Active; 'I' for Inactive)
REMARK    1  A    between atoms: N1_1  and  C1_4 
REMARK    2  A    between atoms: N3_9  and  N4_10 
REMARK    3  A    between atoms: N4_10  and  N5_12 
REMARK    4  A    between atoms: C4_16  and  N6_17 
REMARK    5  A    between atoms: N6_17  and  C5_19 
REMARK    6  A    between atoms: C5_19  and  O2_20 
REMARK    7  A    between atoms: C5_19  and  S1_22 
REMARK    8  A    between atoms: S1_22  and  N7_23 
ROOT
HETATM    1  C1  UNL     1     -14.292 -28.174  16.625  1.00  0.00     0.131 A 
HETATM    2  N2  UNL     1     -15.600 -28.202  16.299  1.00  0.00    -0.291 N 
ATOM      3  H2  UNL     1     -15.888 -28.623  15.415  1.00  0.00     0.172 HD
HETATM    4  C2  UNL     1     -16.539 -27.680  17.122  1.00  0.00     0.348 A 
HETATM    5  O1  UNL     1     -17.745 -27.732  16.769  1.00  0.00    -0.245 OA
HETATM    6  N3  UNL     1     -16.155 -27.130  18.280  1.00  0.00    -0.200 N 
HETATM    7  C3  UNL     1     -14.841 -27.093  18.628  1.00  0.00     0.156 A 
HETATM    8  C4  UNL     1     -13.861 -27.614  17.812  1.00  0.00     0.093 A 
ENDROOT
BRANCH   8   9
HETATM    9  N6  UNL     1     -12.502 -27.618  18.136  1.00  0.00    -0.346 N 
ATOM     10  H6  UNL     1     -11.995 -26.765  17.902  1.00  0.00     0.163 HD
BRANCH   9  11
HETATM   11  C5  UNL     1     -11.727 -28.641  18.745  1.00  0.00     0.365 C 
BRANCH  11  12
HETATM   12  O2  UNL     1     -12.138 -29.942  18.490  1.00  0.00    -0.362 OA
ATOM     13  H2  UNL     1     -11.793 -30.607  19.075  1.00  0.00     0.213 HD
ENDBRANCH  11  12
BRANCH  11  14
HETATM   14  S1  UNL     1     -11.568 -28.398  20.486  1.00  0.00     0.270 S 
HETATM   15  O3  UNL     1     -12.859 -28.484  21.214  1.00  0.00    -0.202 OA
HETATM   16  O4  UNL     1     -10.866 -27.077  20.783  1.00  0.00    -0.202 OA
BRANCH  14  17
HETATM   17  N7  UNL     1     -10.481 -29.618  21.110  1.00  0.00    -0.325 N 
ATOM     18  H72 UNL     1     -10.505 -30.607  20.863  1.00  0.00     0.168 HD
ATOM     19  H71 UNL     1      -9.833 -29.166  21.755  1.00  0.00     0.168 HD
ENDBRANCH  14  17
ENDBRANCH  11  14
ENDBRANCH   9  11
ENDBRANCH   8   9
BRANCH   1  20
HETATM   20  N1  UNL     1     -13.424 -28.676  15.824  1.00  0.00    -0.383 N 
ATOM     21  H12 UNL     1     -12.437 -28.631  16.077  1.00  0.00     0.157 HD
ATOM     22  H11 UNL     1     -13.729 -29.110  14.953  1.00  0.00     0.157 HD
ENDBRANCH   1  20
BRANCH   6  23
HETATM   23  N4  UNL     1     -17.101 -26.584  19.150  1.00  0.00    -0.239 N 
ATOM     24  H4  UNL     1     -17.546 -25.696  18.918  1.00  0.00     0.208 HD
BRANCH  23  25
HETATM   25  N5  UNL     1     -17.449 -27.245  20.344  1.00  0.00    -0.330 N 
ATOM     26  H52 UNL     1     -16.979 -26.972  21.207  1.00  0.00     0.178 HD
ATOM     27  H51 UNL     1     -18.155 -27.981  20.347  1.00  0.00     0.178 HD
ENDBRANCH  23  25
ENDBRANCH   6  23
TORSDOF 8
ENDMDL
MODEL 5
REMARK VINA RESULT: -6.753407164      2.792      5.620
REMARK  8 active torsions:
REMARK  status: ('A' for Active; 'I' for Inactive)
REMARK    1  A    between atoms: N1_1  and  C1_4 
REMARK    2  A    between atoms: N3_9  and  N4_10 
REMARK    3  A    between atoms: N4_10  and  N5_12 
REMARK    4  A    between atoms: C4_16  and  N6_17 
REMARK    5  A    between atoms: N6_17  and  C5_19 
REMARK    6  A    between atoms: C5_19  and  O2_20 
REMARK    7  A    between atoms: C5_19  and  S1_22 
REMARK    8  A    between atoms: S1_22  and  N7_23 
ROOT
HETATM    1  C1  UNL     1     -14.144 -28.495  17.003  1.00  0.00     0.131 A 
HETATM    2  N2  UNL     1     -15.393 -28.387  16.507  1.00  0.00    -0.291 N 
ATOM      3  H2  UNL     1     -15.603 -28.774  15.587  1.00  0.00     0.172 HD
HETATM    4  C2  UNL     1     -16.374 -27.774  17.208  1.00  0.00     0.348 A 
HETATM    5  O1  UNL     1     -17.522 -27.701  16.699  1.00  0.00    -0.245 OA
HETATM    6  N3  UNL     1     -16.094 -27.270  18.416  1.00  0.00    -0.200 N 
HETATM    7  C3  UNL     1     -14.840 -27.369  18.934  1.00  0.00     0.156 A 
HETATM    8  C4  UNL     1     -13.819 -27.985  18.245  1.00  0.00     0.093 A 
ENDROOT
BRANCH   8   9
HETATM    9  N6  UNL     1     -12.522 -28.130  18.744  1.00  0.00    -0.346 N 
ATOM     10  H6  UNL     1     -11.962 -28.857  18.301  1.00  0.00     0.163 HD
BRANCH   9  11
HETATM   11  C5  UNL     1     -11.873 -27.408  19.782  1.00  0.00     0.365 C 
BRANCH  11  12
HETATM   12  O2  UNL     1     -10.634 -26.872  19.460  1.00  0.00    -0.362 OA
ATOM     13  H2  UNL     1     -10.520 -25.949  19.652  1.00  0.00     0.213 HD
ENDBRANCH  11  12
BRANCH  11  14
HETATM   14  S1  UNL     1     -11.744 -28.359  21.263  1.00  0.00     0.270 S 
HETATM   15  O3  UNL     1     -13.045 -28.565  21.947  1.00  0.00    -0.202 OA
HETATM   16  O4  UNL     1     -10.724 -27.739  22.214  1.00  0.00    -0.202 OA
BRANCH  14  17
HETATM   17  N7  UNL     1     -11.065 -29.917  20.853  1.00  0.00    -0.325 N 
ATOM     18  H72 UNL     1     -10.631 -30.152  19.961  1.00  0.00     0.168 HD
ATOM     19  H71 UNL     1     -11.182 -30.536  21.655  1.00  0.00     0.168 HD
ENDBRANCH  14  17
ENDBRANCH  11  14
ENDBRANCH   9  11
ENDBRANCH   8   9
BRANCH   1  20
HETATM   20  N1  UNL     1     -13.233 -29.081  16.315  1.00  0.00    -0.383 N 
ATOM     21  H12 UNL     1     -13.008 -28.721  15.387  1.00  0.00     0.157 HD
ATOM     22  H11 UNL     1     -12.748 -29.891  16.700  1.00  0.00     0.157 HD
ENDBRANCH   1  20
BRANCH   6  23
HETATM   23  N4  UNL     1     -17.086 -26.632  19.163  1.00  0.00    -0.239 N 
ATOM     24  H4  UNL     1     -17.482 -25.754  18.829  1.00  0.00     0.208 HD
BRANCH  23  25
HETATM   25  N5  UNL     1     -17.547 -27.187  20.372  1.00  0.00    -0.330 N 
ATOM     26  H52 UNL     1     -16.944 -27.843  20.869  1.00  0.00     0.178 HD
ATOM     27  H51 UNL     1     -18.463 -26.939  20.745  1.00  0.00     0.178 HD
ENDBRANCH  23  25
ENDBRANCH   6  23
TORSDOF 8
ENDMDL
