MODEL 1
REMARK VINA RESULT: -10.449016852      0.000      0.000
REMARK  7 active torsions:
REMARK  status: ('A' for Active; 'I' for Inactive)
REMARK    1  A    between atoms: C4_4  and  C5_5 
REMARK    2  A    between atoms: C5_5  and  C6_6 
REMARK    3  A    between atoms: C19_21  and  O3_22 
REMARK    4  A    between atoms: C20_24  and  C21_25 
REMARK    5  A    between atoms: C21_25  and  C22_26 
REMARK    6  A    between atoms: C22_26  and  C23_27 
REMARK    7  A    between atoms: C23_27  and  C24_28 
ROOT
HETATM    1  C6  UNL     1     -23.792   6.640 -43.565  1.00  0.00    -0.062 C 
HETATM    2  C7  UNL     1     -24.095   7.491 -44.516  1.00  0.00    -0.022 C 
HETATM    3  C8  UNL     1     -23.816   8.884 -44.102  1.00  0.00     0.037 C 
HETATM    4  C9  UNL     1     -23.105   8.844 -42.806  1.00  0.00     0.054 C 
HETATM    5  C10 UNL     1     -23.292   7.395 -42.398  1.00  0.00     0.075 C 
HETATM    6  C11 UNL     1     -22.008   6.852 -41.835  1.00  0.00     0.031 C 
HETATM    7  C12 UNL     1     -24.426   7.364 -41.421  1.00  0.00     0.272 C 
HETATM    8  O1  UNL     1     -24.529   6.478 -40.536  1.00  0.00    -0.264 OA
HETATM    9  O2  UNL     1     -25.377   8.369 -41.533  1.00  0.00    -0.312 OA
HETATM   10  C13 UNL     1     -25.020   9.763 -41.518  1.00  0.00     0.172 C 
HETATM   11  C14 UNL     1     -25.274  10.251 -40.117  1.00  0.00     0.036 C 
HETATM   12  C15 UNL     1     -24.298  11.219 -39.571  1.00  0.00     0.008 C 
HETATM   13  C16 UNL     1     -23.586  11.984 -40.643  1.00  0.00     0.006 C 
HETATM   14  C17 UNL     1     -22.537  12.904 -40.135  1.00  0.00     0.016 C 
HETATM   15  C18 UNL     1     -21.674  12.274 -39.057  1.00  0.00     0.013 C 
HETATM   16  C19 UNL     1     -21.636  13.399 -41.198  1.00  0.00     0.133 C 
HETATM   17  C20 UNL     1     -22.132  13.312 -42.622  1.00  0.00     0.085 C 
HETATM   18  C29 UNL     1     -22.886  12.028 -42.857  1.00  0.00     0.141 C 
HETATM   19  O4  UNL     1     -23.351  11.914 -43.951  1.00  0.00    -0.297 OA
HETATM   20  C30 UNL     1     -22.928  11.130 -41.711  1.00  0.00     0.103 C 
HETATM   21  C31 UNL     1     -23.520   9.801 -41.752  1.00  0.00     0.146 C 
HETATM   22  F1  UNL     1     -23.038   9.227 -40.537  1.00  0.00    -0.239 F 
ENDROOT
BRANCH  17  23
HETATM   23  C21 UNL     1     -22.884  14.558 -42.948  1.00  0.00     0.015 C 
BRANCH  23  24
HETATM   24  C22 UNL     1     -22.299  15.868 -42.608  1.00  0.00     0.005 C 
BRANCH  24  25
HETATM   25  C23 UNL     1     -23.079  17.075 -43.024  1.00  0.00     0.038 C 
BRANCH  25  26
HETATM   26  C24 UNL     1     -22.307  18.334 -42.987  1.00  0.00    -0.056 A 
HETATM   27  C25 UNL     1     -22.654  19.427 -43.783  1.00  0.00     0.024 A 
HETATM   28  C26 UNL     1     -21.903  20.576 -43.724  1.00  0.00     0.088 A 
HETATM   29  N1  UNL     1     -20.835  20.703 -42.927  1.00  0.00    -0.375 N 
HETATM   30  C27 UNL     1     -20.507  19.664 -42.172  1.00  0.00     0.088 A 
ATOM     31  H1  UNL     1     -20.294  21.567 -42.902  1.00  0.00     0.164 HD
HETATM   32  C28 UNL     1     -21.223  18.473 -42.183  1.00  0.00     0.024 A 
ENDBRANCH  25  26
ENDBRANCH  24  25
ENDBRANCH  23  24
ENDBRANCH  17  23
BRANCH  16  33
HETATM   33  O3  UNL     1     -20.340  12.890 -41.125  1.00  0.00    -0.394 OA
ATOM     34  H3  UNL     1     -19.701  13.509 -40.795  1.00  0.00     0.210 HD
ENDBRANCH  16  33
BRANCH   1  35
HETATM   35  C5  UNL     1     -23.974   5.197 -43.718  1.00  0.00     0.062 C 
BRANCH  35  36
HETATM   36  C4  UNL     1     -23.431   4.584 -44.944  1.00  0.00    -0.020 C 
HETATM   37  C2  UNL     1     -24.127   3.757 -45.714  1.00  0.00    -0.091 C 
HETATM   38  C1  UNL     1     -25.535   3.383 -45.386  1.00  0.00     0.042 C 
HETATM   39  C3  UNL     1     -23.470   3.204 -46.924  1.00  0.00     0.042 C 
ENDBRANCH  35  36
ENDBRANCH   1  35
TORSDOF 7
ENDMDL
MODEL 2
REMARK VINA RESULT: -10.373095197      2.150      3.308
REMARK  7 active torsions:
REMARK  status: ('A' for Active; 'I' for Inactive)
REMARK    1  A    between atoms: C4_4  and  C5_5 
REMARK    2  A    between atoms: C5_5  and  C6_6 
REMARK    3  A    between atoms: C19_21  and  O3_22 
REMARK    4  A    between atoms: C20_24  and  C21_25 
REMARK    5  A    between atoms: C21_25  and  C22_26 
REMARK    6  A    between atoms: C22_26  and  C23_27 
REMARK    7  A    between atoms: C23_27  and  C24_28 
ROOT
HETATM    1  C6  UNL     1     -22.527   4.852 -46.136  1.00  0.00    -0.062 C 
HETATM    2  C7  UNL     1     -23.386   5.671 -46.694  1.00  0.00    -0.022 C 
HETATM    3  C8  UNL     1     -23.478   6.946 -45.948  1.00  0.00     0.037 C 
HETATM    4  C9  UNL     1     -22.422   6.949 -44.912  1.00  0.00     0.054 C 
HETATM    5  C10 UNL     1     -21.968   5.501 -44.932  1.00  0.00     0.075 C 
HETATM    6  C11 UNL     1     -20.468   5.435 -44.855  1.00  0.00     0.031 C 
HETATM    7  C12 UNL     1     -22.651   4.818 -43.790  1.00  0.00     0.272 C 
HETATM    8  O1  UNL     1     -22.161   3.813 -43.215  1.00  0.00    -0.264 OA
HETATM    9  O2  UNL     1     -23.869   5.345 -43.382  1.00  0.00    -0.312 OA
HETATM   10  C13 UNL     1     -24.020   6.731 -43.023  1.00  0.00     0.172 C 
HETATM   11  C14 UNL     1     -23.964   6.788 -41.519  1.00  0.00     0.036 C 
HETATM   12  C15 UNL     1     -23.253   7.943 -40.932  1.00  0.00     0.008 C 
HETATM   13  C16 UNL     1     -23.222   9.126 -41.848  1.00  0.00     0.006 C 
HETATM   14  C17 UNL     1     -22.442  10.278 -41.326  1.00  0.00     0.016 C 
HETATM   15  C18 UNL     1     -21.122   9.859 -40.704  1.00  0.00     0.013 C 
HETATM   16  C19 UNL     1     -22.150  11.295 -42.358  1.00  0.00     0.133 C 
HETATM   17  C20 UNL     1     -23.012  11.292 -43.598  1.00  0.00     0.085 C 
HETATM   18  C29 UNL     1     -23.321   9.885 -44.042  1.00  0.00     0.141 C 
HETATM   19  O4  UNL     1     -24.041   9.806 -44.990  1.00  0.00    -0.297 OA
HETATM   20  C30 UNL     1     -22.690   8.844 -43.241  1.00  0.00     0.103 C 
HETATM   21  C31 UNL     1     -22.779   7.426 -43.554  1.00  0.00     0.146 C 
HETATM   22  F1  UNL     1     -21.771   6.874 -42.705  1.00  0.00    -0.239 F 
ENDROOT
BRANCH  17  23
HETATM   23  C21 UNL     1     -24.204  12.158 -43.359  1.00  0.00     0.015 C 
BRANCH  23  24
HETATM   24  C22 UNL     1     -24.039  13.434 -42.640  1.00  0.00     0.005 C 
BRANCH  24  25
HETATM   25  C23 UNL     1     -23.284  14.509 -43.354  1.00  0.00     0.038 C 
BRANCH  25  26
HETATM   26  C24 UNL     1     -22.413  15.319 -42.477  1.00  0.00    -0.056 A 
HETATM   27  C25 UNL     1     -21.650  14.733 -41.465  1.00  0.00     0.024 A 
HETATM   28  C26 UNL     1     -20.860  15.524 -40.665  1.00  0.00     0.088 A 
HETATM   29  N1  UNL     1     -20.784  16.853 -40.810  1.00  0.00    -0.375 N 
HETATM   30  C27 UNL     1     -21.509  17.406 -41.772  1.00  0.00     0.088 A 
ATOM     31  H1  UNL     1     -20.191  17.417 -40.203  1.00  0.00     0.164 HD
HETATM   32  C28 UNL     1     -22.328  16.665 -42.615  1.00  0.00     0.024 A 
ENDBRANCH  25  26
ENDBRANCH  24  25
ENDBRANCH  23  24
ENDBRANCH  17  23
BRANCH  16  33
HETATM   33  O3  UNL     1     -20.807  11.359 -42.727  1.00  0.00    -0.394 OA
ATOM     34  H3  UNL     1     -20.636  11.932 -43.464  1.00  0.00     0.210 HD
ENDBRANCH  16  33
BRANCH   1  35
HETATM   35  C5  UNL     1     -22.249   3.522 -46.676  1.00  0.00     0.062 C 
BRANCH  35  36
HETATM   36  C4  UNL     1     -23.218   2.981 -47.646  1.00  0.00    -0.020 C 
HETATM   37  C2  UNL     1     -24.256   2.232 -47.299  1.00  0.00    -0.091 C 
HETATM   38  C1  UNL     1     -24.521   1.878 -45.871  1.00  0.00     0.042 C 
HETATM   39  C3  UNL     1     -25.162   1.746 -48.369  1.00  0.00     0.042 C 
ENDBRANCH  35  36
ENDBRANCH   1  35
TORSDOF 7
ENDMDL
MODEL 3
REMARK VINA RESULT: -10.356857210      2.025      2.985
REMARK  7 active torsions:
REMARK  status: ('A' for Active; 'I' for Inactive)
REMARK    1  A    between atoms: C4_4  and  C5_5 
REMARK    2  A    between atoms: C5_5  and  C6_6 
REMARK    3  A    between atoms: C19_21  and  O3_22 
REMARK    4  A    between atoms: C20_24  and  C21_25 
REMARK    5  A    between atoms: C21_25  and  C22_26 
REMARK    6  A    between atoms: C22_26  and  C23_27 
REMARK    7  A    between atoms: C23_27  and  C24_28 
ROOT
HETATM    1  C6  UNL     1     -22.888   5.037 -45.802  1.00  0.00    -0.062 C 
HETATM    2  C7  UNL     1     -23.741   5.878 -46.338  1.00  0.00    -0.022 C 
HETATM    3  C8  UNL     1     -23.711   7.187 -45.650  1.00  0.00     0.037 C 
HETATM    4  C9  UNL     1     -22.584   7.177 -44.691  1.00  0.00     0.054 C 
HETATM    5  C10 UNL     1     -22.210   5.707 -44.673  1.00  0.00     0.075 C 
HETATM    6  C11 UNL     1     -20.713   5.560 -44.698  1.00  0.00     0.031 C 
HETATM    7  C12 UNL     1     -22.843   5.115 -43.454  1.00  0.00     0.272 C 
HETATM    8  O1  UNL     1     -22.366   4.110 -42.867  1.00  0.00    -0.264 OA
HETATM    9  O2  UNL     1     -23.999   5.726 -42.988  1.00  0.00    -0.312 OA
HETATM   10  C13 UNL     1     -24.049   7.133 -42.686  1.00  0.00     0.172 C 
HETATM   11  C14 UNL     1     -23.882   7.253 -41.195  1.00  0.00     0.036 C 
HETATM   12  C15 UNL     1     -23.070   8.392 -40.715  1.00  0.00     0.008 C 
HETATM   13  C16 UNL     1     -23.044   9.529 -41.687  1.00  0.00     0.006 C 
HETATM   14  C17 UNL     1     -22.168  10.657 -41.277  1.00  0.00     0.016 C 
HETATM   15  C18 UNL     1     -20.830  10.194 -40.730  1.00  0.00     0.013 C 
HETATM   16  C19 UNL     1     -21.899  11.610 -42.375  1.00  0.00     0.133 C 
HETATM   17  C20 UNL     1     -22.848  11.601 -43.549  1.00  0.00     0.085 C 
HETATM   18  C29 UNL     1     -23.262  10.195 -43.902  1.00  0.00     0.141 C 
HETATM   19  O4  UNL     1     -24.052  10.114 -44.793  1.00  0.00    -0.297 OA
HETATM   20  C30 UNL     1     -22.630   9.157 -43.099  1.00  0.00     0.103 C 
HETATM   21  C31 UNL     1     -22.815   7.733 -43.336  1.00  0.00     0.146 C 
HETATM   22  F1  UNL     1     -21.779   7.164 -42.534  1.00  0.00    -0.239 F 
ENDROOT
BRANCH  17  23
HETATM   23  C21 UNL     1     -23.971  12.541 -43.270  1.00  0.00     0.015 C 
BRANCH  23  24
HETATM   24  C22 UNL     1     -23.713  13.768 -42.494  1.00  0.00     0.005 C 
BRANCH  24  25
HETATM   25  C23 UNL     1     -22.865  14.808 -43.155  1.00  0.00     0.038 C 
BRANCH  25  26
HETATM   26  C24 UNL     1     -22.074  15.628 -42.214  1.00  0.00    -0.056 A 
HETATM   27  C25 UNL     1     -21.983  17.014 -42.353  1.00  0.00     0.024 A 
HETATM   28  C26 UNL     1     -21.228  17.738 -41.461  1.00  0.00     0.088 A 
HETATM   29  N1  UNL     1     -20.564  17.170 -40.446  1.00  0.00    -0.375 N 
HETATM   30  C27 UNL     1     -20.653  15.854 -40.316  1.00  0.00     0.088 A 
ATOM     31  H1  UNL     1     -20.011  17.730 -39.798  1.00  0.00     0.164 HD
HETATM   32  C28 UNL     1     -21.397  15.063 -41.183  1.00  0.00     0.024 A 
ENDBRANCH  25  26
ENDBRANCH  24  25
ENDBRANCH  23  24
ENDBRANCH  17  23
BRANCH  16  33
HETATM   33  O3  UNL     1     -20.584  11.582 -42.839  1.00  0.00    -0.394 OA
ATOM     34  H3  UNL     1     -20.264  12.424 -43.140  1.00  0.00     0.210 HD
ENDBRANCH  16  33
BRANCH   1  35
HETATM   35  C5  UNL     1     -22.720   3.671 -46.296  1.00  0.00     0.062 C 
BRANCH  35  36
HETATM   36  C4  UNL     1     -23.949   2.898 -46.548  1.00  0.00    -0.020 C 
HETATM   37  C2  UNL     1     -24.192   2.265 -47.688  1.00  0.00    -0.091 C 
HETATM   38  C1  UNL     1     -23.215   2.292 -48.818  1.00  0.00     0.042 C 
HETATM   39  C3  UNL     1     -25.468   1.519 -47.821  1.00  0.00     0.042 C 
ENDBRANCH  35  36
ENDBRANCH   1  35
TORSDOF 7
ENDMDL
MODEL 4
REMARK VINA RESULT: -10.145658063      2.128      3.264
REMARK  7 active torsions:
REMARK  status: ('A' for Active; 'I' for Inactive)
REMARK    1  A    between atoms: C4_4  and  C5_5 
REMARK    2  A    between atoms: C5_5  and  C6_6 
REMARK    3  A    between atoms: C19_21  and  O3_22 
REMARK    4  A    between atoms: C20_24  and  C21_25 
REMARK    5  A    between atoms: C21_25  and  C22_26 
REMARK    6  A    between atoms: C22_26  and  C23_27 
REMARK    7  A    between atoms: C23_27  and  C24_28 
ROOT
HETATM    1  C6  UNL     1     -22.708   5.132 -46.036  1.00  0.00    -0.062 C 
HETATM    2  C7  UNL     1     -23.574   5.972 -46.550  1.00  0.00    -0.022 C 
HETATM    3  C8  UNL     1     -23.590   7.252 -45.809  1.00  0.00     0.037 C 
HETATM    4  C9  UNL     1     -22.478   7.231 -44.832  1.00  0.00     0.054 C 
HETATM    5  C10 UNL     1     -22.066   5.771 -44.869  1.00  0.00     0.075 C 
HETATM    6  C11 UNL     1     -20.566   5.664 -44.875  1.00  0.00     0.031 C 
HETATM    7  C12 UNL     1     -22.702   5.112 -43.686  1.00  0.00     0.272 C 
HETATM    8  O1  UNL     1     -22.208   4.097 -43.134  1.00  0.00    -0.264 OA
HETATM    9  O2  UNL     1     -23.881   5.674 -43.214  1.00  0.00    -0.312 OA
HETATM   10  C13 UNL     1     -23.973   7.065 -42.856  1.00  0.00     0.172 C 
HETATM   11  C14 UNL     1     -23.832   7.127 -41.358  1.00  0.00     0.036 C 
HETATM   12  C15 UNL     1     -23.059   8.265 -40.818  1.00  0.00     0.008 C 
HETATM   13  C16 UNL     1     -23.047   9.443 -41.742  1.00  0.00     0.006 C 
HETATM   14  C17 UNL     1     -22.208  10.575 -41.271  1.00  0.00     0.016 C 
HETATM   15  C18 UNL     1     -20.867  10.124 -40.721  1.00  0.00     0.013 C 
HETATM   16  C19 UNL     1     -21.947  11.579 -42.324  1.00  0.00     0.133 C 
HETATM   17  C20 UNL     1     -22.877  11.594 -43.513  1.00  0.00     0.085 C 
HETATM   18  C29 UNL     1     -23.248  10.194 -43.931  1.00  0.00     0.141 C 
HETATM   19  O4  UNL     1     -24.022  10.131 -44.837  1.00  0.00    -0.297 OA
HETATM   20  C30 UNL     1     -22.602   9.140 -43.161  1.00  0.00     0.103 C 
HETATM   21  C31 UNL     1     -22.746   7.723 -43.460  1.00  0.00     0.146 C 
HETATM   22  F1  UNL     1     -21.708   7.149 -42.665  1.00  0.00    -0.239 F 
ENDROOT
BRANCH  17  23
HETATM   23  C21 UNL     1     -24.029  12.493 -43.214  1.00  0.00     0.015 C 
BRANCH  23  24
HETATM   24  C22 UNL     1     -23.789  13.773 -42.522  1.00  0.00     0.005 C 
BRANCH  24  25
HETATM   25  C23 UNL     1     -22.840  14.721 -43.185  1.00  0.00     0.038 C 
BRANCH  25  26
HETATM   26  C24 UNL     1     -22.067  15.557 -42.243  1.00  0.00    -0.056 A 
HETATM   27  C25 UNL     1     -22.003  16.944 -42.383  1.00  0.00     0.024 A 
HETATM   28  C26 UNL     1     -21.265  17.684 -41.490  1.00  0.00     0.088 A 
HETATM   29  N1  UNL     1     -20.591  17.130 -40.474  1.00  0.00    -0.375 N 
HETATM   30  C27 UNL     1     -20.653  15.813 -40.344  1.00  0.00     0.088 A 
ATOM     31  H1  UNL     1     -20.050  17.701 -39.825  1.00  0.00     0.164 HD
HETATM   32  C28 UNL     1     -21.381  15.007 -41.211  1.00  0.00     0.024 A 
ENDBRANCH  25  26
ENDBRANCH  24  25
ENDBRANCH  23  24
ENDBRANCH  17  23
BRANCH  16  33
HETATM   33  O3  UNL     1     -20.625  11.604 -42.767  1.00  0.00    -0.394 OA
ATOM     34  H3  UNL     1     -20.356  10.817 -43.225  1.00  0.00     0.210 HD
ENDBRANCH  16  33
BRANCH   1  35
HETATM   35  C5  UNL     1     -22.496   3.792 -46.582  1.00  0.00     0.062 C 
BRANCH  35  36
HETATM   36  C4  UNL     1     -22.318   3.689 -48.042  1.00  0.00    -0.020 C 
HETATM   37  C2  UNL     1     -21.141   3.490 -48.621  1.00  0.00    -0.091 C 
HETATM   38  C1  UNL     1     -19.890   3.354 -47.817  1.00  0.00     0.042 C 
HETATM   39  C3  UNL     1     -21.091   3.404 -50.102  1.00  0.00     0.042 C 
ENDBRANCH  35  36
ENDBRANCH   1  35
TORSDOF 7
ENDMDL
MODEL 5
REMARK VINA RESULT: -10.088648652      1.131      1.373
REMARK  7 active torsions:
REMARK  status: ('A' for Active; 'I' for Inactive)
REMARK    1  A    between atoms: C4_4  and  C5_5 
REMARK    2  A    between atoms: C5_5  and  C6_6 
REMARK    3  A    between atoms: C19_21  and  O3_22 
REMARK    4  A    between atoms: C20_24  and  C21_25 
REMARK    5  A    between atoms: C21_25  and  C22_26 
REMARK    6  A    between atoms: C22_26  and  C23_27 
REMARK    7  A    between atoms: C23_27  and  C24_28 
ROOT
HETATM    1  C6  UNL     1     -22.423   7.436 -45.162  1.00  0.00    -0.062 C 
HETATM    2  C7  UNL     1     -22.536   8.532 -45.873  1.00  0.00    -0.022 C 
HETATM    3  C8  UNL     1     -22.572   9.733 -45.010  1.00  0.00     0.037 C 
HETATM    4  C9  UNL     1     -22.281   9.311 -43.623  1.00  0.00     0.054 C 
HETATM    5  C10 UNL     1     -22.394   7.801 -43.731  1.00  0.00     0.075 C 
HETATM    6  C11 UNL     1     -21.277   7.148 -42.966  1.00  0.00     0.031 C 
HETATM    7  C12 UNL     1     -23.753   7.434 -43.225  1.00  0.00     0.272 C 
HETATM    8  O1  UNL     1     -24.001   6.312 -42.714  1.00  0.00    -0.264 OA
HETATM    9  O2  UNL     1     -24.748   8.394 -43.344  1.00  0.00    -0.312 OA
HETATM   10  C13 UNL     1     -24.593   9.724 -42.815  1.00  0.00     0.172 C 
HETATM   11  C14 UNL     1     -25.312   9.742 -41.493  1.00  0.00     0.036 C 
HETATM   12  C15 UNL     1     -24.675  10.518 -40.408  1.00  0.00     0.008 C 
HETATM   13  C16 UNL     1     -23.780  11.601 -40.926  1.00  0.00     0.006 C 
HETATM   14  C17 UNL     1     -23.055  12.347 -39.865  1.00  0.00     0.016 C 
HETATM   15  C18 UNL     1     -22.479  11.437 -38.795  1.00  0.00     0.013 C 
HETATM   16  C19 UNL     1     -21.950  13.176 -40.392  1.00  0.00     0.133 C 
HETATM   17  C20 UNL     1     -21.984  13.524 -41.861  1.00  0.00     0.085 C 
HETATM   18  C29 UNL     1     -22.464  12.356 -42.685  1.00  0.00     0.141 C 
HETATM   19  O4  UNL     1     -22.564  12.576 -43.854  1.00  0.00    -0.297 OA
HETATM   20  C30 UNL     1     -22.730  11.144 -41.922  1.00  0.00     0.103 C 
HETATM   21  C31 UNL     1     -23.109   9.878 -42.532  1.00  0.00     0.146 C 
HETATM   22  F1  UNL     1     -22.942   8.967 -41.445  1.00  0.00    -0.239 F 
ENDROOT
BRANCH  17  23
HETATM   23  C21 UNL     1     -22.758  14.787 -42.040  1.00  0.00     0.015 C 
BRANCH  23  24
HETATM   24  C22 UNL     1     -22.185  15.878 -42.849  1.00  0.00     0.005 C 
BRANCH  24  25
HETATM   25  C23 UNL     1     -22.923  17.179 -42.831  1.00  0.00     0.038 C 
BRANCH  25  26
HETATM   26  C24 UNL     1     -22.049  18.368 -42.752  1.00  0.00    -0.056 A 
HETATM   27  C25 UNL     1     -22.251  19.477 -43.575  1.00  0.00     0.024 A 
HETATM   28  C26 UNL     1     -21.409  20.559 -43.476  1.00  0.00     0.088 A 
HETATM   29  N1  UNL     1     -20.385  20.603 -42.614  1.00  0.00    -0.375 N 
HETATM   30  C27 UNL     1     -20.196  19.548 -41.834  1.00  0.00     0.088 A 
ATOM     31  H1  UNL     1     -19.774  21.417 -42.560  1.00  0.00     0.164 HD
HETATM   32  C28 UNL     1     -21.010  18.423 -41.883  1.00  0.00     0.024 A 
ENDBRANCH  25  26
ENDBRANCH  24  25
ENDBRANCH  23  24
ENDBRANCH  17  23
BRANCH  16  33
HETATM   33  O3  UNL     1     -20.681  12.708 -40.055  1.00  0.00    -0.394 OA
ATOM     34  H3  UNL     1     -20.515  12.682 -39.120  1.00  0.00     0.210 HD
ENDBRANCH  16  33
BRANCH   1  35
HETATM   35  C5  UNL     1     -22.366   6.108 -45.772  1.00  0.00     0.062 C 
BRANCH  35  36
HETATM   36  C4  UNL     1     -23.652   5.426 -46.005  1.00  0.00    -0.020 C 
HETATM   37  C2  UNL     1     -23.958   4.247 -45.478  1.00  0.00    -0.091 C 
HETATM   38  C1  UNL     1     -23.001   3.516 -44.594  1.00  0.00     0.042 C 
HETATM   39  C3  UNL     1     -25.286   3.662 -45.787  1.00  0.00     0.042 C 
ENDBRANCH  35  36
ENDBRANCH   1  35
TORSDOF 7
ENDMDL
