MODEL 1
REMARK VINA RESULT: -9.637450193      0.000      0.000
REMARK  7 active torsions:
REMARK  status: ('A' for Active; 'I' for Inactive)
REMARK    1  A    between atoms: C9_9  and  O1_10 
REMARK    2  A    between atoms: O1_10  and  C10_11 
REMARK    3  A    between atoms: C10_11  and  C11_13 
REMARK    4  A    between atoms: C20_23  and  O3_24 
REMARK    5  A    between atoms: O3_24  and  N1_25 
REMARK    6  A    between atoms: C21_27  and  C22_28 
REMARK       I    between atoms: C22_28  and  N2_30 
REMARK    7  A    between atoms: N2_30  and  C23_32 
ROOT
HETATM    1  C1  UNL     1     -18.411   6.648 -47.793  1.00  0.00     0.015 C 
HETATM    2  C2  UNL     1     -19.838   7.049 -48.158  1.00  0.00    -0.040 C 
HETATM    3  C3  UNL     1     -20.287   6.212 -49.333  1.00  0.00     0.015 C 
HETATM    4  C4  UNL     1     -19.794   8.495 -48.599  1.00  0.00     0.010 C 
HETATM    5  C5  UNL     1     -20.222   9.310 -47.409  1.00  0.00     0.007 C 
HETATM    6  C6  UNL     1     -20.963   8.383 -46.469  1.00  0.00     0.003 C 
HETATM    7  C7  UNL     1     -22.423   8.762 -46.446  1.00  0.00     0.024 C 
HETATM    8  C8  UNL     1     -22.579  10.094 -45.803  1.00  0.00     0.042 C 
HETATM    9  C9  UNL     1     -23.090   9.949 -44.412  1.00  0.00     0.133 C 
HETATM   10  C17 UNL     1     -24.504   9.361 -44.508  1.00  0.00     0.037 C 
HETATM   11  C18 UNL     1     -24.293   7.895 -44.832  1.00  0.00     0.040 C 
HETATM   12  C19 UNL     1     -23.275   7.693 -45.872  1.00  0.00    -0.043 C 
HETATM   13  C20 UNL     1     -23.092   6.468 -46.341  1.00  0.00     0.080 C 
HETATM   14  C28 UNL     1     -22.051   6.312 -47.390  1.00  0.00     0.077 C 
HETATM   15  C29 UNL     1     -20.752   6.976 -46.982  1.00  0.00    -0.027 C 
HETATM   16  C30 UNL     1     -20.167   6.145 -45.865  1.00  0.00     0.016 C 
ENDROOT
BRANCH  13  17
HETATM   17  O3  UNL     1     -23.805   5.393 -45.905  1.00  0.00    -0.242 OA
BRANCH  17  18
HETATM   18  N1  UNL     1     -23.504   4.079 -46.027  1.00  0.00    -0.267 N 
HETATM   19  C21 UNL     1     -23.108   3.386 -45.021  1.00  0.00     0.188 C 
ATOM     20  H1  UNL     1     -23.595   3.630 -46.938  1.00  0.00     0.194 HD
BRANCH  19  21
HETATM   21  C22 UNL     1     -22.979   4.018 -43.727  1.00  0.00     0.259 C 
HETATM   22  O4  UNL     1     -21.866   4.030 -43.151  1.00  0.00    -0.267 OA
HETATM   23  N2  UNL     1     -24.113   4.630 -43.099  1.00  0.00    -0.352 N 
ATOM     24  H2  UNL     1     -25.012   4.611 -43.582  1.00  0.00     0.163 HD
BRANCH  23  25
HETATM   25  C23 UNL     1     -24.033   5.267 -41.820  1.00  0.00     0.084 C 
HETATM   26  C24 UNL     1     -23.708   6.723 -41.879  1.00  0.00     0.025 C 
HETATM   27  C25 UNL     1     -24.729   7.411 -40.978  1.00  0.00     0.002 C 
HETATM   28  C26 UNL     1     -25.113   6.291 -40.003  1.00  0.00     0.002 C 
HETATM   29  C27 UNL     1     -25.263   5.127 -40.971  1.00  0.00     0.025 C 
ENDBRANCH  23  25
ENDBRANCH  19  21
ENDBRANCH  17  18
ENDBRANCH  13  17
BRANCH   9  30
HETATM   30  O1  UNL     1     -23.219  11.185 -43.733  1.00  0.00    -0.312 OA
BRANCH  30  31
HETATM   31  C10 UNL     1     -22.169  11.782 -43.052  1.00  0.00     0.293 C 
HETATM   32  O2  UNL     1     -21.223  11.061 -42.651  1.00  0.00    -0.259 OA
BRANCH  31  33
HETATM   33  C11 UNL     1     -22.108  13.205 -42.776  1.00  0.00     0.039 A 
HETATM   34  C12 UNL     1     -21.026  13.711 -42.101  1.00  0.00     0.020 A 
HETATM   35  C13 UNL     1     -20.946  15.082 -41.823  1.00  0.00     0.043 A 
HETATM   36  C14 UNL     1     -21.951  15.920 -42.227  1.00  0.00     0.116 A 
HETATM   37  F1  UNL     1     -21.892  17.264 -41.965  1.00  0.00    -0.206 F 
HETATM   38  C15 UNL     1     -23.044  15.431 -42.905  1.00  0.00     0.043 A 
HETATM   39  C16 UNL     1     -23.097  14.074 -43.166  1.00  0.00     0.020 A 
ENDBRANCH  31  33
ENDBRANCH  30  31
ENDBRANCH   9  30
TORSDOF 7
ENDMDL
MODEL 2
REMARK VINA RESULT: -9.467000387      1.871      2.134
REMARK  7 active torsions:
REMARK  status: ('A' for Active; 'I' for Inactive)
REMARK    1  A    between atoms: C9_9  and  O1_10 
REMARK    2  A    between atoms: O1_10  and  C10_11 
REMARK    3  A    between atoms: C10_11  and  C11_13 
REMARK    4  A    between atoms: C20_23  and  O3_24 
REMARK    5  A    between atoms: O3_24  and  N1_25 
REMARK    6  A    between atoms: C21_27  and  C22_28 
REMARK       I    between atoms: C22_28  and  N2_30 
REMARK    7  A    between atoms: N2_30  and  C23_32 
ROOT
HETATM    1  C1  UNL     1     -18.583   6.178 -48.226  1.00  0.00     0.015 C 
HETATM    2  C2  UNL     1     -19.989   6.702 -48.508  1.00  0.00    -0.040 C 
HETATM    3  C3  UNL     1     -20.591   5.887 -49.628  1.00  0.00     0.015 C 
HETATM    4  C4  UNL     1     -19.842   8.128 -48.990  1.00  0.00     0.010 C 
HETATM    5  C5  UNL     1     -20.113   9.005 -47.797  1.00  0.00     0.007 C 
HETATM    6  C6  UNL     1     -20.870   8.171 -46.786  1.00  0.00     0.003 C 
HETATM    7  C7  UNL     1     -22.285   8.684 -46.678  1.00  0.00     0.024 C 
HETATM    8  C8  UNL     1     -22.275  10.038 -46.063  1.00  0.00     0.042 C 
HETATM    9  C9  UNL     1     -22.701   9.970 -44.637  1.00  0.00     0.133 C 
HETATM   10  C17 UNL     1     -24.166   9.515 -44.625  1.00  0.00     0.037 C 
HETATM   11  C18 UNL     1     -24.114   8.029 -44.922  1.00  0.00     0.040 C 
HETATM   12  C19 UNL     1     -23.190   7.712 -46.020  1.00  0.00    -0.043 C 
HETATM   13  C20 UNL     1     -23.153   6.466 -46.467  1.00  0.00     0.080 C 
HETATM   14  C28 UNL     1     -22.203   6.191 -47.577  1.00  0.00     0.077 C 
HETATM   15  C29 UNL     1     -20.824   6.739 -47.274  1.00  0.00    -0.027 C 
HETATM   16  C30 UNL     1     -20.244   5.880 -46.174  1.00  0.00     0.016 C 
ENDROOT
BRANCH  13  17
HETATM   17  O3  UNL     1     -23.930   5.471 -45.957  1.00  0.00    -0.242 OA
BRANCH  17  18
HETATM   18  N1  UNL     1     -23.744   4.133 -46.038  1.00  0.00    -0.267 N 
HETATM   19  C21 UNL     1     -23.401   3.441 -45.011  1.00  0.00     0.188 C 
ATOM     20  H1  UNL     1     -23.880   3.664 -46.933  1.00  0.00     0.194 HD
BRANCH  19  21
HETATM   21  C22 UNL     1     -23.207   4.101 -43.740  1.00  0.00     0.259 C 
HETATM   22  O4  UNL     1     -22.069   4.113 -43.215  1.00  0.00    -0.267 OA
HETATM   23  N2  UNL     1     -24.305   4.740 -43.076  1.00  0.00    -0.352 N 
ATOM     24  H2  UNL     1     -25.225   4.720 -43.518  1.00  0.00     0.163 HD
BRANCH  23  25
HETATM   25  C23 UNL     1     -24.161   5.405 -41.817  1.00  0.00     0.084 C 
HETATM   26  C24 UNL     1     -23.984   6.884 -41.922  1.00  0.00     0.025 C 
HETATM   27  C25 UNL     1     -24.973   7.489 -40.929  1.00  0.00     0.002 C 
HETATM   28  C26 UNL     1     -25.151   6.356 -39.911  1.00  0.00     0.002 C 
HETATM   29  C27 UNL     1     -25.283   5.166 -40.849  1.00  0.00     0.025 C 
ENDBRANCH  23  25
ENDBRANCH  19  21
ENDBRANCH  17  18
ENDBRANCH  13  17
BRANCH   9  30
HETATM   30  O1  UNL     1     -22.670  11.227 -43.985  1.00  0.00    -0.312 OA
BRANCH  30  31
HETATM   31  C10 UNL     1     -22.162  11.399 -42.706  1.00  0.00     0.293 C 
HETATM   32  O2  UNL     1     -20.917  11.461 -42.556  1.00  0.00    -0.259 OA
BRANCH  31  33
HETATM   33  C11 UNL     1     -22.998  11.510 -41.527  1.00  0.00     0.039 A 
HETATM   34  C12 UNL     1     -22.446  11.957 -40.353  1.00  0.00     0.020 A 
HETATM   35  C13 UNL     1     -23.235  12.071 -39.201  1.00  0.00     0.043 A 
HETATM   36  C14 UNL     1     -24.563  11.735 -39.246  1.00  0.00     0.116 A 
HETATM   37  F1  UNL     1     -25.352  11.840 -38.131  1.00  0.00    -0.206 F 
HETATM   38  C15 UNL     1     -25.134  11.285 -40.414  1.00  0.00     0.043 A 
HETATM   39  C16 UNL     1     -24.332  11.181 -41.536  1.00  0.00     0.020 A 
ENDBRANCH  31  33
ENDBRANCH  30  31
ENDBRANCH   9  30
TORSDOF 7
ENDMDL
MODEL 3
REMARK VINA RESULT: -9.335607449      1.040      1.166
REMARK  7 active torsions:
REMARK  status: ('A' for Active; 'I' for Inactive)
REMARK    1  A    between atoms: C9_9  and  O1_10 
REMARK    2  A    between atoms: O1_10  and  C10_11 
REMARK    3  A    between atoms: C10_11  and  C11_13 
REMARK    4  A    between atoms: C20_23  and  O3_24 
REMARK    5  A    between atoms: O3_24  and  N1_25 
REMARK    6  A    between atoms: C21_27  and  C22_28 
REMARK       I    between atoms: C22_28  and  N2_30 
REMARK    7  A    between atoms: N2_30  and  C23_32 
ROOT
HETATM    1  C1  UNL     1     -17.977   6.939 -45.677  1.00  0.00     0.015 C 
HETATM    2  C2  UNL     1     -19.187   7.554 -46.375  1.00  0.00    -0.040 C 
HETATM    3  C3  UNL     1     -19.291   6.967 -47.764  1.00  0.00     0.015 C 
HETATM    4  C4  UNL     1     -18.917   9.035 -46.509  1.00  0.00     0.010 C 
HETATM    5  C5  UNL     1     -19.650   9.700 -45.375  1.00  0.00     0.007 C 
HETATM    6  C6  UNL     1     -20.706   8.730 -44.890  1.00  0.00     0.003 C 
HETATM    7  C7  UNL     1     -22.072   9.267 -45.239  1.00  0.00     0.024 C 
HETATM    8  C8  UNL     1     -22.342  10.492 -44.440  1.00  0.00     0.042 C 
HETATM    9  C9  UNL     1     -23.275  10.192 -43.319  1.00  0.00     0.133 C 
HETATM   10  C17 UNL     1     -24.619   9.794 -43.944  1.00  0.00     0.037 C 
HETATM   11  C18 UNL     1     -24.407   8.382 -44.453  1.00  0.00     0.040 C 
HETATM   12  C19 UNL     1     -23.125   8.227 -45.155  1.00  0.00    -0.043 C 
HETATM   13  C20 UNL     1     -22.879   7.077 -45.764  1.00  0.00     0.080 C 
HETATM   14  C28 UNL     1     -21.570   6.967 -46.460  1.00  0.00     0.077 C 
HETATM   15  C29 UNL     1     -20.429   7.405 -45.565  1.00  0.00    -0.027 C 
HETATM   16  C30 UNL     1     -20.281   6.348 -44.495  1.00  0.00     0.016 C 
ENDROOT
BRANCH  13  17
HETATM   17  O3  UNL     1     -23.758   6.037 -45.769  1.00  0.00    -0.242 OA
BRANCH  17  18
HETATM   18  N1  UNL     1     -23.538   4.753 -46.133  1.00  0.00    -0.267 N 
HETATM   19  C21 UNL     1     -23.236   3.853 -45.267  1.00  0.00     0.188 C 
ATOM     20  H1  UNL     1     -23.614   4.493 -47.116  1.00  0.00     0.194 HD
BRANCH  19  21
HETATM   21  C22 UNL     1     -23.128   4.216 -43.871  1.00  0.00     0.259 C 
HETATM   22  O4  UNL     1     -22.105   3.893 -43.225  1.00  0.00    -0.267 OA
HETATM   23  N2  UNL     1     -24.181   4.940 -43.223  1.00  0.00    -0.352 N 
ATOM     24  H2  UNL     1     -25.008   5.195 -43.765  1.00  0.00     0.163 HD
BRANCH  23  25
HETATM   25  C23 UNL     1     -24.118   5.320 -41.845  1.00  0.00     0.084 C 
HETATM   26  C24 UNL     1     -23.691   6.733 -41.617  1.00  0.00     0.025 C 
HETATM   27  C25 UNL     1     -24.703   7.318 -40.637  1.00  0.00     0.002 C 
HETATM   28  C26 UNL     1     -25.210   6.069 -39.904  1.00  0.00     0.002 C 
HETATM   29  C27 UNL     1     -25.393   5.120 -41.080  1.00  0.00     0.025 C 
ENDBRANCH  23  25
ENDBRANCH  19  21
ENDBRANCH  17  18
ENDBRANCH  13  17
BRANCH   9  30
HETATM   30  O1  UNL     1     -23.537  11.314 -42.495  1.00  0.00    -0.312 OA
BRANCH  30  31
HETATM   31  C10 UNL     1     -22.549  11.963 -41.771  1.00  0.00     0.293 C 
HETATM   32  O2  UNL     1     -21.844  11.292 -40.978  1.00  0.00    -0.259 OA
BRANCH  31  33
HETATM   33  C11 UNL     1     -22.286  13.385 -41.884  1.00  0.00     0.039 A 
HETATM   34  C12 UNL     1     -21.286  13.944 -41.127  1.00  0.00     0.020 A 
HETATM   35  C13 UNL     1     -21.016  15.315 -41.218  1.00  0.00     0.043 A 
HETATM   36  C14 UNL     1     -21.750  16.102 -42.065  1.00  0.00     0.116 A 
HETATM   37  F1  UNL     1     -21.501  17.445 -42.170  1.00  0.00    -0.206 F 
HETATM   38  C15 UNL     1     -22.756  15.559 -42.832  1.00  0.00     0.043 A 
HETATM   39  C16 UNL     1     -23.002  14.203 -42.722  1.00  0.00     0.020 A 
ENDBRANCH  31  33
ENDBRANCH  30  31
ENDBRANCH   9  30
TORSDOF 7
ENDMDL
MODEL 4
REMARK VINA RESULT: -9.162823267      3.114      7.191
REMARK  7 active torsions:
REMARK  status: ('A' for Active; 'I' for Inactive)
REMARK    1  A    between atoms: C9_9  and  O1_10 
REMARK    2  A    between atoms: O1_10  and  C10_11 
REMARK    3  A    between atoms: C10_11  and  C11_13 
REMARK    4  A    between atoms: C20_23  and  O3_24 
REMARK    5  A    between atoms: O3_24  and  N1_25 
REMARK    6  A    between atoms: C21_27  and  C22_28 
REMARK       I    between atoms: C22_28  and  N2_30 
REMARK    7  A    between atoms: N2_30  and  C23_32 
ROOT
HETATM    1  C1  UNL     1     -22.984   4.285 -41.423  1.00  0.00     0.015 C 
HETATM    2  C2  UNL     1     -24.026   5.268 -41.950  1.00  0.00    -0.040 C 
HETATM    3  C3  UNL     1     -25.197   5.286 -40.995  1.00  0.00     0.015 C 
HETATM    4  C4  UNL     1     -24.510   4.731 -43.278  1.00  0.00     0.010 C 
HETATM    5  C5  UNL     1     -23.750   5.481 -44.338  1.00  0.00     0.007 C 
HETATM    6  C6  UNL     1     -23.212   6.743 -43.698  1.00  0.00     0.003 C 
HETATM    7  C7  UNL     1     -23.930   7.938 -44.275  1.00  0.00     0.024 C 
HETATM    8  C8  UNL     1     -23.558   8.096 -45.706  1.00  0.00     0.042 C 
HETATM    9  C9  UNL     1     -22.580   9.207 -45.875  1.00  0.00     0.133 C 
HETATM   10  C17 UNL     1     -23.299  10.505 -45.483  1.00  0.00     0.037 C 
HETATM   11  C18 UNL     1     -23.357  10.474 -43.968  1.00  0.00     0.040 C 
HETATM   12  C19 UNL     1     -23.752   9.157 -43.450  1.00  0.00    -0.043 C 
HETATM   13  C20 UNL     1     -23.970   9.034 -42.150  1.00  0.00     0.080 C 
HETATM   14  C28 UNL     1     -24.366   7.684 -41.672  1.00  0.00     0.077 C 
HETATM   15  C29 UNL     1     -23.438   6.613 -42.208  1.00  0.00    -0.027 C 
HETATM   16  C30 UNL     1     -22.112   6.792 -41.507  1.00  0.00     0.016 C 
ENDROOT
BRANCH  13  17
HETATM   17  O3  UNL     1     -23.845  10.071 -41.276  1.00  0.00    -0.242 OA
BRANCH  17  18
HETATM   18  N1  UNL     1     -23.367  10.050 -40.010  1.00  0.00    -0.267 N 
HETATM   19  C21 UNL     1     -22.445  10.860 -39.629  1.00  0.00     0.188 C 
ATOM     20  H1  UNL     1     -23.746   9.377 -39.344  1.00  0.00     0.194 HD
BRANCH  19  21
HETATM   21  C22 UNL     1     -21.904  11.816 -40.568  1.00  0.00     0.259 C 
HETATM   22  O4  UNL     1     -20.744  11.656 -41.016  1.00  0.00    -0.267 OA
HETATM   23  N2  UNL     1     -22.682  12.943 -40.990  1.00  0.00    -0.352 N 
ATOM     24  H2  UNL     1     -23.624  13.058 -40.615  1.00  0.00     0.163 HD
BRANCH  23  25
HETATM   25  C23 UNL     1     -22.188  13.915 -41.918  1.00  0.00     0.084 C 
HETATM   26  C24 UNL     1     -23.184  14.345 -42.944  1.00  0.00     0.025 C 
HETATM   27  C25 UNL     1     -23.139  15.870 -42.949  1.00  0.00     0.002 C 
HETATM   28  C26 UNL     1     -21.723  16.159 -42.436  1.00  0.00     0.002 C 
HETATM   29  C27 UNL     1     -21.642  15.163 -41.288  1.00  0.00     0.025 C 
ENDBRANCH  23  25
ENDBRANCH  19  21
ENDBRANCH  17  18
ENDBRANCH  13  17
BRANCH   9  30
HETATM   30  O1  UNL     1     -22.155   9.379 -47.215  1.00  0.00    -0.312 OA
BRANCH  30  31
HETATM   31  C10 UNL     1     -20.996   8.806 -47.715  1.00  0.00     0.293 C 
HETATM   32  O2  UNL     1     -21.081   7.723 -48.344  1.00  0.00    -0.259 OA
BRANCH  31  33
HETATM   33  C11 UNL     1     -19.682   9.396 -47.548  1.00  0.00     0.039 A 
HETATM   34  C12 UNL     1     -19.164  10.176 -48.552  1.00  0.00     0.020 A 
HETATM   35  C13 UNL     1     -17.897  10.756 -48.412  1.00  0.00     0.043 A 
HETATM   36  C14 UNL     1     -17.171  10.544 -47.270  1.00  0.00     0.116 A 
HETATM   37  F1  UNL     1     -15.929  11.102 -47.113  1.00  0.00    -0.206 F 
HETATM   38  C15 UNL     1     -17.673   9.766 -46.253  1.00  0.00     0.043 A 
HETATM   39  C16 UNL     1     -18.926   9.205 -46.417  1.00  0.00     0.020 A 
ENDBRANCH  31  33
ENDBRANCH  30  31
ENDBRANCH   9  30
TORSDOF 7
ENDMDL
MODEL 5
REMARK VINA RESULT: -9.094914777      2.842      6.000
REMARK  7 active torsions:
REMARK  status: ('A' for Active; 'I' for Inactive)
REMARK    1  A    between atoms: C9_9  and  O1_10 
REMARK    2  A    between atoms: O1_10  and  C10_11 
REMARK    3  A    between atoms: C10_11  and  C11_13 
REMARK    4  A    between atoms: C20_23  and  O3_24 
REMARK    5  A    between atoms: O3_24  and  N1_25 
REMARK    6  A    between atoms: C21_27  and  C22_28 
REMARK       I    between atoms: C22_28  and  N2_30 
REMARK    7  A    between atoms: N2_30  and  C23_32 
ROOT
HETATM    1  C1  UNL     1     -24.653   4.281 -44.065  1.00  0.00     0.015 C 
HETATM    2  C2  UNL     1     -23.312   4.772 -43.524  1.00  0.00    -0.040 C 
HETATM    3  C3  UNL     1     -22.277   3.697 -43.757  1.00  0.00     0.015 C 
HETATM    4  C4  UNL     1     -23.475   4.953 -42.031  1.00  0.00     0.010 C 
HETATM    5  C5  UNL     1     -23.726   6.420 -41.810  1.00  0.00     0.007 C 
HETATM    6  C6  UNL     1     -23.241   7.151 -43.043  1.00  0.00     0.003 C 
HETATM    7  C7  UNL     1     -22.018   7.963 -42.691  1.00  0.00     0.024 C 
HETATM    8  C8  UNL     1     -22.404   9.065 -41.771  1.00  0.00     0.042 C 
HETATM    9  C9  UNL     1     -22.463  10.362 -42.501  1.00  0.00     0.133 C 
HETATM   10  C17 UNL     1     -21.037  10.684 -42.966  1.00  0.00     0.037 C 
HETATM   11  C18 UNL     1     -20.797   9.764 -44.147  1.00  0.00     0.040 C 
HETATM   12  C19 UNL     1     -21.261   8.393 -43.891  1.00  0.00    -0.043 C 
HETATM   13  C20 UNL     1     -20.989   7.461 -44.791  1.00  0.00     0.080 C 
HETATM   14  C28 UNL     1     -21.479   6.090 -44.489  1.00  0.00     0.077 C 
HETATM   15  C29 UNL     1     -22.940   6.100 -44.089  1.00  0.00    -0.027 C 
HETATM   16  C30 UNL     1     -23.732   6.426 -45.333  1.00  0.00     0.016 C 
ENDROOT
BRANCH  13  17
HETATM   17  O3  UNL     1     -20.301   7.715 -45.938  1.00  0.00    -0.242 OA
BRANCH  17  18
HETATM   18  N1  UNL     1     -20.657   7.433 -47.212  1.00  0.00    -0.267 N 
HETATM   19  C21 UNL     1     -20.156   8.076 -48.205  1.00  0.00     0.188 C 
ATOM     20  H1  UNL     1     -21.338   6.694 -47.388  1.00  0.00     0.194 HD
BRANCH  19  21
HETATM   21  C22 UNL     1     -19.191   9.124 -47.962  1.00  0.00     0.259 C 
HETATM   22  O4  UNL     1     -19.361  10.255 -48.474  1.00  0.00    -0.267 OA
HETATM   23  N2  UNL     1     -18.041   8.879 -47.141  1.00  0.00    -0.352 N 
ATOM     24  H2  UNL     1     -17.918   7.952 -46.733  1.00  0.00     0.163 HD
BRANCH  23  25
HETATM   25  C23 UNL     1     -17.060   9.885 -46.873  1.00  0.00     0.084 C 
HETATM   26  C24 UNL     1     -16.833  10.149 -45.420  1.00  0.00     0.025 C 
HETATM   27  C25 UNL     1     -15.320  10.120 -45.227  1.00  0.00     0.002 C 
HETATM   28  C26 UNL     1     -14.803  10.489 -46.623  1.00  0.00     0.002 C 
HETATM   29  C27 UNL     1     -15.714   9.629 -47.486  1.00  0.00     0.025 C 
ENDBRANCH  23  25
ENDBRANCH  19  21
ENDBRANCH  17  18
ENDBRANCH  13  17
BRANCH   9  30
HETATM   30  O1  UNL     1     -22.868  11.446 -41.683  1.00  0.00    -0.312 OA
BRANCH  30  31
HETATM   31  C10 UNL     1     -23.330  12.646 -42.199  1.00  0.00     0.293 C 
HETATM   32  O2  UNL     1     -24.369  12.640 -42.903  1.00  0.00    -0.259 OA
BRANCH  31  33
HETATM   33  C11 UNL     1     -22.670  13.917 -41.967  1.00  0.00     0.039 A 
HETATM   34  C12 UNL     1     -22.927  14.969 -42.810  1.00  0.00     0.020 A 
HETATM   35  C13 UNL     1     -22.301  16.205 -42.606  1.00  0.00     0.043 A 
HETATM   36  C14 UNL     1     -21.429  16.365 -41.561  1.00  0.00     0.116 A 
HETATM   37  F1  UNL     1     -20.805  17.566 -41.344  1.00  0.00    -0.206 F 
HETATM   38  C15 UNL     1     -21.159  15.322 -40.706  1.00  0.00     0.043 A 
HETATM   39  C16 UNL     1     -21.791  14.112 -40.931  1.00  0.00     0.020 A 
ENDBRANCH  31  33
ENDBRANCH  30  31
ENDBRANCH   9  30
TORSDOF 7
ENDMDL
