MODEL 1
REMARK VINA RESULT: -9.805085691      0.000      0.000
REMARK  8 active torsions:
REMARK  status: ('A' for Active; 'I' for Inactive)
REMARK    1  A    between atoms: C2_2  and  O1_3 
REMARK    2  A    between atoms: O1_3  and  C3_4 
REMARK    3  A    between atoms: C3_4  and  C4_6 
REMARK    4  A    between atoms: C4_6  and  C5_7 
REMARK    5  A    between atoms: C5_7  and  C6_8 
REMARK    6  A    between atoms: C6_8  and  C8_10 
REMARK    7  A    between atoms: C20_24  and  O5_25 
REMARK    8  A    between atoms: C20_24  and  C21_27 
ROOT
HETATM    1  C8  UNL     1     -22.747  12.169 -42.706  1.00  0.00     0.068 C 
HETATM    2  C9  UNL     1     -21.528  12.208 -41.823  1.00  0.00     0.132 C 
HETATM    3  O3  UNL     1     -21.286  13.040 -40.992  1.00  0.00    -0.298 OA
HETATM    4  C10 UNL     1     -20.492  11.112 -41.966  1.00  0.00     0.079 C 
HETATM    5  C11 UNL     1     -21.265   9.997 -42.604  1.00  0.00     0.018 C 
HETATM    6  C12 UNL     1     -22.660   9.815 -41.964  1.00  0.00    -0.028 C 
HETATM    7  C13 UNL     1     -22.407   9.860 -40.472  1.00  0.00     0.016 C 
HETATM    8  C14 UNL     1     -23.050   8.437 -42.287  1.00  0.00     0.024 C 
HETATM    9  C15 UNL     1     -23.991   7.698 -41.403  1.00  0.00     0.014 C 
HETATM   10  C16 UNL     1     -24.567   6.539 -42.248  1.00  0.00     0.036 C 
HETATM   11  C17 UNL     1     -23.543   5.995 -43.186  1.00  0.00    -0.064 C 
HETATM   12  C18 UNL     1     -22.979   4.824 -43.069  1.00  0.00     0.057 C 
HETATM   13  C19 UNL     1     -21.996   4.392 -44.035  1.00  0.00     0.184 C 
HETATM   14  O4  UNL     1     -21.672   3.169 -44.114  1.00  0.00    -0.290 OA
HETATM   15  C20 UNL     1     -21.360   5.344 -44.935  1.00  0.00     0.135 C 
HETATM   16  C22 UNL     1     -21.777   6.775 -44.735  1.00  0.00     0.065 C 
HETATM   17  C23 UNL     1     -23.193   6.938 -44.324  1.00  0.00     0.006 C 
HETATM   18  C24 UNL     1     -24.183   6.765 -45.433  1.00  0.00     0.025 C 
HETATM   19  C25 UNL     1     -23.434   8.290 -43.707  1.00  0.00    -0.066 C 
HETATM   20  C26 UNL     1     -23.990   9.300 -44.304  1.00  0.00    -0.022 C 
HETATM   21  C27 UNL     1     -24.294  10.608 -43.721  1.00  0.00     0.038 C 
HETATM   22  C28 UNL     1     -23.571  10.938 -42.435  1.00  0.00    -0.022 C 
HETATM   23  C29 UNL     1     -24.620  11.154 -41.351  1.00  0.00     0.017 C 
ENDROOT
BRANCH   1  24
HETATM   24  C6  UNL     1     -23.358  13.496 -42.660  1.00  0.00    -0.003 C 
HETATM   25  C7  UNL     1     -24.569  13.832 -43.391  1.00  0.00     0.011 C 
BRANCH  24  26
HETATM   26  C5  UNL     1     -22.281  14.514 -42.914  1.00  0.00     0.038 C 
BRANCH  26  27
HETATM   27  C4  UNL     1     -22.518  15.925 -42.707  1.00  0.00     0.056 C 
BRANCH  27  28
HETATM   28  C3  UNL     1     -21.628  16.861 -42.075  1.00  0.00     0.279 C 
HETATM   29  O2  UNL     1     -20.880  16.754 -41.082  1.00  0.00    -0.261 OA
BRANCH  28  30
HETATM   30  O1  UNL     1     -21.543  18.180 -42.651  1.00  0.00    -0.319 OA
BRANCH  30  31
HETATM   31  C2  UNL     1     -22.594  19.096 -42.576  1.00  0.00     0.174 C 
HETATM   32  C1  UNL     1     -22.985  19.393 -44.034  1.00  0.00     0.034 C 
ENDBRANCH  30  31
ENDBRANCH  28  30
ENDBRANCH  27  28
ENDBRANCH  26  27
ENDBRANCH  24  26
ENDBRANCH   1  24
BRANCH  15  33
HETATM   33  O5  UNL     1     -19.969   5.281 -44.695  1.00  0.00    -0.381 OA
ATOM     34  H5  UNL     1     -19.720   6.091 -44.265  1.00  0.00     0.211 HD
ENDBRANCH  15  33
BRANCH  15  35
HETATM   35  C21 UNL     1     -21.546   4.875 -46.361  1.00  0.00     0.161 C 
HETATM   36 CL1  UNL     1     -21.213   6.263 -47.425  1.00  0.00    -0.127 Cl
ENDBRANCH  15  35
TORSDOF 8
ENDMDL
MODEL 2
REMARK VINA RESULT: -9.540946766      1.509      1.753
REMARK  8 active torsions:
REMARK  status: ('A' for Active; 'I' for Inactive)
REMARK    1  A    between atoms: C2_2  and  O1_3 
REMARK    2  A    between atoms: O1_3  and  C3_4 
REMARK    3  A    between atoms: C3_4  and  C4_6 
REMARK    4  A    between atoms: C4_6  and  C5_7 
REMARK    5  A    between atoms: C5_7  and  C6_8 
REMARK    6  A    between atoms: C6_8  and  C8_10 
REMARK    7  A    between atoms: C20_24  and  O5_25 
REMARK    8  A    between atoms: C20_24  and  C21_27 
ROOT
HETATM    1  C8  UNL     1     -23.054  11.056 -42.545  1.00  0.00     0.068 C 
HETATM    2  C9  UNL     1     -21.835  11.110 -41.663  1.00  0.00     0.132 C 
HETATM    3  O3  UNL     1     -21.667  11.857 -40.738  1.00  0.00    -0.298 OA
HETATM    4  C10 UNL     1     -20.697  10.148 -41.936  1.00  0.00     0.079 C 
HETATM    5  C11 UNL     1     -21.363   9.046 -42.704  1.00  0.00     0.018 C 
HETATM    6  C12 UNL     1     -22.726   8.650 -42.091  1.00  0.00    -0.028 C 
HETATM    7  C13 UNL     1     -22.462   8.542 -40.604  1.00  0.00     0.016 C 
HETATM    8  C14 UNL     1     -22.981   7.289 -42.578  1.00  0.00     0.024 C 
HETATM    9  C15 UNL     1     -23.834   6.360 -41.790  1.00  0.00     0.014 C 
HETATM   10  C16 UNL     1     -24.303   5.259 -42.768  1.00  0.00     0.036 C 
HETATM   11  C17 UNL     1     -23.240   4.936 -43.765  1.00  0.00    -0.064 C 
HETATM   12  C18 UNL     1     -22.561   3.821 -43.789  1.00  0.00     0.057 C 
HETATM   13  C19 UNL     1     -21.552   3.608 -44.799  1.00  0.00     0.184 C 
HETATM   14  O4  UNL     1     -21.110   2.442 -45.024  1.00  0.00    -0.290 OA
HETATM   15  C20 UNL     1     -21.024   4.719 -45.578  1.00  0.00     0.135 C 
HETATM   16  C22 UNL     1     -21.578   6.068 -45.207  1.00  0.00     0.065 C 
HETATM   17  C23 UNL     1     -22.999   6.038 -44.780  1.00  0.00     0.006 C 
HETATM   18  C24 UNL     1     -23.979   5.901 -45.902  1.00  0.00     0.025 C 
HETATM   19  C25 UNL     1     -23.365   7.275 -44.005  1.00  0.00    -0.066 C 
HETATM   20  C26 UNL     1     -24.025   8.290 -44.477  1.00  0.00    -0.022 C 
HETATM   21  C27 UNL     1     -24.450   9.481 -43.741  1.00  0.00     0.038 C 
HETATM   22  C28 UNL     1     -23.749   9.725 -42.424  1.00  0.00    -0.022 C 
HETATM   23  C29 UNL     1     -24.802   9.704 -41.322  1.00  0.00     0.017 C 
ENDROOT
BRANCH   1  24
HETATM   24  C6  UNL     1     -23.793  12.300 -42.339  1.00  0.00    -0.003 C 
HETATM   25  C7  UNL     1     -25.240  12.345 -42.209  1.00  0.00     0.011 C 
BRANCH  24  26
HETATM   26  C5  UNL     1     -23.317  13.299 -43.358  1.00  0.00     0.038 C 
BRANCH  26  27
HETATM   27  C4  UNL     1     -22.810  14.592 -42.962  1.00  0.00     0.056 C 
BRANCH  27  28
HETATM   28  C3  UNL     1     -21.503  14.876 -42.433  1.00  0.00     0.279 C 
HETATM   29  O2  UNL     1     -20.409  14.290 -42.564  1.00  0.00    -0.261 OA
BRANCH  28  30
HETATM   30  O1  UNL     1     -21.373  16.041 -41.592  1.00  0.00    -0.319 OA
BRANCH  30  31
HETATM   31  C2  UNL     1     -20.795  15.983 -40.322  1.00  0.00     0.174 C 
HETATM   32  C1  UNL     1     -21.192  17.299 -39.631  1.00  0.00     0.034 C 
ENDBRANCH  30  31
ENDBRANCH  28  30
ENDBRANCH  27  28
ENDBRANCH  26  27
ENDBRANCH  24  26
ENDBRANCH   1  24
BRANCH  15  33
HETATM   33  O5  UNL     1     -19.630   4.767 -45.346  1.00  0.00    -0.381 OA
ATOM     34  H5  UNL     1     -19.369   3.912 -45.024  1.00  0.00     0.211 HD
ENDBRANCH  15  33
BRANCH  15  35
HETATM   35  C21 UNL     1     -21.179   4.408 -47.050  1.00  0.00     0.161 C 
HETATM   36 CL1  UNL     1     -21.074   5.950 -47.934  1.00  0.00    -0.127 Cl
ENDBRANCH  15  35
TORSDOF 8
ENDMDL
MODEL 3
REMARK VINA RESULT: -9.417688731      2.185      3.025
REMARK  8 active torsions:
REMARK  status: ('A' for Active; 'I' for Inactive)
REMARK    1  A    between atoms: C2_2  and  O1_3 
REMARK    2  A    between atoms: O1_3  and  C3_4 
REMARK    3  A    between atoms: C3_4  and  C4_6 
REMARK    4  A    between atoms: C4_6  and  C5_7 
REMARK    5  A    between atoms: C5_7  and  C6_8 
REMARK    6  A    between atoms: C6_8  and  C8_10 
REMARK    7  A    between atoms: C20_24  and  O5_25 
REMARK    8  A    between atoms: C20_24  and  C21_27 
ROOT
HETATM    1  C8  UNL     1     -23.197  10.659 -41.940  1.00  0.00     0.068 C 
HETATM    2  C9  UNL     1     -21.882  10.429 -41.243  1.00  0.00     0.132 C 
HETATM    3  O3  UNL     1     -21.644  10.668 -40.091  1.00  0.00    -0.298 OA
HETATM    4  C10 UNL     1     -20.732   9.842 -42.035  1.00  0.00     0.079 C 
HETATM    5  C11 UNL     1     -21.423   9.162 -43.180  1.00  0.00     0.018 C 
HETATM    6  C12 UNL     1     -22.673   8.376 -42.721  1.00  0.00    -0.028 C 
HETATM    7  C13 UNL     1     -22.218   7.613 -41.495  1.00  0.00     0.016 C 
HETATM    8  C14 UNL     1     -22.906   7.384 -43.778  1.00  0.00     0.024 C 
HETATM    9  C15 UNL     1     -23.597   6.104 -43.463  1.00  0.00     0.014 C 
HETATM   10  C16 UNL     1     -24.118   5.547 -44.807  1.00  0.00     0.036 C 
HETATM   11  C17 UNL     1     -23.172   5.850 -45.920  1.00  0.00    -0.064 C 
HETATM   12  C18 UNL     1     -22.437   4.961 -46.530  1.00  0.00     0.057 C 
HETATM   13  C19 UNL     1     -21.551   5.361 -47.599  1.00  0.00     0.184 C 
HETATM   14  O4  UNL     1     -21.073   4.494 -48.390  1.00  0.00    -0.290 OA
HETATM   15  C20 UNL     1     -21.191   6.758 -47.791  1.00  0.00     0.135 C 
HETATM   16  C22 UNL     1     -21.774   7.703 -46.776  1.00  0.00     0.065 C 
HETATM   17  C23 UNL     1     -23.125   7.319 -46.300  1.00  0.00     0.006 C 
HETATM   18  C24 UNL     1     -24.229   7.616 -47.266  1.00  0.00     0.025 C 
HETATM   19  C25 UNL     1     -23.464   7.998 -45.000  1.00  0.00    -0.066 C 
HETATM   20  C26 UNL     1     -24.237   9.034 -44.873  1.00  0.00    -0.022 C 
HETATM   21  C27 UNL     1     -24.636   9.685 -43.624  1.00  0.00     0.038 C 
HETATM   22  C28 UNL     1     -23.791   9.360 -42.414  1.00  0.00    -0.022 C 
HETATM   23  C29 UNL     1     -24.694   8.707 -41.375  1.00  0.00     0.017 C 
ENDROOT
BRANCH   1  24
HETATM   24  C6  UNL     1     -23.976  11.571 -41.104  1.00  0.00    -0.003 C 
HETATM   25  C7  UNL     1     -24.809  11.113 -40.004  1.00  0.00     0.011 C 
BRANCH  24  26
HETATM   26  C5  UNL     1     -24.747  12.491 -42.010  1.00  0.00     0.038 C 
BRANCH  26  27
HETATM   27  C4  UNL     1     -24.098  13.196 -43.092  1.00  0.00     0.056 C 
BRANCH  27  28
HETATM   28  C3  UNL     1     -23.115  14.238 -42.970  1.00  0.00     0.279 C 
HETATM   29  O2  UNL     1     -23.220  15.482 -42.966  1.00  0.00    -0.261 OA
BRANCH  28  30
HETATM   30  O1  UNL     1     -21.740  13.831 -42.821  1.00  0.00    -0.319 OA
BRANCH  30  31
HETATM   31  C2  UNL     1     -20.854  14.492 -41.967  1.00  0.00     0.174 C 
HETATM   32  C1  UNL     1     -21.289  14.102 -40.543  1.00  0.00     0.034 C 
ENDBRANCH  30  31
ENDBRANCH  28  30
ENDBRANCH  27  28
ENDBRANCH  26  27
ENDBRANCH  24  26
ENDBRANCH   1  24
BRANCH  15  33
HETATM   33  O5  UNL     1     -19.785   6.847 -47.680  1.00  0.00    -0.381 OA
ATOM     34  H5  UNL     1     -19.415   6.223 -48.293  1.00  0.00     0.211 HD
ENDBRANCH  15  33
BRANCH  15  35
HETATM   35  C21 UNL     1     -21.511   7.159 -49.214  1.00  0.00     0.161 C 
HETATM   36 CL1  UNL     1     -19.965   7.469 -50.040  1.00  0.00    -0.127 Cl
ENDBRANCH  15  35
TORSDOF 8
ENDMDL
MODEL 4
REMARK VINA RESULT: -9.304949508      1.789      2.431
REMARK  8 active torsions:
REMARK  status: ('A' for Active; 'I' for Inactive)
REMARK    1  A    between atoms: C2_2  and  O1_3 
REMARK    2  A    between atoms: O1_3  and  C3_4 
REMARK    3  A    between atoms: C3_4  and  C4_6 
REMARK    4  A    between atoms: C4_6  and  C5_7 
REMARK    5  A    between atoms: C5_7  and  C6_8 
REMARK    6  A    between atoms: C6_8  and  C8_10 
REMARK    7  A    between atoms: C20_24  and  O5_25 
REMARK    8  A    between atoms: C20_24  and  C21_27 
ROOT
HETATM    1  C8  UNL     1     -22.429  12.681 -41.408  1.00  0.00     0.068 C 
HETATM    2  C9  UNL     1     -22.799  12.058 -40.089  1.00  0.00     0.132 C 
HETATM    3  O3  UNL     1     -23.267  12.633 -39.144  1.00  0.00    -0.298 OA
HETATM    4  C10 UNL     1     -22.576  10.572 -39.898  1.00  0.00     0.079 C 
HETATM    5  C11 UNL     1     -22.534  10.054 -41.305  1.00  0.00     0.018 C 
HETATM    6  C12 UNL     1     -23.640  10.675 -42.187  1.00  0.00    -0.028 C 
HETATM    7  C13 UNL     1     -24.894  10.595 -41.343  1.00  0.00     0.016 C 
HETATM    8  C14 UNL     1     -23.814   9.732 -43.299  1.00  0.00     0.024 C 
HETATM    9  C15 UNL     1     -25.120   9.642 -44.006  1.00  0.00     0.014 C 
HETATM   10  C16 UNL     1     -24.833   8.976 -45.372  1.00  0.00     0.036 C 
HETATM   11  C17 UNL     1     -23.759   7.947 -45.255  1.00  0.00    -0.064 C 
HETATM   12  C18 UNL     1     -23.953   6.660 -45.351  1.00  0.00     0.057 C 
HETATM   13  C19 UNL     1     -22.842   5.747 -45.223  1.00  0.00     0.184 C 
HETATM   14  O4  UNL     1     -22.954   4.546 -45.611  1.00  0.00    -0.290 OA
HETATM   15  C20 UNL     1     -21.577   6.182 -44.650  1.00  0.00     0.135 C 
HETATM   16  C22 UNL     1     -21.557   7.610 -44.178  1.00  0.00     0.065 C 
HETATM   17  C23 UNL     1     -22.379   8.528 -45.004  1.00  0.00     0.006 C 
HETATM   18  C24 UNL     1     -21.758   8.911 -46.310  1.00  0.00     0.025 C 
HETATM   19  C25 UNL     1     -22.696   9.799 -44.262  1.00  0.00    -0.066 C 
HETATM   20  C26 UNL     1     -22.102  10.941 -44.440  1.00  0.00    -0.022 C 
HETATM   21  C27 UNL     1     -22.421  12.209 -43.782  1.00  0.00     0.038 C 
HETATM   22  C28 UNL     1     -23.257  12.107 -42.527  1.00  0.00    -0.022 C 
HETATM   23  C29 UNL     1     -24.551  12.877 -42.763  1.00  0.00     0.017 C 
ENDROOT
BRANCH   1  24
HETATM   24  C6  UNL     1     -22.362  14.127 -41.201  1.00  0.00    -0.003 C 
HETATM   25  C7  UNL     1     -22.514  15.086 -42.283  1.00  0.00     0.011 C 
BRANCH  24  26
HETATM   26  C5  UNL     1     -21.130  14.425 -40.392  1.00  0.00     0.038 C 
BRANCH  26  27
HETATM   27  C4  UNL     1     -20.508  15.729 -40.425  1.00  0.00     0.056 C 
BRANCH  27  28
HETATM   28  C3  UNL     1     -20.973  16.918 -39.763  1.00  0.00     0.279 C 
HETATM   29  O2  UNL     1     -21.564  17.087 -38.677  1.00  0.00    -0.261 OA
BRANCH  28  30
HETATM   30  O1  UNL     1     -20.740  18.176 -40.431  1.00  0.00    -0.319 OA
BRANCH  30  31
HETATM   31  C2  UNL     1     -21.268  18.459 -41.692  1.00  0.00     0.174 C 
HETATM   32  C1  UNL     1     -20.399  19.598 -42.254  1.00  0.00     0.034 C 
ENDBRANCH  30  31
ENDBRANCH  28  30
ENDBRANCH  27  28
ENDBRANCH  26  27
ENDBRANCH  24  26
ENDBRANCH   1  24
BRANCH  15  33
HETATM   33  O5  UNL     1     -21.328   5.370 -43.519  1.00  0.00    -0.381 OA
ATOM     34  H5  UNL     1     -22.100   4.834 -43.383  1.00  0.00     0.211 HD
ENDBRANCH  15  33
BRANCH  15  35
HETATM   35  C21 UNL     1     -20.461   5.872 -45.623  1.00  0.00     0.161 C 
HETATM   36 CL1  UNL     1     -19.049   6.843 -45.141  1.00  0.00    -0.127 Cl
ENDBRANCH  15  35
TORSDOF 8
ENDMDL
MODEL 5
REMARK VINA RESULT: -9.246388056      1.755      2.550
REMARK  8 active torsions:
REMARK  status: ('A' for Active; 'I' for Inactive)
REMARK    1  A    between atoms: C2_2  and  O1_3 
REMARK    2  A    between atoms: O1_3  and  C3_4 
REMARK    3  A    between atoms: C3_4  and  C4_6 
REMARK    4  A    between atoms: C4_6  and  C5_7 
REMARK    5  A    between atoms: C5_7  and  C6_8 
REMARK    6  A    between atoms: C6_8  and  C8_10 
REMARK    7  A    between atoms: C20_24  and  O5_25 
REMARK    8  A    between atoms: C20_24  and  C21_27 
ROOT
HETATM    1  C8  UNL     1     -23.170  10.865 -42.049  1.00  0.00     0.068 C 
HETATM    2  C9  UNL     1     -21.851  10.674 -41.350  1.00  0.00     0.132 C 
HETATM    3  O3  UNL     1     -21.608  10.966 -40.211  1.00  0.00    -0.298 OA
HETATM    4  C10 UNL     1     -20.701  10.059 -42.121  1.00  0.00     0.079 C 
HETATM    5  C11 UNL     1     -21.393   9.324 -43.230  1.00  0.00     0.018 C 
HETATM    6  C12 UNL     1     -22.636   8.552 -42.730  1.00  0.00    -0.028 C 
HETATM    7  C13 UNL     1     -22.170   7.848 -41.473  1.00  0.00     0.016 C 
HETATM    8  C14 UNL     1     -22.868   7.512 -43.740  1.00  0.00     0.024 C 
HETATM    9  C15 UNL     1     -23.550   6.244 -43.364  1.00  0.00     0.014 C 
HETATM   10  C16 UNL     1     -24.074   5.623 -44.679  1.00  0.00     0.036 C 
HETATM   11  C17 UNL     1     -23.135   5.882 -45.809  1.00  0.00    -0.064 C 
HETATM   12  C18 UNL     1     -22.397   4.970 -46.383  1.00  0.00     0.057 C 
HETATM   13  C19 UNL     1     -21.519   5.327 -47.473  1.00  0.00     0.184 C 
HETATM   14  O4  UNL     1     -21.039   4.429 -48.226  1.00  0.00    -0.290 OA
HETATM   15  C20 UNL     1     -21.169   6.717 -47.729  1.00  0.00     0.135 C 
HETATM   16  C22 UNL     1     -21.752   7.703 -46.755  1.00  0.00     0.065 C 
HETATM   17  C23 UNL     1     -23.099   7.332 -46.256  1.00  0.00     0.006 C 
HETATM   18  C24 UNL     1     -24.209   7.579 -47.228  1.00  0.00     0.025 C 
HETATM   19  C25 UNL     1     -23.436   8.067 -44.986  1.00  0.00    -0.066 C 
HETATM   20  C26 UNL     1     -24.214   9.104 -44.901  1.00  0.00    -0.022 C 
HETATM   21  C27 UNL     1     -24.612   9.808 -43.681  1.00  0.00     0.038 C 
HETATM   22  C28 UNL     1     -23.759   9.542 -42.461  1.00  0.00    -0.022 C 
HETATM   23  C29 UNL     1     -24.653   8.931 -41.389  1.00  0.00     0.017 C 
ENDROOT
BRANCH   1  24
HETATM   24  C6  UNL     1     -23.951  11.809 -41.251  1.00  0.00    -0.003 C 
HETATM   25  C7  UNL     1     -24.809  11.391 -40.154  1.00  0.00     0.011 C 
BRANCH  24  26
HETATM   26  C5  UNL     1     -24.693  12.715 -42.194  1.00  0.00     0.038 C 
BRANCH  26  27
HETATM   27  C4  UNL     1     -23.993  13.512 -43.175  1.00  0.00     0.056 C 
BRANCH  27  28
HETATM   28  C3  UNL     1     -22.836  14.335 -42.946  1.00  0.00     0.279 C 
HETATM   29  O2  UNL     1     -21.637  14.046 -42.751  1.00  0.00    -0.261 OA
BRANCH  28  30
HETATM   30  O1  UNL     1     -23.038  15.763 -42.926  1.00  0.00    -0.319 OA
BRANCH  30  31
HETATM   31  C2  UNL     1     -22.043  16.652 -42.516  1.00  0.00     0.174 C 
HETATM   32  C1  UNL     1     -22.546  18.047 -42.923  1.00  0.00     0.034 C 
ENDBRANCH  30  31
ENDBRANCH  28  30
ENDBRANCH  27  28
ENDBRANCH  26  27
ENDBRANCH  24  26
ENDBRANCH   1  24
BRANCH  15  33
HETATM   33  O5  UNL     1     -19.763   6.819 -47.630  1.00  0.00    -0.381 OA
ATOM     34  H5  UNL     1     -19.401   6.540 -48.463  1.00  0.00     0.211 HD
ENDBRANCH  15  33
BRANCH  15  35
HETATM   35  C21 UNL     1     -21.498   7.052 -49.167  1.00  0.00     0.161 C 
HETATM   36 CL1  UNL     1     -19.979   7.529 -49.963  1.00  0.00    -0.127 Cl
ENDBRANCH  15  35
TORSDOF 8
ENDMDL
