MODEL 1
REMARK VINA RESULT: -9.230628972      0.000      0.000
REMARK  6 active torsions:
REMARK  status: ('A' for Active; 'I' for Inactive)
REMARK    1  A    between atoms: C2_2  and  C3_3 
REMARK    2  A    between atoms: C3_3  and  C4_4 
REMARK    3  A    between atoms: C4_4  and  N1_5 
REMARK    4  A    between atoms: C17_20  and  O2_21 
REMARK    5  A    between atoms: C22_26  and  O3_27 
REMARK    6  A    between atoms: C23_29  and  O4_30 
ROOT
HETATM    1  N1  UNL     1     -22.290  12.346 -42.557  1.00  0.00     0.102 N 
HETATM    2  C5  UNL     1     -20.834  12.425 -42.555  1.00  0.00     0.311 C 
HETATM    3  C6  UNL     1     -20.818  10.966 -42.400  1.00  0.00    -0.000 C 
HETATM    4  C7  UNL     1     -20.350   9.749 -42.504  1.00  0.00     0.022 C 
HETATM    5 CL1  UNL     1     -18.766   9.553 -43.293  1.00  0.00    -0.088 Cl
HETATM    6  C8  UNL     1     -21.022   8.506 -42.046  1.00  0.00     0.086 C 
HETATM    7  C9  UNL     1     -22.345   8.832 -41.464  1.00  0.00    -0.065 C 
HETATM    8  C10 UNL     1     -23.113   7.635 -41.058  1.00  0.00    -0.061 C 
HETATM    9  C11 UNL     1     -24.431   7.837 -40.475  1.00  0.00     0.043 C 
HETATM   10  C12 UNL     1     -25.246   6.696 -41.079  1.00  0.00     0.084 C 
HETATM   11  C13 UNL     1     -24.170   5.675 -41.362  1.00  0.00     0.139 C 
HETATM   12  O1  UNL     1     -24.341   4.528 -41.082  1.00  0.00    -0.297 OA
HETATM   13  C14 UNL     1     -23.068   6.414 -41.968  1.00  0.00     0.119 C 
HETATM   14  C15 UNL     1     -23.337   6.685 -43.382  1.00  0.00    -0.022 A 
HETATM   15  C16 UNL     1     -23.901   7.707 -44.129  1.00  0.00    -0.017 A 
HETATM   16  C17 UNL     1     -24.035   7.614 -45.502  1.00  0.00     0.075 A 
HETATM   17  C19 UNL     1     -23.615   6.510 -46.166  1.00  0.00     0.049 A 
HETATM   18  C20 UNL     1     -23.040   5.463 -45.449  1.00  0.00    -0.020 A 
HETATM   19  C21 UNL     1     -22.601   4.359 -46.142  1.00  0.00     0.051 A 
HETATM   20  C22 UNL     1     -22.005   3.301 -45.500  1.00  0.00     0.099 A 
HETATM   21  C23 UNL     1     -21.852   3.362 -44.148  1.00  0.00     0.102 A 
HETATM   22  C25 UNL     1     -22.301   4.482 -43.463  1.00  0.00     0.052 A 
HETATM   23  C26 UNL     1     -22.903   5.556 -44.066  1.00  0.00    -0.015 A 
HETATM   24  C27 UNL     1     -24.409   9.046 -43.855  1.00  0.00     0.043 C 
HETATM   25  C28 UNL     1     -23.268  10.002 -43.525  1.00  0.00     0.016 C 
HETATM   26  C29 UNL     1     -23.052   9.991 -42.062  1.00  0.00     0.053 C 
HETATM   27  C30 UNL     1     -22.157  11.206 -41.712  1.00  0.00     0.263 C 
ENDROOT
BRANCH   1  28
HETATM   28  C4  UNL     1     -22.944  13.481 -41.940  1.00  0.00     0.277 C 
BRANCH  28  29
HETATM   29  C3  UNL     1     -23.520  14.383 -42.996  1.00  0.00     0.056 C 
BRANCH  29  30
HETATM   30  C2  UNL     1     -22.899  15.733 -42.952  1.00  0.00    -0.035 C 
HETATM   31  C1  UNL     1     -21.836  15.993 -42.200  1.00  0.00     0.007 C 
ENDBRANCH  29  30
ENDBRANCH  28  29
ENDBRANCH   1  28
BRANCH  16  32
HETATM   32  O2  UNL     1     -24.605   8.669 -46.183  1.00  0.00    -0.355 OA
HETATM   33  C18 UNL     1     -25.182   8.490 -47.459  1.00  0.00     0.210 C 
ENDBRANCH  16  32
BRANCH  21  34
HETATM   34  O4  UNL     1     -21.269   2.341 -43.463  1.00  0.00    -0.353 OA
HETATM   35  C24 UNL     1     -19.990   1.886 -43.352  1.00  0.00     0.210 C 
ENDBRANCH  21  34
BRANCH  20  36
HETATM   36  O3  UNL     1     -21.558   2.172 -46.220  1.00  0.00    -0.358 OA
ATOM     37  H3  UNL     1     -20.765   1.713 -45.969  1.00  0.00     0.217 HD
ENDBRANCH  20  36
TORSDOF 6
ENDMDL
MODEL 2
REMARK VINA RESULT: -8.350374562      3.308      8.222
REMARK  6 active torsions:
REMARK  status: ('A' for Active; 'I' for Inactive)
REMARK    1  A    between atoms: C2_2  and  C3_3 
REMARK    2  A    between atoms: C3_3  and  C4_4 
REMARK    3  A    between atoms: C4_4  and  N1_5 
REMARK    4  A    between atoms: C17_20  and  O2_21 
REMARK    5  A    between atoms: C22_26  and  O3_27 
REMARK    6  A    between atoms: C23_29  and  O4_30 
ROOT
HETATM    1  N1  UNL     1     -21.412   6.121 -44.000  1.00  0.00     0.102 N 
HETATM    2  C5  UNL     1     -20.362   6.348 -44.985  1.00  0.00     0.311 C 
HETATM    3  C6  UNL     1     -20.728   7.769 -44.954  1.00  0.00    -0.000 C 
HETATM    4  C7  UNL     1     -20.552   9.061 -45.062  1.00  0.00     0.022 C 
HETATM    5 CL1  UNL     1     -18.926   9.623 -45.522  1.00  0.00    -0.088 Cl
HETATM    6  C8  UNL     1     -21.573  10.111 -44.815  1.00  0.00     0.086 C 
HETATM    7  C9  UNL     1     -22.848   9.487 -44.391  1.00  0.00    -0.065 C 
HETATM    8  C10 UNL     1     -23.893  10.476 -44.046  1.00  0.00    -0.061 C 
HETATM    9  C11 UNL     1     -25.188   9.974 -43.613  1.00  0.00     0.043 C 
HETATM   10  C12 UNL     1     -25.573  10.947 -42.501  1.00  0.00     0.084 C 
HETATM   11  C13 UNL     1     -24.806  12.183 -42.906  1.00  0.00     0.139 C 
HETATM   12  O1  UNL     1     -25.331  13.254 -42.875  1.00  0.00    -0.297 OA
HETATM   13  C14 UNL     1     -23.473  11.723 -43.278  1.00  0.00     0.119 C 
HETATM   14  C15 UNL     1     -22.657  11.471 -42.088  1.00  0.00    -0.022 A 
HETATM   15  C16 UNL     1     -22.362  10.391 -41.271  1.00  0.00    -0.017 A 
HETATM   16  C17 UNL     1     -21.545  10.522 -40.163  1.00  0.00     0.075 A 
HETATM   17  C19 UNL     1     -21.003  11.720 -39.838  1.00  0.00     0.049 A 
HETATM   18  C20 UNL     1     -21.274  12.828 -40.639  1.00  0.00    -0.020 A 
HETATM   19  C21 UNL     1     -20.699  14.032 -40.306  1.00  0.00     0.051 A 
HETATM   20  C22 UNL     1     -20.907  15.158 -41.063  1.00  0.00     0.099 A 
HETATM   21  C23 UNL     1     -21.702  15.065 -42.166  1.00  0.00     0.102 A 
HETATM   22  C25 UNL     1     -22.275  13.843 -42.488  1.00  0.00     0.052 A 
HETATM   23  C26 UNL     1     -22.096  12.698 -41.756  1.00  0.00    -0.015 A 
HETATM   24  C27 UNL     1     -22.659   8.964 -41.274  1.00  0.00     0.043 C 
HETATM   25  C28 UNL     1     -21.891   8.253 -42.383  1.00  0.00     0.016 C 
HETATM   26  C29 UNL     1     -22.730   8.237 -43.601  1.00  0.00     0.053 C 
HETATM   27  C30 UNL     1     -22.102   7.220 -44.588  1.00  0.00     0.263 C 
ENDROOT
BRANCH   1  28
HETATM   28  C4  UNL     1     -22.084   4.845 -44.136  1.00  0.00     0.277 C 
BRANCH  28  29
HETATM   29  C3  UNL     1     -23.491   4.944 -43.617  1.00  0.00     0.056 C 
BRANCH  29  30
HETATM   30  C2  UNL     1     -23.524   4.901 -42.131  1.00  0.00    -0.035 C 
HETATM   31  C1  UNL     1     -24.457   5.536 -41.430  1.00  0.00     0.007 C 
ENDBRANCH  29  30
ENDBRANCH  28  29
ENDBRANCH   1  28
BRANCH  16  32
HETATM   32  O2  UNL     1     -21.294   9.405 -39.393  1.00  0.00    -0.355 OA
HETATM   33  C18 UNL     1     -19.974   9.026 -39.062  1.00  0.00     0.210 C 
ENDBRANCH  16  32
BRANCH  21  34
HETATM   34  O4  UNL     1     -21.941  16.150 -42.950  1.00  0.00    -0.353 OA
HETATM   35  C24 UNL     1     -22.879  17.138 -42.939  1.00  0.00     0.210 C 
ENDBRANCH  21  34
BRANCH  20  36
HETATM   36  O3  UNL     1     -20.312  16.390 -40.714  1.00  0.00    -0.358 OA
ATOM     37  H3  UNL     1     -20.047  17.013 -41.381  1.00  0.00     0.217 HD
ENDBRANCH  20  36
TORSDOF 6
ENDMDL
MODEL 3
REMARK VINA RESULT: -8.202274361      0.856      1.397
REMARK  6 active torsions:
REMARK  status: ('A' for Active; 'I' for Inactive)
REMARK    1  A    between atoms: C2_2  and  C3_3 
REMARK    2  A    between atoms: C3_3  and  C4_4 
REMARK    3  A    between atoms: C4_4  and  N1_5 
REMARK    4  A    between atoms: C17_20  and  O2_21 
REMARK    5  A    between atoms: C22_26  and  O3_27 
REMARK    6  A    between atoms: C23_29  and  O4_30 
ROOT
HETATM    1  N1  UNL     1     -22.154  12.154 -42.589  1.00  0.00     0.102 N 
HETATM    2  C5  UNL     1     -20.703  12.260 -42.676  1.00  0.00     0.311 C 
HETATM    3  C6  UNL     1     -20.654  10.796 -42.596  1.00  0.00    -0.000 C 
HETATM    4  C7  UNL     1     -20.175   9.594 -42.791  1.00  0.00     0.022 C 
HETATM    5 CL1  UNL     1     -18.643   9.467 -43.689  1.00  0.00    -0.088 Cl
HETATM    6  C8  UNL     1     -20.798   8.318 -42.355  1.00  0.00     0.086 C 
HETATM    7  C9  UNL     1     -22.085   8.590 -41.674  1.00  0.00    -0.065 C 
HETATM    8  C10 UNL     1     -22.807   7.360 -41.281  1.00  0.00    -0.061 C 
HETATM    9  C11 UNL     1     -24.088   7.509 -40.606  1.00  0.00     0.043 C 
HETATM   10  C12 UNL     1     -24.922   6.384 -41.214  1.00  0.00     0.084 C 
HETATM   11  C13 UNL     1     -23.851   5.399 -41.616  1.00  0.00     0.139 C 
HETATM   12  O1  UNL     1     -23.986   4.236 -41.384  1.00  0.00    -0.297 OA
HETATM   13  C14 UNL     1     -22.802   6.187 -42.253  1.00  0.00     0.119 C 
HETATM   14  C15 UNL     1     -23.166   6.523 -43.632  1.00  0.00    -0.022 A 
HETATM   15  C16 UNL     1     -23.792   7.570 -44.288  1.00  0.00    -0.017 A 
HETATM   16  C17 UNL     1     -24.012   7.542 -45.653  1.00  0.00     0.075 A 
HETATM   17  C19 UNL     1     -23.620   6.481 -46.397  1.00  0.00     0.049 A 
HETATM   18  C20 UNL     1     -22.983   5.411 -45.772  1.00  0.00    -0.020 A 
HETATM   19  C21 UNL     1     -22.573   4.350 -46.547  1.00  0.00     0.051 A 
HETATM   20  C22 UNL     1     -21.921   3.274 -45.999  1.00  0.00     0.099 A 
HETATM   21  C23 UNL     1     -21.682   3.270 -44.657  1.00  0.00     0.102 A 
HETATM   22  C25 UNL     1     -22.103   4.346 -43.890  1.00  0.00     0.052 A 
HETATM   23  C26 UNL     1     -22.759   5.437 -44.398  1.00  0.00    -0.015 A 
HETATM   24  C27 UNL     1     -24.302   8.884 -43.916  1.00  0.00     0.043 C 
HETATM   25  C28 UNL     1     -23.156   9.844 -43.611  1.00  0.00     0.016 C 
HETATM   26  C29 UNL     1     -22.847   9.764 -42.166  1.00  0.00     0.053 C 
HETATM   27  C30 UNL     1     -21.950  10.977 -41.813  1.00  0.00     0.263 C 
ENDROOT
BRANCH   1  28
HETATM   28  C4  UNL     1     -22.785  13.245 -41.875  1.00  0.00     0.277 C 
BRANCH  28  29
HETATM   29  C3  UNL     1     -22.570  13.087 -40.395  1.00  0.00     0.056 C 
BRANCH  29  30
HETATM   30  C2  UNL     1     -23.756  12.475 -39.739  1.00  0.00    -0.035 C 
HETATM   31  C1  UNL     1     -23.648  11.740 -38.638  1.00  0.00     0.007 C 
ENDBRANCH  29  30
ENDBRANCH  28  29
ENDBRANCH   1  28
BRANCH  16  32
HETATM   32  O2  UNL     1     -24.642   8.619 -46.242  1.00  0.00    -0.355 OA
HETATM   33  C18 UNL     1     -25.315   8.488 -47.477  1.00  0.00     0.210 C 
ENDBRANCH  16  32
BRANCH  21  34
HETATM   34  O4  UNL     1     -21.041   2.227 -44.064  1.00  0.00    -0.353 OA
HETATM   35  C24 UNL     1     -19.735   1.953 -43.789  1.00  0.00     0.210 C 
ENDBRANCH  21  34
BRANCH  20  36
HETATM   36  O3  UNL     1     -21.504   2.190 -46.802  1.00  0.00    -0.358 OA
ATOM     37  H3  UNL     1     -20.662   1.772 -46.662  1.00  0.00     0.217 HD
ENDBRANCH  20  36
TORSDOF 6
ENDMDL
MODEL 4
REMARK VINA RESULT: -7.745312174      3.448      6.161
REMARK  6 active torsions:
REMARK  status: ('A' for Active; 'I' for Inactive)
REMARK    1  A    between atoms: C2_2  and  C3_3 
REMARK    2  A    between atoms: C3_3  and  C4_4 
REMARK    3  A    between atoms: C4_4  and  N1_5 
REMARK    4  A    between atoms: C17_20  and  O2_21 
REMARK    5  A    between atoms: C22_26  and  O3_27 
REMARK    6  A    between atoms: C23_29  and  O4_30 
ROOT
HETATM    1  N1  UNL     1     -17.278   7.599 -46.352  1.00  0.00     0.102 N 
HETATM    2  C5  UNL     1     -16.503   8.125 -45.235  1.00  0.00     0.311 C 
HETATM    3  C6  UNL     1     -17.778   8.479 -44.599  1.00  0.00    -0.000 C 
HETATM    4  C7  UNL     1     -18.606   8.726 -43.617  1.00  0.00     0.022 C 
HETATM    5 CL1  UNL     1     -17.962   8.610 -41.962  1.00  0.00    -0.088 Cl
HETATM    6  C8  UNL     1     -20.045   9.074 -43.747  1.00  0.00     0.086 C 
HETATM    7  C9  UNL     1     -20.437   9.078 -45.176  1.00  0.00    -0.065 C 
HETATM    8  C10 UNL     1     -21.879   9.336 -45.383  1.00  0.00    -0.061 C 
HETATM    9  C11 UNL     1     -22.377   9.359 -46.750  1.00  0.00     0.043 C 
HETATM   10  C12 UNL     1     -23.731   8.665 -46.628  1.00  0.00     0.084 C 
HETATM   11  C13 UNL     1     -24.083   8.944 -45.186  1.00  0.00     0.139 C 
HETATM   12  O1  UNL     1     -25.183   9.300 -44.893  1.00  0.00    -0.297 OA
HETATM   13  C14 UNL     1     -22.867   8.688 -44.421  1.00  0.00     0.119 C 
HETATM   14  C15 UNL     1     -22.675   7.251 -44.212  1.00  0.00    -0.022 A 
HETATM   15  C16 UNL     1     -22.012   6.213 -44.847  1.00  0.00    -0.017 A 
HETATM   16  C17 UNL     1     -22.074   4.915 -44.376  1.00  0.00     0.075 A 
HETATM   17  C19 UNL     1     -22.793   4.614 -43.268  1.00  0.00     0.049 A 
HETATM   18  C20 UNL     1     -23.471   5.632 -42.601  1.00  0.00    -0.020 A 
HETATM   19  C21 UNL     1     -24.180   5.311 -41.466  1.00  0.00     0.051 A 
HETATM   20  C22 UNL     1     -24.853   6.268 -40.748  1.00  0.00     0.099 A 
HETATM   21  C23 UNL     1     -24.808   7.560 -41.180  1.00  0.00     0.102 A 
HETATM   22  C25 UNL     1     -24.090   7.866 -42.327  1.00  0.00     0.052 A 
HETATM   23  C26 UNL     1     -23.408   6.940 -43.073  1.00  0.00    -0.015 A 
HETATM   24  C27 UNL     1     -21.107   6.090 -45.984  1.00  0.00     0.043 C 
HETATM   25  C28 UNL     1     -19.739   6.679 -45.654  1.00  0.00     0.016 C 
HETATM   26  C29 UNL     1     -19.733   8.105 -46.047  1.00  0.00     0.053 C 
HETATM   27  C30 UNL     1     -18.259   8.585 -46.041  1.00  0.00     0.263 C 
ENDROOT
BRANCH   1  28
HETATM   28  C4  UNL     1     -16.643   7.767 -47.642  1.00  0.00     0.277 C 
BRANCH  28  29
HETATM   29  C3  UNL     1     -16.632   9.220 -48.028  1.00  0.00     0.056 C 
BRANCH  29  30
HETATM   30  C2  UNL     1     -17.358   9.446 -49.306  1.00  0.00    -0.035 C 
HETATM   31  C1  UNL     1     -18.492  10.136 -49.357  1.00  0.00     0.007 C 
ENDBRANCH  29  30
ENDBRANCH  28  29
ENDBRANCH   1  28
BRANCH  16  32
HETATM   32  O2  UNL     1     -21.389   3.931 -45.058  1.00  0.00    -0.355 OA
HETATM   33  C18 UNL     1     -20.992   2.737 -44.417  1.00  0.00     0.210 C 
ENDBRANCH  16  32
BRANCH  21  34
HETATM   34  O4  UNL     1     -25.457   8.546 -40.506  1.00  0.00    -0.353 OA
HETATM   35  C24 UNL     1     -25.231   9.878 -40.330  1.00  0.00     0.210 C 
ENDBRANCH  21  34
BRANCH  20  36
HETATM   36  O3  UNL     1     -25.577   5.929 -39.584  1.00  0.00    -0.358 OA
ATOM     37  H3  UNL     1     -25.393   6.350 -38.752  1.00  0.00     0.217 HD
ENDBRANCH  20  36
TORSDOF 6
ENDMDL
MODEL 5
REMARK VINA RESULT: -7.663635371      1.682      2.284
REMARK  6 active torsions:
REMARK  status: ('A' for Active; 'I' for Inactive)
REMARK    1  A    between atoms: C2_2  and  C3_3 
REMARK    2  A    between atoms: C3_3  and  C4_4 
REMARK    3  A    between atoms: C4_4  and  N1_5 
REMARK    4  A    between atoms: C17_20  and  O2_21 
REMARK    5  A    between atoms: C22_26  and  O3_27 
REMARK    6  A    between atoms: C23_29  and  O4_30 
ROOT
HETATM    1  N1  UNL     1     -22.459  11.501 -42.632  1.00  0.00     0.102 N 
HETATM    2  C5  UNL     1     -21.056  11.894 -42.579  1.00  0.00     0.311 C 
HETATM    3  C6  UNL     1     -20.720  10.507 -42.922  1.00  0.00    -0.000 C 
HETATM    4  C7  UNL     1     -20.010   9.528 -43.419  1.00  0.00     0.022 C 
HETATM    5 CL1  UNL     1     -18.469   9.958 -44.202  1.00  0.00    -0.088 Cl
HETATM    6  C8  UNL     1     -20.373   8.088 -43.416  1.00  0.00     0.086 C 
HETATM    7  C9  UNL     1     -21.699   7.903 -42.780  1.00  0.00    -0.065 C 
HETATM    8  C10 UNL     1     -22.169   6.501 -42.813  1.00  0.00    -0.061 C 
HETATM    9  C11 UNL     1     -23.463   6.203 -42.218  1.00  0.00     0.043 C 
HETATM   10  C12 UNL     1     -24.050   5.175 -43.184  1.00  0.00     0.084 C 
HETATM   11  C13 UNL     1     -22.799   4.569 -43.773  1.00  0.00     0.139 C 
HETATM   12  O1  UNL     1     -22.704   3.386 -43.897  1.00  0.00    -0.297 OA
HETATM   13  C14 UNL     1     -21.917   5.691 -44.078  1.00  0.00     0.119 C 
HETATM   14  C15 UNL     1     -22.320   6.348 -45.324  1.00  0.00    -0.022 A 
HETATM   15  C16 UNL     1     -23.131   7.408 -45.695  1.00  0.00    -0.017 A 
HETATM   16  C17 UNL     1     -23.322   7.746 -47.022  1.00  0.00     0.075 A 
HETATM   17  C19 UNL     1     -22.716   7.046 -48.010  1.00  0.00     0.049 A 
HETATM   18  C20 UNL     1     -21.889   5.975 -47.675  1.00  0.00    -0.020 A 
HETATM   19  C21 UNL     1     -21.266   5.287 -48.691  1.00  0.00     0.051 A 
HETATM   20  C22 UNL     1     -20.422   4.236 -48.430  1.00  0.00     0.099 A 
HETATM   21  C23 UNL     1     -20.207   3.878 -47.133  1.00  0.00     0.102 A 
HETATM   22  C25 UNL     1     -20.843   4.581 -46.121  1.00  0.00     0.052 A 
HETATM   23  C26 UNL     1     -21.695   5.633 -46.339  1.00  0.00    -0.015 A 
HETATM   24  C27 UNL     1     -23.897   8.433 -44.997  1.00  0.00     0.043 C 
HETATM   25  C28 UNL     1     -22.968   9.454 -44.347  1.00  0.00     0.016 C 
HETATM   26  C29 UNL     1     -22.671   9.008 -42.968  1.00  0.00     0.053 C 
HETATM   27  C30 UNL     1     -22.037  10.205 -42.216  1.00  0.00     0.263 C 
ENDROOT
BRANCH   1  28
HETATM   28  C4  UNL     1     -23.303  12.194 -41.682  1.00  0.00     0.277 C 
BRANCH  28  29
HETATM   29  C3  UNL     1     -24.522  12.739 -42.374  1.00  0.00     0.056 C 
BRANCH  29  30
HETATM   30  C2  UNL     1     -24.162  13.815 -43.336  1.00  0.00    -0.035 C 
HETATM   31  C1  UNL     1     -23.401  14.845 -42.985  1.00  0.00     0.007 C 
ENDBRANCH  29  30
ENDBRANCH  28  29
ENDBRANCH   1  28
BRANCH  16  32
HETATM   32  O2  UNL     1     -24.143   8.814 -47.319  1.00  0.00    -0.355 OA
HETATM   33  C18 UNL     1     -25.536   8.643 -47.481  1.00  0.00     0.210 C 
ENDBRANCH  16  32
BRANCH  21  34
HETATM   34  O4  UNL     1     -19.381   2.844 -46.821  1.00  0.00    -0.353 OA
HETATM   35  C24 UNL     1     -18.998   2.259 -45.651  1.00  0.00     0.210 C 
ENDBRANCH  21  34
BRANCH  20  36
HETATM   36  O3  UNL     1     -19.787   3.536 -49.480  1.00  0.00    -0.358 OA
ATOM     37  H3  UNL     1     -20.022   2.638 -49.683  1.00  0.00     0.217 HD
ENDBRANCH  20  36
TORSDOF 6
ENDMDL
