MODEL 1
REMARK VINA RESULT: -9.435384760      0.000      0.000
REMARK  9 active torsions:
REMARK  status: ('A' for Active; 'I' for Inactive)
REMARK    1  A    between atoms: C2_2  and  C3_4 
REMARK    2  A    between atoms: C11_12  and  O1_13 
REMARK    3  A    between atoms: O1_13  and  C12_14 
REMARK    4  A    between atoms: C12_14  and  C13_16 
REMARK    5  A    between atoms: C13_16  and  C14_17 
REMARK    6  A    between atoms: C14_17  and  C17_20 
REMARK    7  A    between atoms: C17_20  and  O4_22 
REMARK    8  A    between atoms: C19_24  and  C20_25 
REMARK    9  A    between atoms: C28_33  and  O5_34 
ROOT
HETATM    1  C3  UNL     1     -22.651  13.503 -40.996  1.00  0.00     0.040 C 
HETATM    2  C4  UNL     1     -22.535  12.569 -39.793  1.00  0.00     0.011 C 
HETATM    3  C5  UNL     1     -23.809  11.768 -39.906  1.00  0.00     0.007 C 
HETATM    4  C6  UNL     1     -24.344  11.939 -41.306  1.00  0.00     0.002 C 
HETATM    5  C7  UNL     1     -24.346  10.576 -41.952  1.00  0.00     0.001 C 
HETATM    6  C8  UNL     1     -25.191  10.544 -43.178  1.00  0.00     0.033 C 
HETATM    7  C9  UNL     1     -24.815   9.319 -43.968  1.00  0.00    -0.020 C 
HETATM    8  C10 UNL     1     -23.682   8.716 -43.895  1.00  0.00    -0.045 C 
HETATM    9  C11 UNL     1     -23.395   7.502 -44.720  1.00  0.00     0.166 C 
HETATM   10  C19 UNL     1     -23.555   6.391 -43.730  1.00  0.00     0.023 C 
HETATM   11  C23 UNL     1     -22.868   6.669 -42.437  1.00  0.00     0.009 C 
HETATM   12  C24 UNL     1     -22.160   7.925 -42.224  1.00  0.00     0.014 C 
HETATM   13  C25 UNL     1     -22.584   9.142 -43.011  1.00  0.00    -0.012 C 
HETATM   14  C26 UNL     1     -21.385   9.449 -43.925  1.00  0.00     0.021 C 
HETATM   15  C27 UNL     1     -22.883  10.331 -42.190  1.00  0.00     0.032 C 
HETATM   16  C28 UNL     1     -22.450  11.662 -42.761  1.00  0.00     0.133 C 
HETATM   17  C29 UNL     1     -23.256  12.706 -42.078  1.00  0.00    -0.005 C 
HETATM   18  C30 UNL     1     -23.916  13.677 -43.047  1.00  0.00     0.019 C 
ENDROOT
BRANCH   9  19
HETATM   19  O1  UNL     1     -24.187   7.445 -45.859  1.00  0.00    -0.311 OA
BRANCH  19  20
HETATM   20  C12 UNL     1     -23.766   8.020 -47.069  1.00  0.00     0.263 C 
HETATM   21  O2  UNL     1     -24.651   8.455 -47.832  1.00  0.00    -0.265 OA
BRANCH  20  22
HETATM   22  C13 UNL     1     -22.352   8.113 -47.447  1.00  0.00     0.155 C 
BRANCH  22  23
HETATM   23  C14 UNL     1     -21.817   6.937 -48.152  1.00  0.00     0.022 C 
HETATM   24  C15 UNL     1     -21.508   7.097 -49.427  1.00  0.00    -0.017 C 
HETATM   25  C16 UNL     1     -20.963   6.032 -50.280  1.00  0.00     0.036 C 
BRANCH  23  26
HETATM   26  C17 UNL     1     -21.625   5.691 -47.442  1.00  0.00     0.289 C 
HETATM   27  O3  UNL     1     -22.567   4.848 -47.437  1.00  0.00    -0.260 OA
BRANCH  26  28
HETATM   28  O4  UNL     1     -20.491   5.311 -46.754  1.00  0.00    -0.323 OA
HETATM   29  C18 UNL     1     -20.078   6.016 -45.604  1.00  0.00     0.213 C 
ENDBRANCH  26  28
ENDBRANCH  23  26
ENDBRANCH  22  23
ENDBRANCH  20  22
ENDBRANCH  19  20
ENDBRANCH   9  19
BRANCH  10  30
HETATM   30  C20 UNL     1     -23.402   5.004 -44.223  1.00  0.00    -0.016 C 
HETATM   31  C21 UNL     1     -22.470   4.206 -43.343  1.00  0.00     0.010 C 
HETATM   32  C22 UNL     1     -24.685   4.278 -44.499  1.00  0.00     0.010 C 
ENDBRANCH  10  30
BRANCH  16  33
HETATM   33  O5  UNL     1     -22.761  11.743 -44.130  1.00  0.00    -0.394 OA
ATOM     34  H5  UNL     1     -23.667  11.501 -44.286  1.00  0.00     0.210 HD
ENDBRANCH  16  33
BRANCH   1  35
HETATM   35  C2  UNL     1     -21.418  14.247 -41.234  1.00  0.00     0.007 C 
HETATM   36  C1  UNL     1     -21.028  15.159 -40.345  1.00  0.00     0.032 C 
HETATM   37 CL1  UNL     1     -20.393  13.950 -42.606  1.00  0.00    -0.089 Cl
ENDBRANCH   1  35
TORSDOF 9
ENDMDL
MODEL 2
REMARK VINA RESULT: -9.403451677      1.214      1.784
REMARK  9 active torsions:
REMARK  status: ('A' for Active; 'I' for Inactive)
REMARK    1  A    between atoms: C2_2  and  C3_4 
REMARK    2  A    between atoms: C11_12  and  O1_13 
REMARK    3  A    between atoms: O1_13  and  C12_14 
REMARK    4  A    between atoms: C12_14  and  C13_16 
REMARK    5  A    between atoms: C13_16  and  C14_17 
REMARK    6  A    between atoms: C14_17  and  C17_20 
REMARK    7  A    between atoms: C17_20  and  O4_22 
REMARK    8  A    between atoms: C19_24  and  C20_25 
REMARK    9  A    between atoms: C28_33  and  O5_34 
ROOT
HETATM    1  C3  UNL     1     -22.594  13.528 -40.928  1.00  0.00     0.040 C 
HETATM    2  C4  UNL     1     -22.445  12.587 -39.734  1.00  0.00     0.011 C 
HETATM    3  C5  UNL     1     -23.725  11.791 -39.813  1.00  0.00     0.007 C 
HETATM    4  C6  UNL     1     -24.300  11.971 -41.196  1.00  0.00     0.002 C 
HETATM    5  C7  UNL     1     -24.326  10.611 -41.848  1.00  0.00     0.001 C 
HETATM    6  C8  UNL     1     -25.208  10.589 -43.049  1.00  0.00     0.033 C 
HETATM    7  C9  UNL     1     -24.860   9.368 -43.857  1.00  0.00    -0.020 C 
HETATM    8  C10 UNL     1     -23.727   8.760 -43.821  1.00  0.00    -0.045 C 
HETATM    9  C11 UNL     1     -23.469   7.550 -44.660  1.00  0.00     0.166 C 
HETATM   10  C19 UNL     1     -23.604   6.434 -43.672  1.00  0.00     0.023 C 
HETATM   11  C23 UNL     1     -22.878   6.702 -42.399  1.00  0.00     0.009 C 
HETATM   12  C24 UNL     1     -22.159   7.955 -42.200  1.00  0.00     0.014 C 
HETATM   13  C25 UNL     1     -22.602   9.177 -42.968  1.00  0.00    -0.012 C 
HETATM   14  C26 UNL     1     -21.430   9.486 -43.915  1.00  0.00     0.021 C 
HETATM   15  C27 UNL     1     -22.872  10.363 -42.132  1.00  0.00     0.032 C 
HETATM   16  C28 UNL     1     -22.452  11.696 -42.708  1.00  0.00     0.133 C 
HETATM   17  C29 UNL     1     -23.233  12.739 -41.996  1.00  0.00    -0.005 C 
HETATM   18  C30 UNL     1     -23.918  13.718 -42.940  1.00  0.00     0.019 C 
ENDROOT
BRANCH   9  19
HETATM   19  O1  UNL     1     -24.295   7.502 -45.776  1.00  0.00    -0.311 OA
BRANCH  19  20
HETATM   20  C12 UNL     1     -23.795   7.749 -47.064  1.00  0.00     0.263 C 
HETATM   21  O2  UNL     1     -24.343   8.653 -47.725  1.00  0.00    -0.265 OA
BRANCH  20  22
HETATM   22  C13 UNL     1     -22.678   6.989 -47.636  1.00  0.00     0.155 C 
BRANCH  22  23
HETATM   23  C14 UNL     1     -21.340   7.445 -47.225  1.00  0.00     0.022 C 
HETATM   24  C15 UNL     1     -20.713   6.713 -46.320  1.00  0.00    -0.017 C 
HETATM   25  C16 UNL     1     -19.374   7.021 -45.799  1.00  0.00     0.036 C 
BRANCH  23  26
HETATM   26  C17 UNL     1     -20.760   8.626 -47.827  1.00  0.00     0.289 C 
HETATM   27  O3  UNL     1     -21.094   9.759 -47.376  1.00  0.00    -0.260 OA
BRANCH  26  28
HETATM   28  O4  UNL     1     -19.853   8.650 -48.866  1.00  0.00    -0.323 OA
HETATM   29  C18 UNL     1     -18.844   9.633 -48.917  1.00  0.00     0.213 C 
ENDBRANCH  26  28
ENDBRANCH  23  26
ENDBRANCH  22  23
ENDBRANCH  20  22
ENDBRANCH  19  20
ENDBRANCH   9  19
BRANCH  10  30
HETATM   30  C20 UNL     1     -23.470   5.050 -44.177  1.00  0.00    -0.016 C 
HETATM   31  C21 UNL     1     -22.536   4.236 -43.315  1.00  0.00     0.010 C 
HETATM   32  C22 UNL     1     -24.764   4.337 -44.442  1.00  0.00     0.010 C 
ENDBRANCH  10  30
BRANCH  16  33
HETATM   33  O5  UNL     1     -22.803  11.785 -44.067  1.00  0.00    -0.394 OA
ATOM     34  H5  UNL     1     -22.101  12.181 -44.572  1.00  0.00     0.210 HD
ENDBRANCH  16  33
BRANCH   1  35
HETATM   35  C2  UNL     1     -21.366  14.269 -41.198  1.00  0.00     0.007 C 
HETATM   36  C1  UNL     1     -20.976  15.213 -40.344  1.00  0.00     0.032 C 
HETATM   37 CL1  UNL     1     -20.347  13.930 -42.564  1.00  0.00    -0.089 Cl
ENDBRANCH   1  35
TORSDOF 9
ENDMDL
MODEL 3
REMARK VINA RESULT: -9.398015694      1.001      1.334
REMARK  9 active torsions:
REMARK  status: ('A' for Active; 'I' for Inactive)
REMARK    1  A    between atoms: C2_2  and  C3_4 
REMARK    2  A    between atoms: C11_12  and  O1_13 
REMARK    3  A    between atoms: O1_13  and  C12_14 
REMARK    4  A    between atoms: C12_14  and  C13_16 
REMARK    5  A    between atoms: C13_16  and  C14_17 
REMARK    6  A    between atoms: C14_17  and  C17_20 
REMARK    7  A    between atoms: C17_20  and  O4_22 
REMARK    8  A    between atoms: C19_24  and  C20_25 
REMARK    9  A    between atoms: C28_33  and  O5_34 
ROOT
HETATM    1  C3  UNL     1     -22.585  13.561 -40.948  1.00  0.00     0.040 C 
HETATM    2  C4  UNL     1     -22.413  12.621 -39.757  1.00  0.00     0.011 C 
HETATM    3  C5  UNL     1     -23.680  11.805 -39.827  1.00  0.00     0.007 C 
HETATM    4  C6  UNL     1     -24.268  11.977 -41.205  1.00  0.00     0.002 C 
HETATM    5  C7  UNL     1     -24.277  10.618 -41.859  1.00  0.00     0.001 C 
HETATM    6  C8  UNL     1     -25.166  10.582 -43.054  1.00  0.00     0.033 C 
HETATM    7  C9  UNL     1     -24.804   9.367 -43.865  1.00  0.00    -0.020 C 
HETATM    8  C10 UNL     1     -23.662   8.778 -43.838  1.00  0.00    -0.045 C 
HETATM    9  C11 UNL     1     -23.390   7.574 -44.680  1.00  0.00     0.166 C 
HETATM   10  C19 UNL     1     -23.499   6.454 -43.693  1.00  0.00     0.023 C 
HETATM   11  C23 UNL     1     -22.768   6.733 -42.425  1.00  0.00     0.009 C 
HETATM   12  C24 UNL     1     -22.069   7.998 -42.230  1.00  0.00     0.014 C 
HETATM   13  C25 UNL     1     -22.538   9.213 -42.993  1.00  0.00    -0.012 C 
HETATM   14  C26 UNL     1     -21.377   9.542 -43.948  1.00  0.00     0.021 C 
HETATM   15  C27 UNL     1     -22.821  10.394 -42.154  1.00  0.00     0.032 C 
HETATM   16  C28 UNL     1     -22.427  11.733 -42.731  1.00  0.00     0.133 C 
HETATM   17  C29 UNL     1     -23.219  12.763 -42.012  1.00  0.00    -0.005 C 
HETATM   18  C30 UNL     1     -23.928  13.731 -42.950  1.00  0.00     0.019 C 
ENDROOT
BRANCH   9  19
HETATM   19  O1  UNL     1     -24.223   7.513 -45.791  1.00  0.00    -0.311 OA
BRANCH  19  20
HETATM   20  C12 UNL     1     -23.802   7.984 -47.044  1.00  0.00     0.263 C 
HETATM   21  O2  UNL     1     -24.688   8.335 -47.849  1.00  0.00    -0.265 OA
BRANCH  20  22
HETATM   22  C13 UNL     1     -22.387   8.067 -47.421  1.00  0.00     0.155 C 
BRANCH  22  23
HETATM   23  C14 UNL     1     -21.856   6.878 -48.107  1.00  0.00     0.022 C 
HETATM   24  C15 UNL     1     -22.100   5.707 -47.545  1.00  0.00    -0.017 C 
HETATM   25  C16 UNL     1     -21.647   4.422 -48.094  1.00  0.00     0.036 C 
BRANCH  23  26
HETATM   26  C17 UNL     1     -21.131   7.022 -49.351  1.00  0.00     0.289 C 
HETATM   27  O3  UNL     1     -21.791   7.145 -50.423  1.00  0.00    -0.260 OA
BRANCH  26  28
HETATM   28  O4  UNL     1     -19.760   7.044 -49.499  1.00  0.00    -0.323 OA
HETATM   29  C18 UNL     1     -19.020   8.197 -49.167  1.00  0.00     0.213 C 
ENDBRANCH  26  28
ENDBRANCH  23  26
ENDBRANCH  22  23
ENDBRANCH  20  22
ENDBRANCH  19  20
ENDBRANCH   9  19
BRANCH  10  30
HETATM   30  C20 UNL     1     -23.347   5.073 -44.200  1.00  0.00    -0.016 C 
HETATM   31  C21 UNL     1     -22.465   4.247 -43.295  1.00  0.00     0.010 C 
HETATM   32  C22 UNL     1     -24.628   4.371 -44.540  1.00  0.00     0.010 C 
ENDBRANCH  10  30
BRANCH  16  33
HETATM   33  O5  UNL     1     -22.789  11.819 -44.088  1.00  0.00    -0.394 OA
ATOM     34  H5  UNL     1     -23.601  12.303 -44.190  1.00  0.00     0.210 HD
ENDBRANCH  16  33
BRANCH   1  35
HETATM   35  C2  UNL     1     -21.371  14.322 -41.227  1.00  0.00     0.007 C 
HETATM   36  C1  UNL     1     -20.993  15.276 -40.377  1.00  0.00     0.032 C 
HETATM   37 CL1  UNL     1     -20.354  13.997 -42.597  1.00  0.00    -0.089 Cl
ENDBRANCH   1  35
TORSDOF 9
ENDMDL
MODEL 4
REMARK VINA RESULT: -9.391050132      1.652      2.661
REMARK  9 active torsions:
REMARK  status: ('A' for Active; 'I' for Inactive)
REMARK    1  A    between atoms: C2_2  and  C3_4 
REMARK    2  A    between atoms: C11_12  and  O1_13 
REMARK    3  A    between atoms: O1_13  and  C12_14 
REMARK    4  A    between atoms: C12_14  and  C13_16 
REMARK    5  A    between atoms: C13_16  and  C14_17 
REMARK    6  A    between atoms: C14_17  and  C17_20 
REMARK    7  A    between atoms: C17_20  and  O4_22 
REMARK    8  A    between atoms: C19_24  and  C20_25 
REMARK    9  A    between atoms: C28_33  and  O5_34 
ROOT
HETATM    1  C3  UNL     1     -23.170  12.388 -40.385  1.00  0.00     0.040 C 
HETATM    2  C4  UNL     1     -23.904  11.519 -39.366  1.00  0.00     0.011 C 
HETATM    3  C5  UNL     1     -25.071  11.014 -40.180  1.00  0.00     0.007 C 
HETATM    4  C6  UNL     1     -24.744  11.221 -41.638  1.00  0.00     0.002 C 
HETATM    5  C7  UNL     1     -24.705   9.858 -42.283  1.00  0.00     0.001 C 
HETATM    6  C8  UNL     1     -24.769   9.946 -43.769  1.00  0.00     0.033 C 
HETATM    7  C9  UNL     1     -24.313   8.627 -44.332  1.00  0.00    -0.020 C 
HETATM    8  C10 UNL     1     -23.546   7.793 -43.723  1.00  0.00    -0.045 C 
HETATM    9  C11 UNL     1     -23.143   6.503 -44.360  1.00  0.00     0.166 C 
HETATM   10  C19 UNL     1     -24.032   5.510 -43.677  1.00  0.00     0.023 C 
HETATM   11  C23 UNL     1     -24.079   5.701 -42.201  1.00  0.00     0.009 C 
HETATM   12  C24 UNL     1     -23.333   6.780 -41.564  1.00  0.00     0.014 C 
HETATM   13  C25 UNL     1     -23.009   8.014 -42.370  1.00  0.00    -0.012 C 
HETATM   14  C26 UNL     1     -21.476   7.998 -42.503  1.00  0.00     0.021 C 
HETATM   15  C27 UNL     1     -23.426   9.284 -41.743  1.00  0.00     0.032 C 
HETATM   16  C28 UNL     1     -22.483  10.453 -41.912  1.00  0.00     0.133 C 
HETATM   17  C29 UNL     1     -23.277  11.685 -41.677  1.00  0.00    -0.005 C 
HETATM   18  C30 UNL     1     -23.106  12.723 -42.777  1.00  0.00     0.019 C 
ENDROOT
BRANCH   9  19
HETATM   19  O1  UNL     1     -23.214   6.558 -45.746  1.00  0.00    -0.311 OA
BRANCH  19  20
HETATM   20  C12 UNL     1     -22.067   6.413 -46.542  1.00  0.00     0.263 C 
HETATM   21  O2  UNL     1     -22.238   6.135 -47.745  1.00  0.00    -0.265 OA
BRANCH  20  22
HETATM   22  C13 UNL     1     -20.711   6.571 -46.005  1.00  0.00     0.155 C 
BRANCH  22  23
HETATM   23  C14 UNL     1     -20.229   7.959 -45.930  1.00  0.00     0.022 C 
HETATM   24  C15 UNL     1     -19.177   8.183 -45.162  1.00  0.00    -0.017 C 
HETATM   25  C16 UNL     1     -18.564   9.506 -44.974  1.00  0.00     0.036 C 
BRANCH  23  26
HETATM   26  C17 UNL     1     -20.883   8.997 -46.699  1.00  0.00     0.289 C 
HETATM   27  O3  UNL     1     -21.737   9.728 -46.119  1.00  0.00    -0.260 OA
BRANCH  26  28
HETATM   28  O4  UNL     1     -20.667   9.285 -48.030  1.00  0.00    -0.323 OA
HETATM   29  C18 UNL     1     -19.424   9.790 -48.463  1.00  0.00     0.213 C 
ENDBRANCH  26  28
ENDBRANCH  23  26
ENDBRANCH  22  23
ENDBRANCH  20  22
ENDBRANCH  19  20
ENDBRANCH   9  19
BRANCH  10  30
HETATM   30  C20 UNL     1     -23.949   4.099 -44.114  1.00  0.00    -0.016 C 
HETATM   31  C21 UNL     1     -24.838   3.838 -45.307  1.00  0.00     0.010 C 
HETATM   32  C22 UNL     1     -22.558   3.573 -44.316  1.00  0.00     0.010 C 
ENDBRANCH  10  30
BRANCH  16  33
HETATM   33  O5  UNL     1     -22.008  10.524 -43.234  1.00  0.00    -0.394 OA
ATOM     34  H5  UNL     1     -22.146  11.393 -43.595  1.00  0.00     0.210 HD
ENDBRANCH  16  33
BRANCH   1  35
HETATM   35  C2  UNL     1     -21.867  12.826 -39.895  1.00  0.00     0.007 C 
HETATM   36  C1  UNL     1     -21.201  12.053 -39.040  1.00  0.00     0.032 C 
HETATM   37 CL1  UNL     1     -21.110  14.296 -40.429  1.00  0.00    -0.089 Cl
ENDBRANCH   1  35
TORSDOF 9
ENDMDL
MODEL 5
REMARK VINA RESULT: -9.281339201      1.555      2.315
REMARK  9 active torsions:
REMARK  status: ('A' for Active; 'I' for Inactive)
REMARK    1  A    between atoms: C2_2  and  C3_4 
REMARK    2  A    between atoms: C11_12  and  O1_13 
REMARK    3  A    between atoms: O1_13  and  C12_14 
REMARK    4  A    between atoms: C12_14  and  C13_16 
REMARK    5  A    between atoms: C13_16  and  C14_17 
REMARK    6  A    between atoms: C14_17  and  C17_20 
REMARK    7  A    between atoms: C17_20  and  O4_22 
REMARK    8  A    between atoms: C19_24  and  C20_25 
REMARK    9  A    between atoms: C28_33  and  O5_34 
ROOT
HETATM    1  C3  UNL     1     -23.135  12.394 -40.362  1.00  0.00     0.040 C 
HETATM    2  C4  UNL     1     -23.844  11.525 -39.325  1.00  0.00     0.011 C 
HETATM    3  C5  UNL     1     -25.033  11.024 -40.108  1.00  0.00     0.007 C 
HETATM    4  C6  UNL     1     -24.745  11.233 -41.574  1.00  0.00     0.002 C 
HETATM    5  C7  UNL     1     -24.726   9.870 -42.222  1.00  0.00     0.001 C 
HETATM    6  C8  UNL     1     -24.830   9.960 -43.705  1.00  0.00     0.033 C 
HETATM    7  C9  UNL     1     -24.391   8.641 -44.282  1.00  0.00    -0.020 C 
HETATM    8  C10 UNL     1     -23.610   7.805 -43.694  1.00  0.00    -0.045 C 
HETATM    9  C11 UNL     1     -23.226   6.515 -44.344  1.00  0.00     0.166 C 
HETATM   10  C19 UNL     1     -24.099   5.523 -43.639  1.00  0.00     0.023 C 
HETATM   11  C23 UNL     1     -24.106   5.712 -42.161  1.00  0.00     0.009 C 
HETATM   12  C24 UNL     1     -23.341   6.788 -41.543  1.00  0.00     0.014 C 
HETATM   13  C25 UNL     1     -23.037   8.023 -42.356  1.00  0.00    -0.012 C 
HETATM   14  C26 UNL     1     -21.508   8.004 -42.530  1.00  0.00     0.021 C 
HETATM   15  C27 UNL     1     -23.434   9.293 -41.717  1.00  0.00     0.032 C 
HETATM   16  C28 UNL     1     -22.493  10.460 -41.909  1.00  0.00     0.133 C 
HETATM   17  C29 UNL     1     -23.279  11.694 -41.651  1.00  0.00    -0.005 C 
HETATM   18  C30 UNL     1     -23.135  12.733 -42.755  1.00  0.00     0.019 C 
ENDROOT
BRANCH   9  19
HETATM   19  O1  UNL     1     -23.335   6.573 -45.727  1.00  0.00    -0.311 OA
BRANCH  19  20
HETATM   20  C12 UNL     1     -22.202   6.484 -46.552  1.00  0.00     0.263 C 
HETATM   21  O2  UNL     1     -21.328   5.654 -46.234  1.00  0.00    -0.265 OA
BRANCH  20  22
HETATM   22  C13 UNL     1     -22.026   7.325 -47.742  1.00  0.00     0.155 C 
BRANCH  22  23
HETATM   23  C14 UNL     1     -21.085   8.444 -47.578  1.00  0.00     0.022 C 
HETATM   24  C15 UNL     1     -20.255   8.675 -48.581  1.00  0.00    -0.017 C 
HETATM   25  C16 UNL     1     -19.253   9.750 -48.587  1.00  0.00     0.036 C 
BRANCH  23  26
HETATM   26  C17 UNL     1     -21.117   9.250 -46.377  1.00  0.00     0.289 C 
HETATM   27  O3  UNL     1     -22.111  10.008 -46.186  1.00  0.00    -0.260 OA
BRANCH  26  28
HETATM   28  O4  UNL     1     -20.155   9.280 -45.388  1.00  0.00    -0.323 OA
HETATM   29  C18 UNL     1     -19.188   8.258 -45.297  1.00  0.00     0.213 C 
ENDBRANCH  26  28
ENDBRANCH  23  26
ENDBRANCH  22  23
ENDBRANCH  20  22
ENDBRANCH  19  20
ENDBRANCH   9  19
BRANCH  10  30
HETATM   30  C20 UNL     1     -24.030   4.113 -44.080  1.00  0.00    -0.016 C 
HETATM   31  C21 UNL     1     -24.849   3.885 -45.328  1.00  0.00     0.010 C 
HETATM   32  C22 UNL     1     -22.646   3.545 -44.197  1.00  0.00     0.010 C 
ENDBRANCH  10  30
BRANCH  16  33
HETATM   33  O5  UNL     1     -22.054  10.533 -43.243  1.00  0.00    -0.394 OA
ATOM     34  H5  UNL     1     -21.851  11.430 -43.483  1.00  0.00     0.210 HD
ENDBRANCH  16  33
BRANCH   1  35
HETATM   35  C2  UNL     1     -21.819  12.830 -39.906  1.00  0.00     0.007 C 
HETATM   36  C1  UNL     1     -21.104  12.024 -39.122  1.00  0.00     0.032 C 
HETATM   37 CL1  UNL     1     -21.109  14.338 -40.395  1.00  0.00    -0.089 Cl
ENDBRANCH   1  35
TORSDOF 9
ENDMDL
