MODEL 1
REMARK VINA RESULT: -7.232362230      0.000      0.000
REMARK  14 active torsions:
REMARK  status: ('A' for Active; 'I' for Inactive)
REMARK    1  A    between atoms: C2_2  and  O1_3 
REMARK    2  A    between atoms: C2_2  and  C3_5 
REMARK    3  A    between atoms: C4_7  and  N1_8 
REMARK    4  A    between atoms: N1_8  and  C5_10 
REMARK    5  A    between atoms: C5_10  and  O2_11 
REMARK    6  A    between atoms: C5_10  and  C6_13 
REMARK    7  A    between atoms: C9_21  and  N4_22 
REMARK       I    between atoms: N4_22  and  C10_23 
REMARK       I    between atoms: C10_23  and  N5_24 
REMARK       I    between atoms: C10_23  and  N6_28 
REMARK    8  A    between atoms: C11_32  and  C12_33 
REMARK    9  A    between atoms: C12_33  and  O3_34 
REMARK   10  A    between atoms: C12_33  and  O4_36 
REMARK   11  A    between atoms: C13_44  and  C14_45 
REMARK   12  A    between atoms: C14_45  and  N10_46 
REMARK   13  A    between atoms: C14_45  and  C15_50 
REMARK   14  A    between atoms: C15_50  and  O5_51 
ROOT
HETATM    1  C6  UNL     1     -32.386 -24.692  21.118  1.00  0.00     0.099 C 
HETATM    2  C7  UNL     1     -33.711 -25.100  21.019  1.00  0.00     0.123 C 
HETATM    3  N2  UNL     1     -34.176 -26.193  20.383  1.00  0.00    -0.348 N 
ATOM      4  H2  UNL     1     -34.900 -26.739  20.851  1.00  0.00     0.167 HD
HETATM    5  C8  UNL     1     -33.766 -26.610  19.200  1.00  0.00     0.142 C 
HETATM    6  N3  UNL     1     -34.487 -27.453  18.604  1.00  0.00    -0.383 N 
ATOM      7  H31 UNL     1     -34.170 -27.775  17.690  1.00  0.00     0.157 HD
ATOM      8  H32 UNL     1     -35.299 -27.727  19.157  1.00  0.00     0.157 HD
HETATM    9  C9  UNL     1     -32.623 -26.225  18.422  1.00  0.00     0.175 C 
HETATM   10  C11 UNL     1     -31.657 -25.368  18.951  1.00  0.00     0.109 C 
HETATM   11  N7  UNL     1     -31.451 -25.017  20.237  1.00  0.00    -0.348 N 
ATOM     12  H7  UNL     1     -30.485 -24.999  20.562  1.00  0.00     0.166 HD
ENDROOT
BRANCH   1  13
HETATM   13  C5  UNL     1     -32.158 -23.823  22.204  1.00  0.00     0.170 C 
BRANCH  13  14
HETATM   14  N1  UNL     1     -32.958 -22.790  22.903  1.00  0.00    -0.314 N 
ATOM     15  H1  UNL     1     -33.646 -22.950  23.641  1.00  0.00     0.170 HD
BRANCH  14  16
HETATM   16  C4  UNL     1     -32.592 -21.559  22.363  1.00  0.00     0.166 A 
HETATM   17  S1  UNL     1     -31.706 -21.318  21.004  1.00  0.00    -0.048 SA
HETATM   18  C3  UNL     1     -30.785 -19.869  20.966  1.00  0.00     0.063 A 
HETATM   19  C13 UNL     1     -30.954 -19.113  22.102  1.00  0.00     0.078 A 
HETATM   20  N9  UNL     1     -31.776 -19.534  23.101  1.00  0.00    -0.299 N 
HETATM   21  N8  UNL     1     -32.474 -20.566  23.276  1.00  0.00    -0.279 N 
ATOM     22  H9  UNL     1     -31.841 -18.871  23.874  1.00  0.00     0.186 HD
ATOM     23  H8  UNL     1     -32.980 -20.660  24.156  1.00  0.00     0.189 HD
BRANCH  18  24
HETATM   24  C2  UNL     1     -29.838 -19.661  19.886  1.00  0.00     0.058 C 
HETATM   25  C1  UNL     1     -30.102 -18.447  18.958  1.00  0.00     0.077 C 
BRANCH  24  26
HETATM   26  O1  UNL     1     -28.583 -20.168  19.915  1.00  0.00    -0.364 OA
ATOM     27  H1  UNL     1     -28.485 -21.107  19.810  1.00  0.00     0.217 HD
ENDBRANCH  24  26
ENDBRANCH  18  24
BRANCH  19  28
HETATM   28  C14 UNL     1     -30.128 -17.889  22.211  1.00  0.00     0.259 C 
BRANCH  28  29
HETATM   29  N10 UNL     1     -30.745 -16.711  21.728  1.00  0.00    -0.068 N 
ATOM     30 3H10 UNL     1     -30.755 -16.710  20.708  1.00  0.00     0.275 HD
ATOM     31 2H10 UNL     1     -31.747 -16.736  21.915  1.00  0.00     0.275 HD
ATOM     32 1H10 UNL     1     -30.342 -15.842  22.078  1.00  0.00     0.275 HD
ENDBRANCH  28  29
BRANCH  28  33
HETATM   33  C15 UNL     1     -29.887 -17.616  23.694  1.00  0.00     0.203 C 
BRANCH  33  34
HETATM   34  O5  UNL     1     -28.858 -16.640  23.846  1.00  0.00    -0.398 OA
ATOM     35  H5  UNL     1     -29.242 -15.793  24.040  1.00  0.00     0.209 HD
ENDBRANCH  33  34
ENDBRANCH  28  33
ENDBRANCH  19  28
ENDBRANCH  14  16
ENDBRANCH  13  14
BRANCH  13  36
HETATM   36  O2  UNL     1     -30.921 -23.920  22.741  1.00  0.00    -0.344 OA
ATOM     37  H2  UNL     1     -30.966 -24.202  23.648  1.00  0.00     0.219 HD
ENDBRANCH  13  36
ENDBRANCH   1  13
BRANCH  10  38
HETATM   38  C12 UNL     1     -30.721 -24.835  17.949  1.00  0.00     0.308 C 
BRANCH  38  39
HETATM   39  O3  UNL     1     -29.674 -25.798  17.799  1.00  0.00    -0.366 OA
ATOM     40  H3  UNL     1     -28.988 -25.561  18.411  1.00  0.00     0.213 HD
ENDBRANCH  38  39
BRANCH  38  41
HETATM   41  O4  UNL     1     -30.081 -23.668  18.506  1.00  0.00    -0.366 OA
ATOM     42  H4  UNL     1     -30.447 -22.900  18.084  1.00  0.00     0.213 HD
ENDBRANCH  38  41
ENDBRANCH  10  38
BRANCH   9  43
HETATM   43  N4  UNL     1     -32.593 -26.670  17.333  1.00  0.00    -0.384 NA
HETATM   44  C10 UNL     1     -32.588 -27.174  16.076  1.00  0.00     0.555 C 
HETATM   45  N5  UNL     1     -33.303 -28.504  16.114  1.00  0.00    -0.021 N 
HETATM   46  N6  UNL     1     -31.286 -27.610  15.528  1.00  0.00    -0.021 N 
ATOM     47  H53 UNL     1     -32.909 -29.147  16.801  1.00  0.00     0.280 HD
ATOM     48  H52 UNL     1     -34.240 -28.440  16.512  1.00  0.00     0.280 HD
ATOM     49  H51 UNL     1     -33.300 -28.884  15.167  1.00  0.00     0.280 HD
ATOM     50  H63 UNL     1     -30.618 -26.841  15.588  1.00  0.00     0.280 HD
ATOM     51  H62 UNL     1     -30.858 -28.283  16.165  1.00  0.00     0.280 HD
ATOM     52  H61 UNL     1     -31.283 -27.990  14.581  1.00  0.00     0.280 HD
ENDBRANCH   9  43
TORSDOF 14
ENDMDL
MODEL 2
REMARK VINA RESULT: -7.154885625      2.645      8.880
REMARK  14 active torsions:
REMARK  status: ('A' for Active; 'I' for Inactive)
REMARK    1  A    between atoms: C2_2  and  O1_3 
REMARK    2  A    between atoms: C2_2  and  C3_5 
REMARK    3  A    between atoms: C4_7  and  N1_8 
REMARK    4  A    between atoms: N1_8  and  C5_10 
REMARK    5  A    between atoms: C5_10  and  O2_11 
REMARK    6  A    between atoms: C5_10  and  C6_13 
REMARK    7  A    between atoms: C9_21  and  N4_22 
REMARK       I    between atoms: N4_22  and  C10_23 
REMARK       I    between atoms: C10_23  and  N5_24 
REMARK       I    between atoms: C10_23  and  N6_28 
REMARK    8  A    between atoms: C11_32  and  C12_33 
REMARK    9  A    between atoms: C12_33  and  O3_34 
REMARK   10  A    between atoms: C12_33  and  O4_36 
REMARK   11  A    between atoms: C13_44  and  C14_45 
REMARK   12  A    between atoms: C14_45  and  N10_46 
REMARK   13  A    between atoms: C14_45  and  C15_50 
REMARK   14  A    between atoms: C15_50  and  O5_51 
ROOT
HETATM    1  C6  UNL     1     -32.210 -20.749  20.140  1.00  0.00     0.099 C 
HETATM    2  C7  UNL     1     -33.233 -20.176  20.885  1.00  0.00     0.123 C 
HETATM    3  N2  UNL     1     -33.741 -18.936  20.744  1.00  0.00    -0.348 N 
ATOM      4  H2  UNL     1     -34.754 -18.832  20.796  1.00  0.00     0.167 HD
HETATM    5  C8  UNL     1     -33.026 -17.845  20.542  1.00  0.00     0.142 C 
HETATM    6  N3  UNL     1     -33.598 -16.739  20.729  1.00  0.00    -0.383 N 
ATOM      7  H31 UNL     1     -33.045 -15.896  20.573  1.00  0.00     0.157 HD
ATOM      8  H32 UNL     1     -34.578 -16.848  20.988  1.00  0.00     0.157 HD
HETATM    9  C9  UNL     1     -31.647 -17.690  20.177  1.00  0.00     0.175 C 
HETATM   10  C11 UNL     1     -30.869 -18.799  19.841  1.00  0.00     0.109 C 
HETATM   11  N7  UNL     1     -31.271 -20.047  19.521  1.00  0.00    -0.348 N 
ATOM     12  H7  UNL     1     -30.808 -20.492  18.729  1.00  0.00     0.166 HD
ENDROOT
BRANCH   1  13
HETATM   13  C5  UNL     1     -32.221 -22.157  20.182  1.00  0.00     0.170 C 
BRANCH  13  14
HETATM   14  N1  UNL     1     -33.270 -23.198  20.074  1.00  0.00    -0.314 N 
ATOM     15  H1  UNL     1     -34.023 -23.374  20.740  1.00  0.00     0.170 HD
BRANCH  14  16
HETATM   16  C4  UNL     1     -33.033 -23.890  18.888  1.00  0.00     0.166 A 
HETATM   17  S1  UNL     1     -34.070 -24.913  18.134  1.00  0.00    -0.048 SA
HETATM   18  C3  UNL     1     -33.340 -26.155  17.199  1.00  0.00     0.063 A 
HETATM   19  C13 UNL     1     -31.966 -26.082  17.217  1.00  0.00     0.078 A 
HETATM   20  N9  UNL     1     -31.331 -25.107  17.921  1.00  0.00    -0.299 N 
HETATM   21  N8  UNL     1     -31.728 -24.170  18.662  1.00  0.00    -0.279 N 
ATOM     22  H9  UNL     1     -30.316 -25.142  17.829  1.00  0.00     0.186 HD
ATOM     23  H8  UNL     1     -31.025 -23.588  19.118  1.00  0.00     0.189 HD
BRANCH  18  24
HETATM   24  C2  UNL     1     -34.172 -27.206  16.645  1.00  0.00     0.058 C 
HETATM   25  C1  UNL     1     -34.804 -28.195  17.660  1.00  0.00     0.077 C 
BRANCH  24  26
HETATM   26  O1  UNL     1     -34.746 -27.110  15.423  1.00  0.00    -0.364 OA
ATOM     27  H1  UNL     1     -34.355 -26.509  14.799  1.00  0.00     0.217 HD
ENDBRANCH  24  26
ENDBRANCH  18  24
BRANCH  19  28
HETATM   28  C14 UNL     1     -31.237 -27.167  16.519  1.00  0.00     0.259 C 
BRANCH  28  29
HETATM   29  N10 UNL     1     -31.894 -27.684  15.378  1.00  0.00    -0.068 N 
ATOM     30 3H10 UNL     1     -32.411 -28.530  15.621  1.00  0.00     0.275 HD
ATOM     31 2H10 UNL     1     -32.667 -27.076  15.109  1.00  0.00     0.275 HD
ATOM     32 1H10 UNL     1     -31.287 -27.859  14.578  1.00  0.00     0.275 HD
ENDBRANCH  28  29
BRANCH  28  33
HETATM   33  C15 UNL     1     -29.933 -26.583  15.980  1.00  0.00     0.203 C 
BRANCH  33  34
HETATM   34  O5  UNL     1     -29.121 -27.626  15.443  1.00  0.00    -0.398 OA
ATOM     35  H5  UNL     1     -28.455 -27.256  14.874  1.00  0.00     0.209 HD
ENDBRANCH  33  34
ENDBRANCH  28  33
ENDBRANCH  19  28
ENDBRANCH  14  16
ENDBRANCH  13  14
BRANCH  13  36
HETATM   36  O2  UNL     1     -31.007 -22.716  20.388  1.00  0.00    -0.344 OA
ATOM     37  H2  UNL     1     -30.825 -22.799  21.317  1.00  0.00     0.219 HD
ENDBRANCH  13  36
ENDBRANCH   1  13
BRANCH  10  38
HETATM   38  C12 UNL     1     -29.426 -18.521  19.784  1.00  0.00     0.308 C 
BRANCH  38  39
HETATM   39  O3  UNL     1     -29.158 -17.956  18.498  1.00  0.00    -0.366 OA
ATOM     40  H3  UNL     1     -29.116 -17.014  18.610  1.00  0.00     0.213 HD
ENDBRANCH  38  39
BRANCH  38  41
HETATM   41  O4  UNL     1     -28.724 -19.781  19.797  1.00  0.00    -0.366 OA
ATOM     42  H4  UNL     1     -27.819 -19.618  19.557  1.00  0.00     0.213 HD
ENDBRANCH  38  41
ENDBRANCH  10  38
BRANCH   9  43
HETATM   43  N4  UNL     1     -31.248 -16.583  20.208  1.00  0.00    -0.384 NA
HETATM   44  C10 UNL     1     -30.816 -15.301  20.255  1.00  0.00     0.555 C 
HETATM   45  N5  UNL     1     -31.419 -14.572  19.077  1.00  0.00    -0.021 N 
HETATM   46  N6  UNL     1     -29.382 -15.060  19.985  1.00  0.00    -0.021 N 
ATOM     47  H53 UNL     1     -31.220 -15.025  18.185  1.00  0.00     0.280 HD
ATOM     48  H52 UNL     1     -32.436 -14.647  19.042  1.00  0.00     0.280 HD
ATOM     49  H51 UNL     1     -31.095 -13.605  19.112  1.00  0.00     0.280 HD
ATOM     50  H63 UNL     1     -28.818 -15.631  20.615  1.00  0.00     0.280 HD
ATOM     51  H62 UNL     1     -29.133 -15.469  19.084  1.00  0.00     0.280 HD
ATOM     52  H61 UNL     1     -29.057 -14.094  20.019  1.00  0.00     0.280 HD
ENDBRANCH   9  43
TORSDOF 14
ENDMDL
MODEL 3
REMARK VINA RESULT: -7.115064888      1.673      2.313
REMARK  14 active torsions:
REMARK  status: ('A' for Active; 'I' for Inactive)
REMARK    1  A    between atoms: C2_2  and  O1_3 
REMARK    2  A    between atoms: C2_2  and  C3_5 
REMARK    3  A    between atoms: C4_7  and  N1_8 
REMARK    4  A    between atoms: N1_8  and  C5_10 
REMARK    5  A    between atoms: C5_10  and  O2_11 
REMARK    6  A    between atoms: C5_10  and  C6_13 
REMARK    7  A    between atoms: C9_21  and  N4_22 
REMARK       I    between atoms: N4_22  and  C10_23 
REMARK       I    between atoms: C10_23  and  N5_24 
REMARK       I    between atoms: C10_23  and  N6_28 
REMARK    8  A    between atoms: C11_32  and  C12_33 
REMARK    9  A    between atoms: C12_33  and  O3_34 
REMARK   10  A    between atoms: C12_33  and  O4_36 
REMARK   11  A    between atoms: C13_44  and  C14_45 
REMARK   12  A    between atoms: C14_45  and  N10_46 
REMARK   13  A    between atoms: C14_45  and  C15_50 
REMARK   14  A    between atoms: C15_50  and  O5_51 
ROOT
HETATM    1  C6  UNL     1     -32.160 -24.466  20.378  1.00  0.00     0.099 C 
HETATM    2  C7  UNL     1     -30.931 -24.935  19.931  1.00  0.00     0.123 C 
HETATM    3  N2  UNL     1     -30.579 -25.196  18.656  1.00  0.00    -0.348 N 
ATOM      4  H2  UNL     1     -29.652 -24.898  18.353  1.00  0.00     0.167 HD
HETATM    5  C8  UNL     1     -31.344 -25.807  17.771  1.00  0.00     0.142 C 
HETATM    6  N3  UNL     1     -30.785 -26.245  16.731  1.00  0.00    -0.383 N 
ATOM      7  H31 UNL     1     -31.376 -26.718  16.047  1.00  0.00     0.157 HD
ATOM      8  H32 UNL     1     -29.789 -26.028  16.707  1.00  0.00     0.157 HD
HETATM    9  C9  UNL     1     -32.746 -26.112  17.805  1.00  0.00     0.175 C 
HETATM   10  C11 UNL     1     -33.556 -25.631  18.835  1.00  0.00     0.109 C 
HETATM   11  N7  UNL     1     -33.298 -24.650  19.724  1.00  0.00    -0.348 N 
ATOM     12  H7  UNL     1     -34.050 -23.986  19.911  1.00  0.00     0.166 HD
ENDROOT
BRANCH   1  13
HETATM   13  C5  UNL     1     -32.085 -23.850  21.643  1.00  0.00     0.170 C 
BRANCH  13  14
HETATM   14  N1  UNL     1     -32.934 -22.895  22.394  1.00  0.00    -0.314 N 
ATOM     15  H1  UNL     1     -33.646 -23.129  23.087  1.00  0.00     0.170 HD
BRANCH  14  16
HETATM   16  C4  UNL     1     -32.575 -21.616  21.973  1.00  0.00     0.166 A 
HETATM   17  S1  UNL     1     -31.668 -21.242  20.659  1.00  0.00    -0.048 SA
HETATM   18  C3  UNL     1     -30.766 -19.785  20.769  1.00  0.00     0.063 A 
HETATM   19  C13 UNL     1     -30.966 -19.137  21.966  1.00  0.00     0.078 A 
HETATM   20  N9  UNL     1     -31.800 -19.656  22.906  1.00  0.00    -0.299 N 
HETATM   21  N8  UNL     1     -32.487 -20.708  22.974  1.00  0.00    -0.279 N 
ATOM     22  H9  UNL     1     -31.887 -19.067  23.735  1.00  0.00     0.186 HD
ATOM     23  H8  UNL     1     -33.008 -20.887  23.833  1.00  0.00     0.189 HD
BRANCH  18  24
HETATM   24  C2  UNL     1     -29.803 -19.469  19.731  1.00  0.00     0.058 C 
HETATM   25  C1  UNL     1     -30.075 -18.188  18.901  1.00  0.00     0.077 C 
BRANCH  24  26
HETATM   26  O1  UNL     1     -28.537 -19.951  19.745  1.00  0.00    -0.364 OA
ATOM     27  H1  UNL     1     -28.125 -20.129  18.909  1.00  0.00     0.217 HD
ENDBRANCH  24  26
ENDBRANCH  18  24
BRANCH  19  28
HETATM   28  C14 UNL     1     -30.158 -17.918  22.200  1.00  0.00     0.259 C 
BRANCH  28  29
HETATM   29  N10 UNL     1     -30.796 -16.706  21.848  1.00  0.00    -0.068 N 
ATOM     30 3H10 UNL     1     -30.171 -15.916  22.011  1.00  0.00     0.275 HD
ATOM     31 2H10 UNL     1     -30.900 -16.643  20.835  1.00  0.00     0.275 HD
ATOM     32 1H10 UNL     1     -31.694 -16.546  22.305  1.00  0.00     0.275 HD
ENDBRANCH  28  29
BRANCH  28  33
HETATM   33  C15 UNL     1     -29.912 -17.800  23.703  1.00  0.00     0.203 C 
BRANCH  33  34
HETATM   34  O5  UNL     1     -29.047 -16.697  23.968  1.00  0.00    -0.398 OA
ATOM     35  H5  UNL     1     -28.145 -16.995  24.000  1.00  0.00     0.209 HD
ENDBRANCH  33  34
ENDBRANCH  28  33
ENDBRANCH  19  28
ENDBRANCH  14  16
ENDBRANCH  13  14
BRANCH  13  36
HETATM   36  O2  UNL     1     -30.980 -24.172  22.353  1.00  0.00    -0.344 OA
ATOM     37  H2  UNL     1     -31.036 -25.062  22.681  1.00  0.00     0.219 HD
ENDBRANCH  13  36
ENDBRANCH   1  13
BRANCH  10  38
HETATM   38  C12 UNL     1     -34.881 -26.265  18.896  1.00  0.00     0.308 C 
BRANCH  38  39
HETATM   39  O3  UNL     1     -35.592 -25.646  19.972  1.00  0.00    -0.366 OA
ATOM     40  H3  UNL     1     -36.508 -25.872  19.867  1.00  0.00     0.213 HD
ENDBRANCH  38  39
BRANCH  38  41
HETATM   41  O4  UNL     1     -34.705 -27.638  19.303  1.00  0.00    -0.366 OA
ATOM     42  H4  UNL     1     -34.780 -27.679  20.248  1.00  0.00     0.213 HD
ENDBRANCH  38  41
ENDBRANCH  10  38
BRANCH   9  43
HETATM   43  N4  UNL     1     -33.125 -26.797  16.925  1.00  0.00    -0.384 NA
HETATM   44  C10 UNL     1     -33.589 -27.580  15.924  1.00  0.00     0.555 C 
HETATM   45  N5  UNL     1     -33.958 -28.917  16.521  1.00  0.00    -0.021 N 
HETATM   46  N6  UNL     1     -32.612 -28.026  14.907  1.00  0.00    -0.021 N 
ATOM     47  H53 UNL     1     -33.189 -29.347  17.038  1.00  0.00     0.280 HD
ATOM     48  H52 UNL     1     -34.614 -28.837  17.299  1.00  0.00     0.280 HD
ATOM     49  H51 UNL     1     -34.307 -29.508  15.767  1.00  0.00     0.280 HD
ATOM     50  H63 UNL     1     -32.139 -27.213  14.511  1.00  0.00     0.280 HD
ATOM     51  H62 UNL     1     -31.831 -28.493  15.368  1.00  0.00     0.280 HD
ATOM     52  H61 UNL     1     -32.962 -28.616  14.152  1.00  0.00     0.280 HD
ENDBRANCH   9  43
TORSDOF 14
ENDMDL
MODEL 4
REMARK VINA RESULT: -7.108064475      2.500      8.764
REMARK  14 active torsions:
REMARK  status: ('A' for Active; 'I' for Inactive)
REMARK    1  A    between atoms: C2_2  and  O1_3 
REMARK    2  A    between atoms: C2_2  and  C3_5 
REMARK    3  A    between atoms: C4_7  and  N1_8 
REMARK    4  A    between atoms: N1_8  and  C5_10 
REMARK    5  A    between atoms: C5_10  and  O2_11 
REMARK    6  A    between atoms: C5_10  and  C6_13 
REMARK    7  A    between atoms: C9_21  and  N4_22 
REMARK       I    between atoms: N4_22  and  C10_23 
REMARK       I    between atoms: C10_23  and  N5_24 
REMARK       I    between atoms: C10_23  and  N6_28 
REMARK    8  A    between atoms: C11_32  and  C12_33 
REMARK    9  A    between atoms: C12_33  and  O3_34 
REMARK   10  A    between atoms: C12_33  and  O4_36 
REMARK   11  A    between atoms: C13_44  and  C14_45 
REMARK   12  A    between atoms: C14_45  and  N10_46 
REMARK   13  A    between atoms: C14_45  and  C15_50 
REMARK   14  A    between atoms: C15_50  and  O5_51 
ROOT
HETATM    1  C6  UNL     1     -31.386 -21.214  20.076  1.00  0.00     0.099 C 
HETATM    2  C7  UNL     1     -31.655 -21.884  21.263  1.00  0.00     0.123 C 
HETATM    3  N2  UNL     1     -32.115 -21.347  22.410  1.00  0.00    -0.348 N 
ATOM      4  H2  UNL     1     -32.839 -21.858  22.914  1.00  0.00     0.167 HD
HETATM    5  C8  UNL     1     -31.697 -20.208  22.931  1.00  0.00     0.142 C 
HETATM    6  N3  UNL     1     -31.990 -19.983  24.134  1.00  0.00    -0.383 N 
ATOM      7  H31 UNL     1     -31.667 -19.103  24.537  1.00  0.00     0.157 HD
ATOM      8  H32 UNL     1     -32.556 -20.728  24.541  1.00  0.00     0.157 HD
HETATM    9  C9  UNL     1     -30.901 -19.159  22.359  1.00  0.00     0.175 C 
HETATM   10  C11 UNL     1     -30.554 -19.184  21.008  1.00  0.00     0.109 C 
HETATM   11  N7  UNL     1     -31.081 -19.926  20.013  1.00  0.00    -0.348 N 
ATOM     12  H7  UNL     1     -31.263 -19.451  19.128  1.00  0.00     0.166 HD
ENDROOT
BRANCH   1  13
HETATM   13  C5  UNL     1     -31.385 -22.066  18.953  1.00  0.00     0.170 C 
BRANCH  13  14
HETATM   14  N1  UNL     1     -30.472 -23.112  18.434  1.00  0.00    -0.314 N 
ATOM     15  H1  UNL     1     -29.518 -22.974  18.100  1.00  0.00     0.170 HD
BRANCH  14  16
HETATM   16  C4  UNL     1     -31.167 -24.319  18.489  1.00  0.00     0.166 A 
HETATM   17  S1  UNL     1     -31.010 -25.580  17.454  1.00  0.00    -0.048 SA
HETATM   18  C3  UNL     1     -32.407 -26.560  17.258  1.00  0.00     0.063 A 
HETATM   19  C13 UNL     1     -33.458 -26.129  18.035  1.00  0.00     0.078 A 
HETATM   20  N9  UNL     1     -33.326 -25.042  18.841  1.00  0.00    -0.299 N 
HETATM   21  N8  UNL     1     -32.393 -24.226  19.056  1.00  0.00    -0.279 N 
ATOM     22  H9  UNL     1     -34.165 -24.845  19.388  1.00  0.00     0.186 HD
ATOM     23  H8  UNL     1     -32.570 -23.451  19.695  1.00  0.00     0.189 HD
BRANCH  18  24
HETATM   24  C2  UNL     1     -32.414 -27.585  16.232  1.00  0.00     0.058 C 
HETATM   25  C1  UNL     1     -33.533 -27.486  15.162  1.00  0.00     0.077 C 
BRANCH  24  26
HETATM   26  O1  UNL     1     -31.314 -28.311  15.924  1.00  0.00    -0.364 OA
ATOM     27  H1  UNL     1     -30.485 -27.850  15.864  1.00  0.00     0.217 HD
ENDBRANCH  24  26
ENDBRANCH  18  24
BRANCH  19  28
HETATM   28  C14 UNL     1     -34.741 -26.850  17.867  1.00  0.00     0.259 C 
BRANCH  28  29
HETATM   29  N10 UNL     1     -35.158 -27.591  18.997  1.00  0.00    -0.068 N 
ATOM     30 3H10 UNL     1     -34.882 -28.569  18.900  1.00  0.00     0.275 HD
ATOM     31 2H10 UNL     1     -34.604 -27.332  19.814  1.00  0.00     0.275 HD
ATOM     32 1H10 UNL     1     -36.153 -27.525  19.210  1.00  0.00     0.275 HD
ENDBRANCH  28  29
BRANCH  28  33
HETATM   33  C15 UNL     1     -35.840 -25.808  17.665  1.00  0.00     0.203 C 
BRANCH  33  34
HETATM   34  O5  UNL     1     -35.422 -24.843  16.702  1.00  0.00    -0.398 OA
ATOM     35  H5  UNL     1     -34.720 -24.311  17.061  1.00  0.00     0.209 HD
ENDBRANCH  33  34
ENDBRANCH  28  33
ENDBRANCH  19  28
ENDBRANCH  14  16
ENDBRANCH  13  14
BRANCH  13  36
HETATM   36  O2  UNL     1     -32.443 -21.897  18.127  1.00  0.00    -0.344 OA
ATOM     37  H2  UNL     1     -32.279 -21.196  17.506  1.00  0.00     0.219 HD
ENDBRANCH  13  36
ENDBRANCH   1  13
BRANCH  10  38
HETATM   38  C12 UNL     1     -29.504 -18.220  20.645  1.00  0.00     0.308 C 
BRANCH  38  39
HETATM   39  O3  UNL     1     -30.149 -16.964  20.416  1.00  0.00    -0.366 OA
ATOM     40  H3  UNL     1     -29.809 -16.355  21.061  1.00  0.00     0.213 HD
ENDBRANCH  38  39
BRANCH  38  41
HETATM   41  O4  UNL     1     -28.963 -18.604  19.363  1.00  0.00    -0.366 OA
ATOM     42  H4  UNL     1     -28.672 -17.818  18.917  1.00  0.00     0.213 HD
ENDBRANCH  38  41
ENDBRANCH  10  38
BRANCH   9  43
HETATM   43  N4  UNL     1     -30.567 -18.322  23.117  1.00  0.00    -0.384 NA
HETATM   44  C10 UNL     1     -30.181 -17.341  23.965  1.00  0.00     0.555 C 
HETATM   45  N5  UNL     1     -28.692 -17.152  23.799  1.00  0.00    -0.021 N 
HETATM   46  N6  UNL     1     -30.231 -17.640  25.413  1.00  0.00    -0.021 N 
ATOM     47  H53 UNL     1     -28.165 -18.016  23.927  1.00  0.00     0.280 HD
ATOM     48  H52 UNL     1     -28.420 -16.970  22.833  1.00  0.00     0.280 HD
ATOM     49  H51 UNL     1     -28.401 -16.412  24.438  1.00  0.00     0.280 HD
ATOM     50  H63 UNL     1     -31.170 -17.954  25.662  1.00  0.00     0.280 HD
ATOM     51  H62 UNL     1     -29.692 -18.484  25.604  1.00  0.00     0.280 HD
ATOM     52  H61 UNL     1     -29.940 -16.900  26.052  1.00  0.00     0.280 HD
ENDBRANCH   9  43
TORSDOF 14
ENDMDL
MODEL 5
REMARK VINA RESULT: -6.911443401      2.246      7.939
REMARK  14 active torsions:
REMARK  status: ('A' for Active; 'I' for Inactive)
REMARK    1  A    between atoms: C2_2  and  O1_3 
REMARK    2  A    between atoms: C2_2  and  C3_5 
REMARK    3  A    between atoms: C4_7  and  N1_8 
REMARK    4  A    between atoms: N1_8  and  C5_10 
REMARK    5  A    between atoms: C5_10  and  O2_11 
REMARK    6  A    between atoms: C5_10  and  C6_13 
REMARK    7  A    between atoms: C9_21  and  N4_22 
REMARK       I    between atoms: N4_22  and  C10_23 
REMARK       I    between atoms: C10_23  and  N5_24 
REMARK       I    between atoms: C10_23  and  N6_28 
REMARK    8  A    between atoms: C11_32  and  C12_33 
REMARK    9  A    between atoms: C12_33  and  O3_34 
REMARK   10  A    between atoms: C12_33  and  O4_36 
REMARK   11  A    between atoms: C13_44  and  C14_45 
REMARK   12  A    between atoms: C14_45  and  N10_46 
REMARK   13  A    between atoms: C14_45  and  C15_50 
REMARK   14  A    between atoms: C15_50  and  O5_51 
ROOT
HETATM    1  C6  UNL     1     -33.717 -22.912  21.263  1.00  0.00     0.099 C 
HETATM    2  C7  UNL     1     -33.362 -22.833  22.604  1.00  0.00     0.123 C 
HETATM    3  N2  UNL     1     -33.096 -21.714  23.307  1.00  0.00    -0.348 N 
ATOM      4  H2  UNL     1     -33.478 -21.647  24.250  1.00  0.00     0.167 HD
HETATM    5  C8  UNL     1     -32.378 -20.698  22.865  1.00  0.00     0.142 C 
HETATM    6  N3  UNL     1     -31.965 -19.870  23.719  1.00  0.00    -0.383 N 
ATOM      7  H31 UNL     1     -31.411 -19.085  23.378  1.00  0.00     0.157 HD
ATOM      8  H32 UNL     1     -32.283 -20.095  24.662  1.00  0.00     0.157 HD
HETATM    9  C9  UNL     1     -31.931 -20.381  21.539  1.00  0.00     0.175 C 
HETATM   10  C11 UNL     1     -32.361 -21.131  20.443  1.00  0.00     0.109 C 
HETATM   11  N7  UNL     1     -33.393 -21.995  20.363  1.00  0.00    -0.348 N 
ATOM     12  H7  UNL     1     -33.981 -21.937  19.531  1.00  0.00     0.166 HD
ENDROOT
BRANCH   1  13
HETATM   13  C5  UNL     1     -34.380 -24.113  20.941  1.00  0.00     0.170 C 
BRANCH  13  14
HETATM   14  N1  UNL     1     -34.199 -25.539  21.303  1.00  0.00    -0.314 N 
ATOM     15  H1  UNL     1     -34.439 -25.975  22.194  1.00  0.00     0.170 HD
BRANCH  14  16
HETATM   16  C4  UNL     1     -33.639 -26.170  20.194  1.00  0.00     0.166 A 
HETATM   17  S1  UNL     1     -32.201 -25.811  19.493  1.00  0.00    -0.048 SA
HETATM   18  C3  UNL     1     -32.087 -26.153  17.814  1.00  0.00     0.063 A 
HETATM   19  C13 UNL     1     -33.244 -26.704  17.315  1.00  0.00     0.078 A 
HETATM   20  N9  UNL     1     -34.315 -26.923  18.124  1.00  0.00    -0.299 N 
HETATM   21  N8  UNL     1     -34.547 -26.697  19.340  1.00  0.00    -0.279 N 
ATOM     22  H9  UNL     1     -35.099 -27.364  17.642  1.00  0.00     0.186 HD
ATOM     23  H8  UNL     1     -35.473 -26.924  19.702  1.00  0.00     0.189 HD
BRANCH  18  24
HETATM   24  C2  UNL     1     -30.920 -25.704  17.078  1.00  0.00     0.058 C 
HETATM   25  C1  UNL     1     -30.143 -24.503  17.678  1.00  0.00     0.077 C 
BRANCH  24  26
HETATM   26  O1  UNL     1     -30.265 -26.501  16.202  1.00  0.00    -0.364 OA
ATOM     27  H1  UNL     1     -30.785 -27.083  15.661  1.00  0.00     0.217 HD
ENDBRANCH  24  26
ENDBRANCH  18  24
BRANCH  19  28
HETATM   28  C14 UNL     1     -33.284 -26.948  15.854  1.00  0.00     0.259 C 
BRANCH  28  29
HETATM   29  N10 UNL     1     -32.841 -28.230  15.454  1.00  0.00    -0.068 N 
ATOM     30 3H10 UNL     1     -32.290 -28.661  16.196  1.00  0.00     0.275 HD
ATOM     31 2H10 UNL     1     -33.626 -28.879  15.416  1.00  0.00     0.275 HD
ATOM     32 1H10 UNL     1     -32.325 -28.249  14.574  1.00  0.00     0.275 HD
ENDBRANCH  28  29
BRANCH  28  33
HETATM   33  C15 UNL     1     -34.743 -26.889  15.408  1.00  0.00     0.203 C 
BRANCH  33  34
HETATM   34  O5  UNL     1     -35.279 -25.594  15.673  1.00  0.00    -0.398 OA
ATOM     35  H5  UNL     1     -35.089 -25.343  16.570  1.00  0.00     0.209 HD
ENDBRANCH  33  34
ENDBRANCH  28  33
ENDBRANCH  19  28
ENDBRANCH  14  16
ENDBRANCH  13  14
BRANCH  13  36
HETATM   36  O2  UNL     1     -35.419 -23.961  20.087  1.00  0.00    -0.344 OA
ATOM     37  H2  UNL     1     -35.663 -23.046  20.010  1.00  0.00     0.219 HD
ENDBRANCH  13  36
ENDBRANCH   1  13
BRANCH  10  38
HETATM   38  C12 UNL     1     -31.595 -20.881  19.213  1.00  0.00     0.308 C 
BRANCH  38  39
HETATM   39  O3  UNL     1     -32.149 -21.720  18.196  1.00  0.00    -0.366 OA
ATOM     40  H3  UNL     1     -31.913 -22.614  18.414  1.00  0.00     0.213 HD
ENDBRANCH  38  39
BRANCH  38  41
HETATM   41  O4  UNL     1     -30.251 -21.367  19.412  1.00  0.00    -0.366 OA
ATOM     42  H4  UNL     1     -29.779 -20.729  19.932  1.00  0.00     0.213 HD
ENDBRANCH  38  41
ENDBRANCH  10  38
BRANCH   9  43
HETATM   43  N4  UNL     1     -31.181 -19.476  21.473  1.00  0.00    -0.384 NA
HETATM   44  C10 UNL     1     -30.323 -18.430  21.426  1.00  0.00     0.555 C 
HETATM   45  N5  UNL     1     -31.147 -17.164  21.397  1.00  0.00    -0.021 N 
HETATM   46  N6  UNL     1     -29.547 -18.247  20.181  1.00  0.00    -0.021 N 
ATOM     47  H53 UNL     1     -31.829 -17.152  20.638  1.00  0.00     0.280 HD
ATOM     48  H52 UNL     1     -31.807 -17.101  22.172  1.00  0.00     0.280 HD
ATOM     49  H51 UNL     1     -30.501 -16.375  21.362  1.00  0.00     0.280 HD
ATOM     50  H63 UNL     1     -29.043 -19.108  19.966  1.00  0.00     0.280 HD
ATOM     51  H62 UNL     1     -30.185 -18.197  19.387  1.00  0.00     0.280 HD
ATOM     52  H61 UNL     1     -28.901 -17.459  20.146  1.00  0.00     0.280 HD
ENDBRANCH   9  43
TORSDOF 14
ENDMDL
