MODEL 1
REMARK VINA RESULT: -7.089265939      0.000      0.000
REMARK  12 active torsions:
REMARK  status: ('A' for Active; 'I' for Inactive)
REMARK    1  A    between atoms: N1_2  and  O1_3 
REMARK    2  A    between atoms: N1_2  and  C2_5 
REMARK    3  A    between atoms: C2_5  and  C3_6 
REMARK    4  A    between atoms: C2_5  and  C8_33 
REMARK    5  A    between atoms: C3_6  and  N2_7 
REMARK    6  A    between atoms: C3_6  and  N3_10 
REMARK    7  A    between atoms: N3_10  and  C4_12 
REMARK    8  A    between atoms: C5_18  and  N6_19 
REMARK    9  A    between atoms: N6_19  and  C6_21 
REMARK   10  A    between atoms: C6_21  and  N7_22 
REMARK       I    between atoms: N7_22  and  C7_24 
REMARK       I    between atoms: C7_24  and  N8_25 
REMARK       I    between atoms: C7_24  and  N9_29 
REMARK   11  A    between atoms: C9_36  and  N11_37 
REMARK   12  A    between atoms: N11_37  and  C10_39 
ROOT
HETATM    1  C3  UNL     1     -31.744 -24.232  19.312  1.00  0.00     0.105 C 
ENDROOT
BRANCH   1   2
HETATM    2  C2  UNL     1     -32.856 -25.206  19.068  1.00  0.00     0.227 C 
BRANCH   2   3
HETATM    3  N1  UNL     1     -34.074 -24.484  19.008  1.00  0.00    -0.184 NA
HETATM    4  C1  UNL     1     -35.155 -25.010  19.760  1.00  0.00     0.145 C 
BRANCH   3   5
HETATM    5  O1  UNL     1     -34.423 -24.318  17.715  1.00  0.00    -0.312 OA
ATOM      6  H1  UNL     1     -33.948 -24.921  17.156  1.00  0.00     0.237 HD
ENDBRANCH   3   5
ENDBRANCH   2   3
BRANCH   2   7
HETATM    7  C8  UNL     1     -32.519 -26.000  17.892  1.00  0.00     0.170 C 
HETATM    8  N10 UNL     1     -33.317 -26.921  17.475  1.00  0.00    -0.170 N 
HETATM    9  C9  UNL     1     -33.222 -27.822  16.370  1.00  0.00     0.700 C 
ATOM     10  H10 UNL     1     -34.166 -27.025  18.031  1.00  0.00     0.186 HD
HETATM   11  N13 UNL     1     -32.157 -28.008  15.665  1.00  0.00    -0.129 N 
HETATM   12  N14 UNL     1     -30.867 -27.459  15.726  1.00  0.00    -0.253 N 
ATOM     13  H13 UNL     1     -32.278 -28.689  14.915  1.00  0.00     0.205 HD
HETATM   14  C13 UNL     1     -30.498 -26.446  16.436  1.00  0.00     0.253 C 
ATOM     15  H14 UNL     1     -30.149 -27.905  15.152  1.00  0.00     0.190 HD
HETATM   16  N15 UNL     1     -29.136 -26.085  16.322  1.00  0.00    -0.054 NA
HETATM   17  O3  UNL     1     -31.306 -25.674  17.301  1.00  0.00    -0.265 OA
BRANCH   9  18
HETATM   18  N11 UNL     1     -34.375 -28.568  16.016  1.00  0.00    -0.169 N 
ATOM     19  H11 UNL     1     -34.881 -28.379  15.150  1.00  0.00     0.186 HD
BRANCH  18  20
HETATM   20  C10 UNL     1     -34.768 -29.512  16.844  1.00  0.00     0.163 A 
HETATM   21  N12 UNL     1     -34.147 -30.653  17.154  1.00  0.00    -0.346 N 
HETATM   22  C11 UNL     1     -34.711 -31.459  18.005  1.00  0.00     0.097 A 
ATOM     23  H12 UNL     1     -33.248 -30.888  16.732  1.00  0.00     0.167 HD
HETATM   24  C12 UNL     1     -35.917 -31.091  18.540  1.00  0.00     0.070 A 
HETATM   25  S1  UNL     1     -36.191 -29.585  17.785  1.00  0.00    -0.064 SA
ENDBRANCH  18  20
ENDBRANCH   9  18
ENDBRANCH   2   7
ENDBRANCH   1   2
BRANCH   1  26
HETATM   26  N2  UNL     1     -30.841 -24.478  20.189  1.00  0.00    -0.387 N 
ATOM     27  H22 UNL     1     -30.844 -23.945  21.058  1.00  0.00     0.157 HD
ATOM     28  H21 UNL     1     -30.134 -25.192  20.018  1.00  0.00     0.157 HD
ENDBRANCH   1  26
BRANCH   1  29
HETATM   29  N3  UNL     1     -31.667 -23.008  18.570  1.00  0.00    -0.326 N 
ATOM     30  H3  UNL     1     -31.193 -22.974  17.668  1.00  0.00     0.169 HD
BRANCH  29  31
HETATM   31  C4  UNL     1     -32.218 -21.936  19.076  1.00  0.00     0.177 A 
HETATM   32  N4  UNL     1     -33.508 -21.578  19.082  1.00  0.00    -0.262 N 
HETATM   33  N5  UNL     1     -33.587 -20.418  19.703  1.00  0.00    -0.198 N 
ATOM     34  H4  UNL     1     -34.284 -22.104  18.681  1.00  0.00     0.190 HD
HETATM   35  O2  UNL     1     -32.384 -20.034  20.087  1.00  0.00    -0.201 OA
ATOM     36  H5  UNL     1     -34.448 -19.896  19.862  1.00  0.00     0.216 HD
HETATM   37  C5  UNL     1     -31.507 -20.946  19.718  1.00  0.00     0.215 A 
BRANCH  37  38
HETATM   38  N6  UNL     1     -30.223 -20.924  19.918  1.00  0.00    -0.350 N 
ATOM     39  H6  UNL     1     -29.683 -21.787  19.853  1.00  0.00     0.163 HD
BRANCH  38  40
HETATM   40  C6  UNL     1     -29.547 -19.663  20.238  1.00  0.00     0.244 C 
BRANCH  40  41
HETATM   41  N7  UNL     1     -29.800 -19.365  21.614  1.00  0.00    -0.359 N 
HETATM   42  C7  UNL     1     -30.159 -18.014  21.901  1.00  0.00     0.477 C 
HETATM   43  N8  UNL     1     -30.363 -17.877  23.336  1.00  0.00    -0.033 N 
HETATM   44  N9  UNL     1     -31.320 -17.521  21.229  1.00  0.00    -0.033 N 
ATOM     45  H83 UNL     1     -31.043 -18.546  23.698  1.00  0.00     0.278 HD
ATOM     46  H82 UNL     1     -29.556 -18.189  23.876  1.00  0.00     0.278 HD
ATOM     47  H81 UNL     1     -30.620 -16.912  23.541  1.00  0.00     0.278 HD
ATOM     48  H93 UNL     1     -31.219 -17.647  20.222  1.00  0.00     0.278 HD
ATOM     49  H92 UNL     1     -32.113 -18.137  21.410  1.00  0.00     0.278 HD
ATOM     50  H91 UNL     1     -31.577 -16.556  21.434  1.00  0.00     0.278 HD
ATOM     51  H7  UNL     1     -29.729 -20.073  22.344  1.00  0.00     0.158 HD
ENDBRANCH  40  41
ENDBRANCH  38  40
ENDBRANCH  37  38
ENDBRANCH  29  31
ENDBRANCH   1  29
TORSDOF 12
ENDMDL
MODEL 2
REMARK VINA RESULT: -7.021117614      1.255      1.709
REMARK  12 active torsions:
REMARK  status: ('A' for Active; 'I' for Inactive)
REMARK    1  A    between atoms: N1_2  and  O1_3 
REMARK    2  A    between atoms: N1_2  and  C2_5 
REMARK    3  A    between atoms: C2_5  and  C3_6 
REMARK    4  A    between atoms: C2_5  and  C8_33 
REMARK    5  A    between atoms: C3_6  and  N2_7 
REMARK    6  A    between atoms: C3_6  and  N3_10 
REMARK    7  A    between atoms: N3_10  and  C4_12 
REMARK    8  A    between atoms: C5_18  and  N6_19 
REMARK    9  A    between atoms: N6_19  and  C6_21 
REMARK   10  A    between atoms: C6_21  and  N7_22 
REMARK       I    between atoms: N7_22  and  C7_24 
REMARK       I    between atoms: C7_24  and  N8_25 
REMARK       I    between atoms: C7_24  and  N9_29 
REMARK   11  A    between atoms: C9_36  and  N11_37 
REMARK   12  A    between atoms: N11_37  and  C10_39 
ROOT
HETATM    1  C3  UNL     1     -31.803 -24.247  19.336  1.00  0.00     0.105 C 
ENDROOT
BRANCH   1   2
HETATM    2  C2  UNL     1     -32.901 -25.224  19.042  1.00  0.00     0.227 C 
BRANCH   2   3
HETATM    3  N1  UNL     1     -34.124 -24.512  18.981  1.00  0.00    -0.184 NA
HETATM    4  C1  UNL     1     -35.215 -25.074  19.692  1.00  0.00     0.145 C 
BRANCH   3   5
HETATM    5  O1  UNL     1     -34.449 -24.306  17.687  1.00  0.00    -0.312 OA
ATOM      6  H1  UNL     1     -33.678 -24.345  17.134  1.00  0.00     0.237 HD
ENDBRANCH   3   5
ENDBRANCH   2   3
BRANCH   2   7
HETATM    7  C8  UNL     1     -32.534 -25.979  17.849  1.00  0.00     0.170 C 
HETATM    8  N10 UNL     1     -33.337 -26.860  17.361  1.00  0.00    -0.170 N 
HETATM    9  C9  UNL     1     -33.219 -27.718  16.225  1.00  0.00     0.700 C 
ATOM     10  H10 UNL     1     -34.212 -26.963  17.877  1.00  0.00     0.186 HD
HETATM   11  N13 UNL     1     -32.130 -27.905  15.558  1.00  0.00    -0.129 N 
HETATM   12  N14 UNL     1     -30.829 -27.396  15.695  1.00  0.00    -0.253 N 
ATOM     13  H13 UNL     1     -32.236 -28.552  14.776  1.00  0.00     0.205 HD
HETATM   14  C13 UNL     1     -30.466 -26.422  16.462  1.00  0.00     0.253 C 
ATOM     15  H14 UNL     1     -30.100 -27.837  15.134  1.00  0.00     0.190 HD
HETATM   16  N15 UNL     1     -29.090 -26.095  16.419  1.00  0.00    -0.054 NA
HETATM   17  O3  UNL     1     -31.289 -25.664  17.323  1.00  0.00    -0.265 OA
BRANCH   9  18
HETATM   18  N11 UNL     1     -34.374 -28.417  15.792  1.00  0.00    -0.169 N 
ATOM     19  H11 UNL     1     -34.307 -29.352  15.390  1.00  0.00     0.186 HD
BRANCH  18  20
HETATM   20  C10 UNL     1     -35.537 -27.814  15.928  1.00  0.00     0.163 A 
HETATM   21  N12 UNL     1     -36.022 -26.784  15.232  1.00  0.00    -0.346 N 
HETATM   22  C11 UNL     1     -37.206 -26.333  15.527  1.00  0.00     0.097 A 
ATOM     23  H12 UNL     1     -35.475 -26.358  14.483  1.00  0.00     0.167 HD
HETATM   24  C12 UNL     1     -37.894 -26.944  16.541  1.00  0.00     0.070 A 
HETATM   25  S1  UNL     1     -36.795 -28.154  17.032  1.00  0.00    -0.064 SA
ENDBRANCH  18  20
ENDBRANCH   9  18
ENDBRANCH   2   7
ENDBRANCH   1   2
BRANCH   1  26
HETATM   26  N2  UNL     1     -30.941 -24.491  20.252  1.00  0.00    -0.387 N 
ATOM     27  H22 UNL     1     -30.958 -23.929  21.103  1.00  0.00     0.157 HD
ATOM     28  H21 UNL     1     -30.250 -25.231  20.131  1.00  0.00     0.157 HD
ENDBRANCH   1  26
BRANCH   1  29
HETATM   29  N3  UNL     1     -31.695 -23.024  18.596  1.00  0.00    -0.326 N 
ATOM     30  H3  UNL     1     -31.199 -22.995  17.706  1.00  0.00     0.169 HD
BRANCH  29  31
HETATM   31  C4  UNL     1     -32.247 -21.946  19.090  1.00  0.00     0.177 A 
HETATM   32  N4  UNL     1     -33.535 -21.583  19.080  1.00  0.00    -0.262 N 
HETATM   33  N5  UNL     1     -33.616 -20.419  19.693  1.00  0.00    -0.198 N 
ATOM     34  H4  UNL     1     -34.310 -22.109  18.675  1.00  0.00     0.190 HD
HETATM   35  O2  UNL     1     -32.415 -20.037  20.088  1.00  0.00    -0.201 OA
ATOM     36  H5  UNL     1     -34.476 -19.892  19.841  1.00  0.00     0.216 HD
HETATM   37  C5  UNL     1     -31.538 -20.956  19.733  1.00  0.00     0.215 A 
BRANCH  37  38
HETATM   38  N6  UNL     1     -30.256 -20.937  19.946  1.00  0.00    -0.350 N 
ATOM     39  H6  UNL     1     -29.723 -21.806  19.914  1.00  0.00     0.163 HD
BRANCH  38  40
HETATM   40  C6  UNL     1     -29.573 -19.672  20.234  1.00  0.00     0.244 C 
BRANCH  40  41
HETATM   41  N7  UNL     1     -29.802 -19.352  21.609  1.00  0.00    -0.359 N 
HETATM   42  C7  UNL     1     -30.172 -18.000  21.878  1.00  0.00     0.477 C 
HETATM   43  N8  UNL     1     -30.349 -17.839  23.314  1.00  0.00    -0.033 N 
HETATM   44  N9  UNL     1     -31.353 -17.534  21.221  1.00  0.00    -0.033 N 
ATOM     45  H83 UNL     1     -31.012 -18.509  23.703  1.00  0.00     0.278 HD
ATOM     46  H82 UNL     1     -29.526 -18.131  23.843  1.00  0.00     0.278 HD
ATOM     47  H81 UNL     1     -30.613 -16.873  23.507  1.00  0.00     0.278 HD
ATOM     48  H93 UNL     1     -31.270 -17.677  20.215  1.00  0.00     0.278 HD
ATOM     49  H92 UNL     1     -32.134 -18.156  21.430  1.00  0.00     0.278 HD
ATOM     50  H91 UNL     1     -31.617 -16.568  21.414  1.00  0.00     0.278 HD
ATOM     51  H7  UNL     1     -29.707 -20.045  22.350  1.00  0.00     0.158 HD
ENDBRANCH  40  41
ENDBRANCH  38  40
ENDBRANCH  37  38
ENDBRANCH  29  31
ENDBRANCH   1  29
TORSDOF 12
ENDMDL
MODEL 3
REMARK VINA RESULT: -6.896091117      3.574      9.272
REMARK  12 active torsions:
REMARK  status: ('A' for Active; 'I' for Inactive)
REMARK    1  A    between atoms: N1_2  and  O1_3 
REMARK    2  A    between atoms: N1_2  and  C2_5 
REMARK    3  A    between atoms: C2_5  and  C3_6 
REMARK    4  A    between atoms: C2_5  and  C8_33 
REMARK    5  A    between atoms: C3_6  and  N2_7 
REMARK    6  A    between atoms: C3_6  and  N3_10 
REMARK    7  A    between atoms: N3_10  and  C4_12 
REMARK    8  A    between atoms: C5_18  and  N6_19 
REMARK    9  A    between atoms: N6_19  and  C6_21 
REMARK   10  A    between atoms: C6_21  and  N7_22 
REMARK       I    between atoms: N7_22  and  C7_24 
REMARK       I    between atoms: C7_24  and  N8_25 
REMARK       I    between atoms: C7_24  and  N9_29 
REMARK   11  A    between atoms: C9_36  and  N11_37 
REMARK   12  A    between atoms: N11_37  and  C10_39 
ROOT
HETATM    1  C3  UNL     1     -32.467 -21.330  19.732  1.00  0.00     0.105 C 
ENDROOT
BRANCH   1   2
HETATM    2  C2  UNL     1     -32.743 -20.619  21.022  1.00  0.00     0.227 C 
BRANCH   2   3
HETATM    3  N1  UNL     1     -32.013 -21.266  22.050  1.00  0.00    -0.184 NA
HETATM    4  C1  UNL     1     -32.099 -20.687  23.343  1.00  0.00     0.145 C 
BRANCH   3   5
HETATM    5  O1  UNL     1     -30.725 -21.390  21.665  1.00  0.00    -0.312 OA
ATOM      6  H1  UNL     1     -30.606 -22.162  21.125  1.00  0.00     0.237 HD
ENDBRANCH   3   5
ENDBRANCH   2   3
BRANCH   2   7
HETATM    7  C8  UNL     1     -32.466 -19.200  20.830  1.00  0.00     0.170 C 
HETATM    8  N10 UNL     1     -33.432 -18.356  20.718  1.00  0.00    -0.170 N 
HETATM    9  C9  UNL     1     -33.429 -16.940  20.527  1.00  0.00     0.700 C 
ATOM     10  H10 UNL     1     -34.362 -18.771  20.776  1.00  0.00     0.186 HD
HETATM   11  N13 UNL     1     -32.387 -16.242  20.222  1.00  0.00    -0.129 N 
HETATM   12  N14 UNL     1     -31.045 -16.585  19.995  1.00  0.00    -0.253 N 
ATOM     13  H13 UNL     1     -32.576 -15.245  20.127  1.00  0.00     0.205 HD
HETATM   14  C13 UNL     1     -30.495 -17.728  20.239  1.00  0.00     0.253 C 
ATOM     15  H14 UNL     1     -30.445 -15.861  19.598  1.00  0.00     0.190 HD
HETATM   16  N15 UNL     1     -29.120 -17.822  19.922  1.00  0.00    -0.054 NA
HETATM   17  O3  UNL     1     -31.117 -18.874  20.783  1.00  0.00    -0.265 OA
BRANCH   9  18
HETATM   18  N11 UNL     1     -34.655 -16.242  20.682  1.00  0.00    -0.169 N 
ATOM     19  H11 UNL     1     -34.712 -15.235  20.533  1.00  0.00     0.186 HD
BRANCH  18  20
HETATM   20  C10 UNL     1     -35.715 -16.943  21.024  1.00  0.00     0.163 A 
HETATM   21  N12 UNL     1     -36.121 -17.286  22.249  1.00  0.00    -0.346 N 
HETATM   22  C11 UNL     1     -37.209 -17.989  22.372  1.00  0.00     0.097 A 
ATOM     23  H12 UNL     1     -35.588 -17.003  23.072  1.00  0.00     0.167 HD
HETATM   24  C12 UNL     1     -37.881 -18.340  21.233  1.00  0.00     0.070 A 
HETATM   25  S1  UNL     1     -36.909 -17.637  20.020  1.00  0.00    -0.064 SA
ENDBRANCH  18  20
ENDBRANCH   9  18
ENDBRANCH   2   7
ENDBRANCH   1   2
BRANCH   1  26
HETATM   26  N2  UNL     1     -31.704 -20.804  18.848  1.00  0.00    -0.387 N 
ATOM     27  H22 UNL     1     -31.700 -19.790  18.744  1.00  0.00     0.157 HD
ATOM     28  H21 UNL     1     -31.113 -21.390  18.258  1.00  0.00     0.157 HD
ENDBRANCH   1  26
BRANCH   1  29
HETATM   29  N3  UNL     1     -33.051 -22.612  19.464  1.00  0.00    -0.326 N 
ATOM     30  H3  UNL     1     -34.019 -22.689  19.152  1.00  0.00     0.169 HD
BRANCH  29  31
HETATM   31  C4  UNL     1     -32.315 -23.679  19.629  1.00  0.00     0.177 A 
HETATM   32  N4  UNL     1     -31.247 -23.849  20.418  1.00  0.00    -0.262 N 
HETATM   33  N5  UNL     1     -30.835 -25.090  20.253  1.00  0.00    -0.198 N 
ATOM     34  H4  UNL     1     -30.831 -23.150  21.032  1.00  0.00     0.190 HD
HETATM   35  O2  UNL     1     -31.611 -25.707  19.382  1.00  0.00    -0.201 OA
ATOM     36  H5  UNL     1     -30.036 -25.510  20.727  1.00  0.00     0.216 HD
HETATM   37  C5  UNL     1     -32.542 -24.868  18.971  1.00  0.00     0.215 A 
BRANCH  37  38
HETATM   38  N6  UNL     1     -33.489 -25.108  18.114  1.00  0.00    -0.350 N 
ATOM     39  H6  UNL     1     -34.272 -24.459  18.026  1.00  0.00     0.163 HD
BRANCH  38  40
HETATM   40  C6  UNL     1     -33.439 -26.309  17.273  1.00  0.00     0.244 C 
BRANCH  40  41
HETATM   41  N7  UNL     1     -32.124 -26.401  16.718  1.00  0.00    -0.359 N 
HETATM   42  C7  UNL     1     -31.804 -27.638  16.083  1.00  0.00     0.477 C 
HETATM   43  N8  UNL     1     -30.435 -27.573  15.592  1.00  0.00    -0.033 N 
HETATM   44  N9  UNL     1     -32.655 -28.022  15.001  1.00  0.00    -0.033 N 
ATOM     45  H83 UNL     1     -30.277 -26.770  14.983  1.00  0.00     0.278 HD
ATOM     46  H82 UNL     1     -29.770 -27.329  16.326  1.00  0.00     0.278 HD
ATOM     47  H81 UNL     1     -30.206 -28.457  15.138  1.00  0.00     0.278 HD
ATOM     48  H93 UNL     1     -33.627 -28.032  15.310  1.00  0.00     0.278 HD
ATOM     49  H92 UNL     1     -32.693 -27.274  14.307  1.00  0.00     0.278 HD
ATOM     50  H91 UNL     1     -32.427 -28.906  14.546  1.00  0.00     0.278 HD
ATOM     51  H7  UNL     1     -31.457 -25.632  16.773  1.00  0.00     0.158 HD
ENDBRANCH  40  41
ENDBRANCH  38  40
ENDBRANCH  37  38
ENDBRANCH  29  31
ENDBRANCH   1  29
TORSDOF 12
ENDMDL
MODEL 4
REMARK VINA RESULT: -6.646183038      2.565      4.657
REMARK  12 active torsions:
REMARK  status: ('A' for Active; 'I' for Inactive)
REMARK    1  A    between atoms: N1_2  and  O1_3 
REMARK    2  A    between atoms: N1_2  and  C2_5 
REMARK    3  A    between atoms: C2_5  and  C3_6 
REMARK    4  A    between atoms: C2_5  and  C8_33 
REMARK    5  A    between atoms: C3_6  and  N2_7 
REMARK    6  A    between atoms: C3_6  and  N3_10 
REMARK    7  A    between atoms: N3_10  and  C4_12 
REMARK    8  A    between atoms: C5_18  and  N6_19 
REMARK    9  A    between atoms: N6_19  and  C6_21 
REMARK   10  A    between atoms: C6_21  and  N7_22 
REMARK       I    between atoms: N7_22  and  C7_24 
REMARK       I    between atoms: C7_24  and  N8_25 
REMARK       I    between atoms: C7_24  and  N9_29 
REMARK   11  A    between atoms: C9_36  and  N11_37 
REMARK   12  A    between atoms: N11_37  and  C10_39 
ROOT
HETATM    1  C3  UNL     1     -32.592 -20.388  20.754  1.00  0.00     0.105 C 
ENDROOT
BRANCH   1   2
HETATM    2  C2  UNL     1     -33.361 -21.658  20.549  1.00  0.00     0.227 C 
BRANCH   2   3
HETATM    3  N1  UNL     1     -34.117 -21.531  19.357  1.00  0.00    -0.184 NA
HETATM    4  C1  UNL     1     -35.106 -22.522  19.131  1.00  0.00     0.145 C 
BRANCH   3   5
HETATM    5  O1  UNL     1     -33.273 -21.445  18.307  1.00  0.00    -0.312 OA
ATOM      6  H1  UNL     1     -32.400 -21.727  18.551  1.00  0.00     0.237 HD
ENDBRANCH   3   5
ENDBRANCH   2   3
BRANCH   2   7
HETATM    7  C8  UNL     1     -32.424 -22.774  20.601  1.00  0.00     0.170 C 
HETATM    8  N10 UNL     1     -32.083 -23.392  19.523  1.00  0.00    -0.170 N 
HETATM    9  C9  UNL     1     -31.201 -24.495  19.307  1.00  0.00     0.700 C 
ATOM     10  H10 UNL     1     -32.521 -23.031  18.675  1.00  0.00     0.186 HD
HETATM   11  N13 UNL     1     -30.707 -25.234  20.243  1.00  0.00    -0.129 N 
HETATM   12  N14 UNL     1     -30.845 -25.219  21.640  1.00  0.00    -0.253 N 
ATOM     13  H13 UNL     1     -30.095 -25.974  19.900  1.00  0.00     0.205 HD
HETATM   14  C13 UNL     1     -31.389 -24.285  22.346  1.00  0.00     0.253 C 
ATOM     15  H14 UNL     1     -30.479 -26.026  22.147  1.00  0.00     0.190 HD
HETATM   16  N15 UNL     1     -31.404 -24.508  23.743  1.00  0.00    -0.054 NA
HETATM   17  O3  UNL     1     -31.961 -23.084  21.873  1.00  0.00    -0.265 OA
BRANCH   9  18
HETATM   18  N11 UNL     1     -30.837 -24.808  17.973  1.00  0.00    -0.169 N 
ATOM     19  H11 UNL     1     -30.078 -24.313  17.503  1.00  0.00     0.186 HD
BRANCH  18  20
HETATM   20  C10 UNL     1     -31.513 -25.758  17.363  1.00  0.00     0.163 A 
HETATM   21  N12 UNL     1     -31.067 -26.660  16.485  1.00  0.00    -0.346 N 
HETATM   22  C11 UNL     1     -31.908 -27.522  15.994  1.00  0.00     0.097 A 
ATOM     23  H12 UNL     1     -30.086 -26.671  16.204  1.00  0.00     0.167 HD
HETATM   24  C12 UNL     1     -33.212 -27.458  16.408  1.00  0.00     0.070 A 
HETATM   25  S1  UNL     1     -33.171 -26.145  17.496  1.00  0.00    -0.064 SA
ENDBRANCH  18  20
ENDBRANCH   9  18
ENDBRANCH   2   7
ENDBRANCH   1   2
BRANCH   1  26
HETATM   26  N2  UNL     1     -33.117 -19.254  20.469  1.00  0.00    -0.387 N 
ATOM     27  H22 UNL     1     -33.883 -18.910  21.047  1.00  0.00     0.157 HD
ATOM     28  H21 UNL     1     -32.775 -18.708  19.678  1.00  0.00     0.157 HD
ENDBRANCH   1  26
BRANCH   1  29
HETATM   29  N3  UNL     1     -31.256 -20.418  21.275  1.00  0.00    -0.326 N 
ATOM     30  H3  UNL     1     -30.694 -21.267  21.218  1.00  0.00     0.169 HD
BRANCH  29  31
HETATM   31  C4  UNL     1     -30.777 -19.333  21.824  1.00  0.00     0.177 A 
HETATM   32  N4  UNL     1     -31.017 -18.832  23.042  1.00  0.00    -0.262 N 
HETATM   33  N5  UNL     1     -30.312 -17.723  23.152  1.00  0.00    -0.198 N 
ATOM     34  H4  UNL     1     -31.629 -19.233  23.751  1.00  0.00     0.190 HD
HETATM   35  O2  UNL     1     -29.636 -17.511  22.038  1.00  0.00    -0.201 OA
ATOM     36  H5  UNL     1     -30.293 -17.120  23.974  1.00  0.00     0.216 HD
HETATM   37  C5  UNL     1     -29.896 -18.486  21.189  1.00  0.00     0.215 A 
BRANCH  37  38
HETATM   38  N6  UNL     1     -29.418 -18.626  19.988  1.00  0.00    -0.350 N 
ATOM     39  H6  UNL     1     -28.714 -19.341  19.802  1.00  0.00     0.163 HD
BRANCH  38  40
HETATM   40  C6  UNL     1     -29.885 -17.760  18.901  1.00  0.00     0.244 C 
BRANCH  40  41
HETATM   41  N7  UNL     1     -29.607 -16.406  19.266  1.00  0.00    -0.359 N 
HETATM   42  C7  UNL     1     -30.740 -15.543  19.358  1.00  0.00     0.477 C 
HETATM   43  N8  UNL     1     -30.283 -14.208  19.719  1.00  0.00    -0.033 N 
HETATM   44  N9  UNL     1     -31.753 -15.941  20.283  1.00  0.00    -0.033 N 
ATOM     45  H83 UNL     1     -29.721 -14.205  20.570  1.00  0.00     0.278 HD
ATOM     46  H82 UNL     1     -29.574 -13.852  19.079  1.00  0.00     0.278 HD
ATOM     47  H81 UNL     1     -31.093 -13.591  19.785  1.00  0.00     0.278 HD
ATOM     48  H93 UNL     1     -32.058 -16.892  20.077  1.00  0.00     0.278 HD
ATOM     49  H92 UNL     1     -31.345 -16.077  21.208  1.00  0.00     0.278 HD
ATOM     50  H91 UNL     1     -32.563 -15.323  20.349  1.00  0.00     0.278 HD
ATOM     51  H7  UNL     1     -28.659 -16.078  19.449  1.00  0.00     0.158 HD
ENDBRANCH  40  41
ENDBRANCH  38  40
ENDBRANCH  37  38
ENDBRANCH  29  31
ENDBRANCH   1  29
TORSDOF 12
ENDMDL
MODEL 5
REMARK VINA RESULT: -6.535511399      1.327      1.413
REMARK  12 active torsions:
REMARK  status: ('A' for Active; 'I' for Inactive)
REMARK    1  A    between atoms: N1_2  and  O1_3 
REMARK    2  A    between atoms: N1_2  and  C2_5 
REMARK    3  A    between atoms: C2_5  and  C3_6 
REMARK    4  A    between atoms: C2_5  and  C8_33 
REMARK    5  A    between atoms: C3_6  and  N2_7 
REMARK    6  A    between atoms: C3_6  and  N3_10 
REMARK    7  A    between atoms: N3_10  and  C4_12 
REMARK    8  A    between atoms: C5_18  and  N6_19 
REMARK    9  A    between atoms: N6_19  and  C6_21 
REMARK   10  A    between atoms: C6_21  and  N7_22 
REMARK       I    between atoms: N7_22  and  C7_24 
REMARK       I    between atoms: C7_24  and  N8_25 
REMARK       I    between atoms: C7_24  and  N9_29 
REMARK   11  A    between atoms: C9_36  and  N11_37 
REMARK   12  A    between atoms: N11_37  and  C10_39 
ROOT
HETATM    1  C3  UNL     1     -31.713 -24.267  20.245  1.00  0.00     0.105 C 
ENDROOT
BRANCH   1   2
HETATM    2  C2  UNL     1     -32.927 -24.877  19.612  1.00  0.00     0.227 C 
BRANCH   2   3
HETATM    3  N1  UNL     1     -33.907 -23.864  19.466  1.00  0.00    -0.184 NA
HETATM    4  C1  UNL     1     -35.233 -24.217  19.824  1.00  0.00     0.145 C 
BRANCH   3   5
HETATM    5  O1  UNL     1     -33.860 -23.385  18.205  1.00  0.00    -0.312 OA
ATOM      6  H1  UNL     1     -32.963 -23.310  17.904  1.00  0.00     0.237 HD
ENDBRANCH   3   5
ENDBRANCH   2   3
BRANCH   2   7
HETATM    7  C8  UNL     1     -32.513 -25.554  18.389  1.00  0.00     0.170 C 
HETATM    8  N10 UNL     1     -33.272 -26.441  17.844  1.00  0.00    -0.170 N 
HETATM    9  C9  UNL     1     -33.103 -27.234  16.668  1.00  0.00     0.700 C 
ATOM     10  H10 UNL     1     -34.149 -26.605  18.340  1.00  0.00     0.186 HD
HETATM   11  N13 UNL     1     -31.999 -27.343  16.009  1.00  0.00    -0.129 N 
HETATM   12  N14 UNL     1     -30.722 -26.788  16.192  1.00  0.00    -0.253 N 
ATOM     13  H13 UNL     1     -32.067 -27.952  15.194  1.00  0.00     0.205 HD
HETATM   14  C13 UNL     1     -30.409 -25.841  17.013  1.00  0.00     0.253 C 
ATOM     15  H14 UNL     1     -29.967 -27.170  15.622  1.00  0.00     0.190 HD
HETATM   16  N15 UNL     1     -29.048 -25.457  17.008  1.00  0.00    -0.054 NA
HETATM   17  O3  UNL     1     -31.275 -25.162  17.899  1.00  0.00    -0.265 OA
BRANCH   9  18
HETATM   18  N11 UNL     1     -34.223 -27.956  16.182  1.00  0.00    -0.169 N 
ATOM     19  H11 UNL     1     -34.720 -27.658  15.343  1.00  0.00     0.186 HD
BRANCH  18  20
HETATM   20  C10 UNL     1     -34.597 -29.025  16.854  1.00  0.00     0.163 A 
HETATM   21  N12 UNL     1     -34.011 -30.224  16.895  1.00  0.00    -0.346 N 
HETATM   22  C11 UNL     1     -34.547 -31.155  17.629  1.00  0.00     0.097 A 
ATOM     23  H12 UNL     1     -33.162 -30.407  16.361  1.00  0.00     0.167 HD
HETATM   24  C12 UNL     1     -35.687 -30.852  18.324  1.00  0.00     0.070 A 
HETATM   25  S1  UNL     1     -35.943 -29.223  17.886  1.00  0.00    -0.064 SA
ENDBRANCH  18  20
ENDBRANCH   9  18
ENDBRANCH   2   7
ENDBRANCH   1   2
BRANCH   1  26
HETATM   26  N2  UNL     1     -30.915 -24.983  20.949  1.00  0.00    -0.387 N 
ATOM     27  H22 UNL     1     -30.402 -25.737  20.493  1.00  0.00     0.157 HD
ATOM     28  H21 UNL     1     -30.798 -24.802  21.946  1.00  0.00     0.157 HD
ENDBRANCH   1  26
BRANCH   1  29
HETATM   29  N3  UNL     1     -31.420 -22.874  20.075  1.00  0.00    -0.326 N 
ATOM     30  H3  UNL     1     -31.031 -22.527  19.198  1.00  0.00     0.169 HD
BRANCH  29  31
HETATM   31  C4  UNL     1     -31.661 -22.060  21.069  1.00  0.00     0.177 A 
HETATM   32  N4  UNL     1     -32.663 -22.092  21.956  1.00  0.00    -0.262 N 
HETATM   33  N5  UNL     1     -32.495 -21.069  22.770  1.00  0.00    -0.198 N 
ATOM     34  H4  UNL     1     -33.416 -22.779  21.995  1.00  0.00     0.190 HD
HETATM   35  O2  UNL     1     -31.416 -20.393  22.421  1.00  0.00    -0.201 OA
ATOM     36  H5  UNL     1     -33.106 -20.835  23.552  1.00  0.00     0.216 HD
HETATM   37  C5  UNL     1     -30.870 -20.974  21.371  1.00  0.00     0.215 A 
BRANCH  37  38
HETATM   38  N6  UNL     1     -29.796 -20.601  20.741  1.00  0.00    -0.350 N 
ATOM     39  H6  UNL     1     -28.926 -21.119  20.868  1.00  0.00     0.163 HD
BRANCH  38  40
HETATM   40  C6  UNL     1     -29.829 -19.439  19.847  1.00  0.00     0.244 C 
BRANCH  40  41
HETATM   41  N7  UNL     1     -29.985 -18.269  20.654  1.00  0.00    -0.359 N 
HETATM   42  C7  UNL     1     -31.154 -17.491  20.400  1.00  0.00     0.477 C 
HETATM   43  N8  UNL     1     -31.151 -16.336  21.286  1.00  0.00    -0.033 N 
HETATM   44  N9  UNL     1     -32.401 -18.173  20.550  1.00  0.00    -0.033 N 
ATOM     45  H83 UNL     1     -31.063 -16.598  22.268  1.00  0.00     0.278 HD
ATOM     46  H82 UNL     1     -30.294 -15.788  21.208  1.00  0.00     0.278 HD
ATOM     47  H81 UNL     1     -31.987 -15.780  21.105  1.00  0.00     0.278 HD
ATOM     48  H93 UNL     1     -32.410 -19.012  19.970  1.00  0.00     0.278 HD
ATOM     49  H92 UNL     1     -32.458 -18.593  21.478  1.00  0.00     0.278 HD
ATOM     50  H91 UNL     1     -33.237 -17.617  20.368  1.00  0.00     0.278 HD
ATOM     51  H7  UNL     1     -29.304 -18.006  21.365  1.00  0.00     0.158 HD
ENDBRANCH  40  41
ENDBRANCH  38  40
ENDBRANCH  37  38
ENDBRANCH  29  31
ENDBRANCH   1  29
TORSDOF 12
ENDMDL
