MODEL 1
REMARK VINA RESULT: -6.639421498      0.000      0.000
REMARK  11 active torsions:
REMARK  status: ('A' for Active; 'I' for Inactive)
REMARK    1  A    between atoms: C3_4  and  O1_5 
REMARK    2  A    between atoms: O1_5  and  C4_6 
REMARK    3  A    between atoms: C4_6  and  C5_7 
REMARK    4  A    between atoms: C5_7  and  C6_8 
REMARK    5  A    between atoms: C6_8  and  C7_9 
REMARK    6  A    between atoms: N2_10  and  N3_12 
REMARK    7  A    between atoms: N3_12  and  C8_14 
REMARK    8  A    between atoms: C12_27  and  N9_28 
REMARK    9  A    between atoms: N9_28  and  N10_29 
REMARK   10  A    between atoms: C13_33  and  O3_34 
REMARK   11  A    between atoms: C14_36  and  O4_37 
ROOT
HETATM    1  C1  UNL     1     -33.095 -23.118  18.535  1.00  0.00     0.313 C 
HETATM    2  N1  UNL     1     -33.609 -22.129  19.445  1.00  0.00     0.117 N 
HETATM    3  C2  UNL     1     -34.733 -22.667  20.231  1.00  0.00     0.340 C 
HETATM    4  C3  UNL     1     -35.367 -21.451  20.843  1.00  0.00     0.091 C 
HETATM    5  C9  UNL     1     -34.578 -20.447  21.227  1.00  0.00     0.146 C 
HETATM    6  N5  UNL     1     -33.153 -20.510  21.067  1.00  0.00    -0.267 N 
HETATM    7  N6  UNL     1     -32.436 -19.449  21.567  1.00  0.00    -0.294 N 
ATOM      8  H6  UNL     1     -32.850 -18.783  22.219  1.00  0.00     0.184 HD
HETATM    9  C10 UNL     1     -31.086 -19.325  21.128  1.00  0.00     0.197 C 
HETATM   10  C11 UNL     1     -30.999 -18.531  19.845  1.00  0.00     0.204 C 
HETATM   11  N7  UNL     1     -30.952 -17.120  20.034  1.00  0.00    -0.333 N 
ATOM     12  H7  UNL     1     -30.770 -16.481  19.260  1.00  0.00     0.180 HD
HETATM   13  N8  UNL     1     -31.162 -16.665  21.303  1.00  0.00    -0.296 N 
ATOM     14  H8  UNL     1     -31.694 -15.814  21.481  1.00  0.00     0.184 HD
HETATM   15  C12 UNL     1     -30.610 -17.427  22.367  1.00  0.00     0.356 C 
HETATM   16  O2  UNL     1     -30.251 -18.717  22.052  1.00  0.00    -0.313 OA
HETATM   17  C13 UNL     1     -30.452 -20.685  20.830  1.00  0.00     0.209 C 
HETATM   18  C14 UNL     1     -31.293 -21.392  19.788  1.00  0.00     0.206 C 
HETATM   19  C15 UNL     1     -32.625 -21.677  20.401  1.00  0.00     0.374 C 
ENDROOT
BRANCH   4  20
HETATM   20  O1  UNL     1     -36.723 -21.424  20.981  1.00  0.00    -0.352 OA
BRANCH  20  21
HETATM   21  C4  UNL     1     -37.435 -21.698  22.151  1.00  0.00     0.175 C 
BRANCH  21  22
HETATM   22  C5  UNL     1     -38.479 -20.611  22.432  1.00  0.00     0.032 C 
BRANCH  22  23
HETATM   23  C6  UNL     1     -37.932 -19.609  23.430  1.00  0.00     0.048 C 
BRANCH  23  24
HETATM   24  C7  UNL     1     -37.565 -18.325  22.801  1.00  0.00     0.080 C 
HETATM   25  N2  UNL     1     -36.351 -17.903  22.801  1.00  0.00    -0.314 N 
ATOM     26  H2  UNL     1     -35.618 -18.459  23.242  1.00  0.00     0.185 HD
BRANCH  25  27
HETATM   27  N3  UNL     1     -36.037 -16.684  22.197  1.00  0.00    -0.279 N 
ATOM     28  H3  UNL     1     -36.076 -15.830  22.754  1.00  0.00     0.189 HD
BRANCH  27  29
HETATM   29  C8  UNL     1     -35.663 -16.600  20.830  1.00  0.00     0.199 C 
HETATM   30  N4  UNL     1     -34.295 -16.712  20.491  1.00  0.00    -0.068 NA
HETATM   31  S1  UNL     1     -36.825 -16.375  19.677  1.00  0.00    -0.043 SA
ENDBRANCH  27  29
ENDBRANCH  25  27
ENDBRANCH  23  24
ENDBRANCH  22  23
ENDBRANCH  21  22
ENDBRANCH  20  21
ENDBRANCH   4  20
BRANCH  18  32
HETATM   32  O4  UNL     1     -30.594 -22.584  19.487  1.00  0.00    -0.389 OA
ATOM     33  H4  UNL     1     -30.082 -22.779  20.264  1.00  0.00     0.210 HD
ENDBRANCH  18  32
BRANCH  17  34
HETATM   34  O3  UNL     1     -29.155 -20.509  20.386  1.00  0.00    -0.388 OA
ATOM     35  H3  UNL     1     -28.781 -21.348  20.146  1.00  0.00     0.210 HD
ENDBRANCH  17  34
BRANCH  15  36
HETATM   36  N9  UNL     1     -29.429 -16.759  22.891  1.00  0.00    -0.093 NA
BRANCH  36  37
HETATM   37  N10 UNL     1     -29.163 -17.158  24.211  1.00  0.00    -0.344 N 
ATOM     38 2H10 UNL     1     -28.850 -18.095  24.464  1.00  0.00     0.172 HD
ATOM     39 1H10 UNL     1     -29.323 -16.394  24.867  1.00  0.00     0.172 HD
ENDBRANCH  36  37
ENDBRANCH  15  36
TORSDOF 11
ENDMDL
MODEL 2
REMARK VINA RESULT: -6.396998487      4.185      6.958
REMARK  11 active torsions:
REMARK  status: ('A' for Active; 'I' for Inactive)
REMARK    1  A    between atoms: C3_4  and  O1_5 
REMARK    2  A    between atoms: O1_5  and  C4_6 
REMARK    3  A    between atoms: C4_6  and  C5_7 
REMARK    4  A    between atoms: C5_7  and  C6_8 
REMARK    5  A    between atoms: C6_8  and  C7_9 
REMARK    6  A    between atoms: N2_10  and  N3_12 
REMARK    7  A    between atoms: N3_12  and  C8_14 
REMARK    8  A    between atoms: C12_27  and  N9_28 
REMARK    9  A    between atoms: N9_28  and  N10_29 
REMARK   10  A    between atoms: C13_33  and  O3_34 
REMARK   11  A    between atoms: C14_36  and  O4_37 
ROOT
HETATM    1  C1  UNL     1     -33.866 -24.658  22.292  1.00  0.00     0.313 C 
HETATM    2  N1  UNL     1     -33.566 -24.018  21.039  1.00  0.00     0.117 N 
HETATM    3  C2  UNL     1     -34.556 -24.379  20.010  1.00  0.00     0.340 C 
HETATM    4  C3  UNL     1     -33.922 -23.942  18.721  1.00  0.00     0.091 C 
HETATM    5  C9  UNL     1     -33.189 -22.828  18.719  1.00  0.00     0.146 C 
HETATM    6  N5  UNL     1     -33.001 -22.051  19.911  1.00  0.00    -0.267 N 
HETATM    7  N6  UNL     1     -32.289 -20.883  19.771  1.00  0.00    -0.294 N 
ATOM      8  H6  UNL     1     -32.116 -20.468  18.856  1.00  0.00     0.184 HD
HETATM    9  C10 UNL     1     -31.806 -20.282  20.969  1.00  0.00     0.197 C 
HETATM   10  C11 UNL     1     -30.452 -20.835  21.351  1.00  0.00     0.204 C 
HETATM   11  N7  UNL     1     -29.355 -20.188  20.713  1.00  0.00    -0.333 N 
ATOM     12  H7  UNL     1     -28.390 -20.384  20.977  1.00  0.00     0.180 HD
HETATM   13  N8  UNL     1     -29.662 -19.291  19.731  1.00  0.00    -0.296 N 
ATOM     14  H8  UNL     1     -29.095 -19.214  18.887  1.00  0.00     0.184 HD
HETATM   15  C12 UNL     1     -30.803 -18.470  19.933  1.00  0.00     0.356 C 
HETATM   16  O2  UNL     1     -31.686 -18.903  20.894  1.00  0.00    -0.313 OA
HETATM   17  C13 UNL     1     -32.727 -20.552  22.160  1.00  0.00     0.209 C 
HETATM   18  C14 UNL     1     -32.869 -22.050  22.330  1.00  0.00     0.206 C 
HETATM   19  C15 UNL     1     -33.578 -22.576  21.126  1.00  0.00     0.374 C 
ENDROOT
BRANCH   4  20
HETATM   20  O1  UNL     1     -34.121 -24.703  17.607  1.00  0.00    -0.352 OA
BRANCH  20  21
HETATM   21  C4  UNL     1     -34.806 -25.918  17.553  1.00  0.00     0.175 C 
BRANCH  21  22
HETATM   22  C5  UNL     1     -35.281 -26.225  16.129  1.00  0.00     0.032 C 
BRANCH  22  23
HETATM   23  C6  UNL     1     -34.832 -27.613  15.717  1.00  0.00     0.048 C 
BRANCH  23  24
HETATM   24  C7  UNL     1     -33.458 -27.919  16.161  1.00  0.00     0.080 C 
HETATM   25  N2  UNL     1     -32.450 -27.748  15.384  1.00  0.00    -0.314 N 
ATOM     26  H2  UNL     1     -32.590 -27.394  14.438  1.00  0.00     0.185 HD
BRANCH  25  27
HETATM   27  N3  UNL     1     -31.163 -28.047  15.834  1.00  0.00    -0.279 N 
ATOM     28  H3  UNL     1     -30.928 -29.014  16.059  1.00  0.00     0.189 HD
BRANCH  27  29
HETATM   29  C8  UNL     1     -30.171 -27.042  15.988  1.00  0.00     0.199 C 
HETATM   30  N4  UNL     1     -28.931 -27.205  15.329  1.00  0.00    -0.068 NA
HETATM   31  S1  UNL     1     -30.485 -25.719  16.925  1.00  0.00    -0.043 SA
ENDBRANCH  27  29
ENDBRANCH  25  27
ENDBRANCH  23  24
ENDBRANCH  22  23
ENDBRANCH  21  22
ENDBRANCH  20  21
ENDBRANCH   4  20
BRANCH  18  32
HETATM   32  O4  UNL     1     -33.640 -22.223  23.503  1.00  0.00    -0.389 OA
ATOM     33  H4  UNL     1     -34.243 -22.931  23.306  1.00  0.00     0.210 HD
ENDBRANCH  18  32
BRANCH  17  34
HETATM   34  O3  UNL     1     -32.203 -19.970  23.299  1.00  0.00    -0.388 OA
ATOM     35  H3  UNL     1     -32.017 -20.640  23.946  1.00  0.00     0.210 HD
ENDBRANCH  17  34
BRANCH  15  36
HETATM   36  N9  UNL     1     -30.384 -17.125  20.297  1.00  0.00    -0.093 NA
BRANCH  36  37
HETATM   37  N10 UNL     1     -30.932 -16.739  21.531  1.00  0.00    -0.344 N 
ATOM     38 2H10 UNL     1     -30.398 -16.706  22.399  1.00  0.00     0.172 HD
ATOM     39 1H10 UNL     1     -31.920 -16.501  21.439  1.00  0.00     0.172 HD
ENDBRANCH  36  37
ENDBRANCH  15  36
TORSDOF 11
ENDMDL
MODEL 3
REMARK VINA RESULT: -6.247228271      3.894      7.241
REMARK  11 active torsions:
REMARK  status: ('A' for Active; 'I' for Inactive)
REMARK    1  A    between atoms: C3_4  and  O1_5 
REMARK    2  A    between atoms: O1_5  and  C4_6 
REMARK    3  A    between atoms: C4_6  and  C5_7 
REMARK    4  A    between atoms: C5_7  and  C6_8 
REMARK    5  A    between atoms: C6_8  and  C7_9 
REMARK    6  A    between atoms: N2_10  and  N3_12 
REMARK    7  A    between atoms: N3_12  and  C8_14 
REMARK    8  A    between atoms: C12_27  and  N9_28 
REMARK    9  A    between atoms: N9_28  and  N10_29 
REMARK   10  A    between atoms: C13_33  and  O3_34 
REMARK   11  A    between atoms: C14_36  and  O4_37 
ROOT
HETATM    1  C1  UNL     1     -34.393 -23.574  20.189  1.00  0.00     0.313 C 
HETATM    2  N1  UNL     1     -33.100 -23.068  19.814  1.00  0.00     0.117 N 
HETATM    3  C2  UNL     1     -32.625 -23.699  18.571  1.00  0.00     0.340 C 
HETATM    4  C3  UNL     1     -31.166 -23.350  18.516  1.00  0.00     0.091 C 
HETATM    5  C9  UNL     1     -30.781 -22.153  18.960  1.00  0.00     0.146 C 
HETATM    6  N5  UNL     1     -31.727 -21.208  19.481  1.00  0.00    -0.267 N 
HETATM    7  N6  UNL     1     -31.225 -19.979  19.840  1.00  0.00    -0.294 N 
ATOM      8  H6  UNL     1     -30.303 -19.667  19.536  1.00  0.00     0.184 HD
HETATM    9  C10 UNL     1     -32.057 -19.162  20.659  1.00  0.00     0.197 C 
HETATM   10  C11 UNL     1     -31.845 -19.462  22.126  1.00  0.00     0.204 C 
HETATM   11  N7  UNL     1     -30.758 -18.755  22.715  1.00  0.00    -0.333 N 
ATOM     12  H7  UNL     1     -30.587 -18.775  23.720  1.00  0.00     0.180 HD
HETATM   13  N8  UNL     1     -29.956 -18.048  21.866  1.00  0.00    -0.296 N 
ATOM     14  H8  UNL     1     -28.947 -18.003  22.003  1.00  0.00     0.184 HD
HETATM   15  C12 UNL     1     -30.586 -17.378  20.783  1.00  0.00     0.356 C 
HETATM   16  O2  UNL     1     -31.858 -17.802  20.479  1.00  0.00    -0.313 OA
HETATM   17  C13 UNL     1     -33.544 -19.401  20.387  1.00  0.00     0.209 C 
HETATM   18  C14 UNL     1     -33.844 -20.869  20.609  1.00  0.00     0.206 C 
HETATM   19  C15 UNL     1     -33.100 -21.644  19.573  1.00  0.00     0.374 C 
ENDROOT
BRANCH   4  20
HETATM   20  O1  UNL     1     -30.294 -24.271  18.014  1.00  0.00    -0.352 OA
BRANCH  20  21
HETATM   21  C4  UNL     1     -30.627 -25.537  17.526  1.00  0.00     0.175 C 
BRANCH  21  22
HETATM   22  C5  UNL     1     -29.626 -26.002  16.463  1.00  0.00     0.032 C 
BRANCH  22  23
HETATM   23  C6  UNL     1     -30.178 -27.202  15.718  1.00  0.00     0.048 C 
BRANCH  23  24
HETATM   24  C7  UNL     1     -31.570 -27.515  16.098  1.00  0.00     0.080 C 
HETATM   25  N2  UNL     1     -32.423 -27.927  15.232  1.00  0.00    -0.314 N 
ATOM     26  H2  UNL     1     -32.145 -28.045  14.258  1.00  0.00     0.185 HD
BRANCH  25  27
HETATM   27  N3  UNL     1     -33.732 -28.214  15.624  1.00  0.00    -0.279 N 
ATOM     28  H3  UNL     1     -34.028 -29.187  15.692  1.00  0.00     0.189 HD
BRANCH  27  29
HETATM   29  C8  UNL     1     -34.664 -27.187  15.932  1.00  0.00     0.199 C 
HETATM   30  N4  UNL     1     -35.387 -26.587  14.876  1.00  0.00    -0.068 NA
HETATM   31  S1  UNL     1     -34.878 -26.720  17.501  1.00  0.00    -0.043 SA
ENDBRANCH  27  29
ENDBRANCH  25  27
ENDBRANCH  23  24
ENDBRANCH  22  23
ENDBRANCH  21  22
ENDBRANCH  20  21
ENDBRANCH   4  20
BRANCH  18  32
HETATM   32  O4  UNL     1     -35.244 -20.994  20.445  1.00  0.00    -0.389 OA
ATOM     33  H4  UNL     1     -35.518 -21.630  21.097  1.00  0.00     0.210 HD
ENDBRANCH  18  32
BRANCH  17  34
HETATM   34  O3  UNL     1     -34.306 -18.606  21.222  1.00  0.00    -0.388 OA
ATOM     35  H3  UNL     1     -34.354 -17.725  20.870  1.00  0.00     0.210 HD
ENDBRANCH  17  34
BRANCH  15  36
HETATM   36  N9  UNL     1     -30.654 -15.952  21.059  1.00  0.00    -0.093 NA
BRANCH  36  37
HETATM   37  N10 UNL     1     -30.651 -15.203  19.870  1.00  0.00    -0.344 N 
ATOM     38 2H10 UNL     1     -30.900 -15.590  18.960  1.00  0.00     0.172 HD
ATOM     39 1H10 UNL     1     -30.369 -14.238  20.042  1.00  0.00     0.172 HD
ENDBRANCH  36  37
ENDBRANCH  15  36
TORSDOF 11
ENDMDL
MODEL 4
REMARK VINA RESULT: -6.210340073      4.119      7.007
REMARK  11 active torsions:
REMARK  status: ('A' for Active; 'I' for Inactive)
REMARK    1  A    between atoms: C3_4  and  O1_5 
REMARK    2  A    between atoms: O1_5  and  C4_6 
REMARK    3  A    between atoms: C4_6  and  C5_7 
REMARK    4  A    between atoms: C5_7  and  C6_8 
REMARK    5  A    between atoms: C6_8  and  C7_9 
REMARK    6  A    between atoms: N2_10  and  N3_12 
REMARK    7  A    between atoms: N3_12  and  C8_14 
REMARK    8  A    between atoms: C12_27  and  N9_28 
REMARK    9  A    between atoms: N9_28  and  N10_29 
REMARK   10  A    between atoms: C13_33  and  O3_34 
REMARK   11  A    between atoms: C14_36  and  O4_37 
ROOT
HETATM    1  C1  UNL     1     -36.122 -22.170  21.124  1.00  0.00     0.313 C 
HETATM    2  N1  UNL     1     -34.978 -22.492  20.313  1.00  0.00     0.117 N 
HETATM    3  C2  UNL     1     -35.373 -23.258  19.119  1.00  0.00     0.340 C 
HETATM    4  C3  UNL     1     -34.080 -23.810  18.592  1.00  0.00     0.091 C 
HETATM    5  C9  UNL     1     -32.982 -23.058  18.688  1.00  0.00     0.146 C 
HETATM    6  N5  UNL     1     -33.018 -21.750  19.279  1.00  0.00    -0.267 N 
HETATM    7  N6  UNL     1     -31.842 -21.039  19.256  1.00  0.00    -0.294 N 
ATOM      8  H6  UNL     1     -31.065 -21.307  18.652  1.00  0.00     0.184 HD
HETATM    9  C10 UNL     1     -31.762 -19.907  20.118  1.00  0.00     0.197 C 
HETATM   10  C11 UNL     1     -31.272 -20.301  21.493  1.00  0.00     0.204 C 
HETATM   11  N7  UNL     1     -29.854 -20.356  21.614  1.00  0.00    -0.333 N 
ATOM     12  H7  UNL     1     -29.398 -20.489  22.517  1.00  0.00     0.180 HD
HETATM   13  N8  UNL     1     -29.136 -20.222  20.461  1.00  0.00    -0.296 N 
ATOM     14  H8  UNL     1     -28.290 -20.767  20.297  1.00  0.00     0.184 HD
HETATM   15  C12 UNL     1     -29.616 -19.293  19.500  1.00  0.00     0.356 C 
HETATM   16  O2  UNL     1     -30.926 -18.905  19.650  1.00  0.00    -0.313 OA
HETATM   17  C13 UNL     1     -33.125 -19.245  20.325  1.00  0.00     0.209 C 
HETATM   18  C14 UNL     1     -34.083 -20.278  20.881  1.00  0.00     0.206 C 
HETATM   19  C15 UNL     1     -34.281 -21.322  19.832  1.00  0.00     0.374 C 
ENDROOT
BRANCH   4  20
HETATM   20  O1  UNL     1     -34.080 -25.054  18.036  1.00  0.00    -0.352 OA
BRANCH  20  21
HETATM   21  C4  UNL     1     -35.085 -25.594  17.230  1.00  0.00     0.175 C 
BRANCH  21  22
HETATM   22  C5  UNL     1     -35.309 -27.078  17.540  1.00  0.00     0.032 C 
BRANCH  22  23
HETATM   23  C6  UNL     1     -34.905 -27.926  16.351  1.00  0.00     0.048 C 
BRANCH  23  24
HETATM   24  C7  UNL     1     -33.460 -28.225  16.333  1.00  0.00     0.080 C 
HETATM   25  N2  UNL     1     -32.647 -27.554  15.600  1.00  0.00    -0.314 N 
ATOM     26  H2  UNL     1     -32.996 -26.796  15.013  1.00  0.00     0.185 HD
BRANCH  25  27
HETATM   27  N3  UNL     1     -31.285 -27.862  15.605  1.00  0.00    -0.279 N 
ATOM     28  H3  UNL     1     -30.984 -28.786  15.296  1.00  0.00     0.189 HD
BRANCH  27  29
HETATM   29  C8  UNL     1     -30.306 -26.924  16.030  1.00  0.00     0.199 C 
HETATM   30  N4  UNL     1     -28.983 -27.059  15.551  1.00  0.00    -0.068 NA
HETATM   31  S1  UNL     1     -30.733 -25.709  17.064  1.00  0.00    -0.043 SA
ENDBRANCH  27  29
ENDBRANCH  25  27
ENDBRANCH  23  24
ENDBRANCH  22  23
ENDBRANCH  21  22
ENDBRANCH  20  21
ENDBRANCH   4  20
BRANCH  18  32
HETATM   32  O4  UNL     1     -35.282 -19.575  21.146  1.00  0.00    -0.389 OA
ATOM     33  H4  UNL     1     -35.843 -19.743  20.398  1.00  0.00     0.210 HD
ENDBRANCH  18  32
BRANCH  17  34
HETATM   34  O3  UNL     1     -32.998 -18.171  21.186  1.00  0.00    -0.388 OA
ATOM     35  H3  UNL     1     -33.467 -18.349  21.993  1.00  0.00     0.210 HD
ENDBRANCH  17  34
BRANCH  15  36
HETATM   36  N9  UNL     1     -28.797 -18.091  19.525  1.00  0.00    -0.093 NA
BRANCH  36  37
HETATM   37  N10 UNL     1     -29.480 -17.000  18.964  1.00  0.00    -0.344 N 
ATOM     38 2H10 UNL     1     -29.669 -16.906  17.966  1.00  0.00     0.172 HD
ATOM     39 1H10 UNL     1     -29.756 -16.328  19.680  1.00  0.00     0.172 HD
ENDBRANCH  36  37
ENDBRANCH  15  36
TORSDOF 11
ENDMDL
MODEL 5
REMARK VINA RESULT: -6.202617421      3.047      3.906
REMARK  11 active torsions:
REMARK  status: ('A' for Active; 'I' for Inactive)
REMARK    1  A    between atoms: C3_4  and  O1_5 
REMARK    2  A    between atoms: O1_5  and  C4_6 
REMARK    3  A    between atoms: C4_6  and  C5_7 
REMARK    4  A    between atoms: C5_7  and  C6_8 
REMARK    5  A    between atoms: C6_8  and  C7_9 
REMARK    6  A    between atoms: N2_10  and  N3_12 
REMARK    7  A    between atoms: N3_12  and  C8_14 
REMARK    8  A    between atoms: C12_27  and  N9_28 
REMARK    9  A    between atoms: N9_28  and  N10_29 
REMARK   10  A    between atoms: C13_33  and  O3_34 
REMARK   11  A    between atoms: C14_36  and  O4_37 
ROOT
HETATM    1  C1  UNL     1     -33.403 -23.073  18.712  1.00  0.00     0.313 C 
HETATM    2  N1  UNL     1     -33.868 -21.976  19.518  1.00  0.00     0.117 N 
HETATM    3  C2  UNL     1     -35.093 -22.340  20.250  1.00  0.00     0.340 C 
HETATM    4  C3  UNL     1     -35.633 -21.026  20.736  1.00  0.00     0.091 C 
HETATM    5  C9  UNL     1     -34.769 -20.083  21.114  1.00  0.00     0.146 C 
HETATM    6  N5  UNL     1     -33.351 -20.303  21.065  1.00  0.00    -0.267 N 
HETATM    7  N6  UNL     1     -32.560 -19.288  21.550  1.00  0.00    -0.294 N 
ATOM      8  H6  UNL     1     -32.943 -18.540  22.126  1.00  0.00     0.184 HD
HETATM    9  C10 UNL     1     -31.179 -19.334  21.206  1.00  0.00     0.197 C 
HETATM   10  C11 UNL     1     -30.920 -18.644  19.885  1.00  0.00     0.204 C 
HETATM   11  N7  UNL     1     -30.735 -17.236  19.988  1.00  0.00    -0.333 N 
ATOM     12  H7  UNL     1     -30.434 -16.675  19.192  1.00  0.00     0.180 HD
HETATM   13  N8  UNL     1     -30.981 -16.675  21.208  1.00  0.00    -0.296 N 
ATOM     14  H8  UNL     1     -31.429 -15.763  21.292  1.00  0.00     0.184 HD
HETATM   15  C12 UNL     1     -30.587 -17.413  22.355  1.00  0.00     0.356 C 
HETATM   16  O2  UNL     1     -30.347 -18.751  22.149  1.00  0.00    -0.313 OA
HETATM   17  C13 UNL     1     -30.675 -20.769  21.041  1.00  0.00     0.209 C 
HETATM   18  C14 UNL     1     -31.515 -21.457  19.986  1.00  0.00     0.206 C 
HETATM   19  C15 UNL     1     -32.907 -21.561  20.514  1.00  0.00     0.374 C 
ENDROOT
BRANCH   4  20
HETATM   20  O1  UNL     1     -36.985 -20.850  20.771  1.00  0.00    -0.352 OA
BRANCH  20  21
HETATM   21  C4  UNL     1     -37.838 -20.816  19.666  1.00  0.00     0.175 C 
BRANCH  21  22
HETATM   22  C5  UNL     1     -37.995 -19.389  19.129  1.00  0.00     0.032 C 
BRANCH  22  23
HETATM   23  C6  UNL     1     -38.487 -19.423  17.695  1.00  0.00     0.048 C 
BRANCH  23  24
HETATM   24  C7  UNL     1     -37.692 -20.330  16.844  1.00  0.00     0.080 C 
HETATM   25  N2  UNL     1     -37.388 -20.018  15.635  1.00  0.00    -0.314 N 
ATOM     26  H2  UNL     1     -37.698 -19.129  15.245  1.00  0.00     0.185 HD
BRANCH  25  27
HETATM   27  N3  UNL     1     -36.634 -20.898  14.856  1.00  0.00    -0.279 N 
ATOM     28  H3  UNL     1     -35.644 -20.706  14.708  1.00  0.00     0.189 HD
BRANCH  27  29
HETATM   29  C8  UNL     1     -37.209 -22.054  14.264  1.00  0.00     0.199 C 
HETATM   30  N4  UNL     1     -36.580 -23.304  14.464  1.00  0.00    -0.068 NA
HETATM   31  S1  UNL     1     -38.586 -21.913  13.363  1.00  0.00    -0.043 SA
ENDBRANCH  27  29
ENDBRANCH  25  27
ENDBRANCH  23  24
ENDBRANCH  22  23
ENDBRANCH  21  22
ENDBRANCH  20  21
ENDBRANCH   4  20
BRANCH  18  32
HETATM   32  O4  UNL     1     -30.929 -22.733  19.812  1.00  0.00    -0.389 OA
ATOM     33  H4  UNL     1     -30.801 -23.073  20.691  1.00  0.00     0.210 HD
ENDBRANCH  18  32
BRANCH  17  34
HETATM   34  O3  UNL     1     -29.340 -20.759  20.684  1.00  0.00    -0.388 OA
ATOM     35  H3  UNL     1     -28.802 -20.621  21.455  1.00  0.00     0.210 HD
ENDBRANCH  17  34
BRANCH  15  36
HETATM   36  N9  UNL     1     -29.379 -16.834  22.923  1.00  0.00    -0.093 NA
BRANCH  36  37
HETATM   37  N10 UNL     1     -29.310 -17.059  24.308  1.00  0.00    -0.344 N 
ATOM     38 2H10 UNL     1     -29.620 -17.921  24.755  1.00  0.00     0.172 HD
ATOM     39 1H10 UNL     1     -28.913 -16.253  24.793  1.00  0.00     0.172 HD
ENDBRANCH  36  37
ENDBRANCH  15  36
TORSDOF 11
ENDMDL
