MODEL 1
REMARK VINA RESULT: -6.763894180      0.000      0.000
REMARK  15 active torsions:
REMARK  status: ('A' for Active; 'I' for Inactive)
REMARK    1  A    between atoms: N1_1  and  C1_5 
REMARK    2  A    between atoms: C3_7  and  N2_8 
REMARK    3  A    between atoms: C4_12  and  O1_13 
REMARK    4  A    between atoms: O1_13  and  C5_14 
REMARK    5  A    between atoms: C6_15  and  N3_16 
REMARK    6  A    between atoms: C8_21  and  N4_22 
REMARK    7  A    between atoms: C9_26  and  O2_27 
REMARK    8  A    between atoms: O2_27  and  C10_28 
REMARK    9  A    between atoms: C10_28  and  C11_29 
REMARK   10  A    between atoms: C11_29  and  O3_30 
REMARK   11  A    between atoms: C12_33  and  O5_34 
REMARK   12  A    between atoms: C13_36  and  C14_37 
REMARK   13  A    between atoms: C14_37  and  O6_38 
REMARK   14  A    between atoms: C16_42  and  N5_43 
REMARK   15  A    between atoms: C17_48  and  O9_49 
ROOT
HETATM    1  C5  UNL     1     -32.588 -22.604  20.095  1.00  0.00     0.185 C 
HETATM    2  C6  UNL     1     -32.768 -22.731  21.559  1.00  0.00     0.216 C 
HETATM    3  C7  UNL     1     -31.807 -21.991  22.431  1.00  0.00     0.070 C 
HETATM    4  C8  UNL     1     -32.353 -20.605  22.627  1.00  0.00     0.214 C 
HETATM    5  C9  UNL     1     -31.665 -19.740  21.549  1.00  0.00     0.160 C 
HETATM    6  C15 UNL     1     -32.412 -20.077  20.292  1.00  0.00     0.069 C 
HETATM    7  C16 UNL     1     -32.062 -21.310  19.573  1.00  0.00     0.216 C 
ENDROOT
BRANCH   1   8
HETATM    8  O1  UNL     1     -31.817 -23.664  19.629  1.00  0.00    -0.350 OA
BRANCH   8   9
HETATM    9  C4  UNL     1     -32.341 -24.319  18.550  1.00  0.00     0.293 C 
HETATM   10  C3  UNL     1     -32.136 -25.807  18.711  1.00  0.00     0.240 C 
HETATM   11  C2  UNL     1     -33.383 -26.499  19.209  1.00  0.00     0.075 C 
HETATM   12  C1  UNL     1     -34.518 -26.253  18.238  1.00  0.00     0.240 C 
HETATM   13  C17 UNL     1     -34.333 -24.935  17.541  1.00  0.00     0.290 C 
HETATM   14  O8  UNL     1     -33.666 -23.999  18.285  1.00  0.00    -0.328 OA
BRANCH  10  15
HETATM   15  N2  UNL     1     -31.725 -26.428  17.441  1.00  0.00    -0.070 N 
ATOM     16  H23 UNL     1     -30.715 -26.564  17.383  1.00  0.00     0.274 HD
ATOM     17  H22 UNL     1     -32.003 -27.407  17.378  1.00  0.00     0.274 HD
ATOM     18  H21 UNL     1     -32.088 -25.869  16.669  1.00  0.00     0.274 HD
ENDBRANCH  10  15
BRANCH  12  19
HETATM   19  N1  UNL     1     -35.778 -26.372  18.912  1.00  0.00    -0.070 N 
ATOM     20  H13 UNL     1     -36.562 -26.167  18.293  1.00  0.00     0.274 HD
ATOM     21  H12 UNL     1     -36.007 -27.343  19.124  1.00  0.00     0.274 HD
ATOM     22  H11 UNL     1     -35.788 -25.786  19.746  1.00  0.00     0.274 HD
ENDBRANCH  12  19
BRANCH  13  23
HETATM   23  O9  UNL     1     -35.621 -24.425  17.297  1.00  0.00    -0.369 OA
ATOM     24  H9  UNL     1     -35.699 -23.629  17.810  1.00  0.00     0.212 HD
ENDBRANCH  13  23
ENDBRANCH   8   9
ENDBRANCH   1   8
BRANCH   2  25
HETATM   25  N3  UNL     1     -32.620 -24.155  21.907  1.00  0.00    -0.072 N 
ATOM     26  H33 UNL     1     -32.766 -24.775  21.110  1.00  0.00     0.274 HD
ATOM     27  H32 UNL     1     -31.654 -24.416  22.105  1.00  0.00     0.274 HD
ATOM     28  H31 UNL     1     -33.251 -24.351  22.683  1.00  0.00     0.274 HD
ENDBRANCH   2  25
BRANCH   7  29
HETATM   29  N5  UNL     1     -30.673 -21.444  19.183  1.00  0.00    -0.072 N 
ATOM     30  H53 UNL     1     -30.066 -20.833  19.729  1.00  0.00     0.274 HD
ATOM     31  H52 UNL     1     -30.284 -22.343  19.472  1.00  0.00     0.274 HD
ATOM     32  H51 UNL     1     -30.563 -21.289  18.181  1.00  0.00     0.274 HD
ENDBRANCH   7  29
BRANCH   4  33
HETATM   33  N4  UNL     1     -32.179 -20.097  23.943  1.00  0.00    -0.072 N 
ATOM     34  H43 UNL     1     -31.419 -20.584  24.418  1.00  0.00     0.274 HD
ATOM     35  H42 UNL     1     -31.787 -19.155  23.915  1.00  0.00     0.274 HD
ATOM     36  H41 UNL     1     -33.026 -20.115  24.510  1.00  0.00     0.274 HD
ENDBRANCH   4  33
BRANCH   5  37
HETATM   37  O2  UNL     1     -31.792 -18.413  21.844  1.00  0.00    -0.323 OA
BRANCH  37  38
HETATM   38  C10 UNL     1     -30.737 -17.581  21.769  1.00  0.00     0.308 C 
HETATM   39  O4  UNL     1     -31.035 -16.291  21.334  1.00  0.00    -0.298 OA
HETATM   40  C12 UNL     1     -30.357 -16.048  20.164  1.00  0.00     0.294 C 
HETATM   41  C13 UNL     1     -30.247 -17.478  19.615  1.00  0.00     0.206 C 
HETATM   42  O7  UNL     1     -29.891 -18.140  20.759  1.00  0.00    -0.318 OA
BRANCH  38  43
HETATM   43  C11 UNL     1     -29.845 -17.459  22.958  1.00  0.00     0.266 C 
BRANCH  43  44
HETATM   44  O3  UNL     1     -30.481 -17.610  24.178  1.00  0.00    -0.393 OA
ATOM     45  H3  UNL     1     -30.716 -18.505  24.396  1.00  0.00     0.209 HD
ENDBRANCH  43  44
ENDBRANCH  38  43
BRANCH  40  46
HETATM   46  O5  UNL     1     -31.068 -15.318  19.239  1.00  0.00    -0.368 OA
ATOM     47  H5  UNL     1     -30.537 -14.936  18.550  1.00  0.00     0.212 HD
ENDBRANCH  40  46
BRANCH  41  48
HETATM   48  C14 UNL     1     -29.156 -17.452  18.571  1.00  0.00     0.201 C 
BRANCH  48  49
HETATM   49  O6  UNL     1     -29.664 -17.415  17.282  1.00  0.00    -0.398 OA
ATOM     50  H6  UNL     1     -29.038 -17.729  16.640  1.00  0.00     0.209 HD
ENDBRANCH  48  49
ENDBRANCH  41  48
ENDBRANCH  37  38
ENDBRANCH   5  37
TORSDOF 15
ENDMDL
MODEL 2
REMARK VINA RESULT: -6.168505094      1.802      2.638
REMARK  15 active torsions:
REMARK  status: ('A' for Active; 'I' for Inactive)
REMARK    1  A    between atoms: N1_1  and  C1_5 
REMARK    2  A    between atoms: C3_7  and  N2_8 
REMARK    3  A    between atoms: C4_12  and  O1_13 
REMARK    4  A    between atoms: O1_13  and  C5_14 
REMARK    5  A    between atoms: C6_15  and  N3_16 
REMARK    6  A    between atoms: C8_21  and  N4_22 
REMARK    7  A    between atoms: C9_26  and  O2_27 
REMARK    8  A    between atoms: O2_27  and  C10_28 
REMARK    9  A    between atoms: C10_28  and  C11_29 
REMARK   10  A    between atoms: C11_29  and  O3_30 
REMARK   11  A    between atoms: C12_33  and  O5_34 
REMARK   12  A    between atoms: C13_36  and  C14_37 
REMARK   13  A    between atoms: C14_37  and  O6_38 
REMARK   14  A    between atoms: C16_42  and  N5_43 
REMARK   15  A    between atoms: C17_48  and  O9_49 
ROOT
HETATM    1  C5  UNL     1     -33.079 -24.242  18.980  1.00  0.00     0.185 C 
HETATM    2  C6  UNL     1     -33.223 -24.573  20.416  1.00  0.00     0.216 C 
HETATM    3  C7  UNL     1     -32.142 -24.107  21.335  1.00  0.00     0.070 C 
HETATM    4  C8  UNL     1     -32.491 -22.712  21.767  1.00  0.00     0.214 C 
HETATM    5  C9  UNL     1     -31.730 -21.783  20.797  1.00  0.00     0.160 C 
HETATM    6  C15 UNL     1     -32.558 -21.820  19.546  1.00  0.00     0.069 C 
HETATM    7  C16 UNL     1     -32.402 -22.960  18.631  1.00  0.00     0.216 C 
ENDROOT
BRANCH   1   8
HETATM    8  O1  UNL     1     -32.473 -25.306  18.318  1.00  0.00    -0.350 OA
BRANCH   8   9
HETATM    9  C4  UNL     1     -33.088 -25.678  17.156  1.00  0.00     0.293 C 
HETATM   10  C3  UNL     1     -33.003 -27.178  16.994  1.00  0.00     0.240 C 
HETATM   11  C2  UNL     1     -34.286 -27.863  17.403  1.00  0.00     0.075 C 
HETATM   12  C1  UNL     1     -35.430 -27.335  16.565  1.00  0.00     0.240 C 
HETATM   13  C17 UNL     1     -35.159 -25.917  16.146  1.00  0.00     0.290 C 
HETATM   14  O8  UNL     1     -34.390 -25.212  17.032  1.00  0.00    -0.328 OA
BRANCH  10  15
HETATM   15  N2  UNL     1     -32.690 -27.547  15.604  1.00  0.00    -0.070 N 
ATOM     16  H23 UNL     1     -33.239 -28.343  15.280  1.00  0.00     0.274 HD
ATOM     17  H22 UNL     1     -33.029 -26.858  14.932  1.00  0.00     0.274 HD
ATOM     18  H21 UNL     1     -31.686 -27.708  15.525  1.00  0.00     0.274 HD
ENDBRANCH  10  15
BRANCH  12  19
HETATM   19  N1  UNL     1     -36.671 -27.498  17.263  1.00  0.00    -0.070 N 
ATOM     20  H13 UNL     1     -37.469 -27.502  16.628  1.00  0.00     0.274 HD
ATOM     21  H12 UNL     1     -36.775 -28.440  17.640  1.00  0.00     0.274 HD
ATOM     22  H11 UNL     1     -36.763 -26.785  17.987  1.00  0.00     0.274 HD
ENDBRANCH  12  19
BRANCH  13  23
HETATM   23  O9  UNL     1     -36.407 -25.272  16.080  1.00  0.00    -0.369 OA
ATOM     24  H9  UNL     1     -36.961 -25.686  16.732  1.00  0.00     0.212 HD
ENDBRANCH  13  23
ENDBRANCH   8   9
ENDBRANCH   1   8
BRANCH   2  25
HETATM   25  N3  UNL     1     -33.256 -26.042  20.536  1.00  0.00    -0.072 N 
ATOM     26  H33 UNL     1     -32.398 -26.485  20.209  1.00  0.00     0.274 HD
ATOM     27  H32 UNL     1     -33.213 -26.361  21.503  1.00  0.00     0.274 HD
ATOM     28  H31 UNL     1     -34.086 -26.374  20.044  1.00  0.00     0.274 HD
ENDBRANCH   2  25
BRANCH   7  29
HETATM   29  N5  UNL     1     -31.057 -23.208  18.151  1.00  0.00    -0.072 N 
ATOM     30  H53 UNL     1     -30.357 -23.006  18.865  1.00  0.00     0.274 HD
ATOM     31  H52 UNL     1     -30.874 -24.205  18.034  1.00  0.00     0.274 HD
ATOM     32  H51 UNL     1     -30.881 -22.688  17.291  1.00  0.00     0.274 HD
ENDBRANCH   7  29
BRANCH   4  33
HETATM   33  N4  UNL     1     -32.205 -22.442  23.134  1.00  0.00    -0.072 N 
ATOM     34  H43 UNL     1     -32.531 -23.207  23.726  1.00  0.00     0.274 HD
ATOM     35  H42 UNL     1     -31.202 -22.506  23.310  1.00  0.00     0.274 HD
ATOM     36  H41 UNL     1     -32.571 -21.550  23.466  1.00  0.00     0.274 HD
ENDBRANCH   4  33
BRANCH   5  37
HETATM   37  O2  UNL     1     -31.668 -20.513  21.295  1.00  0.00    -0.323 OA
BRANCH  37  38
HETATM   38  C10 UNL     1     -30.583 -19.742  21.097  1.00  0.00     0.308 C 
HETATM   39  O4  UNL     1     -30.069 -19.142  22.244  1.00  0.00    -0.298 OA
HETATM   40  C12 UNL     1     -30.141 -17.777  22.103  1.00  0.00     0.294 C 
HETATM   41  C13 UNL     1     -31.346 -17.667  21.157  1.00  0.00     0.206 C 
HETATM   42  O7  UNL     1     -31.039 -18.664  20.272  1.00  0.00    -0.318 OA
BRANCH  38  43
HETATM   43  C11 UNL     1     -29.435 -20.315  20.336  1.00  0.00     0.266 C 
BRANCH  43  44
HETATM   44  O3  UNL     1     -28.699 -19.391  19.616  1.00  0.00    -0.393 OA
ATOM     45  H3  UNL     1     -27.994 -19.762  19.097  1.00  0.00     0.209 HD
ENDBRANCH  43  44
ENDBRANCH  38  43
BRANCH  40  46
HETATM   46  O5  UNL     1     -30.475 -17.105  23.258  1.00  0.00    -0.368 OA
ATOM     47  H5  UNL     1     -31.368 -17.250  23.549  1.00  0.00     0.212 HD
ENDBRANCH  40  46
BRANCH  41  48
HETATM   48  C14 UNL     1     -31.287 -16.285  20.551  1.00  0.00     0.201 C 
BRANCH  48  49
HETATM   49  O6  UNL     1     -30.189 -15.564  20.993  1.00  0.00    -0.398 OA
ATOM     50  H6  UNL     1     -29.392 -16.082  20.986  1.00  0.00     0.209 HD
ENDBRANCH  48  49
ENDBRANCH  41  48
ENDBRANCH  37  38
ENDBRANCH   5  37
TORSDOF 15
ENDMDL
MODEL 3
REMARK VINA RESULT: -6.087505892      2.045      2.947
REMARK  15 active torsions:
REMARK  status: ('A' for Active; 'I' for Inactive)
REMARK    1  A    between atoms: N1_1  and  C1_5 
REMARK    2  A    between atoms: C3_7  and  N2_8 
REMARK    3  A    between atoms: C4_12  and  O1_13 
REMARK    4  A    between atoms: O1_13  and  C5_14 
REMARK    5  A    between atoms: C6_15  and  N3_16 
REMARK    6  A    between atoms: C8_21  and  N4_22 
REMARK    7  A    between atoms: C9_26  and  O2_27 
REMARK    8  A    between atoms: O2_27  and  C10_28 
REMARK    9  A    between atoms: C10_28  and  C11_29 
REMARK   10  A    between atoms: C11_29  and  O3_30 
REMARK   11  A    between atoms: C12_33  and  O5_34 
REMARK   12  A    between atoms: C13_36  and  C14_37 
REMARK   13  A    between atoms: C14_37  and  O6_38 
REMARK   14  A    between atoms: C16_42  and  N5_43 
REMARK   15  A    between atoms: C17_48  and  O9_49 
ROOT
HETATM    1  C5  UNL     1     -33.936 -24.029  19.804  1.00  0.00     0.185 C 
HETATM    2  C6  UNL     1     -33.800 -24.161  21.273  1.00  0.00     0.216 C 
HETATM    3  C7  UNL     1     -32.538 -23.652  21.888  1.00  0.00     0.070 C 
HETATM    4  C8  UNL     1     -32.738 -22.192  22.181  1.00  0.00     0.214 C 
HETATM    5  C9  UNL     1     -32.154 -21.449  20.960  1.00  0.00     0.160 C 
HETATM    6  C15 UNL     1     -33.219 -21.594  19.913  1.00  0.00     0.069 C 
HETATM    7  C16 UNL     1     -33.296 -22.850  19.154  1.00  0.00     0.216 C 
ENDROOT
BRANCH   1   8
HETATM    8  O1  UNL     1     -33.519 -25.207  19.192  1.00  0.00    -0.350 OA
BRANCH   8   9
HETATM    9  C4  UNL     1     -34.504 -25.887  18.533  1.00  0.00     0.293 C 
HETATM   10  C3  UNL     1     -34.329 -25.715  17.043  1.00  0.00     0.240 C 
HETATM   11  C2  UNL     1     -33.659 -26.913  16.412  1.00  0.00     0.075 C 
HETATM   12  C1  UNL     1     -34.485 -28.153  16.678  1.00  0.00     0.240 C 
HETATM   13  C17 UNL     1     -35.237 -28.011  17.971  1.00  0.00     0.290 C 
HETATM   14  O8  UNL     1     -34.609 -27.223  18.897  1.00  0.00    -0.328 OA
BRANCH  10  15
HETATM   15  N2  UNL     1     -35.622 -25.491  16.377  1.00  0.00    -0.070 N 
ATOM     16  H23 UNL     1     -36.044 -24.599  16.635  1.00  0.00     0.274 HD
ATOM     17  H22 UNL     1     -35.521 -25.315  15.377  1.00  0.00     0.274 HD
ATOM     18  H21 UNL     1     -36.235 -26.283  16.573  1.00  0.00     0.274 HD
ENDBRANCH  10  15
BRANCH  12  19
HETATM   19  N1  UNL     1     -33.655 -29.320  16.623  1.00  0.00    -0.070 N 
ATOM     20  H13 UNL     1     -33.546 -29.666  15.670  1.00  0.00     0.274 HD
ATOM     21  H12 UNL     1     -32.678 -29.103  16.816  1.00  0.00     0.274 HD
ATOM     22  H11 UNL     1     -34.017 -30.039  17.250  1.00  0.00     0.274 HD
ENDBRANCH  12  19
BRANCH  13  23
HETATM   23  O9  UNL     1     -35.331 -29.301  18.525  1.00  0.00    -0.369 OA
ATOM     24  H9  UNL     1     -34.442 -29.587  18.698  1.00  0.00     0.212 HD
ENDBRANCH  13  23
ENDBRANCH   8   9
ENDBRANCH   1   8
BRANCH   2  25
HETATM   25  N3  UNL     1     -33.864 -25.596  21.601  1.00  0.00    -0.072 N 
ATOM     26  H33 UNL     1     -33.910 -26.190  20.774  1.00  0.00     0.274 HD
ATOM     27  H32 UNL     1     -32.987 -25.956  21.977  1.00  0.00     0.274 HD
ATOM     28  H31 UNL     1     -34.653 -25.734  22.233  1.00  0.00     0.274 HD
ENDBRANCH   2  25
BRANCH   7  29
HETATM   29  N5  UNL     1     -32.087 -23.246  18.459  1.00  0.00    -0.072 N 
ATOM     30  H53 UNL     1     -31.545 -23.922  18.997  1.00  0.00     0.274 HD
ATOM     31  H52 UNL     1     -32.290 -23.827  17.645  1.00  0.00     0.274 HD
ATOM     32  H51 UNL     1     -31.531 -22.428  18.210  1.00  0.00     0.274 HD
ENDBRANCH   7  29
BRANCH   4  33
HETATM   33  N4  UNL     1     -32.170 -21.767  23.413  1.00  0.00    -0.072 N 
ATOM     34  H43 UNL     1     -32.894 -21.668  24.125  1.00  0.00     0.274 HD
ATOM     35  H42 UNL     1     -31.620 -22.516  23.832  1.00  0.00     0.274 HD
ATOM     36  H41 UNL     1     -31.617 -20.913  23.342  1.00  0.00     0.274 HD
ENDBRANCH   4  33
BRANCH   5  37
HETATM   37  O2  UNL     1     -31.943 -20.133  21.253  1.00  0.00    -0.323 OA
BRANCH  37  38
HETATM   38  C10 UNL     1     -30.858 -19.483  20.793  1.00  0.00     0.308 C 
HETATM   39  O4  UNL     1     -30.017 -18.970  21.778  1.00  0.00    -0.298 OA
HETATM   40  C12 UNL     1     -29.964 -17.602  21.650  1.00  0.00     0.294 C 
HETATM   41  C13 UNL     1     -31.341 -17.338  21.023  1.00  0.00     0.206 C 
HETATM   42  O7  UNL     1     -31.372 -18.344  20.096  1.00  0.00    -0.318 OA
BRANCH  38  43
HETATM   43  C11 UNL     1     -30.000 -20.166  19.781  1.00  0.00     0.266 C 
BRANCH  43  44
HETATM   44  O3  UNL     1     -28.720 -20.467  20.215  1.00  0.00    -0.393 OA
ATOM     45  H3  UNL     1     -28.527 -20.191  21.104  1.00  0.00     0.209 HD
ENDBRANCH  43  44
ENDBRANCH  38  43
BRANCH  40  46
HETATM   46  O5  UNL     1     -29.931 -16.923  22.846  1.00  0.00    -0.368 OA
ATOM     47  H5  UNL     1     -29.059 -16.798  23.201  1.00  0.00     0.212 HD
ENDBRANCH  40  46
BRANCH  41  48
HETATM   48  C14 UNL     1     -31.273 -15.959  20.411  1.00  0.00     0.201 C 
BRANCH  48  49
HETATM   49  O6  UNL     1     -30.101 -15.296  20.740  1.00  0.00    -0.398 OA
ATOM     50  H6  UNL     1     -29.327 -15.786  20.488  1.00  0.00     0.209 HD
ENDBRANCH  48  49
ENDBRANCH  41  48
ENDBRANCH  37  38
ENDBRANCH   5  37
TORSDOF 15
ENDMDL
MODEL 4
REMARK VINA RESULT: -6.067769321      1.880      2.559
REMARK  15 active torsions:
REMARK  status: ('A' for Active; 'I' for Inactive)
REMARK    1  A    between atoms: N1_1  and  C1_5 
REMARK    2  A    between atoms: C3_7  and  N2_8 
REMARK    3  A    between atoms: C4_12  and  O1_13 
REMARK    4  A    between atoms: O1_13  and  C5_14 
REMARK    5  A    between atoms: C6_15  and  N3_16 
REMARK    6  A    between atoms: C8_21  and  N4_22 
REMARK    7  A    between atoms: C9_26  and  O2_27 
REMARK    8  A    between atoms: O2_27  and  C10_28 
REMARK    9  A    between atoms: C10_28  and  C11_29 
REMARK   10  A    between atoms: C11_29  and  O3_30 
REMARK   11  A    between atoms: C12_33  and  O5_34 
REMARK   12  A    between atoms: C13_36  and  C14_37 
REMARK   13  A    between atoms: C14_37  and  O6_38 
REMARK   14  A    between atoms: C16_42  and  N5_43 
REMARK   15  A    between atoms: C17_48  and  O9_49 
ROOT
HETATM    1  C5  UNL     1     -34.448 -23.452  19.077  1.00  0.00     0.185 C 
HETATM    2  C6  UNL     1     -35.293 -22.968  20.192  1.00  0.00     0.216 C 
HETATM    3  C7  UNL     1     -34.591 -22.403  21.384  1.00  0.00     0.070 C 
HETATM    4  C8  UNL     1     -34.356 -20.944  21.116  1.00  0.00     0.214 C 
HETATM    5  C9  UNL     1     -32.926 -20.861  20.539  1.00  0.00     0.160 C 
HETATM    6  C15 UNL     1     -33.091 -21.304  19.115  1.00  0.00     0.069 C 
HETATM    7  C16 UNL     1     -33.160 -22.744  18.828  1.00  0.00     0.216 C 
ENDROOT
BRANCH   1   8
HETATM    8  O1  UNL     1     -34.231 -24.819  19.220  1.00  0.00    -0.350 OA
BRANCH   8   9
HETATM    9  C4  UNL     1     -34.424 -25.549  18.081  1.00  0.00     0.293 C 
HETATM   10  C3  UNL     1     -35.228 -26.787  18.401  1.00  0.00     0.240 C 
HETATM   11  C2  UNL     1     -36.686 -26.622  18.043  1.00  0.00     0.075 C 
HETATM   12  C1  UNL     1     -36.812 -26.313  16.567  1.00  0.00     0.240 C 
HETATM   13  C17 UNL     1     -35.588 -25.591  16.079  1.00  0.00     0.290 C 
HETATM   14  O8  UNL     1     -34.976 -24.824  17.033  1.00  0.00    -0.328 OA
BRANCH  10  15
HETATM   15  N2  UNL     1     -34.698 -27.964  17.695  1.00  0.00    -0.070 N 
ATOM     16  H23 UNL     1     -35.282 -28.242  16.907  1.00  0.00     0.274 HD
ATOM     17  H22 UNL     1     -33.846 -27.755  17.174  1.00  0.00     0.274 HD
ATOM     18  H21 UNL     1     -34.567 -28.720  18.369  1.00  0.00     0.274 HD
ENDBRANCH  10  15
BRANCH  12  19
HETATM   19  N1  UNL     1     -38.033 -25.608  16.311  1.00  0.00    -0.070 N 
ATOM     20  H13 UNL     1     -38.118 -24.771  16.888  1.00  0.00     0.274 HD
ATOM     21  H12 UNL     1     -38.030 -25.158  15.396  1.00  0.00     0.274 HD
ATOM     22  H11 UNL     1     -38.831 -26.232  16.427  1.00  0.00     0.274 HD
ENDBRANCH  12  19
BRANCH  13  23
HETATM   23  O9  UNL     1     -36.016 -24.717  15.061  1.00  0.00    -0.369 OA
ATOM     24  H9  UNL     1     -35.255 -24.214  14.797  1.00  0.00     0.212 HD
ENDBRANCH  13  23
ENDBRANCH   8   9
ENDBRANCH   1   8
BRANCH   2  25
HETATM   25  N3  UNL     1     -36.080 -24.111  20.687  1.00  0.00    -0.072 N 
ATOM     26  H33 UNL     1     -36.167 -24.859  20.000  1.00  0.00     0.274 HD
ATOM     27  H32 UNL     1     -35.593 -24.645  21.407  1.00  0.00     0.274 HD
ATOM     28  H31 UNL     1     -36.982 -23.754  21.001  1.00  0.00     0.274 HD
ENDBRANCH   2  25
BRANCH   7  29
HETATM   29  N5  UNL     1     -32.043 -23.538  19.299  1.00  0.00    -0.072 N 
ATOM     30  H53 UNL     1     -31.863 -24.337  18.690  1.00  0.00     0.274 HD
ATOM     31  H52 UNL     1     -31.154 -23.051  19.178  1.00  0.00     0.274 HD
ATOM     32  H51 UNL     1     -32.188 -23.825  20.267  1.00  0.00     0.274 HD
ENDBRANCH   7  29
BRANCH   4  33
HETATM   33  N4  UNL     1     -34.545 -20.111  22.253  1.00  0.00    -0.072 N 
ATOM     34  H43 UNL     1     -34.834 -19.175  21.967  1.00  0.00     0.274 HD
ATOM     35  H42 UNL     1     -35.376 -20.395  22.771  1.00  0.00     0.274 HD
ATOM     36  H41 UNL     1     -33.736 -20.063  22.872  1.00  0.00     0.274 HD
ENDBRANCH   4  33
BRANCH   5  37
HETATM   37  O2  UNL     1     -32.458 -19.580  20.593  1.00  0.00    -0.323 OA
BRANCH  37  38
HETATM   38  C10 UNL     1     -31.180 -19.320  20.924  1.00  0.00     0.308 C 
HETATM   39  O4  UNL     1     -30.994 -18.184  21.709  1.00  0.00    -0.298 OA
HETATM   40  C12 UNL     1     -30.212 -17.289  21.019  1.00  0.00     0.294 C 
HETATM   41  C13 UNL     1     -30.568 -17.677  19.577  1.00  0.00     0.206 C 
HETATM   42  O7  UNL     1     -30.523 -19.040  19.684  1.00  0.00    -0.318 OA
BRANCH  38  43
HETATM   43  C11 UNL     1     -30.366 -20.418  21.523  1.00  0.00     0.266 C 
BRANCH  43  44
HETATM   44  O3  UNL     1     -29.153 -20.646  20.897  1.00  0.00    -0.393 OA
ATOM     45  H3  UNL     1     -28.486 -19.993  21.073  1.00  0.00     0.209 HD
ENDBRANCH  43  44
ENDBRANCH  38  43
BRANCH  40  46
HETATM   46  O5  UNL     1     -30.579 -15.973  21.183  1.00  0.00    -0.368 OA
ATOM     47  H5  UNL     1     -30.267 -15.578  21.989  1.00  0.00     0.212 HD
ENDBRANCH  40  46
BRANCH  41  48
HETATM   48  C14 UNL     1     -29.479 -17.106  18.700  1.00  0.00     0.201 C 
BRANCH  48  49
HETATM   49  O6  UNL     1     -29.628 -17.473  17.372  1.00  0.00    -0.398 OA
ATOM     50  H6  UNL     1     -29.182 -16.877  16.782  1.00  0.00     0.209 HD
ENDBRANCH  48  49
ENDBRANCH  41  48
ENDBRANCH  37  38
ENDBRANCH   5  37
TORSDOF 15
ENDMDL
MODEL 5
REMARK VINA RESULT: -6.065881568      1.722      2.324
REMARK  15 active torsions:
REMARK  status: ('A' for Active; 'I' for Inactive)
REMARK    1  A    between atoms: N1_1  and  C1_5 
REMARK    2  A    between atoms: C3_7  and  N2_8 
REMARK    3  A    between atoms: C4_12  and  O1_13 
REMARK    4  A    between atoms: O1_13  and  C5_14 
REMARK    5  A    between atoms: C6_15  and  N3_16 
REMARK    6  A    between atoms: C8_21  and  N4_22 
REMARK    7  A    between atoms: C9_26  and  O2_27 
REMARK    8  A    between atoms: O2_27  and  C10_28 
REMARK    9  A    between atoms: C10_28  and  C11_29 
REMARK   10  A    between atoms: C11_29  and  O3_30 
REMARK   11  A    between atoms: C12_33  and  O5_34 
REMARK   12  A    between atoms: C13_36  and  C14_37 
REMARK   13  A    between atoms: C14_37  and  O6_38 
REMARK   14  A    between atoms: C16_42  and  N5_43 
REMARK   15  A    between atoms: C17_48  and  O9_49 
ROOT
HETATM    1  C5  UNL     1     -33.916 -23.625  18.820  1.00  0.00     0.185 C 
HETATM    2  C6  UNL     1     -34.681 -23.425  20.072  1.00  0.00     0.216 C 
HETATM    3  C7  UNL     1     -33.918 -22.968  21.272  1.00  0.00     0.070 C 
HETATM    4  C8  UNL     1     -33.871 -21.467  21.228  1.00  0.00     0.214 C 
HETATM    5  C9  UNL     1     -32.530 -21.121  20.546  1.00  0.00     0.160 C 
HETATM    6  C15 UNL     1     -32.801 -21.358  19.089  1.00  0.00     0.069 C 
HETATM    7  C16 UNL     1     -32.746 -22.735  18.576  1.00  0.00     0.216 C 
ENDROOT
BRANCH   1   8
HETATM    8  O1  UNL     1     -33.540 -24.961  18.715  1.00  0.00    -0.350 OA
BRANCH   8   9
HETATM    9  C4  UNL     1     -33.614 -25.476  17.452  1.00  0.00     0.293 C 
HETATM   10  C3  UNL     1     -33.253 -26.942  17.479  1.00  0.00     0.240 C 
HETATM   11  C2  UNL     1     -34.478 -27.826  17.460  1.00  0.00     0.075 C 
HETATM   12  C1  UNL     1     -35.291 -27.535  16.217  1.00  0.00     0.240 C 
HETATM   13  C17 UNL     1     -35.097 -26.108  15.789  1.00  0.00     0.290 C 
HETATM   14  O8  UNL     1     -34.829 -25.248  16.819  1.00  0.00    -0.328 OA
BRANCH  10  15
HETATM   15  N2  UNL     1     -32.393 -27.301  16.340  1.00  0.00    -0.070 N 
ATOM     16  H23 UNL     1     -32.913 -27.741  15.582  1.00  0.00     0.274 HD
ATOM     17  H22 UNL     1     -32.062 -26.482  15.828  1.00  0.00     0.274 HD
ATOM     18  H21 UNL     1     -31.627 -27.885  16.678  1.00  0.00     0.274 HD
ENDBRANCH  10  15
BRANCH  12  19
HETATM   19  N1  UNL     1     -36.664 -27.887  16.432  1.00  0.00    -0.070 N 
ATOM     20  H13 UNL     1     -36.936 -27.785  17.409  1.00  0.00     0.274 HD
ATOM     21  H12 UNL     1     -37.301 -27.202  16.027  1.00  0.00     0.274 HD
ATOM     22  H11 UNL     1     -36.844 -28.829  16.083  1.00  0.00     0.274 HD
ENDBRANCH  12  19
BRANCH  13  23
HETATM   23  O9  UNL     1     -36.312 -25.693  15.213  1.00  0.00    -0.369 OA
ATOM     24  H9  UNL     1     -36.371 -24.755  15.351  1.00  0.00     0.212 HD
ENDBRANCH  13  23
ENDBRANCH   8   9
ENDBRANCH   1   8
BRANCH   2  25
HETATM   25  N3  UNL     1     -35.283 -24.719  20.441  1.00  0.00    -0.072 N 
ATOM     26  H33 UNL     1     -36.282 -24.652  20.631  1.00  0.00     0.274 HD
ATOM     27  H32 UNL     1     -35.338 -25.368  19.656  1.00  0.00     0.274 HD
ATOM     28  H31 UNL     1     -34.753 -25.093  21.228  1.00  0.00     0.274 HD
ENDBRANCH   2  25
BRANCH   7  29
HETATM   29  N5  UNL     1     -31.505 -23.448  18.806  1.00  0.00    -0.072 N 
ATOM     30  H53 UNL     1     -30.945 -23.516  17.957  1.00  0.00     0.274 HD
ATOM     31  H52 UNL     1     -30.855 -22.904  19.375  1.00  0.00     0.274 HD
ATOM     32  H51 UNL     1     -31.688 -24.365  19.214  1.00  0.00     0.274 HD
ENDBRANCH   7  29
BRANCH   4  33
HETATM   33  N4  UNL     1     -34.023 -20.848  22.500  1.00  0.00    -0.072 N 
ATOM     34  H43 UNL     1     -34.257 -21.542  23.210  1.00  0.00     0.274 HD
ATOM     35  H42 UNL     1     -33.121 -20.534  22.856  1.00  0.00     0.274 HD
ATOM     36  H41 UNL     1     -34.698 -20.083  22.509  1.00  0.00     0.274 HD
ENDBRANCH   4  33
BRANCH   5  37
HETATM   37  O2  UNL     1     -32.198 -19.816  20.768  1.00  0.00    -0.323 OA
BRANCH  37  38
HETATM   38  C10 UNL     1     -30.918 -19.446  20.952  1.00  0.00     0.308 C 
HETATM   39  O4  UNL     1     -30.735 -18.360  21.806  1.00  0.00    -0.298 OA
HETATM   40  C12 UNL     1     -30.147 -17.335  21.104  1.00  0.00     0.294 C 
HETATM   41  C13 UNL     1     -30.662 -17.647  19.691  1.00  0.00     0.206 C 
HETATM   42  O7  UNL     1     -30.471 -19.001  19.666  1.00  0.00    -0.318 OA
BRANCH  38  43
HETATM   43  C11 UNL     1     -29.926 -20.491  21.335  1.00  0.00     0.266 C 
BRANCH  43  44
HETATM   44  O3  UNL     1     -28.784 -20.521  20.554  1.00  0.00    -0.393 OA
ATOM     45  H3  UNL     1     -28.153 -19.837  20.746  1.00  0.00     0.209 HD
ENDBRANCH  43  44
ENDBRANCH  38  43
BRANCH  40  46
HETATM   46  O5  UNL     1     -30.614 -16.083  21.434  1.00  0.00    -0.368 OA
ATOM     47  H5  UNL     1     -30.934 -15.579  20.695  1.00  0.00     0.212 HD
ENDBRANCH  40  46
BRANCH  41  48
HETATM   48  C14 UNL     1     -29.767 -16.895  18.735  1.00  0.00     0.201 C 
BRANCH  48  49
HETATM   49  O6  UNL     1     -29.661 -17.529  17.508  1.00  0.00    -0.398 OA
ATOM     50  H6  UNL     1     -28.811 -17.936  17.385  1.00  0.00     0.209 HD
ENDBRANCH  48  49
ENDBRANCH  41  48
ENDBRANCH  37  38
ENDBRANCH   5  37
TORSDOF 15
ENDMDL
