MODEL 1
REMARK VINA RESULT: -8.949029795      0.000      0.000
REMARK  11 active torsions:
REMARK  status: ('A' for Active; 'I' for Inactive)
REMARK    1  A    between atoms: C3_8  and  N4_9 
REMARK       I    between atoms: N4_9  and  C4_11 
REMARK       I    between atoms: C4_11  and  N5_13 
REMARK    2  A    between atoms: N5_13  and  N6_14 
REMARK    3  A    between atoms: N5_13  and  N7_17 
REMARK    4  A    between atoms: N8_19  and  C5_21 
REMARK    5  A    between atoms: C6_24  and  N10_25 
REMARK       I    between atoms: N10_25  and  C7_27 
REMARK    6  A    between atoms: C7_27  and  C8_29 
REMARK    7  A    between atoms: C8_29  and  O3_30 
REMARK    8  A    between atoms: C8_29  and  C9_32 
REMARK    9  A    between atoms: C9_32  and  O4_33 
REMARK   10  A    between atoms: C9_32  and  O5_35 
REMARK   11  A    between atoms: C11_41  and  N12_42 
ROOT
HETATM    1  C5  UNL     1     -31.751 -21.076  21.845  1.00  0.00     0.175 A 
HETATM    2  N9  UNL     1     -31.098 -19.993  21.381  1.00  0.00    -0.172 N 
ATOM      3  H9  UNL     1     -30.681 -20.029  20.451  1.00  0.00     0.186 HD
HETATM    4  C6  UNL     1     -30.978 -18.868  22.103  1.00  0.00     0.689 A 
HETATM    5  N11 UNL     1     -31.540 -18.856  23.329  1.00  0.00    -0.154 N 
ATOM      6  H11 UNL     1     -31.459 -18.010  23.893  1.00  0.00     0.187 HD
HETATM    7  C10 UNL     1     -32.203 -19.908  23.842  1.00  0.00     0.296 A 
HETATM    8  O6  UNL     1     -32.728 -19.889  24.995  1.00  0.00    -0.265 OA
HETATM    9  C11 UNL     1     -32.330 -21.076  23.096  1.00  0.00     0.216 A 
ENDROOT
BRANCH   1  10
HETATM   10  N8  UNL     1     -31.880 -22.269  21.066  1.00  0.00    -0.267 N 
HETATM   11  N7  UNL     1     -32.810 -22.401  20.214  1.00  0.00    -0.216 N 
ATOM     12  H7  UNL     1     -33.459 -21.622  20.111  1.00  0.00     0.210 HD
ATOM     13  H8  UNL     1     -31.211 -23.028  21.198  1.00  0.00     0.190 HD
BRANCH  11  14
HETATM   14  N5  UNL     1     -33.021 -23.508  19.413  1.00  0.00    -0.134 N 
HETATM   15  C4  UNL     1     -31.984 -24.146  18.646  1.00  0.00     0.362 C 
HETATM   16  N4  UNL     1     -32.310 -25.267  17.858  1.00  0.00    -0.302 N 
HETATM   17  O1  UNL     1     -30.822 -23.708  18.683  1.00  0.00    -0.243 OA
ATOM     18  H4  UNL     1     -33.282 -25.577  17.871  1.00  0.00     0.171 HD
BRANCH  16  19
HETATM   19  C3  UNL     1     -31.415 -26.001  17.052  1.00  0.00     0.096 A 
HETATM   20  C1  UNL     1     -31.747 -27.179  16.358  1.00  0.00     0.159 A 
HETATM   21  N1  UNL     1     -33.007 -27.836  16.336  1.00  0.00    -0.079 NA
HETATM   22  N2  UNL     1     -30.639 -27.550  15.728  1.00  0.00    -0.286 N 
HETATM   23  N3  UNL     1     -29.651 -26.702  15.975  1.00  0.00    -0.308 N 
ATOM     24  H2  UNL     1     -30.560 -28.377  15.135  1.00  0.00     0.188 HD
HETATM   25  C2  UNL     1     -30.098 -25.722  16.797  1.00  0.00     0.140 A 
ATOM     26  H3  UNL     1     -28.704 -26.776  15.604  1.00  0.00     0.186 HD
ENDBRANCH  16  19
BRANCH  14  27
HETATM   27  N6  UNL     1     -34.340 -24.011  19.372  1.00  0.00    -0.319 N 
ATOM     28  H62 UNL     1     -34.478 -24.883  18.859  1.00  0.00     0.179 HD
ATOM     29  H61 UNL     1     -35.093 -23.506  19.839  1.00  0.00     0.179 HD
ENDBRANCH  14  27
ENDBRANCH  11  14
ENDBRANCH   1  10
BRANCH   9  30
HETATM   30  N12 UNL     1     -33.013 -22.214  23.574  1.00  0.00    -0.106 N 
HETATM   31  O7  UNL     1     -34.132 -22.478  23.110  1.00  0.00    -0.531 OA
HETATM   32  O8  UNL     1     -32.497 -23.046  24.531  1.00  0.00    -0.531 OA
ENDBRANCH   9  30
BRANCH   4  33
HETATM   33  N10 UNL     1     -30.348 -17.812  21.667  1.00  0.00    -0.157 N 
HETATM   34  C7  UNL     1     -31.025 -16.792  20.953  1.00  0.00     0.269 C 
HETATM   35  O2  UNL     1     -31.653 -15.923  21.598  1.00  0.00    -0.270 OA
ATOM     36  H10 UNL     1     -29.347 -17.719  21.843  1.00  0.00     0.187 HD
BRANCH  34  37
HETATM   37  C8  UNL     1     -31.030 -16.696  19.473  1.00  0.00     0.265 C 
BRANCH  37  38
HETATM   38  O3  UNL     1     -30.814 -15.408  19.027  1.00  0.00    -0.381 OA
ATOM     39  H3  UNL     1     -31.360 -14.772  19.474  1.00  0.00     0.210 HD
ENDBRANCH  37  38
BRANCH  37  40
HETATM   40  C9  UNL     1     -29.908 -17.538  18.847  1.00  0.00     0.291 C 
BRANCH  40  41
HETATM   41  O4  UNL     1     -29.971 -17.279  17.479  1.00  0.00    -0.368 OA
ATOM     42  H4  UNL     1     -29.419 -17.937  17.073  1.00  0.00     0.212 HD
ENDBRANCH  40  41
BRANCH  40  43
HETATM   43  O5  UNL     1     -28.691 -17.009  19.313  1.00  0.00    -0.368 OA
ATOM     44  H5  UNL     1     -28.468 -17.485  20.103  1.00  0.00     0.212 HD
ENDBRANCH  40  43
ENDBRANCH  37  40
ENDBRANCH  34  37
ENDBRANCH   4  33
TORSDOF 11
ENDMDL
MODEL 2
REMARK VINA RESULT: -8.618152981      1.262      1.599
REMARK  11 active torsions:
REMARK  status: ('A' for Active; 'I' for Inactive)
REMARK    1  A    between atoms: C3_8  and  N4_9 
REMARK       I    between atoms: N4_9  and  C4_11 
REMARK       I    between atoms: C4_11  and  N5_13 
REMARK    2  A    between atoms: N5_13  and  N6_14 
REMARK    3  A    between atoms: N5_13  and  N7_17 
REMARK    4  A    between atoms: N8_19  and  C5_21 
REMARK    5  A    between atoms: C6_24  and  N10_25 
REMARK       I    between atoms: N10_25  and  C7_27 
REMARK    6  A    between atoms: C7_27  and  C8_29 
REMARK    7  A    between atoms: C8_29  and  O3_30 
REMARK    8  A    between atoms: C8_29  and  C9_32 
REMARK    9  A    between atoms: C9_32  and  O4_33 
REMARK   10  A    between atoms: C9_32  and  O5_35 
REMARK   11  A    between atoms: C11_41  and  N12_42 
ROOT
HETATM    1  C5  UNL     1     -32.426 -21.790  21.823  1.00  0.00     0.175 A 
HETATM    2  N9  UNL     1     -31.547 -20.937  21.266  1.00  0.00    -0.172 N 
ATOM      3  H9  UNL     1     -31.151 -21.162  20.353  1.00  0.00     0.186 HD
HETATM    4  C6  UNL     1     -31.173 -19.799  21.871  1.00  0.00     0.689 A 
HETATM    5  N11 UNL     1     -31.715 -19.532  23.078  1.00  0.00    -0.154 N 
ATOM      6  H11 UNL     1     -31.443 -18.673  23.554  1.00  0.00     0.187 HD
HETATM    7  C10 UNL     1     -32.597 -20.349  23.681  1.00  0.00     0.296 A 
HETATM    8  O6  UNL     1     -33.101 -20.092  24.815  1.00  0.00    -0.265 OA
HETATM    9  C11 UNL     1     -32.987 -21.530  23.055  1.00  0.00     0.216 A 
ENDROOT
BRANCH   1  10
HETATM   10  N8  UNL     1     -32.823 -22.998  21.167  1.00  0.00    -0.267 N 
HETATM   11  N7  UNL     1     -33.795 -23.015  20.353  1.00  0.00    -0.216 N 
ATOM     12  H7  UNL     1     -34.280 -22.133  20.189  1.00  0.00     0.210 HD
ATOM     13  H8  UNL     1     -32.315 -23.862  21.358  1.00  0.00     0.190 HD
BRANCH  11  14
HETATM   14  N5  UNL     1     -34.257 -24.125  19.669  1.00  0.00    -0.134 N 
HETATM   15  C4  UNL     1     -33.501 -24.803  18.651  1.00  0.00     0.362 C 
HETATM   16  N4  UNL     1     -34.071 -25.923  18.012  1.00  0.00    -0.302 N 
HETATM   17  O1  UNL     1     -32.367 -24.402  18.344  1.00  0.00    -0.243 OA
ATOM     18  H4  UNL     1     -35.006 -26.202  18.309  1.00  0.00     0.171 HD
BRANCH  16  19
HETATM   19  C3  UNL     1     -33.464 -26.694  16.998  1.00  0.00     0.096 A 
HETATM   20  C1  UNL     1     -34.158 -27.308  15.938  1.00  0.00     0.159 A 
HETATM   21  N1  UNL     1     -35.557 -27.270  15.693  1.00  0.00    -0.079 NA
HETATM   22  N2  UNL     1     -33.234 -27.928  15.215  1.00  0.00    -0.286 N 
HETATM   23  N3  UNL     1     -32.029 -27.751  15.738  1.00  0.00    -0.308 N 
ATOM     24  H2  UNL     1     -33.426 -28.468  14.371  1.00  0.00     0.188 HD
HETATM   25  C2  UNL     1     -32.133 -26.985  16.852  1.00  0.00     0.140 A 
ATOM     26  H3  UNL     1     -31.161 -28.131  15.362  1.00  0.00     0.186 HD
ENDBRANCH  16  19
BRANCH  14  27
HETATM   27  N6  UNL     1     -35.546 -24.586  20.018  1.00  0.00    -0.319 N 
ATOM     28  H62 UNL     1     -35.970 -25.266  19.387  1.00  0.00     0.179 HD
ATOM     29  H61 UNL     1     -36.000 -24.239  20.863  1.00  0.00     0.179 HD
ENDBRANCH  14  27
ENDBRANCH  11  14
ENDBRANCH   1  10
BRANCH   9  30
HETATM   30  N12 UNL     1     -33.908 -22.428  23.632  1.00  0.00    -0.106 N 
HETATM   31  O7  UNL     1     -35.062 -22.472  23.182  1.00  0.00    -0.531 OA
HETATM   32  O8  UNL     1     -33.588 -23.261  24.671  1.00  0.00    -0.531 OA
ENDBRANCH   9  30
BRANCH   4  33
HETATM   33  N10 UNL     1     -30.321 -18.963  21.343  1.00  0.00    -0.157 N 
HETATM   34  C7  UNL     1     -30.674 -17.614  21.088  1.00  0.00     0.269 C 
HETATM   35  O2  UNL     1     -30.617 -16.790  22.028  1.00  0.00    -0.270 OA
ATOM     36  H10 UNL     1     -29.383 -19.287  21.108  1.00  0.00     0.187 HD
BRANCH  34  37
HETATM   37  C8  UNL     1     -31.109 -17.121  19.758  1.00  0.00     0.265 C 
BRANCH  37  38
HETATM   38  O3  UNL     1     -31.870 -15.973  19.844  1.00  0.00    -0.381 OA
ATOM     39  H3  UNL     1     -32.760 -16.103  19.537  1.00  0.00     0.210 HD
ENDBRANCH  37  38
BRANCH  37  40
HETATM   40  C9  UNL     1     -29.911 -16.751  18.871  1.00  0.00     0.291 C 
BRANCH  40  41
HETATM   41  O4  UNL     1     -28.797 -17.298  19.506  1.00  0.00    -0.368 OA
ATOM     42  H4  UNL     1     -28.054 -17.050  18.969  1.00  0.00     0.212 HD
ENDBRANCH  40  41
BRANCH  40  43
HETATM   43  O5  UNL     1     -30.074 -17.441  17.656  1.00  0.00    -0.368 OA
ATOM     44  H5  UNL     1     -29.594 -16.954  16.996  1.00  0.00     0.212 HD
ENDBRANCH  40  43
ENDBRANCH  37  40
ENDBRANCH  34  37
ENDBRANCH   4  33
TORSDOF 11
ENDMDL
MODEL 3
REMARK VINA RESULT: -8.298142267      1.706      2.342
REMARK  11 active torsions:
REMARK  status: ('A' for Active; 'I' for Inactive)
REMARK    1  A    between atoms: C3_8  and  N4_9 
REMARK       I    between atoms: N4_9  and  C4_11 
REMARK       I    between atoms: C4_11  and  N5_13 
REMARK    2  A    between atoms: N5_13  and  N6_14 
REMARK    3  A    between atoms: N5_13  and  N7_17 
REMARK    4  A    between atoms: N8_19  and  C5_21 
REMARK    5  A    between atoms: C6_24  and  N10_25 
REMARK       I    between atoms: N10_25  and  C7_27 
REMARK    6  A    between atoms: C7_27  and  C8_29 
REMARK    7  A    between atoms: C8_29  and  O3_30 
REMARK    8  A    between atoms: C8_29  and  C9_32 
REMARK    9  A    between atoms: C9_32  and  O4_33 
REMARK   10  A    between atoms: C9_32  and  O5_35 
REMARK   11  A    between atoms: C11_41  and  N12_42 
ROOT
HETATM    1  C5  UNL     1     -32.189 -21.649  21.868  1.00  0.00     0.175 A 
HETATM    2  N9  UNL     1     -31.359 -20.740  21.322  1.00  0.00    -0.172 N 
ATOM      3  H9  UNL     1     -30.957 -20.927  20.404  1.00  0.00     0.186 HD
HETATM    4  C6  UNL     1     -31.043 -19.594  21.947  1.00  0.00     0.689 A 
HETATM    5  N11 UNL     1     -31.591 -19.380  23.161  1.00  0.00    -0.154 N 
ATOM      6  H11 UNL     1     -31.363 -18.516  23.652  1.00  0.00     0.187 HD
HETATM    7  C10 UNL     1     -32.426 -20.253  23.753  1.00  0.00     0.296 A 
HETATM    8  O6  UNL     1     -32.936 -20.044  24.893  1.00  0.00    -0.265 OA
HETATM    9  C11 UNL     1     -32.756 -21.441  23.107  1.00  0.00     0.216 A 
ENDROOT
BRANCH   1  10
HETATM   10  N8  UNL     1     -32.525 -22.864  21.192  1.00  0.00    -0.267 N 
HETATM   11  N7  UNL     1     -31.882 -23.246  20.168  1.00  0.00    -0.216 N 
ATOM     12  H7  UNL     1     -31.118 -22.650  19.849  1.00  0.00     0.210 HD
ATOM     13  H8  UNL     1     -33.296 -23.434  21.539  1.00  0.00     0.190 HD
BRANCH  11  14
HETATM   14  N5  UNL     1     -32.125 -24.399  19.444  1.00  0.00    -0.134 N 
HETATM   15  C4  UNL     1     -33.265 -24.574  18.585  1.00  0.00     0.362 C 
HETATM   16  N4  UNL     1     -33.419 -25.795  17.897  1.00  0.00    -0.302 N 
HETATM   17  O1  UNL     1     -34.096 -23.661  18.458  1.00  0.00    -0.243 OA
ATOM     18  H4  UNL     1     -32.701 -26.504  18.044  1.00  0.00     0.171 HD
BRANCH  16  19
HETATM   19  C3  UNL     1     -34.476 -26.123  17.022  1.00  0.00     0.096 A 
HETATM   20  C1  UNL     1     -34.363 -27.001  15.928  1.00  0.00     0.159 A 
HETATM   21  N1  UNL     1     -33.201 -27.704  15.508  1.00  0.00    -0.079 NA
HETATM   22  N2  UNL     1     -35.566 -27.038  15.371  1.00  0.00    -0.286 N 
HETATM   23  N3  UNL     1     -36.412 -26.257  16.026  1.00  0.00    -0.308 N 
ATOM     24  H2  UNL     1     -35.807 -27.593  14.549  1.00  0.00     0.188 HD
HETATM   25  C2  UNL     1     -35.767 -25.669  17.063  1.00  0.00     0.140 A 
ATOM     26  H3  UNL     1     -37.394 -26.119  15.787  1.00  0.00     0.186 HD
ENDBRANCH  16  19
BRANCH  14  27
HETATM   27  N6  UNL     1     -31.179 -25.439  19.584  1.00  0.00    -0.319 N 
ATOM     28  H62 UNL     1     -30.566 -25.388  20.398  1.00  0.00     0.179 HD
ATOM     29  H61 UNL     1     -31.137 -26.186  18.891  1.00  0.00     0.179 HD
ENDBRANCH  14  27
ENDBRANCH  11  14
ENDBRANCH   1  10
BRANCH   9  30
HETATM   30  N12 UNL     1     -33.624 -22.398  23.672  1.00  0.00    -0.106 N 
HETATM   31  O7  UNL     1     -34.840 -22.308  23.445  1.00  0.00    -0.531 OA
HETATM   32  O8  UNL     1     -33.188 -23.428  24.462  1.00  0.00    -0.531 OA
ENDBRANCH   9  30
BRANCH   4  33
HETATM   33  N10 UNL     1     -30.240 -18.705  21.430  1.00  0.00    -0.157 N 
HETATM   34  C7  UNL     1     -30.695 -17.404  21.101  1.00  0.00     0.269 C 
HETATM   35  O2  UNL     1     -30.765 -16.544  22.008  1.00  0.00    -0.270 OA
ATOM     36  H10 UNL     1     -29.265 -18.952  21.260  1.00  0.00     0.187 HD
BRANCH  34  37
HETATM   37  C8  UNL     1     -31.096 -17.002  19.731  1.00  0.00     0.265 C 
BRANCH  37  38
HETATM   38  O3  UNL     1     -31.854 -15.848  19.720  1.00  0.00    -0.381 OA
ATOM     39  H3  UNL     1     -31.494 -15.171  20.280  1.00  0.00     0.210 HD
ENDBRANCH  37  38
BRANCH  37  40
HETATM   40  C9  UNL     1     -29.876 -16.697  18.850  1.00  0.00     0.291 C 
BRANCH  40  41
HETATM   41  O4  UNL     1     -28.787 -17.252  19.520  1.00  0.00    -0.368 OA
ATOM     42  H4  UNL     1     -28.328 -16.516  19.908  1.00  0.00     0.212 HD
ENDBRANCH  40  41
BRANCH  40  43
HETATM   43  O5  UNL     1     -30.041 -17.425  17.657  1.00  0.00    -0.368 OA
ATOM     44  H5  UNL     1     -30.441 -16.836  17.028  1.00  0.00     0.212 HD
ENDBRANCH  40  43
ENDBRANCH  37  40
ENDBRANCH  34  37
ENDBRANCH   4  33
TORSDOF 11
ENDMDL
MODEL 4
REMARK VINA RESULT: -8.204553486      1.399      2.122
REMARK  11 active torsions:
REMARK  status: ('A' for Active; 'I' for Inactive)
REMARK    1  A    between atoms: C3_8  and  N4_9 
REMARK       I    between atoms: N4_9  and  C4_11 
REMARK       I    between atoms: C4_11  and  N5_13 
REMARK    2  A    between atoms: N5_13  and  N6_14 
REMARK    3  A    between atoms: N5_13  and  N7_17 
REMARK    4  A    between atoms: N8_19  and  C5_21 
REMARK    5  A    between atoms: C6_24  and  N10_25 
REMARK       I    between atoms: N10_25  and  C7_27 
REMARK    6  A    between atoms: C7_27  and  C8_29 
REMARK    7  A    between atoms: C8_29  and  O3_30 
REMARK    8  A    between atoms: C8_29  and  C9_32 
REMARK    9  A    between atoms: C9_32  and  O4_33 
REMARK   10  A    between atoms: C9_32  and  O5_35 
REMARK   11  A    between atoms: C11_41  and  N12_42 
ROOT
HETATM    1  C5  UNL     1     -31.772 -21.119  21.796  1.00  0.00     0.175 A 
HETATM    2  N9  UNL     1     -31.111 -20.034  21.350  1.00  0.00    -0.172 N 
ATOM      3  H9  UNL     1     -30.679 -20.065  20.426  1.00  0.00     0.186 HD
HETATM    4  C6  UNL     1     -31.001 -18.913  22.080  1.00  0.00     0.689 A 
HETATM    5  N11 UNL     1     -31.582 -18.908  23.297  1.00  0.00    -0.154 N 
ATOM      6  H11 UNL     1     -31.509 -18.066  23.868  1.00  0.00     0.187 HD
HETATM    7  C10 UNL     1     -32.254 -19.963  23.793  1.00  0.00     0.296 A 
HETATM    8  O6  UNL     1     -32.797 -19.950  24.938  1.00  0.00    -0.265 OA
HETATM    9  C11 UNL     1     -32.371 -21.126  23.038  1.00  0.00     0.216 A 
ENDROOT
BRANCH   1  10
HETATM   10  N8  UNL     1     -31.890 -22.307  21.008  1.00  0.00    -0.267 N 
HETATM   11  N7  UNL     1     -31.538 -22.325  19.790  1.00  0.00    -0.216 N 
ATOM     12  H7  UNL     1     -31.170 -21.458  19.400  1.00  0.00     0.210 HD
ATOM     13  H8  UNL     1     -32.264 -23.155  21.434  1.00  0.00     0.190 HD
BRANCH  11  14
HETATM   14  N5  UNL     1     -31.610 -23.416  18.944  1.00  0.00    -0.134 N 
HETATM   15  C4  UNL     1     -32.842 -24.073  18.595  1.00  0.00     0.362 C 
HETATM   16  N4  UNL     1     -32.801 -25.182  17.727  1.00  0.00    -0.302 N 
HETATM   17  O1  UNL     1     -33.920 -23.663  19.056  1.00  0.00    -0.243 OA
ATOM     18  H4  UNL     1     -31.884 -25.469  17.383  1.00  0.00     0.171 HD
BRANCH  16  19
HETATM   19  C3  UNL     1     -33.913 -25.932  17.290  1.00  0.00     0.096 A 
HETATM   20  C1  UNL     1     -33.830 -27.118  16.535  1.00  0.00     0.159 A 
HETATM   21  N1  UNL     1     -32.649 -27.766  16.083  1.00  0.00    -0.079 NA
HETATM   22  N2  UNL     1     -35.083 -27.504  16.334  1.00  0.00    -0.286 N 
HETATM   23  N3  UNL     1     -35.933 -26.659  16.899  1.00  0.00    -0.308 N 
ATOM     24  H2  UNL     1     -35.355 -28.340  15.815  1.00  0.00     0.188 HD
HETATM   25  C2  UNL     1     -35.239 -25.665  17.505  1.00  0.00     0.140 A 
ATOM     26  H3  UNL     1     -36.949 -26.743  16.880  1.00  0.00     0.186 HD
ENDBRANCH  16  19
BRANCH  14  27
HETATM   27  N6  UNL     1     -30.386 -23.883  18.415  1.00  0.00    -0.319 N 
ATOM     28  H62 UNL     1     -29.612 -23.219  18.410  1.00  0.00     0.179 HD
ATOM     29  H61 UNL     1     -30.314 -24.839  18.065  1.00  0.00     0.179 HD
ENDBRANCH  14  27
ENDBRANCH  11  14
ENDBRANCH   1  10
BRANCH   9  30
HETATM   30  N12 UNL     1     -33.062 -22.265  23.498  1.00  0.00    -0.106 N 
HETATM   31  O7  UNL     1     -32.448 -23.103  24.175  1.00  0.00    -0.531 OA
HETATM   32  O8  UNL     1     -34.386 -22.494  23.233  1.00  0.00    -0.531 OA
ENDBRANCH   9  30
BRANCH   4  33
HETATM   33  N10 UNL     1     -30.362 -17.856  21.660  1.00  0.00    -0.157 N 
HETATM   34  C7  UNL     1     -31.031 -16.820  20.962  1.00  0.00     0.269 C 
HETATM   35  O2  UNL     1     -31.654 -15.956  21.620  1.00  0.00    -0.270 OA
ATOM     36  H10 UNL     1     -29.361 -17.773  21.838  1.00  0.00     0.187 HD
BRANCH  34  37
HETATM   37  C8  UNL     1     -31.035 -16.701  19.484  1.00  0.00     0.265 C 
BRANCH  37  38
HETATM   38  O3  UNL     1     -30.777 -15.414  19.056  1.00  0.00    -0.381 OA
ATOM     39  H3  UNL     1     -30.889 -15.313  18.118  1.00  0.00     0.210 HD
ENDBRANCH  37  38
BRANCH  37  40
HETATM   40  C9  UNL     1     -29.943 -17.571  18.843  1.00  0.00     0.291 C 
BRANCH  40  41
HETATM   41  O4  UNL     1     -29.993 -17.283  17.480  1.00  0.00    -0.368 OA
ATOM     42  H4  UNL     1     -29.498 -17.976  17.058  1.00  0.00     0.212 HD
ENDBRANCH  40  41
BRANCH  40  43
HETATM   43  O5  UNL     1     -28.709 -17.095  19.320  1.00  0.00    -0.368 OA
ATOM     44  H5  UNL     1     -28.244 -16.735  18.574  1.00  0.00     0.212 HD
ENDBRANCH  40  43
ENDBRANCH  37  40
ENDBRANCH  34  37
ENDBRANCH   4  33
TORSDOF 11
ENDMDL
MODEL 5
REMARK VINA RESULT: -8.128426556      2.364      3.440
REMARK  11 active torsions:
REMARK  status: ('A' for Active; 'I' for Inactive)
REMARK    1  A    between atoms: C3_8  and  N4_9 
REMARK       I    between atoms: N4_9  and  C4_11 
REMARK       I    between atoms: C4_11  and  N5_13 
REMARK    2  A    between atoms: N5_13  and  N6_14 
REMARK    3  A    between atoms: N5_13  and  N7_17 
REMARK    4  A    between atoms: N8_19  and  C5_21 
REMARK    5  A    between atoms: C6_24  and  N10_25 
REMARK       I    between atoms: N10_25  and  C7_27 
REMARK    6  A    between atoms: C7_27  and  C8_29 
REMARK    7  A    between atoms: C8_29  and  O3_30 
REMARK    8  A    between atoms: C8_29  and  C9_32 
REMARK    9  A    between atoms: C9_32  and  O4_33 
REMARK   10  A    between atoms: C9_32  and  O5_35 
REMARK   11  A    between atoms: C11_41  and  N12_42 
ROOT
HETATM    1  C5  UNL     1     -32.290 -21.926  19.663  1.00  0.00     0.175 A 
HETATM    2  N9  UNL     1     -32.003 -20.714  19.151  1.00  0.00    -0.172 N 
ATOM      3  H9  UNL     1     -32.076 -20.573  18.143  1.00  0.00     0.186 HD
HETATM    4  C6  UNL     1     -31.624 -19.684  19.923  1.00  0.00     0.689 A 
HETATM    5  N11 UNL     1     -31.536 -19.905  21.251  1.00  0.00    -0.154 N 
ATOM      6  H11 UNL     1     -31.249 -19.135  21.855  1.00  0.00     0.187 HD
HETATM    7  C10 UNL     1     -31.810 -21.095  21.816  1.00  0.00     0.296 A 
HETATM    8  O6  UNL     1     -31.726 -21.295  23.064  1.00  0.00    -0.265 OA
HETATM    9  C11 UNL     1     -32.205 -22.165  21.018  1.00  0.00     0.216 A 
ENDROOT
BRANCH   1  10
HETATM   10  N8  UNL     1     -32.699 -23.016  18.832  1.00  0.00    -0.267 N 
HETATM   11  N7  UNL     1     -31.930 -23.999  18.610  1.00  0.00    -0.216 N 
ATOM     12  H7  UNL     1     -31.010 -23.977  19.049  1.00  0.00     0.210 HD
ATOM     13  H8  UNL     1     -33.628 -23.003  18.410  1.00  0.00     0.190 HD
BRANCH  11  14
HETATM   14  N5  UNL     1     -32.228 -25.099  17.826  1.00  0.00    -0.134 N 
HETATM   15  C4  UNL     1     -33.530 -25.707  17.771  1.00  0.00     0.362 C 
HETATM   16  N4  UNL     1     -33.723 -26.830  16.940  1.00  0.00    -0.302 N 
HETATM   17  O1  UNL     1     -34.463 -25.246  18.448  1.00  0.00    -0.243 OA
ATOM     18  H4  UNL     1     -32.916 -27.159  16.411  1.00  0.00     0.171 HD
BRANCH  16  19
HETATM   19  C3  UNL     1     -34.932 -27.538  16.776  1.00  0.00     0.096 A 
HETATM   20  C1  UNL     1     -35.978 -27.144  15.921  1.00  0.00     0.159 A 
HETATM   21  N1  UNL     1     -36.017 -25.995  15.086  1.00  0.00    -0.079 NA
HETATM   22  N2  UNL     1     -36.920 -28.068  16.055  1.00  0.00    -0.286 N 
HETATM   23  N3  UNL     1     -36.546 -28.999  16.921  1.00  0.00    -0.308 N 
ATOM     24  H2  UNL     1     -37.812 -28.063  15.559  1.00  0.00     0.188 HD
HETATM   25  C2  UNL     1     -35.310 -28.702  17.391  1.00  0.00     0.140 A 
ATOM     26  H3  UNL     1     -37.101 -29.811  17.191  1.00  0.00     0.186 HD
ENDBRANCH  16  19
BRANCH  14  27
HETATM   27  N6  UNL     1     -31.169 -25.624  17.052  1.00  0.00    -0.319 N 
ATOM     28  H62 UNL     1     -31.380 -26.457  16.503  1.00  0.00     0.179 HD
ATOM     29  H61 UNL     1     -30.255 -25.171  17.064  1.00  0.00     0.179 HD
ENDBRANCH  14  27
ENDBRANCH  11  14
ENDBRANCH   1  10
BRANCH   9  30
HETATM   30  N12 UNL     1     -32.507 -23.437  21.545  1.00  0.00    -0.106 N 
HETATM   31  O7  UNL     1     -33.669 -23.671  21.910  1.00  0.00    -0.531 OA
HETATM   32  O8  UNL     1     -31.576 -24.432  21.676  1.00  0.00    -0.531 OA
ENDBRANCH   9  30
BRANCH   4  33
HETATM   33  N10 UNL     1     -31.342 -18.505  19.441  1.00  0.00    -0.157 N 
HETATM   34  C7  UNL     1     -30.545 -17.583  20.166  1.00  0.00     0.269 C 
HETATM   35  O2  UNL     1     -29.300 -17.697  20.117  1.00  0.00    -0.270 OA
ATOM     36  H10 UNL     1     -31.703 -18.240  18.524  1.00  0.00     0.187 HD
BRANCH  34  37
HETATM   37  C8  UNL     1     -31.110 -16.483  20.985  1.00  0.00     0.265 C 
BRANCH  37  38
HETATM   38  O3  UNL     1     -30.307 -16.159  22.060  1.00  0.00    -0.381 OA
ATOM     39  H3  UNL     1     -29.767 -15.396  21.894  1.00  0.00     0.210 HD
ENDBRANCH  37  38
BRANCH  37  40
HETATM   40  C9  UNL     1     -31.248 -15.186  20.174  1.00  0.00     0.291 C 
BRANCH  40  41
HETATM   41  O4  UNL     1     -30.237 -14.348  20.640  1.00  0.00    -0.368 OA
ATOM     42  H4  UNL     1     -30.610 -13.474  20.629  1.00  0.00     0.212 HD
ENDBRANCH  40  41
BRANCH  40  43
HETATM   43  O5  UNL     1     -30.938 -15.504  18.839  1.00  0.00    -0.368 OA
ATOM     44  H5  UNL     1     -30.232 -16.139  18.864  1.00  0.00     0.212 HD
ENDBRANCH  40  43
ENDBRANCH  37  40
ENDBRANCH  34  37
ENDBRANCH   4  33
TORSDOF 11
ENDMDL
