MODEL 1
REMARK VINA RESULT: -7.546214410      0.000      0.000
REMARK  9 active torsions:
REMARK  status: ('A' for Active; 'I' for Inactive)
REMARK    1  A    between atoms: C2_3  and  N2_4 
REMARK    2  A    between atoms: C2_3  and  C3_7 
REMARK    3  A    between atoms: N2_4  and  O1_5 
REMARK    4  A    between atoms: C4_8  and  C5_9 
REMARK    5  A    between atoms: C5_9  and  O2_10 
REMARK    6  A    between atoms: C5_9  and  C6_12 
REMARK       I    between atoms: N3_13  and  C7_15 
REMARK    7  A    between atoms: C8_22  and  N7_23 
REMARK    8  A    between atoms: N10_33  and  N11_34 
REMARK       I    between atoms: N11_34  and  C12_36 
REMARK       I    between atoms: C12_36  and  N13_40 
REMARK    9  A    between atoms: N13_40  and  N14_42 
ROOT
HETATM    1  N1  UNL     1     -31.036 -23.640  22.996  1.00  0.00    -0.195 NA
HETATM    2  C1  UNL     1     -32.008 -23.092  22.580  1.00  0.00     0.089 C 
HETATM    3  C2  UNL     1     -33.249 -22.408  22.109  1.00  0.00     0.267 C 
ENDROOT
BRANCH   3   4
HETATM    4  N2  UNL     1     -33.773 -21.938  23.448  1.00  0.00    -0.078 NA
BRANCH   4   5
HETATM    5  O1  UNL     1     -33.250 -22.682  24.422  1.00  0.00    -0.294 OA
ATOM      6  H1  UNL     1     -32.755 -22.130  25.018  1.00  0.00     0.238 HD
ENDBRANCH   4   5
ENDBRANCH   3   4
BRANCH   3   7
HETATM    7  C3  UNL     1     -32.929 -21.245  21.283  1.00  0.00     0.114 A 
HETATM    8  C4  UNL     1     -33.468 -21.161  19.996  1.00  0.00     0.088 A 
HETATM    9  N6  UNL     1     -33.083 -19.971  19.521  1.00  0.00    -0.187 N 
HETATM   10  C8  UNL     1     -32.320 -19.325  20.470  1.00  0.00     0.730 A 
ATOM     11  H6  UNL     1     -33.318 -19.600  18.600  1.00  0.00     0.184 HD
HETATM   12  N10 UNL     1     -32.220 -20.103  21.548  1.00  0.00    -0.069 N 
BRANCH   8  13
HETATM   13  C5  UNL     1     -34.210 -22.104  19.150  1.00  0.00     0.209 C 
BRANCH  13  14
HETATM   14  O2  UNL     1     -35.360 -22.641  19.721  1.00  0.00    -0.384 OA
ATOM     15  H2  UNL     1     -35.415 -23.589  19.711  1.00  0.00     0.211 HD
ENDBRANCH  13  14
BRANCH  13  16
HETATM   16  C6  UNL     1     -33.366 -23.355  18.924  1.00  0.00     0.101 C 
HETATM   17  N3  UNL     1     -32.097 -23.289  18.804  1.00  0.00    -0.342 N 
HETATM   18  C7  UNL     1     -31.345 -24.462  18.596  1.00  0.00     0.185 C 
ATOM     19  H3  UNL     1     -31.627 -22.386  18.858  1.00  0.00     0.167 HD
HETATM   20  N4  UNL     1     -31.127 -24.875  17.407  1.00  0.00    -0.374 N 
HETATM   21  N5  UNL     1     -30.821 -25.201  19.687  1.00  0.00    -0.064 NA
ATOM     22  H42 UNL     1     -31.504 -24.343  16.623  1.00  0.00     0.158 HD
ATOM     23  H41 UNL     1     -30.583 -25.724  17.257  1.00  0.00     0.158 HD
ENDBRANCH  13  16
ENDBRANCH   8  13
BRANCH  10  24
HETATM   24  N7  UNL     1     -31.763 -18.047  20.245  1.00  0.00    -0.030 N 
HETATM   25  N8  UNL     1     -32.252 -16.999  20.875  1.00  0.00    -0.281 N 
HETATM   26  C9  UNL     1     -31.693 -15.772  20.696  1.00  0.00     0.182 A 
ATOM     27  H8  UNL     1     -33.052 -17.108  21.497  1.00  0.00     0.187 HD
HETATM   28  C10 UNL     1     -30.610 -15.613  19.857  1.00  0.00     0.266 A 
HETATM   29  O3  UNL     1     -30.082 -14.459  19.687  1.00  0.00    -0.267 OA
HETATM   30  N9  UNL     1     -30.126 -16.695  19.223  1.00  0.00    -0.272 N 
HETATM   31  C11 UNL     1     -30.719 -17.885  19.437  1.00  0.00     0.363 A 
ATOM     32  H9  UNL     1     -29.327 -16.617  18.595  1.00  0.00     0.173 HD
HETATM   33  O4  UNL     1     -30.219 -18.875  18.813  1.00  0.00    -0.244 OA
ENDBRANCH  10  24
BRANCH  12  34
HETATM   34  N11 UNL     1     -31.443 -19.954  22.682  1.00  0.00    -0.110 N 
HETATM   35  C12 UNL     1     -31.702 -19.221  23.843  1.00  0.00     0.710 C 
HETATM   36  N12 UNL     1     -32.386 -19.776  24.791  1.00  0.00    -0.232 N 
HETATM   37  N13 UNL     1     -31.211 -17.925  24.036  1.00  0.00    -0.071 N 
ATOM     38 2H12 UNL     1     -32.745 -20.721  24.650  1.00  0.00     0.174 HD
ATOM     39 1H12 UNL     1     -32.576 -19.241  25.639  1.00  0.00     0.174 HD
ATOM     40  H13 UNL     1     -31.732 -17.266  24.617  1.00  0.00     0.212 HD
ATOM     41  H11 UNL     1     -30.553 -20.450  22.670  1.00  0.00     0.207 HD
BRANCH  37  42
HETATM   42  N14 UNL     1     -30.022 -17.529  23.445  1.00  0.00    -0.024 N 
HETATM   43  O5  UNL     1     -29.615 -18.007  22.353  1.00  0.00    -0.516 OA
HETATM   44  O6  UNL     1     -29.196 -16.576  24.021  1.00  0.00    -0.516 OA
ENDBRANCH  37  42
ENDBRANCH  12  34
ENDBRANCH   3   7
TORSDOF 9
ENDMDL
MODEL 2
REMARK VINA RESULT: -7.292502740      1.797      2.854
REMARK  9 active torsions:
REMARK  status: ('A' for Active; 'I' for Inactive)
REMARK    1  A    between atoms: C2_3  and  N2_4 
REMARK    2  A    between atoms: C2_3  and  C3_7 
REMARK    3  A    between atoms: N2_4  and  O1_5 
REMARK    4  A    between atoms: C4_8  and  C5_9 
REMARK    5  A    between atoms: C5_9  and  O2_10 
REMARK    6  A    between atoms: C5_9  and  C6_12 
REMARK       I    between atoms: N3_13  and  C7_15 
REMARK    7  A    between atoms: C8_22  and  N7_23 
REMARK    8  A    between atoms: N10_33  and  N11_34 
REMARK       I    between atoms: N11_34  and  C12_36 
REMARK       I    between atoms: C12_36  and  N13_40 
REMARK    9  A    between atoms: N13_40  and  N14_42 
ROOT
HETATM    1  N1  UNL     1     -31.035 -23.442  23.249  1.00  0.00    -0.195 NA
HETATM    2  C1  UNL     1     -32.018 -22.891  22.866  1.00  0.00     0.089 C 
HETATM    3  C2  UNL     1     -33.272 -22.202  22.438  1.00  0.00     0.267 C 
ENDROOT
BRANCH   3   4
HETATM    4  N2  UNL     1     -33.720 -21.686  23.787  1.00  0.00    -0.078 NA
BRANCH   4   5
HETATM    5  O1  UNL     1     -33.189 -22.433  24.755  1.00  0.00    -0.294 OA
ATOM      6  H1  UNL     1     -32.405 -22.013  25.091  1.00  0.00     0.238 HD
ENDBRANCH   4   5
ENDBRANCH   3   4
BRANCH   3   7
HETATM    7  C3  UNL     1     -32.978 -21.069  21.563  1.00  0.00     0.114 A 
HETATM    8  C4  UNL     1     -33.592 -21.005  20.309  1.00  0.00     0.088 A 
HETATM    9  N6  UNL     1     -33.211 -19.837  19.779  1.00  0.00    -0.187 N 
HETATM   10  C8  UNL     1     -32.378 -19.185  20.663  1.00  0.00     0.730 A 
ATOM     11  H6  UNL     1     -33.494 -19.485  18.865  1.00  0.00     0.184 HD
HETATM   12  N10 UNL     1     -32.229 -19.937  21.754  1.00  0.00    -0.069 N 
BRANCH   8  13
HETATM   13  C5  UNL     1     -34.404 -21.953  19.535  1.00  0.00     0.209 C 
BRANCH  13  14
HETATM   14  O2  UNL     1     -34.260 -21.871  18.153  1.00  0.00    -0.384 OA
ATOM     15  H2  UNL     1     -34.222 -20.990  17.799  1.00  0.00     0.211 HD
ENDBRANCH  13  14
BRANCH  13  16
HETATM   16  C6  UNL     1     -35.882 -21.616  19.711  1.00  0.00     0.101 C 
HETATM   17  N3  UNL     1     -36.543 -21.023  18.795  1.00  0.00    -0.342 N 
HETATM   18  C7  UNL     1     -37.906 -20.726  18.987  1.00  0.00     0.185 C 
ATOM     19  H3  UNL     1     -36.084 -20.765  17.922  1.00  0.00     0.167 HD
HETATM   20  N4  UNL     1     -38.246 -19.617  19.522  1.00  0.00    -0.374 N 
HETATM   21  N5  UNL     1     -38.920 -21.639  18.598  1.00  0.00    -0.064 NA
ATOM     22  H42 UNL     1     -37.518 -18.960  19.801  1.00  0.00     0.158 HD
ATOM     23  H41 UNL     1     -39.233 -19.402  19.660  1.00  0.00     0.158 HD
ENDBRANCH  13  16
ENDBRANCH   8  13
BRANCH  10  24
HETATM   24  N7  UNL     1     -31.808 -17.927  20.371  1.00  0.00    -0.030 N 
HETATM   25  N8  UNL     1     -32.239 -16.851  20.996  1.00  0.00    -0.281 N 
HETATM   26  C9  UNL     1     -31.665 -15.641  20.751  1.00  0.00     0.182 A 
ATOM     27  H8  UNL     1     -33.004 -16.924  21.665  1.00  0.00     0.187 HD
HETATM   28  C10 UNL     1     -30.629 -15.531  19.848  1.00  0.00     0.266 A 
HETATM   29  O3  UNL     1     -30.087 -14.394  19.615  1.00  0.00    -0.267 OA
HETATM   30  N9  UNL     1     -30.204 -16.641  19.219  1.00  0.00    -0.272 N 
HETATM   31  C11 UNL     1     -30.808 -17.810  19.500  1.00  0.00     0.363 A 
ATOM     32  H9  UNL     1     -29.440 -16.597  18.545  1.00  0.00     0.173 HD
HETATM   33  O4  UNL     1     -30.366 -18.828  18.878  1.00  0.00    -0.244 OA
ENDBRANCH  10  24
BRANCH  12  34
HETATM   34  N11 UNL     1     -31.382 -19.777  22.835  1.00  0.00    -0.110 N 
HETATM   35  C12 UNL     1     -31.572 -19.042  24.008  1.00  0.00     0.710 C 
HETATM   36  N12 UNL     1     -32.187 -19.600  25.000  1.00  0.00    -0.232 N 
HETATM   37  N13 UNL     1     -31.081 -17.741  24.165  1.00  0.00    -0.071 N 
ATOM     38 2H12 UNL     1     -32.545 -20.549  24.885  1.00  0.00     0.174 HD
ATOM     39 1H12 UNL     1     -32.326 -19.064  25.857  1.00  0.00     0.174 HD
ATOM     40  H13 UNL     1     -31.569 -17.086  24.776  1.00  0.00     0.212 HD
ATOM     41  H11 UNL     1     -30.489 -20.265  22.766  1.00  0.00     0.207 HD
BRANCH  37  42
HETATM   42  N14 UNL     1     -29.936 -17.336  23.497  1.00  0.00    -0.024 N 
HETATM   43  O5  UNL     1     -29.580 -17.837  22.397  1.00  0.00    -0.516 OA
HETATM   44  O6  UNL     1     -29.102 -16.349  23.997  1.00  0.00    -0.516 OA
ENDBRANCH  37  42
ENDBRANCH  12  34
ENDBRANCH   3   7
TORSDOF 9
ENDMDL
MODEL 3
REMARK VINA RESULT: -7.273010151      3.414      5.910
REMARK  9 active torsions:
REMARK  status: ('A' for Active; 'I' for Inactive)
REMARK    1  A    between atoms: C2_3  and  N2_4 
REMARK    2  A    between atoms: C2_3  and  C3_7 
REMARK    3  A    between atoms: N2_4  and  O1_5 
REMARK    4  A    between atoms: C4_8  and  C5_9 
REMARK    5  A    between atoms: C5_9  and  O2_10 
REMARK    6  A    between atoms: C5_9  and  C6_12 
REMARK       I    between atoms: N3_13  and  C7_15 
REMARK    7  A    between atoms: C8_22  and  N7_23 
REMARK    8  A    between atoms: N10_33  and  N11_34 
REMARK       I    between atoms: N11_34  and  C12_36 
REMARK       I    between atoms: C12_36  and  N13_40 
REMARK    9  A    between atoms: N13_40  and  N14_42 
ROOT
HETATM    1  N1  UNL     1     -36.302 -21.174  17.256  1.00  0.00    -0.195 NA
HETATM    2  C1  UNL     1     -36.160 -21.400  18.416  1.00  0.00     0.089 C 
HETATM    3  C2  UNL     1     -35.966 -21.736  19.859  1.00  0.00     0.267 C 
ENDROOT
BRANCH   3   4
HETATM    4  N2  UNL     1     -35.034 -22.916  19.695  1.00  0.00    -0.078 NA
BRANCH   4   5
HETATM    5  O1  UNL     1     -34.704 -23.054  18.411  1.00  0.00    -0.294 OA
ATOM      6  H1  UNL     1     -35.108 -23.839  18.058  1.00  0.00     0.238 HD
ENDBRANCH   4   5
ENDBRANCH   3   4
BRANCH   3   7
HETATM    7  C3  UNL     1     -35.265 -20.662  20.560  1.00  0.00     0.114 A 
HETATM    8  C4  UNL     1     -35.990 -19.820  21.406  1.00  0.00     0.088 A 
HETATM    9  N6  UNL     1     -35.088 -19.007  21.967  1.00  0.00    -0.187 N 
HETATM   10  C8  UNL     1     -33.833 -19.318  21.489  1.00  0.00     0.730 A 
ATOM     11  H6  UNL     1     -35.297 -18.273  22.644  1.00  0.00     0.184 HD
HETATM   12  N10 UNL     1     -33.937 -20.328  20.624  1.00  0.00    -0.069 N 
BRANCH   8  13
HETATM   13  C5  UNL     1     -37.425 -19.640  21.662  1.00  0.00     0.209 C 
BRANCH  13  14
HETATM   14  O2  UNL     1     -38.115 -18.906  20.701  1.00  0.00    -0.384 OA
ATOM     15  H2  UNL     1     -39.059 -19.011  20.709  1.00  0.00     0.211 HD
ENDBRANCH  13  14
BRANCH  13  16
HETATM   16  C6  UNL     1     -37.615 -18.777  22.905  1.00  0.00     0.101 C 
HETATM   17  N3  UNL     1     -38.741 -18.708  23.502  1.00  0.00    -0.342 N 
HETATM   18  C7  UNL     1     -38.885 -17.902  24.648  1.00  0.00     0.185 C 
ATOM     19  H3  UNL     1     -39.538 -19.238  23.148  1.00  0.00     0.167 HD
HETATM   20  N4  UNL     1     -39.223 -16.677  24.525  1.00  0.00    -0.374 N 
HETATM   21  N5  UNL     1     -38.660 -18.425  25.947  1.00  0.00    -0.064 NA
ATOM     22  H42 UNL     1     -39.386 -16.301  23.591  1.00  0.00     0.158 HD
ATOM     23  H41 UNL     1     -39.328 -16.094  25.355  1.00  0.00     0.158 HD
ENDBRANCH  13  16
ENDBRANCH   8  13
BRANCH  10  24
HETATM   24  N7  UNL     1     -32.677 -18.617  21.896  1.00  0.00    -0.030 N 
HETATM   25  N8  UNL     1     -32.292 -17.546  21.233  1.00  0.00    -0.281 N 
HETATM   26  C9  UNL     1     -31.204 -16.841  21.646  1.00  0.00     0.182 A 
ATOM     27  H8  UNL     1     -32.811 -17.245  20.409  1.00  0.00     0.187 HD
HETATM   28  C10 UNL     1     -30.495 -17.239  22.760  1.00  0.00     0.266 A 
HETATM   29  O3  UNL     1     -29.471 -16.578  23.150  1.00  0.00    -0.267 OA
HETATM   30  N9  UNL     1     -30.904 -18.335  23.423  1.00  0.00    -0.272 N 
HETATM   31  C11 UNL     1     -31.987 -18.994  22.970  1.00  0.00     0.363 A 
ATOM     32  H9  UNL     1     -30.406 -18.660  24.251  1.00  0.00     0.173 HD
HETATM   33  O4  UNL     1     -32.330 -20.023  23.635  1.00  0.00    -0.244 OA
ENDBRANCH  10  24
BRANCH  12  34
HETATM   34  N11 UNL     1     -32.987 -20.880  19.785  1.00  0.00    -0.110 N 
HETATM   35  C12 UNL     1     -31.931 -21.743  20.089  1.00  0.00     0.710 C 
HETATM   36  N12 UNL     1     -32.157 -23.017  20.122  1.00  0.00    -0.232 N 
HETATM   37  N13 UNL     1     -30.628 -21.283  20.314  1.00  0.00    -0.071 N 
ATOM     38 2H12 UNL     1     -33.106 -23.352  19.958  1.00  0.00     0.174 HD
ATOM     39 1H12 UNL     1     -31.386 -23.647  20.345  1.00  0.00     0.174 HD
ATOM     40  H13 UNL     1     -30.009 -21.801  20.938  1.00  0.00     0.212 HD
ATOM     41  H11 UNL     1     -33.069 -20.620  18.802  1.00  0.00     0.207 HD
BRANCH  37  42
HETATM   42  N14 UNL     1     -30.174 -20.129  19.696  1.00  0.00    -0.024 N 
HETATM   43  O5  UNL     1     -28.983 -19.729  19.798  1.00  0.00    -0.516 OA
HETATM   44  O6  UNL     1     -31.004 -19.333  18.923  1.00  0.00    -0.516 OA
ENDBRANCH  37  42
ENDBRANCH  12  34
ENDBRANCH   3   7
TORSDOF 9
ENDMDL
MODEL 4
REMARK VINA RESULT: -7.024023036      2.884      7.087
REMARK  9 active torsions:
REMARK  status: ('A' for Active; 'I' for Inactive)
REMARK    1  A    between atoms: C2_3  and  N2_4 
REMARK    2  A    between atoms: C2_3  and  C3_7 
REMARK    3  A    between atoms: N2_4  and  O1_5 
REMARK    4  A    between atoms: C4_8  and  C5_9 
REMARK    5  A    between atoms: C5_9  and  O2_10 
REMARK    6  A    between atoms: C5_9  and  C6_12 
REMARK       I    between atoms: N3_13  and  C7_15 
REMARK    7  A    between atoms: C8_22  and  N7_23 
REMARK    8  A    between atoms: N10_33  and  N11_34 
REMARK       I    between atoms: N11_34  and  C12_36 
REMARK       I    between atoms: C12_36  and  N13_40 
REMARK    9  A    between atoms: N13_40  and  N14_42 
ROOT
HETATM    1  N1  UNL     1     -37.274 -21.028  21.237  1.00  0.00    -0.195 NA
HETATM    2  C1  UNL     1     -36.400 -21.524  21.875  1.00  0.00     0.089 C 
HETATM    3  C2  UNL     1     -35.340 -22.182  22.697  1.00  0.00     0.267 C 
ENDROOT
BRANCH   3   4
HETATM    4  N2  UNL     1     -36.014 -23.519  22.909  1.00  0.00    -0.078 NA
BRANCH   4   5
HETATM    5  O1  UNL     1     -37.100 -23.604  22.140  1.00  0.00    -0.294 OA
ATOM      6  H1  UNL     1     -37.549 -24.424  22.307  1.00  0.00     0.238 HD
ENDBRANCH   4   5
ENDBRANCH   3   4
BRANCH   3   7
HETATM    7  C3  UNL     1     -34.118 -22.378  21.920  1.00  0.00     0.114 A 
HETATM    8  C4  UNL     1     -32.989 -21.616  22.232  1.00  0.00     0.088 A 
HETATM    9  N6  UNL     1     -32.016 -22.066  21.432  1.00  0.00    -0.187 N 
HETATM   10  C8  UNL     1     -32.512 -23.074  20.634  1.00  0.00     0.730 A 
ATOM     11  H6  UNL     1     -31.058 -21.718  21.416  1.00  0.00     0.184 HD
HETATM   12  N10 UNL     1     -33.799 -23.265  20.926  1.00  0.00    -0.069 N 
BRANCH   8  13
HETATM   13  C5  UNL     1     -32.761 -20.467  23.119  1.00  0.00     0.209 C 
BRANCH  13  14
HETATM   14  O2  UNL     1     -33.812 -19.558  23.198  1.00  0.00    -0.384 OA
ATOM     15  H2  UNL     1     -33.748 -18.922  23.901  1.00  0.00     0.211 HD
ENDBRANCH  13  14
BRANCH  13  16
HETATM   16  C6  UNL     1     -31.644 -19.598  22.548  1.00  0.00     0.101 C 
HETATM   17  N3  UNL     1     -31.864 -18.404  22.158  1.00  0.00    -0.342 N 
HETATM   18  C7  UNL     1     -30.812 -17.627  21.635  1.00  0.00     0.185 C 
ATOM     19  H3  UNL     1     -32.803 -18.011  22.225  1.00  0.00     0.167 HD
HETATM   20  N4  UNL     1     -30.557 -17.660  20.384  1.00  0.00    -0.374 N 
HETATM   21  N5  UNL     1     -30.021 -16.801  22.474  1.00  0.00    -0.064 NA
ATOM     22  H42 UNL     1     -31.126 -18.254  19.780  1.00  0.00     0.158 HD
ATOM     23  H41 UNL     1     -29.796 -17.098  20.006  1.00  0.00     0.158 HD
ENDBRANCH  13  16
ENDBRANCH   8  13
BRANCH  10  24
HETATM   24  N7  UNL     1     -31.714 -23.737  19.675  1.00  0.00    -0.030 N 
HETATM   25  N8  UNL     1     -31.146 -24.886  19.978  1.00  0.00    -0.281 N 
HETATM   26  C9  UNL     1     -30.411 -25.551  19.045  1.00  0.00     0.182 A 
ATOM     27  H8  UNL     1     -31.257 -25.277  20.912  1.00  0.00     0.187 HD
HETATM   28  C10 UNL     1     -30.254 -25.031  17.778  1.00  0.00     0.266 A 
HETATM   29  O3  UNL     1     -29.563 -25.654  16.900  1.00  0.00    -0.267 OA
HETATM   30  N9  UNL     1     -30.842 -23.857  17.489  1.00  0.00    -0.272 N 
HETATM   31  C11 UNL     1     -31.557 -23.242  18.450  1.00  0.00     0.363 A 
ATOM     32  H9  UNL     1     -30.748 -23.441  16.563  1.00  0.00     0.173 HD
HETATM   33  O4  UNL     1     -32.092 -22.135  18.123  1.00  0.00    -0.244 OA
ENDBRANCH  10  24
BRANCH  12  34
HETATM   34  N11 UNL     1     -34.746 -24.051  20.296  1.00  0.00    -0.110 N 
HETATM   35  C12 UNL     1     -34.844 -25.444  20.238  1.00  0.00     0.710 C 
HETATM   36  N12 UNL     1     -35.452 -26.066  21.196  1.00  0.00    -0.232 N 
HETATM   37  N13 UNL     1     -34.350 -26.186  19.159  1.00  0.00    -0.071 N 
ATOM     38 2H12 UNL     1     -35.813 -25.525  21.982  1.00  0.00     0.174 HD
ATOM     39 1H12 UNL     1     -35.524 -27.083  21.154  1.00  0.00     0.174 HD
ATOM     40  H13 UNL     1     -34.026 -27.142  19.308  1.00  0.00     0.212 HD
ATOM     41  H11 UNL     1     -35.478 -23.542  19.802  1.00  0.00     0.207 HD
BRANCH  37  42
HETATM   42  N14 UNL     1     -34.296 -25.631  17.890  1.00  0.00    -0.024 N 
HETATM   43  O5  UNL     1     -35.152 -24.805  17.474  1.00  0.00    -0.516 OA
HETATM   44  O6  UNL     1     -33.293 -25.951  16.989  1.00  0.00    -0.516 OA
ENDBRANCH  37  42
ENDBRANCH  12  34
ENDBRANCH   3   7
TORSDOF 9
ENDMDL
MODEL 5
REMARK VINA RESULT: -6.888449305      2.270      6.762
REMARK  9 active torsions:
REMARK  status: ('A' for Active; 'I' for Inactive)
REMARK    1  A    between atoms: C2_3  and  N2_4 
REMARK    2  A    between atoms: C2_3  and  C3_7 
REMARK    3  A    between atoms: N2_4  and  O1_5 
REMARK    4  A    between atoms: C4_8  and  C5_9 
REMARK    5  A    between atoms: C5_9  and  O2_10 
REMARK    6  A    between atoms: C5_9  and  C6_12 
REMARK       I    between atoms: N3_13  and  C7_15 
REMARK    7  A    between atoms: C8_22  and  N7_23 
REMARK    8  A    between atoms: N10_33  and  N11_34 
REMARK       I    between atoms: N11_34  and  C12_36 
REMARK       I    between atoms: C12_36  and  N13_40 
REMARK    9  A    between atoms: N13_40  and  N14_42 
ROOT
HETATM    1  N1  UNL     1     -35.444 -20.079  24.228  1.00  0.00    -0.195 NA
HETATM    2  C1  UNL     1     -34.278 -20.305  24.148  1.00  0.00     0.089 C 
HETATM    3  C2  UNL     1     -32.817 -20.611  24.098  1.00  0.00     0.267 C 
ENDROOT
BRANCH   3   4
HETATM    4  N2  UNL     1     -32.774 -21.692  25.155  1.00  0.00    -0.078 NA
BRANCH   4   5
HETATM    5  O1  UNL     1     -34.015 -22.014  25.521  1.00  0.00    -0.294 OA
ATOM      6  H1  UNL     1     -33.997 -22.788  26.072  1.00  0.00     0.238 HD
ENDBRANCH   4   5
ENDBRANCH   3   4
BRANCH   3   7
HETATM    7  C3  UNL     1     -32.443 -21.185  22.807  1.00  0.00     0.114 A 
HETATM    8  C4  UNL     1     -31.470 -20.542  22.037  1.00  0.00     0.088 A 
HETATM    9  N6  UNL     1     -31.274 -21.328  20.973  1.00  0.00    -0.187 N 
HETATM   10  C8  UNL     1     -32.098 -22.429  21.060  1.00  0.00     0.730 A 
ATOM     11  H6  UNL     1     -30.616 -21.141  20.216  1.00  0.00     0.184 HD
HETATM   12  N10 UNL     1     -32.818 -22.344  22.180  1.00  0.00    -0.069 N 
BRANCH   8  13
HETATM   13  C5  UNL     1     -30.792 -19.244  22.148  1.00  0.00     0.209 C 
BRANCH  13  14
HETATM   14  O2  UNL     1     -31.303 -18.386  23.119  1.00  0.00    -0.384 OA
ATOM     15  H2  UNL     1     -30.868 -17.544  23.186  1.00  0.00     0.211 HD
ENDBRANCH  13  14
BRANCH  13  16
HETATM   16  C6  UNL     1     -31.024 -18.439  20.873  1.00  0.00     0.101 C 
HETATM   17  N3  UNL     1     -30.115 -17.690  20.384  1.00  0.00    -0.342 N 
HETATM   18  C7  UNL     1     -30.359 -16.959  19.205  1.00  0.00     0.185 C 
ATOM     19  H3  UNL     1     -29.209 -17.620  20.848  1.00  0.00     0.167 HD
HETATM   20  N4  UNL     1     -30.857 -15.785  19.276  1.00  0.00    -0.374 N 
HETATM   21  N5  UNL     1     -30.064 -17.503  17.929  1.00  0.00    -0.064 NA
ATOM     22  H42 UNL     1     -31.070 -15.394  20.194  1.00  0.00     0.158 HD
ATOM     23  H41 UNL     1     -31.034 -15.256  18.422  1.00  0.00     0.158 HD
ENDBRANCH  13  16
ENDBRANCH   8  13
BRANCH  10  24
HETATM   24  N7  UNL     1     -32.119 -23.435  20.069  1.00  0.00    -0.030 N 
HETATM   25  N8  UNL     1     -31.342 -24.491  20.191  1.00  0.00    -0.281 N 
HETATM   26  C9  UNL     1     -31.388 -25.484  19.261  1.00  0.00     0.182 A 
ATOM     27  H8  UNL     1     -30.705 -24.565  20.983  1.00  0.00     0.187 HD
HETATM   28  C10 UNL     1     -32.246 -25.395  18.186  1.00  0.00     0.266 A 
HETATM   29  O3  UNL     1     -32.291 -26.327  17.310  1.00  0.00    -0.267 OA
HETATM   30  N9  UNL     1     -33.030 -24.308  18.079  1.00  0.00    -0.272 N 
HETATM   31  C11 UNL     1     -32.943 -23.357  19.027  1.00  0.00     0.363 A 
ATOM     32  H9  UNL     1     -33.677 -24.207  17.298  1.00  0.00     0.173 HD
HETATM   33  O4  UNL     1     -33.708 -22.351  18.878  1.00  0.00    -0.244 OA
ENDBRANCH  10  24
BRANCH  12  34
HETATM   34  N11 UNL     1     -33.873 -23.123  22.619  1.00  0.00    -0.110 N 
HETATM   35  C12 UNL     1     -33.875 -24.455  23.039  1.00  0.00     0.710 C 
HETATM   36  N12 UNL     1     -33.603 -24.719  24.276  1.00  0.00    -0.232 N 
HETATM   37  N13 UNL     1     -34.206 -25.511  22.181  1.00  0.00    -0.071 N 
ATOM     38 2H12 UNL     1     -33.361 -23.949  24.901  1.00  0.00     0.174 HD
ATOM     39 1H12 UNL     1     -33.604 -25.692  24.583  1.00  0.00     0.174 HD
ATOM     40  H13 UNL     1     -33.796 -26.433  22.332  1.00  0.00     0.212 HD
ATOM     41  H11 UNL     1     -34.780 -22.657  22.639  1.00  0.00     0.207 HD
BRANCH  37  42
HETATM   42  N14 UNL     1     -35.087 -25.313  21.130  1.00  0.00    -0.024 N 
HETATM   43  O5  UNL     1     -35.032 -25.983  20.064  1.00  0.00    -0.516 OA
HETATM   44  O6  UNL     1     -36.090 -24.358  21.180  1.00  0.00    -0.516 OA
ENDBRANCH  37  42
ENDBRANCH  12  34
ENDBRANCH   3   7
TORSDOF 9
ENDMDL
