MODEL 1
REMARK VINA RESULT: -6.101916125      0.000      0.000
REMARK  14 active torsions:
REMARK  status: ('A' for Active; 'I' for Inactive)
REMARK    1  A    between atoms: C3_4  and  O2_5 
REMARK    2  A    between atoms: O2_5  and  C4_6 
REMARK    3  A    between atoms: C5_7  and  O3_8 
REMARK    4  A    between atoms: C6_10  and  N1_11 
REMARK    5  A    between atoms: C8_16  and  N2_17 
REMARK    6  A    between atoms: C9_21  and  O4_22 
REMARK    7  A    between atoms: O4_22  and  C10_23 
REMARK    8  A    between atoms: C11_25  and  C12_26 
REMARK    9  A    between atoms: C12_26  and  N3_27 
REMARK   10  A    between atoms: C13_31  and  O6_32 
REMARK   11  A    between atoms: C15_35  and  N4_36 
REMARK   12  A    between atoms: C16_41  and  C17_42 
REMARK   13  A    between atoms: C17_42  and  O8_43 
REMARK   14  A    between atoms: C18_45  and  N5_46 
ROOT
HETATM    1  C4  UNL     1     -31.795 -21.997  22.935  1.00  0.00     0.188 C 
HETATM    2  C5  UNL     1     -32.395 -22.401  24.259  1.00  0.00     0.180 C 
HETATM    3  C6  UNL     1     -32.591 -21.117  25.047  1.00  0.00     0.216 C 
HETATM    4  C7  UNL     1     -33.774 -20.432  24.424  1.00  0.00     0.071 C 
HETATM    5  C8  UNL     1     -33.713 -20.356  22.936  1.00  0.00     0.217 C 
HETATM    6  C9  UNL     1     -32.462 -20.822  22.307  1.00  0.00     0.186 C 
ENDROOT
BRANCH   6   7
HETATM    7  O4  UNL     1     -31.545 -19.767  22.201  1.00  0.00    -0.349 OA
BRANCH   7   8
HETATM    8  C10 UNL     1     -31.743 -18.967  21.104  1.00  0.00     0.291 C 
HETATM    9  O5  UNL     1     -31.364 -17.686  21.388  1.00  0.00    -0.350 OA
HETATM   10  C11 UNL     1     -31.471 -16.840  20.265  1.00  0.00     0.178 C 
HETATM   11  C13 UNL     1     -30.329 -17.255  19.354  1.00  0.00     0.151 C 
HETATM   12  C14 UNL     1     -30.665 -18.639  18.853  1.00  0.00     0.072 C 
HETATM   13  C15 UNL     1     -31.039 -19.593  19.935  1.00  0.00     0.240 C 
BRANCH  10  14
HETATM   14  C12 UNL     1     -31.359 -15.395  20.697  1.00  0.00     0.264 C 
BRANCH  14  15
HETATM   15  N3  UNL     1     -30.728 -14.614  19.679  1.00  0.00    -0.077 N 
ATOM     16  H33 UNL     1     -30.201 -13.835  20.072  1.00  0.00     0.274 HD
ATOM     17  H32 UNL     1     -29.955 -15.116  19.241  1.00  0.00     0.274 HD
ATOM     18  H31 UNL     1     -31.413 -14.301  18.991  1.00  0.00     0.274 HD
ENDBRANCH  14  15
ENDBRANCH  10  14
BRANCH  11  19
HETATM   19  O6  UNL     1     -29.202 -17.387  20.164  1.00  0.00    -0.393 OA
ATOM     20  H6  UNL     1     -28.761 -18.181  19.887  1.00  0.00     0.210 HD
ENDBRANCH  11  19
BRANCH  13  21
HETATM   21  N4  UNL     1     -29.858 -20.327  20.379  1.00  0.00    -0.070 N 
ATOM     22  H43 UNL     1     -29.072 -19.704  20.564  1.00  0.00     0.274 HD
ATOM     23  H42 UNL     1     -29.978 -20.704  21.319  1.00  0.00     0.274 HD
ATOM     24  H41 UNL     1     -29.614 -21.055  19.707  1.00  0.00     0.274 HD
ENDBRANCH  13  21
ENDBRANCH   7   8
ENDBRANCH   6   7
BRANCH   1  25
HETATM   25  O2  UNL     1     -31.837 -23.117  22.113  1.00  0.00    -0.328 OA
BRANCH  25  26
HETATM   26  C3  UNL     1     -32.545 -22.873  20.915  1.00  0.00     0.414 C 
HETATM   27  O1  UNL     1     -33.742 -23.486  21.021  1.00  0.00    -0.332 OA
HETATM   28  C2  UNL     1     -34.172 -24.339  20.062  1.00  0.00     0.156 C 
HETATM   29  C1  UNL     1     -34.817 -23.515  18.955  1.00  0.00     0.042 C 
HETATM   30  C18 UNL     1     -33.102 -25.259  19.521  1.00  0.00     0.243 C 
HETATM   31  C16 UNL     1     -31.717 -24.707  19.827  1.00  0.00     0.183 C 
HETATM   32  O7  UNL     1     -31.727 -23.338  19.917  1.00  0.00    -0.329 OA
BRANCH  30  33
HETATM   33  N5  UNL     1     -33.209 -25.519  18.110  1.00  0.00    -0.070 N 
ATOM     34  H53 UNL     1     -33.285 -26.521  17.936  1.00  0.00     0.274 HD
ATOM     35  H52 UNL     1     -34.116 -25.213  17.758  1.00  0.00     0.274 HD
ATOM     36  H51 UNL     1     -32.455 -25.116  17.553  1.00  0.00     0.274 HD
ENDBRANCH  30  33
BRANCH  31  37
HETATM   37  C17 UNL     1     -30.714 -25.176  18.799  1.00  0.00     0.198 C 
BRANCH  37  38
HETATM   38  O8  UNL     1     -30.461 -24.108  17.942  1.00  0.00    -0.398 OA
ATOM     39  H8  UNL     1     -29.524 -24.078  17.792  1.00  0.00     0.209 HD
ENDBRANCH  37  38
ENDBRANCH  31  37
ENDBRANCH  25  26
ENDBRANCH   1  25
BRANCH   5  40
HETATM   40  N2  UNL     1     -34.893 -21.011  22.379  1.00  0.00    -0.072 N 
ATOM     41  H23 UNL     1     -34.672 -21.907  21.947  1.00  0.00     0.274 HD
ATOM     42  H22 UNL     1     -35.525 -21.354  23.103  1.00  0.00     0.274 HD
ATOM     43  H21 UNL     1     -35.352 -20.370  21.733  1.00  0.00     0.274 HD
ENDBRANCH   5  40
BRANCH   2  44
HETATM   44  O3  UNL     1     -33.588 -23.070  24.151  1.00  0.00    -0.391 OA
ATOM     45  H3  UNL     1     -33.693 -23.776  24.777  1.00  0.00     0.210 HD
ENDBRANCH   2  44
BRANCH   3  46
HETATM   46  N1  UNL     1     -32.918 -21.488  26.402  1.00  0.00    -0.072 N 
ATOM     47  H13 UNL     1     -33.920 -21.613  26.550  1.00  0.00     0.274 HD
ATOM     48  H12 UNL     1     -32.629 -22.437  26.636  1.00  0.00     0.274 HD
ATOM     49  H11 UNL     1     -32.510 -20.785  27.018  1.00  0.00     0.274 HD
ENDBRANCH   3  46
TORSDOF 14
ENDMDL
MODEL 2
REMARK VINA RESULT: -6.013636333      1.857      6.550
REMARK  14 active torsions:
REMARK  status: ('A' for Active; 'I' for Inactive)
REMARK    1  A    between atoms: C3_4  and  O2_5 
REMARK    2  A    between atoms: O2_5  and  C4_6 
REMARK    3  A    between atoms: C5_7  and  O3_8 
REMARK    4  A    between atoms: C6_10  and  N1_11 
REMARK    5  A    between atoms: C8_16  and  N2_17 
REMARK    6  A    between atoms: C9_21  and  O4_22 
REMARK    7  A    between atoms: O4_22  and  C10_23 
REMARK    8  A    between atoms: C11_25  and  C12_26 
REMARK    9  A    between atoms: C12_26  and  N3_27 
REMARK   10  A    between atoms: C13_31  and  O6_32 
REMARK   11  A    between atoms: C15_35  and  N4_36 
REMARK   12  A    between atoms: C16_41  and  C17_42 
REMARK   13  A    between atoms: C17_42  and  O8_43 
REMARK   14  A    between atoms: C18_45  and  N5_46 
ROOT
HETATM    1  C4  UNL     1     -31.389 -21.939  20.027  1.00  0.00     0.188 C 
HETATM    2  C5  UNL     1     -31.248 -22.395  18.597  1.00  0.00     0.180 C 
HETATM    3  C6  UNL     1     -31.280 -23.914  18.629  1.00  0.00     0.216 C 
HETATM    4  C7  UNL     1     -32.713 -24.287  18.881  1.00  0.00     0.071 C 
HETATM    5  C8  UNL     1     -33.345 -23.534  20.002  1.00  0.00     0.217 C 
HETATM    6  C9  UNL     1     -32.455 -22.654  20.784  1.00  0.00     0.186 C 
ENDROOT
BRANCH   6   7
HETATM    7  O4  UNL     1     -31.877 -23.362  21.847  1.00  0.00    -0.349 OA
BRANCH   7   8
HETATM    8  C10 UNL     1     -31.883 -22.680  23.037  1.00  0.00     0.291 C 
HETATM    9  O5  UNL     1     -33.049 -21.981  23.167  1.00  0.00    -0.350 OA
HETATM   10  C11 UNL     1     -33.140 -21.327  24.413  1.00  0.00     0.178 C 
HETATM   11  C13 UNL     1     -33.388 -22.439  25.418  1.00  0.00     0.151 C 
HETATM   12  C14 UNL     1     -32.117 -23.251  25.478  1.00  0.00     0.072 C 
HETATM   13  C15 UNL     1     -31.606 -23.661  24.139  1.00  0.00     0.240 C 
BRANCH  10  14
HETATM   14  C12 UNL     1     -34.269 -20.321  24.386  1.00  0.00     0.264 C 
BRANCH  14  15
HETATM   15  N3  UNL     1     -34.492 -19.853  23.053  1.00  0.00    -0.077 N 
ATOM     16  H33 UNL     1     -35.440 -19.499  22.930  1.00  0.00     0.274 HD
ATOM     17  H32 UNL     1     -33.981 -18.991  22.864  1.00  0.00     0.274 HD
ATOM     18  H31 UNL     1     -34.268 -20.582  22.376  1.00  0.00     0.274 HD
ENDBRANCH  14  15
ENDBRANCH  10  14
BRANCH  11  19
HETATM   19  O6  UNL     1     -34.364 -23.265  24.864  1.00  0.00    -0.393 OA
ATOM     20  H6  UNL     1     -34.176 -24.146  25.164  1.00  0.00     0.210 HD
ENDBRANCH  11  19
BRANCH  13  21
HETATM   21  N4  UNL     1     -32.122 -24.982  23.794  1.00  0.00    -0.070 N 
ATOM     22  H43 UNL     1     -32.886 -25.263  24.409  1.00  0.00     0.274 HD
ATOM     23  H42 UNL     1     -32.633 -24.970  22.912  1.00  0.00     0.274 HD
ATOM     24  H41 UNL     1     -31.370 -25.671  23.787  1.00  0.00     0.274 HD
ENDBRANCH  13  21
ENDBRANCH   7   8
ENDBRANCH   6   7
BRANCH   1  25
HETATM   25  O2  UNL     1     -31.609 -20.567  19.995  1.00  0.00    -0.328 OA
BRANCH  25  26
HETATM   26  C3  UNL     1     -30.830 -19.880  20.952  1.00  0.00     0.414 C 
HETATM   27  O1  UNL     1     -31.680 -19.303  21.826  1.00  0.00    -0.332 OA
HETATM   28  C2  UNL     1     -31.595 -17.982  22.109  1.00  0.00     0.156 C 
HETATM   29  C1  UNL     1     -30.537 -17.801  23.189  1.00  0.00     0.042 C 
HETATM   30  C18 UNL     1     -31.323 -17.105  20.910  1.00  0.00     0.243 C 
HETATM   31  C16 UNL     1     -30.748 -17.926  19.764  1.00  0.00     0.183 C 
HETATM   32  O7  UNL     1     -30.052 -19.015  20.224  1.00  0.00    -0.329 OA
BRANCH  30  33
HETATM   33  N5  UNL     1     -30.452 -15.992  21.180  1.00  0.00    -0.070 N 
ATOM     34  H53 UNL     1     -30.954 -15.259  21.682  1.00  0.00     0.274 HD
ATOM     35  H52 UNL     1     -29.761 -16.243  21.886  1.00  0.00     0.274 HD
ATOM     36  H51 UNL     1     -29.995 -15.609  20.353  1.00  0.00     0.274 HD
ENDBRANCH  30  33
BRANCH  31  37
HETATM   37  C17 UNL     1     -29.884 -17.068  18.871  1.00  0.00     0.198 C 
BRANCH  37  38
HETATM   38  O8  UNL     1     -30.111 -17.469  17.557  1.00  0.00    -0.398 OA
ATOM     39  H8  UNL     1     -31.015 -17.752  17.497  1.00  0.00     0.209 HD
ENDBRANCH  37  38
ENDBRANCH  31  37
ENDBRANCH  25  26
ENDBRANCH   1  25
BRANCH   5  40
HETATM   40  N2  UNL     1     -34.520 -22.830  19.498  1.00  0.00    -0.072 N 
ATOM     41  H23 UNL     1     -34.275 -22.071  18.863  1.00  0.00     0.274 HD
ATOM     42  H22 UNL     1     -35.060 -23.396  18.843  1.00  0.00     0.274 HD
ATOM     43  H21 UNL     1     -35.079 -22.511  20.289  1.00  0.00     0.274 HD
ENDBRANCH   5  40
BRANCH   2  44
HETATM   44  O3  UNL     1     -32.230 -21.926  17.761  1.00  0.00    -0.391 OA
ATOM     45  H3  UNL     1     -33.106 -21.984  18.123  1.00  0.00     0.210 HD
ENDBRANCH   2  44
BRANCH   3  46
HETATM   46  N1  UNL     1     -30.892 -24.382  17.321  1.00  0.00    -0.072 N 
ATOM     47  H13 UNL     1     -30.110 -23.859  16.927  1.00  0.00     0.274 HD
ATOM     48  H12 UNL     1     -30.443 -25.297  17.342  1.00  0.00     0.274 HD
ATOM     49  H11 UNL     1     -31.722 -24.361  16.729  1.00  0.00     0.274 HD
ENDBRANCH   3  46
TORSDOF 14
ENDMDL
MODEL 3
REMARK VINA RESULT: -5.812419441      1.963      5.135
REMARK  14 active torsions:
REMARK  status: ('A' for Active; 'I' for Inactive)
REMARK    1  A    between atoms: C3_4  and  O2_5 
REMARK    2  A    between atoms: O2_5  and  C4_6 
REMARK    3  A    between atoms: C5_7  and  O3_8 
REMARK    4  A    between atoms: C6_10  and  N1_11 
REMARK    5  A    between atoms: C8_16  and  N2_17 
REMARK    6  A    between atoms: C9_21  and  O4_22 
REMARK    7  A    between atoms: O4_22  and  C10_23 
REMARK    8  A    between atoms: C11_25  and  C12_26 
REMARK    9  A    between atoms: C12_26  and  N3_27 
REMARK   10  A    between atoms: C13_31  and  O6_32 
REMARK   11  A    between atoms: C15_35  and  N4_36 
REMARK   12  A    between atoms: C16_41  and  C17_42 
REMARK   13  A    between atoms: C17_42  and  O8_43 
REMARK   14  A    between atoms: C18_45  and  N5_46 
ROOT
HETATM    1  C4  UNL     1     -31.649 -20.161  20.141  1.00  0.00     0.188 C 
HETATM    2  C5  UNL     1     -30.519 -19.379  19.519  1.00  0.00     0.180 C 
HETATM    3  C6  UNL     1     -30.932 -17.918  19.572  1.00  0.00     0.216 C 
HETATM    4  C7  UNL     1     -30.779 -17.501  21.007  1.00  0.00     0.071 C 
HETATM    5  C8  UNL     1     -31.388 -18.453  21.980  1.00  0.00     0.217 C 
HETATM    6  C9  UNL     1     -32.165 -19.569  21.407  1.00  0.00     0.186 C 
ENDROOT
BRANCH   6   7
HETATM    7  O4  UNL     1     -33.504 -19.196  21.235  1.00  0.00    -0.349 OA
BRANCH   7   8
HETATM    8  C10 UNL     1     -34.402 -20.177  21.573  1.00  0.00     0.291 C 
HETATM    9  O5  UNL     1     -33.971 -20.839  22.687  1.00  0.00    -0.350 OA
HETATM   10  C11 UNL     1     -34.901 -21.804  23.124  1.00  0.00     0.178 C 
HETATM   11  C13 UNL     1     -36.044 -21.002  23.721  1.00  0.00     0.151 C 
HETATM   12  C14 UNL     1     -36.711 -20.288  22.571  1.00  0.00     0.072 C 
HETATM   13  C15 UNL     1     -35.759 -19.547  21.694  1.00  0.00     0.240 C 
BRANCH  10  14
HETATM   14  C12 UNL     1     -34.255 -22.719  24.140  1.00  0.00     0.264 C 
BRANCH  14  15
HETATM   15  N3  UNL     1     -32.832 -22.701  23.999  1.00  0.00    -0.077 N 
ATOM     16  H33 UNL     1     -32.528 -23.199  23.163  1.00  0.00     0.274 HD
ATOM     17  H32 UNL     1     -32.487 -21.772  23.758  1.00  0.00     0.274 HD
ATOM     18  H31 UNL     1     -32.385 -23.064  24.841  1.00  0.00     0.274 HD
ENDBRANCH  14  15
ENDBRANCH  10  14
BRANCH  11  19
HETATM   19  O6  UNL     1     -35.464 -20.018  24.519  1.00  0.00    -0.393 OA
ATOM     20  H6  UNL     1     -35.170 -20.450  25.312  1.00  0.00     0.210 HD
ENDBRANCH  11  19
BRANCH  13  21
HETATM   21  N4  UNL     1     -35.646 -18.163  22.143  1.00  0.00    -0.070 N 
ATOM     22  H43 UNL     1     -36.177 -17.997  22.998  1.00  0.00     0.274 HD
ATOM     23  H42 UNL     1     -34.714 -17.957  22.501  1.00  0.00     0.274 HD
ATOM     24  H41 UNL     1     -35.917 -17.521  21.399  1.00  0.00     0.274 HD
ENDBRANCH  13  21
ENDBRANCH   7   8
ENDBRANCH   6   7
BRANCH   1  25
HETATM   25  O2  UNL     1     -31.189 -21.459  20.325  1.00  0.00    -0.328 OA
BRANCH  25  26
HETATM   26  C3  UNL     1     -32.220 -22.415  20.185  1.00  0.00     0.414 C 
HETATM   27  O1  UNL     1     -32.056 -23.331  21.161  1.00  0.00    -0.332 OA
HETATM   28  C2  UNL     1     -31.999 -24.652  20.871  1.00  0.00     0.156 C 
HETATM   29  C1  UNL     1     -33.428 -25.173  20.774  1.00  0.00     0.042 C 
HETATM   30  C18 UNL     1     -31.201 -24.985  19.632  1.00  0.00     0.243 C 
HETATM   31  C16 UNL     1     -31.046 -23.754  18.749  1.00  0.00     0.183 C 
HETATM   32  O7  UNL     1     -32.097 -22.887  18.903  1.00  0.00    -0.329 OA
BRANCH  30  33
HETATM   33  N5  UNL     1     -31.747 -26.063  18.852  1.00  0.00    -0.070 N 
ATOM     34  H53 UNL     1     -31.359 -26.956  19.156  1.00  0.00     0.274 HD
ATOM     35  H52 UNL     1     -32.728 -26.212  19.086  1.00  0.00     0.274 HD
ATOM     36  H51 UNL     1     -31.633 -25.949  17.845  1.00  0.00     0.274 HD
ENDBRANCH  30  33
BRANCH  31  37
HETATM   37  C17 UNL     1     -30.877 -24.151  17.301  1.00  0.00     0.198 C 
BRANCH  37  38
HETATM   38  O8  UNL     1     -29.623 -24.743  17.173  1.00  0.00    -0.398 OA
ATOM     39  H8  UNL     1     -29.496 -24.947  16.254  1.00  0.00     0.209 HD
ENDBRANCH  37  38
ENDBRANCH  31  37
ENDBRANCH  25  26
ENDBRANCH   1  25
BRANCH   5  40
HETATM   40  N2  UNL     1     -30.355 -18.911  22.904  1.00  0.00    -0.072 N 
ATOM     41  H23 UNL     1     -30.318 -19.927  22.973  1.00  0.00     0.274 HD
ATOM     42  H22 UNL     1     -29.413 -18.758  22.542  1.00  0.00     0.274 HD
ATOM     43  H21 UNL     1     -30.500 -18.465  23.810  1.00  0.00     0.274 HD
ENDBRANCH   5  40
BRANCH   2  44
HETATM   44  O3  UNL     1     -29.311 -19.545  20.150  1.00  0.00    -0.391 OA
ATOM     45  H3  UNL     1     -28.881 -18.730  20.382  1.00  0.00     0.210 HD
ENDBRANCH   2  44
BRANCH   3  46
HETATM   46  N1  UNL     1     -29.999 -17.175  18.761  1.00  0.00    -0.072 N 
ATOM     47  H13 UNL     1     -29.909 -16.200  19.049  1.00  0.00     0.274 HD
ATOM     48  H12 UNL     1     -29.029 -17.450  18.917  1.00  0.00     0.274 HD
ATOM     49  H11 UNL     1     -30.289 -17.277  17.789  1.00  0.00     0.274 HD
ENDBRANCH   3  46
TORSDOF 14
ENDMDL
MODEL 4
REMARK VINA RESULT: -5.731475295      2.550      4.860
REMARK  14 active torsions:
REMARK  status: ('A' for Active; 'I' for Inactive)
REMARK    1  A    between atoms: C3_4  and  O2_5 
REMARK    2  A    between atoms: O2_5  and  C4_6 
REMARK    3  A    between atoms: C5_7  and  O3_8 
REMARK    4  A    between atoms: C6_10  and  N1_11 
REMARK    5  A    between atoms: C8_16  and  N2_17 
REMARK    6  A    between atoms: C9_21  and  O4_22 
REMARK    7  A    between atoms: O4_22  and  C10_23 
REMARK    8  A    between atoms: C11_25  and  C12_26 
REMARK    9  A    between atoms: C12_26  and  N3_27 
REMARK   10  A    between atoms: C13_31  and  O6_32 
REMARK   11  A    between atoms: C15_35  and  N4_36 
REMARK   12  A    between atoms: C16_41  and  C17_42 
REMARK   13  A    between atoms: C17_42  and  O8_43 
REMARK   14  A    between atoms: C18_45  and  N5_46 
ROOT
HETATM    1  C4  UNL     1     -31.643 -20.416  19.958  1.00  0.00     0.188 C 
HETATM    2  C5  UNL     1     -30.451 -19.576  19.574  1.00  0.00     0.180 C 
HETATM    3  C6  UNL     1     -30.930 -18.135  19.562  1.00  0.00     0.216 C 
HETATM    4  C7  UNL     1     -31.073 -17.740  21.004  1.00  0.00     0.071 C 
HETATM    5  C8  UNL     1     -31.815 -18.735  21.832  1.00  0.00     0.217 C 
HETATM    6  C9  UNL     1     -32.418 -19.871  21.108  1.00  0.00     0.186 C 
ENDROOT
BRANCH   6   7
HETATM    7  O4  UNL     1     -33.715 -19.550  20.686  1.00  0.00    -0.349 OA
BRANCH   7   8
HETATM    8  C10 UNL     1     -34.701 -20.024  21.513  1.00  0.00     0.291 C 
HETATM    9  O5  UNL     1     -35.467 -18.989  21.966  1.00  0.00    -0.350 OA
HETATM   10  C11 UNL     1     -36.547 -19.433  22.756  1.00  0.00     0.178 C 
HETATM   11  C13 UNL     1     -37.516 -20.063  21.771  1.00  0.00     0.151 C 
HETATM   12  C14 UNL     1     -36.848 -21.315  21.256  1.00  0.00     0.072 C 
HETATM   13  C15 UNL     1     -35.454 -21.094  20.776  1.00  0.00     0.240 C 
BRANCH  10  14
HETATM   14  C12 UNL     1     -37.162 -18.264  23.493  1.00  0.00     0.264 C 
BRANCH  14  15
HETATM   15  N3  UNL     1     -36.759 -17.028  22.898  1.00  0.00    -0.077 N 
ATOM     16  H33 UNL     1     -37.545 -16.542  22.465  1.00  0.00     0.274 HD
ATOM     17  H32 UNL     1     -36.516 -16.330  23.600  1.00  0.00     0.274 HD
ATOM     18  H31 UNL     1     -35.997 -17.180  22.237  1.00  0.00     0.274 HD
ENDBRANCH  14  15
ENDBRANCH  10  14
BRANCH  11  19
HETATM   19  O6  UNL     1     -37.610 -19.187  20.691  1.00  0.00    -0.393 OA
ATOM     20  H6  UNL     1     -38.216 -18.503  20.948  1.00  0.00     0.210 HD
ENDBRANCH  11  19
BRANCH  13  21
HETATM   21  N4  UNL     1     -35.461 -20.824  19.342  1.00  0.00    -0.070 N 
ATOM     22  H43 UNL     1     -35.396 -19.826  19.144  1.00  0.00     0.274 HD
ATOM     23  H42 UNL     1     -34.594 -21.124  18.897  1.00  0.00     0.274 HD
ATOM     24  H41 UNL     1     -36.278 -21.245  18.901  1.00  0.00     0.274 HD
ENDBRANCH  13  21
ENDBRANCH   7   8
ENDBRANCH   6   7
BRANCH   1  25
HETATM   25  O2  UNL     1     -31.171 -21.698  20.213  1.00  0.00    -0.328 OA
BRANCH  25  26
HETATM   26  C3  UNL     1     -32.178 -22.677  20.065  1.00  0.00     0.414 C 
HETATM   27  O1  UNL     1     -31.969 -23.618  21.008  1.00  0.00    -0.332 OA
HETATM   28  C2  UNL     1     -31.882 -24.927  20.675  1.00  0.00     0.156 C 
HETATM   29  C1  UNL     1     -33.298 -25.484  20.592  1.00  0.00     0.042 C 
HETATM   30  C18 UNL     1     -31.102 -25.199  19.410  1.00  0.00     0.243 C 
HETATM   31  C16 UNL     1     -31.000 -23.938  18.563  1.00  0.00     0.183 C 
HETATM   32  O7  UNL     1     -32.071 -23.106  18.766  1.00  0.00    -0.329 OA
BRANCH  30  33
HETATM   33  N5  UNL     1     -31.636 -26.268  18.608  1.00  0.00    -0.070 N 
ATOM     34  H53 UNL     1     -32.617 -26.430  18.835  1.00  0.00     0.274 HD
ATOM     35  H52 UNL     1     -31.729 -25.972  17.636  1.00  0.00     0.274 HD
ATOM     36  H51 UNL     1     -31.107 -27.138  18.667  1.00  0.00     0.274 HD
ENDBRANCH  30  33
BRANCH  31  37
HETATM   37  C17 UNL     1     -30.852 -24.286  17.100  1.00  0.00     0.198 C 
BRANCH  37  38
HETATM   38  O8  UNL     1     -29.663 -24.997  16.957  1.00  0.00    -0.398 OA
ATOM     39  H8  UNL     1     -29.190 -24.618  16.225  1.00  0.00     0.209 HD
ENDBRANCH  37  38
ENDBRANCH  31  37
ENDBRANCH  25  26
ENDBRANCH   1  25
BRANCH   5  40
HETATM   40  N2  UNL     1     -30.960 -19.168  22.932  1.00  0.00    -0.072 N 
ATOM     41  H23 UNL     1     -30.281 -18.455  23.200  1.00  0.00     0.274 HD
ATOM     42  H22 UNL     1     -31.463 -19.224  23.818  1.00  0.00     0.274 HD
ATOM     43  H21 UNL     1     -30.517 -20.051  22.680  1.00  0.00     0.274 HD
ENDBRANCH   5  40
BRANCH   2  44
HETATM   44  O3  UNL     1     -29.380 -19.705  20.422  1.00  0.00    -0.391 OA
ATOM     45  H3  UNL     1     -28.541 -19.529  20.015  1.00  0.00     0.210 HD
ENDBRANCH   2  44
BRANCH   3  46
HETATM   46  N1  UNL     1     -29.893 -17.339  18.954  1.00  0.00    -0.072 N 
ATOM     47  H13 UNL     1     -29.153 -17.903  18.534  1.00  0.00     0.274 HD
ATOM     48  H12 UNL     1     -30.200 -16.867  18.103  1.00  0.00     0.274 HD
ATOM     49  H11 UNL     1     -29.547 -16.694  19.663  1.00  0.00     0.274 HD
ENDBRANCH   3  46
TORSDOF 14
ENDMDL
MODEL 5
REMARK VINA RESULT: -5.686746657      2.745      6.341
REMARK  14 active torsions:
REMARK  status: ('A' for Active; 'I' for Inactive)
REMARK    1  A    between atoms: C3_4  and  O2_5 
REMARK    2  A    between atoms: O2_5  and  C4_6 
REMARK    3  A    between atoms: C5_7  and  O3_8 
REMARK    4  A    between atoms: C6_10  and  N1_11 
REMARK    5  A    between atoms: C8_16  and  N2_17 
REMARK    6  A    between atoms: C9_21  and  O4_22 
REMARK    7  A    between atoms: O4_22  and  C10_23 
REMARK    8  A    between atoms: C11_25  and  C12_26 
REMARK    9  A    between atoms: C12_26  and  N3_27 
REMARK   10  A    between atoms: C13_31  and  O6_32 
REMARK   11  A    between atoms: C15_35  and  N4_36 
REMARK   12  A    between atoms: C16_41  and  C17_42 
REMARK   13  A    between atoms: C17_42  and  O8_43 
REMARK   14  A    between atoms: C18_45  and  N5_46 
ROOT
HETATM    1  C4  UNL     1     -32.695 -20.036  20.972  1.00  0.00     0.188 C 
HETATM    2  C5  UNL     1     -32.407 -18.854  21.863  1.00  0.00     0.180 C 
HETATM    3  C6  UNL     1     -30.993 -19.047  22.384  1.00  0.00     0.216 C 
HETATM    4  C7  UNL     1     -30.085 -18.731  21.230  1.00  0.00     0.071 C 
HETATM    5  C8  UNL     1     -30.476 -19.398  19.955  1.00  0.00     0.217 C 
HETATM    6  C9  UNL     1     -31.586 -20.367  20.035  1.00  0.00     0.186 C 
ENDROOT
BRANCH   6   7
HETATM    7  O4  UNL     1     -31.097 -21.648  20.325  1.00  0.00    -0.349 OA
BRANCH   7   8
HETATM    8  C10 UNL     1     -31.842 -22.663  19.781  1.00  0.00     0.291 C 
HETATM    9  O5  UNL     1     -31.063 -23.423  18.956  1.00  0.00    -0.350 OA
HETATM   10  C11 UNL     1     -31.763 -24.530  18.435  1.00  0.00     0.178 C 
HETATM   11  C13 UNL     1     -31.911 -25.484  19.607  1.00  0.00     0.151 C 
HETATM   12  C14 UNL     1     -32.860 -24.824  20.578  1.00  0.00     0.072 C 
HETATM   13  C15 UNL     1     -32.499 -23.415  20.902  1.00  0.00     0.240 C 
BRANCH  10  14
HETATM   14  C12 UNL     1     -30.981 -25.144  17.295  1.00  0.00     0.264 C 
BRANCH  14  15
HETATM   15  N3  UNL     1     -29.582 -25.139  17.587  1.00  0.00    -0.077 N 
ATOM     16  H33 UNL     1     -29.155 -24.236  17.380  1.00  0.00     0.274 HD
ATOM     17  H32 UNL     1     -29.404 -25.166  18.590  1.00  0.00     0.274 HD
ATOM     18  H31 UNL     1     -29.112 -25.901  17.099  1.00  0.00     0.274 HD
ENDBRANCH  14  15
ENDBRANCH  10  14
BRANCH  11  19
HETATM   19  O6  UNL     1     -30.668 -25.535  20.237  1.00  0.00    -0.393 OA
ATOM     20  H6  UNL     1     -30.264 -24.686  20.106  1.00  0.00     0.210 HD
ENDBRANCH  11  19
BRANCH  13  21
HETATM   21  N4  UNL     1     -31.667 -23.380  22.101  1.00  0.00    -0.070 N 
ATOM     22  H43 UNL     1     -31.445 -24.317  22.436  1.00  0.00     0.274 HD
ATOM     23  H42 UNL     1     -30.720 -23.064  21.895  1.00  0.00     0.274 HD
ATOM     24  H41 UNL     1     -32.106 -22.813  22.827  1.00  0.00     0.274 HD
ENDBRANCH  13  21
ENDBRANCH   7   8
ENDBRANCH   6   7
BRANCH   1  25
HETATM   25  O2  UNL     1     -33.877 -19.756  20.298  1.00  0.00    -0.328 OA
BRANCH  25  26
HETATM   26  C3  UNL     1     -34.880 -20.717  20.556  1.00  0.00     0.414 C 
HETATM   27  O1  UNL     1     -35.815 -20.595  19.592  1.00  0.00    -0.332 OA
HETATM   28  C2  UNL     1     -37.122 -20.442  19.908  1.00  0.00     0.156 C 
HETATM   29  C1  UNL     1     -37.711 -21.826  20.150  1.00  0.00     0.042 C 
HETATM   30  C18 UNL     1     -37.377 -19.517  21.075  1.00  0.00     0.243 C 
HETATM   31  C16 UNL     1     -36.115 -19.346  21.909  1.00  0.00     0.183 C 
HETATM   32  O7  UNL     1     -35.307 -20.452  21.833  1.00  0.00    -0.329 OA
BRANCH  30  33
HETATM   33  N5  UNL     1     -38.458 -19.930  21.928  1.00  0.00    -0.070 N 
ATOM     34  H53 UNL     1     -39.249 -19.292  21.838  1.00  0.00     0.274 HD
ATOM     35  H52 UNL     1     -38.885 -20.787  21.575  1.00  0.00     0.274 HD
ATOM     36  H51 UNL     1     -38.198 -20.039  22.909  1.00  0.00     0.274 HD
ENDBRANCH  30  33
BRANCH  31  37
HETATM   37  C17 UNL     1     -36.461 -19.024  23.344  1.00  0.00     0.198 C 
BRANCH  37  38
HETATM   38  O8  UNL     1     -36.684 -17.652  23.423  1.00  0.00    -0.398 OA
ATOM     39  H8  UNL     1     -36.699 -17.313  22.536  1.00  0.00     0.209 HD
ENDBRANCH  37  38
ENDBRANCH  31  37
ENDBRANCH  25  26
ENDBRANCH   1  25
BRANCH   5  40
HETATM   40  N2  UNL     1     -30.701 -18.377  18.936  1.00  0.00    -0.072 N 
ATOM     41  H23 UNL     1     -29.830 -18.021  18.544  1.00  0.00     0.274 HD
ATOM     42  H22 UNL     1     -31.096 -18.764  18.078  1.00  0.00     0.274 HD
ATOM     43  H21 UNL     1     -31.280 -17.638  19.331  1.00  0.00     0.274 HD
ENDBRANCH   5  40
BRANCH   2  44
HETATM   44  O3  UNL     1     -32.509 -17.640  21.231  1.00  0.00    -0.391 OA
ATOM     45  H3  UNL     1     -31.894 -17.523  20.516  1.00  0.00     0.210 HD
ENDBRANCH   2  44
BRANCH   3  46
HETATM   46  N1  UNL     1     -30.782 -18.078  23.432  1.00  0.00    -0.072 N 
ATOM     47  H13 UNL     1     -29.982 -18.301  24.025  1.00  0.00     0.274 HD
ATOM     48  H12 UNL     1     -30.443 -17.182  23.083  1.00  0.00     0.274 HD
ATOM     49  H11 UNL     1     -31.654 -17.998  23.954  1.00  0.00     0.274 HD
ENDBRANCH   3  46
TORSDOF 14
ENDMDL
