MODEL 1
REMARK VINA RESULT: -6.979381356      0.000      0.000
REMARK  12 active torsions:
REMARK  status: ('A' for Active; 'I' for Inactive)
REMARK    1  A    between atoms: N1_1  and  C1_4 
REMARK    2  A    between atoms: C2_7  and  S1_8 
REMARK    3  A    between atoms: S1_8  and  N3_9 
REMARK    4  A    between atoms: C5_16  and  C6_17 
REMARK    5  A    between atoms: C6_17  and  O1_18 
REMARK    6  A    between atoms: C6_17  and  C7_20 
REMARK    7  A    between atoms: C7_20  and  N5_21 
REMARK    8  A    between atoms: C7_20  and  C8_25 
REMARK    9  A    between atoms: C8_25  and  C9_27 
REMARK   10  A    between atoms: C10_30  and  N6_31 
REMARK   11  A    between atoms: C13_42  and  N9_43 
REMARK   12  A    between atoms: N9_43  and  N10_45 
ROOT
HETATM    1  C1  UNL     1     -34.421 -20.740  23.791  1.00  0.00     0.677 A 
HETATM    2  N2  UNL     1     -34.422 -21.856  24.514  1.00  0.00    -0.183 N 
ATOM      3  H2  UNL     1     -34.994 -21.925  25.355  1.00  0.00     0.185 HD
HETATM    4  C2  UNL     1     -33.638 -22.920  24.110  1.00  0.00     0.122 A 
HETATM    5  C3  UNL     1     -32.873 -22.843  22.997  1.00  0.00     0.069 A 
HETATM    6  C4  UNL     1     -32.892 -21.644  22.248  1.00  0.00     0.052 A 
HETATM    7  N4  UNL     1     -33.661 -20.642  22.670  1.00  0.00    -0.194 N 
ATOM      8  H4  UNL     1     -33.678 -19.773  22.135  1.00  0.00     0.184 HD
HETATM    9  C5  UNL     1     -32.130 -21.474  21.016  1.00  0.00     0.103 C 
HETATM   10  C10 UNL     1     -32.619 -22.551  20.024  1.00  0.00     0.254 C 
HETATM   11  C11 UNL     1     -31.955 -23.866  20.202  1.00  0.00     0.252 A 
HETATM   12  C12 UNL     1     -32.254 -24.856  19.095  1.00  0.00     0.299 A 
HETATM   13  N7  UNL     1     -30.946 -24.296  19.245  1.00  0.00    -0.041 N 
ATOM     14  H71 UNL     1     -30.019 -24.709  19.347  1.00  0.00     0.280 HD
ATOM     15  H72 UNL     1     -30.326 -23.792  18.611  1.00  0.00     0.280 HD
HETATM   16  N8  UNL     1     -31.822 -24.390  21.483  1.00  0.00    -0.339 N 
ATOM     17  H8  UNL     1     -31.324 -25.280  21.466  1.00  0.00     0.163 HD
HETATM   18  C13 UNL     1     -32.163 -24.057  22.723  1.00  0.00     0.138 C 
ENDROOT
BRANCH   9  19
HETATM   19  C6  UNL     1     -32.116 -20.222  20.282  1.00  0.00     0.168 C 
BRANCH  19  20
HETATM   20  O1  UNL     1     -33.381 -19.746  19.886  1.00  0.00    -0.392 OA
ATOM     21  H1  UNL     1     -33.477 -19.578  18.956  1.00  0.00     0.210 HD
ENDBRANCH  19  20
BRANCH  19  22
HETATM   22  C7  UNL     1     -31.229 -19.098  20.738  1.00  0.00     0.293 C 
BRANCH  22  23
HETATM   23  N5  UNL     1     -31.974 -17.824  20.567  1.00  0.00    -0.065 N 
ATOM     24  H53 UNL     1     -32.525 -17.801  19.709  1.00  0.00     0.275 HD
ATOM     25  H52 UNL     1     -32.745 -17.726  21.228  1.00  0.00     0.275 HD
ATOM     26  H51 UNL     1     -31.306 -17.055  20.625  1.00  0.00     0.275 HD
ENDBRANCH  22  23
BRANCH  22  27
HETATM   27  C8  UNL     1     -29.991 -19.005  19.950  1.00  0.00     0.257 C 
HETATM   28  O2  UNL     1     -29.145 -19.965  19.964  1.00  0.00    -0.283 OA
BRANCH  27  29
HETATM   29  C9  UNL     1     -29.643 -17.873  19.132  1.00  0.00     0.249 C 
HETATM   30  O3  UNL     1     -28.813 -16.994  19.506  1.00  0.00    -0.642 OA
HETATM   31  O4  UNL     1     -30.198 -17.663  17.862  1.00  0.00    -0.642 OA
ENDBRANCH  27  29
ENDBRANCH  22  27
ENDBRANCH  19  22
ENDBRANCH   9  19
BRANCH  10  32
HETATM   32  N6  UNL     1     -34.046 -22.676  20.133  1.00  0.00    -0.070 N 
ATOM     33  H63 UNL     1     -34.324 -23.317  20.877  1.00  0.00     0.274 HD
ATOM     34  H62 UNL     1     -34.482 -21.831  20.502  1.00  0.00     0.274 HD
ATOM     35  H61 UNL     1     -34.426 -22.944  19.226  1.00  0.00     0.274 HD
ENDBRANCH  10  32
BRANCH   4  36
HETATM   36  S1  UNL     1     -33.774 -24.365  25.097  1.00  0.00    -0.002 SA
BRANCH  36  37
HETATM   37  N3  UNL     1     -33.068 -24.191  26.695  1.00  0.00    -0.369 N 
ATOM     38  H32 UNL     1     -32.379 -24.847  27.062  1.00  0.00     0.164 HD
ATOM     39  H31 UNL     1     -33.413 -23.378  27.206  1.00  0.00     0.164 HD
ENDBRANCH  36  37
ENDBRANCH   4  36
BRANCH  18  40
HETATM   40  N9  UNL     1     -31.748 -24.969  23.700  1.00  0.00    -0.225 N 
ATOM     41  H9  UNL     1     -32.355 -25.700  24.071  1.00  0.00     0.195 HD
BRANCH  40  42
HETATM   42  N10 UNL     1     -30.429 -24.791  24.123  1.00  0.00    -0.037 N 
HETATM   43  O5  UNL     1     -29.435 -24.903  23.374  1.00  0.00    -0.516 OA
HETATM   44  O6  UNL     1     -30.102 -24.468  25.440  1.00  0.00    -0.516 OA
ENDBRANCH  40  42
ENDBRANCH  18  40
BRANCH   1  45
HETATM   45  N1  UNL     1     -35.132 -19.749  24.139  1.00  0.00    -0.234 N 
ATOM     46  H12 UNL     1     -34.741 -19.064  24.787  1.00  0.00     0.174 HD
ATOM     47  H11 UNL     1     -36.080 -19.641  23.777  1.00  0.00     0.174 HD
ENDBRANCH   1  45
TORSDOF 12
ENDMDL
MODEL 2
REMARK VINA RESULT: -6.956910158      1.995      2.965
REMARK  12 active torsions:
REMARK  status: ('A' for Active; 'I' for Inactive)
REMARK    1  A    between atoms: N1_1  and  C1_4 
REMARK    2  A    between atoms: C2_7  and  S1_8 
REMARK    3  A    between atoms: S1_8  and  N3_9 
REMARK    4  A    between atoms: C5_16  and  C6_17 
REMARK    5  A    between atoms: C6_17  and  O1_18 
REMARK    6  A    between atoms: C6_17  and  C7_20 
REMARK    7  A    between atoms: C7_20  and  N5_21 
REMARK    8  A    between atoms: C7_20  and  C8_25 
REMARK    9  A    between atoms: C8_25  and  C9_27 
REMARK   10  A    between atoms: C10_30  and  N6_31 
REMARK   11  A    between atoms: C13_42  and  N9_43 
REMARK   12  A    between atoms: N9_43  and  N10_45 
ROOT
HETATM    1  C1  UNL     1     -35.716 -18.771  22.519  1.00  0.00     0.677 A 
HETATM    2  N2  UNL     1     -36.210 -19.301  23.634  1.00  0.00    -0.183 N 
ATOM      3  H2  UNL     1     -37.104 -18.981  24.006  1.00  0.00     0.185 HD
HETATM    4  C2  UNL     1     -35.495 -20.291  24.282  1.00  0.00     0.122 A 
HETATM    5  C3  UNL     1     -34.308 -20.725  23.800  1.00  0.00     0.069 A 
HETATM    6  C4  UNL     1     -33.808 -20.143  22.613  1.00  0.00     0.052 A 
HETATM    7  N4  UNL     1     -34.526 -19.192  22.019  1.00  0.00    -0.194 N 
ATOM      8  H4  UNL     1     -34.172 -18.766  21.163  1.00  0.00     0.184 HD
HETATM    9  C5  UNL     1     -32.555 -20.565  21.996  1.00  0.00     0.103 C 
HETATM   10  C10 UNL     1     -32.696 -22.064  21.655  1.00  0.00     0.254 C 
HETATM   11  C11 UNL     1     -32.387 -22.962  22.795  1.00  0.00     0.252 A 
HETATM   12  C12 UNL     1     -32.296 -24.425  22.412  1.00  0.00     0.299 A 
HETATM   13  N7  UNL     1     -31.130 -23.697  22.811  1.00  0.00    -0.041 N 
ATOM     14  H71 UNL     1     -30.422 -23.853  23.528  1.00  0.00     0.280 HD
ATOM     15  H72 UNL     1     -30.223 -23.537  22.371  1.00  0.00     0.280 HD
HETATM   16  N8  UNL     1     -32.928 -22.681  24.045  1.00  0.00    -0.339 N 
ATOM     17  H8  UNL     1     -32.613 -23.357  24.741  1.00  0.00     0.163 HD
HETATM   18  C13 UNL     1     -33.738 -21.779  24.587  1.00  0.00     0.138 C 
ENDROOT
BRANCH   9  19
HETATM   19  C6  UNL     1     -32.026 -19.926  20.806  1.00  0.00     0.168 C 
BRANCH  19  20
HETATM   20  O1  UNL     1     -32.953 -19.744  19.761  1.00  0.00    -0.392 OA
ATOM     21  H1  UNL     1     -33.708 -19.211  19.978  1.00  0.00     0.210 HD
ENDBRANCH  19  20
BRANCH  19  22
HETATM   22  C7  UNL     1     -31.114 -18.739  20.937  1.00  0.00     0.293 C 
BRANCH  22  23
HETATM   23  N5  UNL     1     -31.890 -17.519  20.593  1.00  0.00    -0.065 N 
ATOM     24  H53 UNL     1     -32.874 -17.591  20.855  1.00  0.00     0.275 HD
ATOM     25  H52 UNL     1     -31.650 -16.720  21.181  1.00  0.00     0.275 HD
ATOM     26  H51 UNL     1     -31.761 -17.330  19.599  1.00  0.00     0.275 HD
ENDBRANCH  22  23
BRANCH  22  27
HETATM   27  C8  UNL     1     -29.963 -18.811  20.025  1.00  0.00     0.257 C 
HETATM   28  O2  UNL     1     -29.221 -19.854  20.007  1.00  0.00    -0.283 OA
BRANCH  27  29
HETATM   29  C9  UNL     1     -29.591 -17.760  19.115  1.00  0.00     0.249 C 
HETATM   30  O3  UNL     1     -28.717 -16.892  19.401  1.00  0.00    -0.642 OA
HETATM   31  O4  UNL     1     -30.171 -17.622  17.847  1.00  0.00    -0.642 OA
ENDBRANCH  27  29
ENDBRANCH  22  27
ENDBRANCH  19  22
ENDBRANCH   9  19
BRANCH  10  32
HETATM   32  N6  UNL     1     -34.019 -22.308  21.151  1.00  0.00    -0.070 N 
ATOM     33  H63 UNL     1     -34.497 -23.053  21.659  1.00  0.00     0.274 HD
ATOM     34  H62 UNL     1     -34.663 -21.549  21.371  1.00  0.00     0.274 HD
ATOM     35  H61 UNL     1     -33.963 -22.493  20.150  1.00  0.00     0.274 HD
ENDBRANCH  10  32
BRANCH   4  36
HETATM   36  S1  UNL     1     -36.275 -20.970  25.700  1.00  0.00    -0.002 SA
BRANCH  36  37
HETATM   37  N3  UNL     1     -36.334 -19.865  27.062  1.00  0.00    -0.369 N 
ATOM     38  H32 UNL     1     -36.292 -20.188  28.029  1.00  0.00     0.164 HD
ATOM     39  H31 UNL     1     -36.413 -18.885  26.789  1.00  0.00     0.164 HD
ENDBRANCH  36  37
ENDBRANCH   4  36
BRANCH  18  40
HETATM   40  N9  UNL     1     -33.950 -21.945  25.961  1.00  0.00    -0.225 N 
ATOM     41  H9  UNL     1     -34.757 -22.439  26.342  1.00  0.00     0.195 HD
BRANCH  40  42
HETATM   42  N10 UNL     1     -32.960 -21.374  26.763  1.00  0.00    -0.037 N 
HETATM   43  O5  UNL     1     -31.809 -21.843  26.890  1.00  0.00    -0.516 OA
HETATM   44  O6  UNL     1     -33.176 -20.214  27.506  1.00  0.00    -0.516 OA
ENDBRANCH  40  42
ENDBRANCH  18  40
BRANCH   1  45
HETATM   45  N1  UNL     1     -36.353 -17.861  21.905  1.00  0.00    -0.234 N 
ATOM     46  H12 UNL     1     -37.053 -18.129  21.214  1.00  0.00     0.174 HD
ATOM     47  H11 UNL     1     -36.165 -16.877  22.103  1.00  0.00     0.174 HD
ENDBRANCH   1  45
TORSDOF 12
ENDMDL
MODEL 3
REMARK VINA RESULT: -6.862583793      1.696      2.154
REMARK  12 active torsions:
REMARK  status: ('A' for Active; 'I' for Inactive)
REMARK    1  A    between atoms: N1_1  and  C1_4 
REMARK    2  A    between atoms: C2_7  and  S1_8 
REMARK    3  A    between atoms: S1_8  and  N3_9 
REMARK    4  A    between atoms: C5_16  and  C6_17 
REMARK    5  A    between atoms: C6_17  and  O1_18 
REMARK    6  A    between atoms: C6_17  and  C7_20 
REMARK    7  A    between atoms: C7_20  and  N5_21 
REMARK    8  A    between atoms: C7_20  and  C8_25 
REMARK    9  A    between atoms: C8_25  and  C9_27 
REMARK   10  A    between atoms: C10_30  and  N6_31 
REMARK   11  A    between atoms: C13_42  and  N9_43 
REMARK   12  A    between atoms: N9_43  and  N10_45 
ROOT
HETATM    1  C1  UNL     1     -32.538 -20.369  24.926  1.00  0.00     0.677 A 
HETATM    2  N2  UNL     1     -32.796 -21.652  25.161  1.00  0.00    -0.183 N 
ATOM      3  H2  UNL     1     -32.901 -21.992  26.117  1.00  0.00     0.185 HD
HETATM    4  C2  UNL     1     -32.919 -22.519  24.091  1.00  0.00     0.122 A 
HETATM    5  C3  UNL     1     -32.781 -22.084  22.818  1.00  0.00     0.069 A 
HETATM    6  C4  UNL     1     -32.507 -20.714  22.599  1.00  0.00     0.052 A 
HETATM    7  N4  UNL     1     -32.395 -19.911  23.656  1.00  0.00    -0.194 N 
ATOM      8  H4  UNL     1     -32.197 -18.922  23.506  1.00  0.00     0.184 HD
HETATM    9  C5  UNL     1     -32.375 -20.141  21.265  1.00  0.00     0.103 C 
HETATM   10  C10 UNL     1     -33.710 -20.385  20.528  1.00  0.00     0.254 C 
HETATM   11  C11 UNL     1     -33.803 -21.724  19.898  1.00  0.00     0.252 A 
HETATM   12  C12 UNL     1     -35.000 -21.887  18.984  1.00  0.00     0.299 A 
HETATM   13  N7  UNL     1     -33.672 -21.848  18.453  1.00  0.00    -0.041 N 
ATOM     14  H71 UNL     1     -33.143 -22.479  17.852  1.00  0.00     0.280 HD
ATOM     15  H72 UNL     1     -33.222 -21.272  17.741  1.00  0.00     0.280 HD
HETATM   16  N8  UNL     1     -33.423 -22.846  20.627  1.00  0.00    -0.339 N 
ATOM     17  H8  UNL     1     -33.508 -23.694  20.068  1.00  0.00     0.163 HD
HETATM   18  C13 UNL     1     -32.981 -23.121  21.849  1.00  0.00     0.138 C 
ENDROOT
BRANCH   9  19
HETATM   19  C6  UNL     1     -32.043 -18.745  21.053  1.00  0.00     0.168 C 
BRANCH  19  20
HETATM   20  O1  UNL     1     -32.974 -17.823  21.568  1.00  0.00    -0.392 OA
ATOM     21  H1  UNL     1     -33.887 -18.063  21.456  1.00  0.00     0.210 HD
ENDBRANCH  19  20
BRANCH  19  22
HETATM   22  C7  UNL     1     -30.633 -18.271  21.265  1.00  0.00     0.293 C 
BRANCH  22  23
HETATM   23  N5  UNL     1     -30.683 -16.846  21.683  1.00  0.00    -0.065 N 
ATOM     24  H53 UNL     1     -30.549 -16.201  20.904  1.00  0.00     0.275 HD
ATOM     25  H52 UNL     1     -31.621 -16.546  21.950  1.00  0.00     0.275 HD
ATOM     26  H51 UNL     1     -29.999 -16.709  22.428  1.00  0.00     0.275 HD
ENDBRANCH  22  23
BRANCH  22  27
HETATM   27  C8  UNL     1     -29.823 -18.352  20.040  1.00  0.00     0.257 C 
HETATM   28  O2  UNL     1     -29.104 -19.386  19.812  1.00  0.00    -0.283 OA
BRANCH  27  29
HETATM   29  C9  UNL     1     -29.773 -17.319  19.040  1.00  0.00     0.249 C 
HETATM   30  O3  UNL     1     -29.397 -16.140  19.299  1.00  0.00    -0.642 OA
HETATM   31  O4  UNL     1     -30.139 -17.545  17.706  1.00  0.00    -0.642 OA
ENDBRANCH  27  29
ENDBRANCH  22  27
ENDBRANCH  19  22
ENDBRANCH   9  19
BRANCH  10  32
HETATM   32  N6  UNL     1     -34.796 -20.171  21.444  1.00  0.00    -0.070 N 
ATOM     33  H63 UNL     1     -35.049 -19.185  21.523  1.00  0.00     0.274 HD
ATOM     34  H62 UNL     1     -35.684 -20.518  21.082  1.00  0.00     0.274 HD
ATOM     35  H61 UNL     1     -34.556 -20.584  22.346  1.00  0.00     0.274 HD
ENDBRANCH  10  32
BRANCH   4  36
HETATM   36  S1  UNL     1     -33.332 -24.172  24.513  1.00  0.00    -0.002 SA
BRANCH  36  37
HETATM   37  N3  UNL     1     -32.051 -25.020  25.362  1.00  0.00    -0.369 N 
ATOM     38  H32 UNL     1     -31.111 -24.636  25.455  1.00  0.00     0.164 HD
ATOM     39  H31 UNL     1     -32.342 -25.919  25.745  1.00  0.00     0.164 HD
ENDBRANCH  36  37
ENDBRANCH   4  36
BRANCH  18  40
HETATM   40  N9  UNL     1     -32.715 -24.477  22.075  1.00  0.00    -0.225 N 
ATOM     41  H9  UNL     1     -33.391 -25.111  22.500  1.00  0.00     0.195 HD
BRANCH  40  42
HETATM   42  N10 UNL     1     -31.443 -24.885  21.667  1.00  0.00    -0.037 N 
HETATM   43  O5  UNL     1     -31.096 -24.993  20.471  1.00  0.00    -0.516 OA
HETATM   44  O6  UNL     1     -30.436 -25.212  22.573  1.00  0.00    -0.516 OA
ENDBRANCH  40  42
ENDBRANCH  18  40
BRANCH   1  45
HETATM   45  N1  UNL     1     -32.420 -19.552  25.890  1.00  0.00    -0.234 N 
ATOM     46  H12 UNL     1     -32.038 -19.886  26.776  1.00  0.00     0.174 HD
ATOM     47  H11 UNL     1     -32.704 -18.579  25.779  1.00  0.00     0.174 HD
ENDBRANCH   1  45
TORSDOF 12
ENDMDL
MODEL 4
REMARK VINA RESULT: -6.796674984      2.443      2.949
REMARK  12 active torsions:
REMARK  status: ('A' for Active; 'I' for Inactive)
REMARK    1  A    between atoms: N1_1  and  C1_4 
REMARK    2  A    between atoms: C2_7  and  S1_8 
REMARK    3  A    between atoms: S1_8  and  N3_9 
REMARK    4  A    between atoms: C5_16  and  C6_17 
REMARK    5  A    between atoms: C6_17  and  O1_18 
REMARK    6  A    between atoms: C6_17  and  C7_20 
REMARK    7  A    between atoms: C7_20  and  N5_21 
REMARK    8  A    between atoms: C7_20  and  C8_25 
REMARK    9  A    between atoms: C8_25  and  C9_27 
REMARK   10  A    between atoms: C10_30  and  N6_31 
REMARK   11  A    between atoms: C13_42  and  N9_43 
REMARK   12  A    between atoms: N9_43  and  N10_45 
ROOT
HETATM    1  C1  UNL     1     -35.875 -19.153  22.117  1.00  0.00     0.677 A 
HETATM    2  N2  UNL     1     -36.497 -20.239  22.566  1.00  0.00    -0.183 N 
ATOM      3  H2  UNL     1     -37.425 -20.167  22.983  1.00  0.00     0.185 HD
HETATM    4  C2  UNL     1     -35.869 -21.466  22.461  1.00  0.00     0.122 A 
HETATM    5  C3  UNL     1     -34.638 -21.576  21.911  1.00  0.00     0.069 A 
HETATM    6  C4  UNL     1     -34.001 -20.404  21.442  1.00  0.00     0.052 A 
HETATM    7  N4  UNL     1     -34.640 -19.241  21.562  1.00  0.00    -0.194 N 
ATOM      8  H4  UNL     1     -34.186 -18.392  21.227  1.00  0.00     0.184 HD
HETATM    9  C5  UNL     1     -32.690 -20.423  20.804  1.00  0.00     0.103 C 
HETATM   10  C10 UNL     1     -32.802 -21.321  19.554  1.00  0.00     0.254 C 
HETATM   11  C11 UNL     1     -32.634 -22.766  19.845  1.00  0.00     0.252 A 
HETATM   12  C12 UNL     1     -32.511 -23.629  18.606  1.00  0.00     0.299 A 
HETATM   13  N7  UNL     1     -31.393 -23.433  19.476  1.00  0.00    -0.041 N 
ATOM     14  H71 UNL     1     -30.772 -24.074  19.970  1.00  0.00     0.280 HD
ATOM     15  H72 UNL     1     -30.440 -23.099  19.325  1.00  0.00     0.280 HD
HETATM   16  N8  UNL     1     -33.311 -23.324  20.924  1.00  0.00    -0.339 N 
ATOM     17  H8  UNL     1     -33.084 -24.313  21.028  1.00  0.00     0.163 HD
HETATM   18  C13 UNL     1     -34.170 -22.930  21.856  1.00  0.00     0.138 C 
ENDROOT
BRANCH   9  19
HETATM   19  C6  UNL     1     -32.023 -19.208  20.372  1.00  0.00     0.168 C 
BRANCH  19  20
HETATM   20  O1  UNL     1     -32.103 -18.129  21.273  1.00  0.00    -0.392 OA
ATOM     21  H1  UNL     1     -32.983 -17.877  21.527  1.00  0.00     0.210 HD
ENDBRANCH  19  20
BRANCH  19  22
HETATM   22  C7  UNL     1     -30.665 -19.287  19.735  1.00  0.00     0.293 C 
BRANCH  22  23
HETATM   23  N5  UNL     1     -29.799 -20.135  20.595  1.00  0.00    -0.065 N 
ATOM     24  H53 UNL     1     -30.238 -20.370  21.485  1.00  0.00     0.275 HD
ATOM     25  H52 UNL     1     -29.697 -21.085  20.237  1.00  0.00     0.275 HD
ATOM     26  H51 UNL     1     -28.904 -19.659  20.711  1.00  0.00     0.275 HD
ENDBRANCH  22  23
BRANCH  22  27
HETATM   27  C8  UNL     1     -30.025 -17.969  19.612  1.00  0.00     0.257 C 
HETATM   28  O2  UNL     1     -29.231 -17.551  20.525  1.00  0.00    -0.283 OA
BRANCH  27  29
HETATM   29  C9  UNL     1     -30.229 -17.077  18.501  1.00  0.00     0.249 C 
HETATM   30  O3  UNL     1     -29.928 -17.392  17.313  1.00  0.00    -0.642 OA
HETATM   31  O4  UNL     1     -30.775 -15.795  18.656  1.00  0.00    -0.642 OA
ENDBRANCH  27  29
ENDBRANCH  22  27
ENDBRANCH  19  22
ENDBRANCH   9  19
BRANCH  10  32
HETATM   32  N6  UNL     1     -34.061 -21.070  18.908  1.00  0.00    -0.070 N 
ATOM     33  H63 UNL     1     -34.627 -20.386  19.412  1.00  0.00     0.274 HD
ATOM     34  H62 UNL     1     -33.954 -20.552  18.036  1.00  0.00     0.274 HD
ATOM     35  H61 UNL     1     -34.549 -21.956  18.776  1.00  0.00     0.274 HD
ENDBRANCH  10  32
BRANCH   4  36
HETATM   36  S1  UNL     1     -36.811 -22.838  23.017  1.00  0.00    -0.002 SA
BRANCH  36  37
HETATM   37  N3  UNL     1     -37.729 -23.620  21.742  1.00  0.00    -0.369 N 
ATOM     38  H32 UNL     1     -37.367 -23.726  20.795  1.00  0.00     0.164 HD
ATOM     39  H31 UNL     1     -38.646 -23.951  22.045  1.00  0.00     0.164 HD
ENDBRANCH  36  37
ENDBRANCH   4  36
BRANCH  18  40
HETATM   40  N9  UNL     1     -34.539 -23.932  22.762  1.00  0.00    -0.225 N 
ATOM     41  H9  UNL     1     -34.867 -23.733  23.707  1.00  0.00     0.195 HD
BRANCH  40  42
HETATM   42  N10 UNL     1     -34.420 -25.229  22.257  1.00  0.00    -0.037 N 
HETATM   43  O5  UNL     1     -35.280 -25.779  21.537  1.00  0.00    -0.516 OA
HETATM   44  O6  UNL     1     -33.312 -26.035  22.519  1.00  0.00    -0.516 OA
ENDBRANCH  40  42
ENDBRANCH  18  40
BRANCH   1  45
HETATM   45  N1  UNL     1     -36.430 -18.015  22.202  1.00  0.00    -0.234 N 
ATOM     46  H12 UNL     1     -37.337 -17.874  21.757  1.00  0.00     0.174 HD
ATOM     47  H11 UNL     1     -35.973 -17.255  22.707  1.00  0.00     0.174 HD
ENDBRANCH   1  45
TORSDOF 12
ENDMDL
MODEL 5
REMARK VINA RESULT: -6.763624406      2.098      2.473
REMARK  12 active torsions:
REMARK  status: ('A' for Active; 'I' for Inactive)
REMARK    1  A    between atoms: N1_1  and  C1_4 
REMARK    2  A    between atoms: C2_7  and  S1_8 
REMARK    3  A    between atoms: S1_8  and  N3_9 
REMARK    4  A    between atoms: C5_16  and  C6_17 
REMARK    5  A    between atoms: C6_17  and  O1_18 
REMARK    6  A    between atoms: C6_17  and  C7_20 
REMARK    7  A    between atoms: C7_20  and  N5_21 
REMARK    8  A    between atoms: C7_20  and  C8_25 
REMARK    9  A    between atoms: C8_25  and  C9_27 
REMARK   10  A    between atoms: C10_30  and  N6_31 
REMARK   11  A    between atoms: C13_42  and  N9_43 
REMARK   12  A    between atoms: N9_43  and  N10_45 
ROOT
HETATM    1  C1  UNL     1     -35.848 -19.174  22.154  1.00  0.00     0.677 A 
HETATM    2  N2  UNL     1     -36.459 -20.264  22.607  1.00  0.00    -0.183 N 
ATOM      3  H2  UNL     1     -37.383 -20.200  23.033  1.00  0.00     0.185 HD
HETATM    4  C2  UNL     1     -35.823 -21.487  22.493  1.00  0.00     0.122 A 
HETATM    5  C3  UNL     1     -34.597 -21.588  21.931  1.00  0.00     0.069 A 
HETATM    6  C4  UNL     1     -33.972 -20.411  21.458  1.00  0.00     0.052 A 
HETATM    7  N4  UNL     1     -34.617 -19.252  21.587  1.00  0.00    -0.194 N 
ATOM      8  H4  UNL     1     -34.173 -18.399  21.249  1.00  0.00     0.184 HD
HETATM    9  C5  UNL     1     -32.667 -20.419  20.807  1.00  0.00     0.103 C 
HETATM   10  C10 UNL     1     -32.786 -21.316  19.556  1.00  0.00     0.254 C 
HETATM   11  C11 UNL     1     -32.605 -22.760  19.843  1.00  0.00     0.252 A 
HETATM   12  C12 UNL     1     -32.489 -23.620  18.601  1.00  0.00     0.299 A 
HETATM   13  N7  UNL     1     -31.363 -23.418  19.461  1.00  0.00    -0.041 N 
ATOM     14  H71 UNL     1     -30.734 -24.056  19.947  1.00  0.00     0.280 HD
ATOM     15  H72 UNL     1     -30.415 -23.078  19.300  1.00  0.00     0.280 HD
HETATM   16  N8  UNL     1     -33.268 -23.325  20.927  1.00  0.00    -0.339 N 
ATOM     17  H8  UNL     1     -33.033 -24.312  21.027  1.00  0.00     0.163 HD
HETATM   18  C13 UNL     1     -34.121 -22.938  21.868  1.00  0.00     0.138 C 
ENDROOT
BRANCH   9  19
HETATM   19  C6  UNL     1     -32.013 -19.200  20.372  1.00  0.00     0.168 C 
BRANCH  19  20
HETATM   20  O1  UNL     1     -32.087 -18.124  21.277  1.00  0.00    -0.392 OA
ATOM     21  H1  UNL     1     -32.029 -18.362  22.195  1.00  0.00     0.210 HD
ENDBRANCH  19  20
BRANCH  19  22
HETATM   22  C7  UNL     1     -30.663 -19.268  19.716  1.00  0.00     0.293 C 
BRANCH  22  23
HETATM   23  N5  UNL     1     -29.788 -20.134  20.550  1.00  0.00    -0.065 N 
ATOM     24  H53 UNL     1     -28.808 -20.087  20.272  1.00  0.00     0.275 HD
ATOM     25  H52 UNL     1     -29.679 -19.783  21.502  1.00  0.00     0.275 HD
ATOM     26  H51 UNL     1     -30.160 -21.083  20.520  1.00  0.00     0.275 HD
ENDBRANCH  22  23
BRANCH  22  27
HETATM   27  C8  UNL     1     -30.021 -17.949  19.611  1.00  0.00     0.257 C 
HETATM   28  O2  UNL     1     -29.211 -17.553  20.518  1.00  0.00    -0.283 OA
BRANCH  27  29
HETATM   29  C9  UNL     1     -30.243 -17.033  18.524  1.00  0.00     0.249 C 
HETATM   30  O3  UNL     1     -30.733 -15.879  18.697  1.00  0.00    -0.642 OA
HETATM   31  O4  UNL     1     -29.934 -17.353  17.195  1.00  0.00    -0.642 OA
ENDBRANCH  27  29
ENDBRANCH  22  27
ENDBRANCH  19  22
ENDBRANCH   9  19
BRANCH  10  32
HETATM   32  N6  UNL     1     -34.053 -21.072  18.924  1.00  0.00    -0.070 N 
ATOM     33  H63 UNL     1     -34.470 -20.188  19.218  1.00  0.00     0.274 HD
ATOM     34  H62 UNL     1     -33.957 -20.861  17.930  1.00  0.00     0.274 HD
ATOM     35  H61 UNL     1     -34.668 -21.868  19.094  1.00  0.00     0.274 HD
ENDBRANCH  10  32
BRANCH   4  36
HETATM   36  S1  UNL     1     -36.751 -22.866  23.056  1.00  0.00    -0.002 SA
BRANCH  36  37
HETATM   37  N3  UNL     1     -36.981 -22.892  24.796  1.00  0.00    -0.369 N 
ATOM     38  H32 UNL     1     -36.204 -22.998  25.448  1.00  0.00     0.164 HD
ATOM     39  H31 UNL     1     -37.956 -22.792  25.079  1.00  0.00     0.164 HD
ENDBRANCH  36  37
ENDBRANCH   4  36
BRANCH  18  40
HETATM   40  N9  UNL     1     -34.475 -23.944  22.776  1.00  0.00    -0.225 N 
ATOM     41  H9  UNL     1     -35.305 -24.526  22.664  1.00  0.00     0.195 HD
BRANCH  40  42
HETATM   42  N10 UNL     1     -33.590 -24.082  23.848  1.00  0.00    -0.037 N 
HETATM   43  O5  UNL     1     -32.375 -24.345  23.720  1.00  0.00    -0.516 OA
HETATM   44  O6  UNL     1     -33.994 -23.937  25.174  1.00  0.00    -0.516 OA
ENDBRANCH  40  42
ENDBRANCH  18  40
BRANCH   1  45
HETATM   45  N1  UNL     1     -36.410 -18.039  22.247  1.00  0.00    -0.234 N 
ATOM     46  H12 UNL     1     -36.063 -17.269  21.676  1.00  0.00     0.174 HD
ATOM     47  H11 UNL     1     -37.195 -17.903  22.884  1.00  0.00     0.174 HD
ENDBRANCH   1  45
TORSDOF 12
ENDMDL
