MODEL 1
REMARK VINA RESULT: -9.647758675      0.000      0.000
REMARK  11 active torsions:
REMARK  status: ('A' for Active; 'I' for Inactive)
REMARK    1  A    between atoms: C2_2  and  O1_3 
REMARK    2  A    between atoms: C2_2  and  C3_5 
REMARK    3  A    between atoms: C3_5  and  O2_6 
REMARK    4  A    between atoms: C3_5  and  C4_8 
REMARK    5  A    between atoms: C4_8  and  O3_9 
REMARK    6  A    between atoms: C4_8  and  O4_11 
REMARK    7  A    between atoms: O4_11  and  C5_12 
REMARK    8  A    between atoms: C5_12  and  N1_13 
REMARK    9  A    between atoms: C8_21  and  C9_22 
REMARK   10  A    between atoms: N7_34  and  N8_35 
REMARK   11  A    between atoms: C14_40  and  N10_41 
ROOT
HETATM    1  N1  UNL     1     -30.565 -18.534  21.534  1.00  0.00    -0.219 N 
HETATM    2  C6  UNL     1     -29.912 -18.587  20.333  1.00  0.00     0.336 A 
HETATM    3  O5  UNL     1     -29.218 -17.594  19.953  1.00  0.00    -0.246 OA
HETATM    4  N2  UNL     1     -30.007 -19.673  19.572  1.00  0.00    -0.293 N 
ATOM      5  H2  UNL     1     -29.517 -19.706  18.678  1.00  0.00     0.172 HD
HETATM    6  C7  UNL     1     -30.744 -20.734  19.968  1.00  0.00     0.130 A 
HETATM    7  N3  UNL     1     -30.858 -21.844  19.221  1.00  0.00    -0.324 N 
ATOM      8  H3  UNL     1     -30.362 -21.866  18.330  1.00  0.00     0.169 HD
HETATM    9  C8  UNL     1     -31.575 -22.928  19.561  1.00  0.00     0.155 A 
HETATM   10  N9  UNL     1     -32.229 -22.904  20.735  1.00  0.00    -0.325 N 
ATOM     11  H9  UNL     1     -32.783 -23.711  21.023  1.00  0.00     0.169 HD
HETATM   12  C14 UNL     1     -32.159 -21.818  21.539  1.00  0.00     0.120 A 
HETATM   13  C15 UNL     1     -31.421 -20.716  21.177  1.00  0.00     0.120 A 
HETATM   14  C16 UNL     1     -31.305 -19.574  21.947  1.00  0.00     0.274 A 
HETATM   15  O7  UNL     1     -31.939 -19.595  23.035  1.00  0.00    -0.266 OA
ENDROOT
BRANCH   9  16
HETATM   16  C9  UNL     1     -31.620 -24.078  18.661  1.00  0.00     0.176 A 
HETATM   17  N4  UNL     1     -30.490 -24.532  18.097  1.00  0.00    -0.303 N 
HETATM   18  C10 UNL     1     -30.478 -25.599  17.250  1.00  0.00     0.277 A 
ATOM     19  H4  UNL     1     -29.610 -24.061  18.308  1.00  0.00     0.171 HD
HETATM   20  O6  UNL     1     -29.415 -26.018  16.725  1.00  0.00    -0.265 OA
HETATM   21  C11 UNL     1     -31.658 -26.248  16.953  1.00  0.00     0.148 A 
HETATM   22  N5  UNL     1     -31.985 -27.301  16.180  1.00  0.00    -0.345 N 
HETATM   23  C13 UNL     1     -32.816 -25.783  17.530  1.00  0.00     0.162 A 
HETATM   24  C12 UNL     1     -33.317 -27.522  16.247  1.00  0.00     0.182 A 
ATOM     25  H5  UNL     1     -31.326 -27.849  15.626  1.00  0.00     0.167 HD
HETATM   26  N6  UNL     1     -33.799 -26.582  17.078  1.00  0.00    -0.335 N 
ATOM     27  H6  UNL     1     -34.782 -26.486  17.332  1.00  0.00     0.168 HD
HETATM   28  N7  UNL     1     -32.764 -24.717  18.364  1.00  0.00    -0.224 N 
BRANCH  28  29
HETATM   29  N8  UNL     1     -33.933 -24.245  18.950  1.00  0.00    -0.335 N 
ATOM     30  H82 UNL     1     -34.563 -23.652  18.411  1.00  0.00     0.177 HD
ATOM     31  H81 UNL     1     -34.118 -24.517  19.916  1.00  0.00     0.177 HD
ENDBRANCH  28  29
ENDBRANCH   9  16
BRANCH  12  32
HETATM   32  N10 UNL     1     -32.787 -21.774  22.685  1.00  0.00    -0.384 N 
ATOM     33 2H10 UNL     1     -32.602 -20.976  23.293  1.00  0.00     0.157 HD
ATOM     34 1H10 UNL     1     -33.438 -22.507  22.965  1.00  0.00     0.157 HD
ENDBRANCH  12  32
BRANCH   1  35
HETATM   35  C5  UNL     1     -30.436 -17.314  22.262  1.00  0.00     0.245 C 
BRANCH  35  36
HETATM   36  O4  UNL     1     -30.642 -16.199  21.569  1.00  0.00    -0.312 OA
BRANCH  36  37
HETATM   37  C4  UNL     1     -31.796 -15.645  21.247  1.00  0.00     0.295 C 
BRANCH  37  38
HETATM   38  C3  UNL     1     -31.652 -14.796  19.989  1.00  0.00     0.201 C 
BRANCH  38  39
HETATM   39  C2  UNL     1     -30.992 -13.479  20.224  1.00  0.00     0.147 C 
HETATM   40  C1  UNL     1     -31.879 -12.280  20.016  1.00  0.00     0.042 C 
BRANCH  39  41
HETATM   41  O1  UNL     1     -29.943 -13.376  19.278  1.00  0.00    -0.393 OA
ATOM     42  H1  UNL     1     -30.302 -13.655  18.444  1.00  0.00     0.210 HD
ENDBRANCH  39  41
ENDBRANCH  38  39
BRANCH  38  43
HETATM   43  O2  UNL     1     -30.940 -15.555  19.054  1.00  0.00    -0.388 OA
ATOM     44  H2  UNL     1     -30.435 -16.237  19.481  1.00  0.00     0.210 HD
ENDBRANCH  38  43
ENDBRANCH  37  38
BRANCH  37  45
HETATM   45  O3  UNL     1     -32.866 -16.553  21.083  1.00  0.00    -0.368 OA
ATOM     46  H3  UNL     1     -33.567 -16.329  21.684  1.00  0.00     0.212 HD
ENDBRANCH  37  45
ENDBRANCH  36  37
ENDBRANCH  35  36
ENDBRANCH   1  35
TORSDOF 11
ENDMDL
MODEL 2
REMARK VINA RESULT: -8.777035616      1.327      1.782
REMARK  11 active torsions:
REMARK  status: ('A' for Active; 'I' for Inactive)
REMARK    1  A    between atoms: C2_2  and  O1_3 
REMARK    2  A    between atoms: C2_2  and  C3_5 
REMARK    3  A    between atoms: C3_5  and  O2_6 
REMARK    4  A    between atoms: C3_5  and  C4_8 
REMARK    5  A    between atoms: C4_8  and  O3_9 
REMARK    6  A    between atoms: C4_8  and  O4_11 
REMARK    7  A    between atoms: O4_11  and  C5_12 
REMARK    8  A    between atoms: C5_12  and  N1_13 
REMARK    9  A    between atoms: C8_21  and  C9_22 
REMARK   10  A    between atoms: N7_34  and  N8_35 
REMARK   11  A    between atoms: C14_40  and  N10_41 
ROOT
HETATM    1  N1  UNL     1     -30.651 -18.862  21.588  1.00  0.00    -0.219 N 
HETATM    2  C6  UNL     1     -30.060 -19.056  20.369  1.00  0.00     0.336 A 
HETATM    3  O5  UNL     1     -29.194 -18.227  19.953  1.00  0.00    -0.246 OA
HETATM    4  N2  UNL     1     -30.396 -20.108  19.627  1.00  0.00    -0.293 N 
ATOM      5  H2  UNL     1     -29.952 -20.246  18.720  1.00  0.00     0.172 HD
HETATM    6  C7  UNL     1     -31.318 -20.995  20.061  1.00  0.00     0.130 A 
HETATM    7  N3  UNL     1     -31.677 -22.066  19.335  1.00  0.00    -0.324 N 
ATOM      8  H3  UNL     1     -31.225 -22.195  18.429  1.00  0.00     0.169 HD
HETATM    9  C8  UNL     1     -32.586 -22.980  19.712  1.00  0.00     0.155 A 
HETATM   10  N9  UNL     1     -33.184 -22.814  20.905  1.00  0.00    -0.325 N 
ATOM     11  H9  UNL     1     -33.879 -23.490  21.221  1.00  0.00     0.169 HD
HETATM   12  C14 UNL     1     -32.871 -21.757  21.690  1.00  0.00     0.120 A 
HETATM   13  C15 UNL     1     -31.939 -20.830  21.289  1.00  0.00     0.120 A 
HETATM   14  C16 UNL     1     -31.571 -19.728  22.038  1.00  0.00     0.274 A 
HETATM   15  O7  UNL     1     -32.160 -19.611  23.144  1.00  0.00    -0.266 OA
ENDROOT
BRANCH   9  16
HETATM   16  C9  UNL     1     -32.890 -24.105  18.832  1.00  0.00     0.176 A 
HETATM   17  N4  UNL     1     -34.168 -24.418  18.562  1.00  0.00    -0.303 N 
HETATM   18  C10 UNL     1     -34.505 -25.458  17.748  1.00  0.00     0.277 A 
ATOM     19  H4  UNL     1     -34.911 -23.859  18.980  1.00  0.00     0.171 HD
HETATM   20  O6  UNL     1     -35.704 -25.745  17.500  1.00  0.00    -0.265 OA
HETATM   21  C11 UNL     1     -33.513 -26.225  17.174  1.00  0.00     0.148 A 
HETATM   22  N5  UNL     1     -33.504 -27.288  16.348  1.00  0.00    -0.345 N 
HETATM   23  C13 UNL     1     -32.205 -25.905  17.451  1.00  0.00     0.162 A 
HETATM   24  C12 UNL     1     -32.229 -27.656  16.090  1.00  0.00     0.182 A 
ATOM     25  H5  UNL     1     -34.335 -27.748  15.974  1.00  0.00     0.167 HD
HETATM   26  N6  UNL     1     -31.457 -26.796  16.775  1.00  0.00    -0.335 N 
ATOM     27  H6  UNL     1     -30.438 -26.815  16.782  1.00  0.00     0.168 HD
HETATM   28  N7  UNL     1     -31.933 -24.859  18.268  1.00  0.00    -0.224 N 
BRANCH  28  29
HETATM   29  N8  UNL     1     -30.611 -24.533  18.549  1.00  0.00    -0.335 N 
ATOM     30  H82 UNL     1     -29.867 -24.872  17.939  1.00  0.00     0.177 HD
ATOM     31  H81 UNL     1     -30.434 -23.954  19.371  1.00  0.00     0.177 HD
ENDBRANCH  28  29
ENDBRANCH   9  16
BRANCH  12  32
HETATM   32  N10 UNL     1     -33.440 -21.577  22.853  1.00  0.00    -0.384 N 
ATOM     33 2H10 UNL     1     -33.911 -20.687  23.014  1.00  0.00     0.157 HD
ATOM     34 1H10 UNL     1     -33.416 -22.297  23.576  1.00  0.00     0.157 HD
ENDBRANCH  12  32
BRANCH   1  35
HETATM   35  C5  UNL     1     -30.256 -17.686  22.293  1.00  0.00     0.245 C 
BRANCH  35  36
HETATM   36  O4  UNL     1     -30.315 -16.550  21.607  1.00  0.00    -0.312 OA
BRANCH  36  37
HETATM   37  C4  UNL     1     -31.384 -15.832  21.318  1.00  0.00     0.295 C 
BRANCH  37  38
HETATM   38  C3  UNL     1     -31.165 -15.034  20.037  1.00  0.00     0.201 C 
BRANCH  38  39
HETATM   39  C2  UNL     1     -30.782 -13.612  20.272  1.00  0.00     0.147 C 
HETATM   40  C1  UNL     1     -31.886 -12.613  20.041  1.00  0.00     0.042 C 
BRANCH  39  41
HETATM   41  O1  UNL     1     -29.760 -13.308  19.341  1.00  0.00    -0.393 OA
ATOM     42  H1  UNL     1     -29.736 -14.026  18.719  1.00  0.00     0.210 HD
ENDBRANCH  39  41
ENDBRANCH  38  39
BRANCH  38  43
HETATM   43  O2  UNL     1     -30.186 -15.702  19.293  1.00  0.00    -0.388 OA
ATOM     44  H2  UNL     1     -29.411 -15.866  19.818  1.00  0.00     0.210 HD
ENDBRANCH  38  43
ENDBRANCH  37  38
BRANCH  37  45
HETATM   45  O3  UNL     1     -32.585 -16.569  21.215  1.00  0.00    -0.368 OA
ATOM     46  H3  UNL     1     -32.388 -17.498  21.215  1.00  0.00     0.212 HD
ENDBRANCH  37  45
ENDBRANCH  36  37
ENDBRANCH  35  36
ENDBRANCH   1  35
TORSDOF 11
ENDMDL
MODEL 3
REMARK VINA RESULT: -8.410155253      2.011      3.228
REMARK  11 active torsions:
REMARK  status: ('A' for Active; 'I' for Inactive)
REMARK    1  A    between atoms: C2_2  and  O1_3 
REMARK    2  A    between atoms: C2_2  and  C3_5 
REMARK    3  A    between atoms: C3_5  and  O2_6 
REMARK    4  A    between atoms: C3_5  and  C4_8 
REMARK    5  A    between atoms: C4_8  and  O3_9 
REMARK    6  A    between atoms: C4_8  and  O4_11 
REMARK    7  A    between atoms: O4_11  and  C5_12 
REMARK    8  A    between atoms: C5_12  and  N1_13 
REMARK    9  A    between atoms: C8_21  and  C9_22 
REMARK   10  A    between atoms: N7_34  and  N8_35 
REMARK   11  A    between atoms: C14_40  and  N10_41 
ROOT
HETATM    1  N1  UNL     1     -31.380 -19.023  21.238  1.00  0.00    -0.219 N 
HETATM    2  C6  UNL     1     -31.144 -18.891  19.897  1.00  0.00     0.336 A 
HETATM    3  O5  UNL     1     -30.867 -17.749  19.418  1.00  0.00    -0.246 OA
HETATM    4  N2  UNL     1     -31.206 -19.957  19.103  1.00  0.00    -0.293 N 
ATOM      5  H2  UNL     1     -31.028 -19.851  18.105  1.00  0.00     0.172 HD
HETATM    6  C7  UNL     1     -31.501 -21.176  19.603  1.00  0.00     0.130 A 
HETATM    7  N3  UNL     1     -31.570 -22.270  18.827  1.00  0.00    -0.324 N 
ATOM      8  H3  UNL     1     -31.389 -22.153  17.830  1.00  0.00     0.169 HD
HETATM    9  C8  UNL     1     -31.859 -23.507  19.266  1.00  0.00     0.155 A 
HETATM   10  N9  UNL     1     -32.097 -23.666  20.579  1.00  0.00    -0.325 N 
ATOM     11  H9  UNL     1     -32.319 -24.592  20.945  1.00  0.00     0.169 HD
HETATM   12  C14 UNL     1     -32.045 -22.608  21.421  1.00  0.00     0.120 A 
HETATM   13  C15 UNL     1     -31.748 -21.348  20.956  1.00  0.00     0.120 A 
HETATM   14  C16 UNL     1     -31.677 -20.224  21.757  1.00  0.00     0.274 A 
HETATM   15  O7  UNL     1     -31.913 -20.420  22.978  1.00  0.00    -0.266 OA
ENDROOT
BRANCH   9  16
HETATM   16  C9  UNL     1     -31.903 -24.619  18.320  1.00  0.00     0.176 A 
HETATM   17  N4  UNL     1     -30.773 -25.046  17.734  1.00  0.00    -0.303 N 
HETATM   18  C10 UNL     1     -30.761 -26.078  16.844  1.00  0.00     0.277 A 
ATOM     19  H4  UNL     1     -29.894 -24.581  17.962  1.00  0.00     0.171 HD
HETATM   20  O6  UNL     1     -29.698 -26.471  16.299  1.00  0.00    -0.265 OA
HETATM   21  C11 UNL     1     -31.940 -26.717  16.524  1.00  0.00     0.148 A 
HETATM   22  N5  UNL     1     -32.265 -27.738  15.709  1.00  0.00    -0.345 N 
HETATM   23  C13 UNL     1     -33.097 -26.280  17.123  1.00  0.00     0.162 A 
HETATM   24  C12 UNL     1     -33.597 -27.966  15.772  1.00  0.00     0.182 A 
ATOM     25  H5  UNL     1     -31.607 -28.261  15.132  1.00  0.00     0.167 HD
HETATM   26  N6  UNL     1     -34.079 -27.062  16.641  1.00  0.00    -0.335 N 
ATOM     27  H6  UNL     1     -35.062 -26.980  16.902  1.00  0.00     0.168 HD
HETATM   28  N7  UNL     1     -33.046 -25.248  18.000  1.00  0.00    -0.224 N 
BRANCH  28  29
HETATM   29  N8  UNL     1     -34.214 -24.804  18.608  1.00  0.00    -0.335 N 
ATOM     30  H82 UNL     1     -35.098 -25.269  18.401  1.00  0.00     0.177 HD
ATOM     31  H81 UNL     1     -34.140 -24.016  19.251  1.00  0.00     0.177 HD
ENDBRANCH  28  29
ENDBRANCH   9  16
BRANCH  12  32
HETATM   32  N10 UNL     1     -32.273 -22.740  22.701  1.00  0.00    -0.384 N 
ATOM     33 2H10 UNL     1     -31.495 -22.570  23.338  1.00  0.00     0.157 HD
ATOM     34 1H10 UNL     1     -33.192 -23.005  23.055  1.00  0.00     0.157 HD
ENDBRANCH  12  32
BRANCH   1  35
HETATM   35  C5  UNL     1     -31.330 -17.819  22.002  1.00  0.00     0.245 C 
BRANCH  35  36
HETATM   36  O4  UNL     1     -30.285 -17.689  22.813  1.00  0.00    -0.312 OA
BRANCH  36  37
HETATM   37  C4  UNL     1     -30.232 -17.065  23.974  1.00  0.00     0.295 C 
BRANCH  37  38
HETATM   38  C3  UNL     1     -30.507 -18.034  25.119  1.00  0.00     0.201 C 
BRANCH  38  39
HETATM   39  C2  UNL     1     -30.398 -17.415  26.471  1.00  0.00     0.147 C 
HETATM   40  C1  UNL     1     -31.358 -17.960  27.496  1.00  0.00     0.042 C 
BRANCH  39  41
HETATM   41  O1  UNL     1     -30.709 -16.043  26.315  1.00  0.00    -0.393 OA
ATOM     42  H1  UNL     1     -29.934 -15.558  26.574  1.00  0.00     0.210 HD
ENDBRANCH  39  41
ENDBRANCH  38  39
BRANCH  38  43
HETATM   43  O2  UNL     1     -31.783 -18.570  24.912  1.00  0.00    -0.388 OA
ATOM     44  H2  UNL     1     -32.279 -18.044  24.295  1.00  0.00     0.210 HD
ENDBRANCH  38  43
ENDBRANCH  37  38
BRANCH  37  45
HETATM   45  O3  UNL     1     -29.025 -16.373  24.223  1.00  0.00    -0.368 OA
ATOM     46  H3  UNL     1     -28.865 -16.340  25.158  1.00  0.00     0.212 HD
ENDBRANCH  37  45
ENDBRANCH  36  37
ENDBRANCH  35  36
ENDBRANCH   1  35
TORSDOF 11
ENDMDL
MODEL 4
REMARK VINA RESULT: -8.284246036      2.739      9.774
REMARK  11 active torsions:
REMARK  status: ('A' for Active; 'I' for Inactive)
REMARK    1  A    between atoms: C2_2  and  O1_3 
REMARK    2  A    between atoms: C2_2  and  C3_5 
REMARK    3  A    between atoms: C3_5  and  O2_6 
REMARK    4  A    between atoms: C3_5  and  C4_8 
REMARK    5  A    between atoms: C4_8  and  O3_9 
REMARK    6  A    between atoms: C4_8  and  O4_11 
REMARK    7  A    between atoms: O4_11  and  C5_12 
REMARK    8  A    between atoms: C5_12  and  N1_13 
REMARK    9  A    between atoms: C8_21  and  C9_22 
REMARK   10  A    between atoms: N7_34  and  N8_35 
REMARK   11  A    between atoms: C14_40  and  N10_41 
ROOT
HETATM    1  N1  UNL     1     -31.970 -25.871  17.355  1.00  0.00    -0.219 N 
HETATM    2  C6  UNL     1     -30.688 -25.399  17.277  1.00  0.00     0.336 A 
HETATM    3  O5  UNL     1     -29.801 -26.090  16.690  1.00  0.00    -0.246 OA
HETATM    4  N2  UNL     1     -30.379 -24.224  17.817  1.00  0.00    -0.293 N 
ATOM      5  H2  UNL     1     -29.422 -23.878  17.755  1.00  0.00     0.172 HD
HETATM    6  C7  UNL     1     -31.317 -23.482  18.445  1.00  0.00     0.130 A 
HETATM    7  N3  UNL     1     -31.035 -22.291  18.999  1.00  0.00    -0.324 N 
ATOM      8  H3  UNL     1     -30.074 -21.955  18.930  1.00  0.00     0.169 HD
HETATM    9  C8  UNL     1     -31.923 -21.510  19.636  1.00  0.00     0.155 A 
HETATM   10  N9  UNL     1     -33.190 -21.949  19.729  1.00  0.00    -0.325 N 
ATOM     11  H9  UNL     1     -33.889 -21.380  20.206  1.00  0.00     0.169 HD
HETATM   12  C14 UNL     1     -33.546 -23.140  19.194  1.00  0.00     0.120 A 
HETATM   13  C15 UNL     1     -32.625 -23.928  18.545  1.00  0.00     0.120 A 
HETATM   14  C16 UNL     1     -32.918 -25.153  17.976  1.00  0.00     0.274 A 
HETATM   15  O7  UNL     1     -34.115 -25.525  18.093  1.00  0.00    -0.266 OA
ENDROOT
BRANCH   9  16
HETATM   16  C9  UNL     1     -31.492 -20.232  20.197  1.00  0.00     0.176 A 
HETATM   17  N4  UNL     1     -31.232 -19.197  19.382  1.00  0.00    -0.303 N 
HETATM   18  C10 UNL     1     -30.827 -17.985  19.855  1.00  0.00     0.277 A 
ATOM     19  H4  UNL     1     -31.341 -19.322  18.376  1.00  0.00     0.171 HD
HETATM   20  O6  UNL     1     -30.584 -17.020  19.085  1.00  0.00    -0.265 OA
HETATM   21  C11 UNL     1     -30.674 -17.798  21.213  1.00  0.00     0.148 A 
HETATM   22  N5  UNL     1     -30.301 -16.758  21.983  1.00  0.00    -0.345 N 
HETATM   23  C13 UNL     1     -30.940 -18.858  22.047  1.00  0.00     0.162 A 
HETATM   24  C12 UNL     1     -30.321 -17.124  23.285  1.00  0.00     0.182 A 
ATOM     25  H5  UNL     1     -30.041 -15.834  21.637  1.00  0.00     0.167 HD
HETATM   26  N6  UNL     1     -30.714 -18.409  23.295  1.00  0.00    -0.335 N 
ATOM     27  H6  UNL     1     -30.827 -18.972  24.138  1.00  0.00     0.168 HD
HETATM   28  N7  UNL     1     -31.339 -20.039  21.517  1.00  0.00    -0.224 N 
BRANCH  28  29
HETATM   29  N8  UNL     1     -31.610 -21.112  22.358  1.00  0.00    -0.335 N 
ATOM     30  H82 UNL     1     -32.460 -21.110  22.921  1.00  0.00     0.177 HD
ATOM     31  H81 UNL     1     -30.933 -21.876  22.379  1.00  0.00     0.177 HD
ENDBRANCH  28  29
ENDBRANCH   9  16
BRANCH  12  32
HETATM   32  N10 UNL     1     -34.773 -23.585  19.273  1.00  0.00    -0.384 N 
ATOM     33 2H10 UNL     1     -35.488 -22.941  19.610  1.00  0.00     0.157 HD
ATOM     34 1H10 UNL     1     -35.011 -24.541  19.009  1.00  0.00     0.157 HD
ENDBRANCH  12  32
BRANCH   1  35
HETATM   35  C5  UNL     1     -32.198 -27.158  16.782  1.00  0.00     0.245 C 
BRANCH  35  36
HETATM   36  O4  UNL     1     -33.072 -27.202  15.782  1.00  0.00    -0.312 OA
BRANCH  36  37
HETATM   37  C4  UNL     1     -34.254 -27.789  15.763  1.00  0.00     0.295 C 
BRANCH  37  38
HETATM   38  C3  UNL     1     -34.496 -28.552  17.062  1.00  0.00     0.201 C 
BRANCH  38  39
HETATM   39  C2  UNL     1     -35.861 -28.356  17.628  1.00  0.00     0.147 C 
HETATM   40  C1  UNL     1     -35.973 -28.604  19.110  1.00  0.00     0.042 C 
BRANCH  39  41
HETATM   41  O1  UNL     1     -36.704 -29.301  16.995  1.00  0.00    -0.393 OA
ATOM     42  H1  UNL     1     -36.316 -29.485  16.147  1.00  0.00     0.210 HD
ENDBRANCH  39  41
ENDBRANCH  38  39
BRANCH  38  43
HETATM   43  O2  UNL     1     -34.249 -29.904  16.801  1.00  0.00    -0.388 OA
ATOM     44  H2  UNL     1     -33.385 -30.158  17.103  1.00  0.00     0.210 HD
ENDBRANCH  38  43
ENDBRANCH  37  38
BRANCH  37  45
HETATM   45  O3  UNL     1     -35.343 -26.924  15.515  1.00  0.00    -0.368 OA
ATOM     46  H3  UNL     1     -35.020 -26.046  15.348  1.00  0.00     0.212 HD
ENDBRANCH  37  45
ENDBRANCH  36  37
ENDBRANCH  35  36
ENDBRANCH   1  35
TORSDOF 11
ENDMDL
MODEL 5
REMARK VINA RESULT: -8.137686849      2.765      4.238
REMARK  11 active torsions:
REMARK  status: ('A' for Active; 'I' for Inactive)
REMARK    1  A    between atoms: C2_2  and  O1_3 
REMARK    2  A    between atoms: C2_2  and  C3_5 
REMARK    3  A    between atoms: C3_5  and  O2_6 
REMARK    4  A    between atoms: C3_5  and  C4_8 
REMARK    5  A    between atoms: C4_8  and  O3_9 
REMARK    6  A    between atoms: C4_8  and  O4_11 
REMARK    7  A    between atoms: O4_11  and  C5_12 
REMARK    8  A    between atoms: C5_12  and  N1_13 
REMARK    9  A    between atoms: C8_21  and  C9_22 
REMARK   10  A    between atoms: N7_34  and  N8_35 
REMARK   11  A    between atoms: C14_40  and  N10_41 
ROOT
HETATM    1  N1  UNL     1     -32.611 -20.716  20.400  1.00  0.00    -0.219 N 
HETATM    2  C6  UNL     1     -33.971 -20.741  20.540  1.00  0.00     0.336 A 
HETATM    3  O5  UNL     1     -34.557 -19.790  21.143  1.00  0.00    -0.246 OA
HETATM    4  N2  UNL     1     -34.672 -21.759  20.048  1.00  0.00    -0.293 N 
ATOM      5  H2  UNL     1     -35.686 -21.771  20.156  1.00  0.00     0.172 HD
HETATM    6  C7  UNL     1     -34.058 -22.776  19.406  1.00  0.00     0.130 A 
HETATM    7  N3  UNL     1     -34.739 -23.816  18.897  1.00  0.00    -0.324 N 
ATOM      8  H3  UNL     1     -35.753 -23.817  19.010  1.00  0.00     0.169 HD
HETATM    9  C8  UNL     1     -34.184 -24.855  18.251  1.00  0.00     0.155 A 
HETATM   10  N9  UNL     1     -32.848 -24.858  18.099  1.00  0.00    -0.325 N 
ATOM     11  H9  UNL     1     -32.396 -25.632  17.613  1.00  0.00     0.169 HD
HETATM   12  C14 UNL     1     -32.099 -23.842  18.586  1.00  0.00     0.120 A 
HETATM   13  C15 UNL     1     -32.682 -22.786  19.246  1.00  0.00     0.120 A 
HETATM   14  C16 UNL     1     -31.978 -21.717  19.768  1.00  0.00     0.274 A 
HETATM   15  O7  UNL     1     -30.731 -21.766  19.607  1.00  0.00    -0.266 OA
ENDROOT
BRANCH   9  16
HETATM   16  C9  UNL     1     -35.034 -25.928  17.742  1.00  0.00     0.176 A 
HETATM   17  N4  UNL     1     -35.475 -25.890  16.474  1.00  0.00    -0.303 N 
HETATM   18  C10 UNL     1     -36.271 -26.865  15.952  1.00  0.00     0.277 A 
ATOM     19  H4  UNL     1     -35.206 -25.104  15.883  1.00  0.00     0.171 HD
HETATM   20  O6  UNL     1     -36.680 -26.821  14.764  1.00  0.00    -0.265 OA
HETATM   21  C11 UNL     1     -36.645 -27.935  16.738  1.00  0.00     0.148 A 
HETATM   22  N5  UNL     1     -37.398 -29.033  16.536  1.00  0.00    -0.345 N 
HETATM   23  C13 UNL     1     -36.193 -27.974  18.036  1.00  0.00     0.162 A 
HETATM   24  C12 UNL     1     -37.440 -29.772  17.668  1.00  0.00     0.182 A 
ATOM     25  H5  UNL     1     -37.866 -29.271  15.661  1.00  0.00     0.167 HD
HETATM   26  N6  UNL     1     -36.697 -29.103  18.566  1.00  0.00    -0.335 N 
ATOM     27  H6  UNL     1     -36.537 -29.411  19.525  1.00  0.00     0.168 HD
HETATM   28  N7  UNL     1     -35.405 -26.975  18.498  1.00  0.00    -0.224 N 
BRANCH  28  29
HETATM   29  N8  UNL     1     -34.947 -27.012  19.810  1.00  0.00    -0.335 N 
ATOM     30  H82 UNL     1     -35.022 -26.180  20.394  1.00  0.00     0.177 HD
ATOM     31  H81 UNL     1     -34.544 -27.889  20.143  1.00  0.00     0.177 HD
ENDBRANCH  28  29
ENDBRANCH   9  16
BRANCH  12  32
HETATM   32  N10 UNL     1     -30.799 -23.826  18.449  1.00  0.00    -0.384 N 
ATOM     33 2H10 UNL     1     -30.333 -24.713  18.262  1.00  0.00     0.157 HD
ATOM     34 1H10 UNL     1     -30.265 -22.960  18.527  1.00  0.00     0.157 HD
ENDBRANCH  12  32
BRANCH   1  35
HETATM   35  C5  UNL     1     -31.942 -19.605  20.994  1.00  0.00     0.245 C 
BRANCH  35  36
HETATM   36  O4  UNL     1     -31.672 -18.588  20.183  1.00  0.00    -0.312 OA
BRANCH  36  37
HETATM   37  C4  UNL     1     -30.625 -18.435  19.395  1.00  0.00     0.295 C 
BRANCH  37  38
HETATM   38  C3  UNL     1     -30.314 -16.955  19.195  1.00  0.00     0.201 C 
BRANCH  38  39
HETATM   39  C2  UNL     1     -31.126 -16.048  20.057  1.00  0.00     0.147 C 
HETATM   40  C1  UNL     1     -31.128 -14.604  19.631  1.00  0.00     0.042 C 
BRANCH  39  41
HETATM   41  O1  UNL     1     -30.546 -16.089  21.347  1.00  0.00    -0.393 OA
ATOM     42  H1  UNL     1     -31.131 -16.604  21.892  1.00  0.00     0.210 HD
ENDBRANCH  39  41
ENDBRANCH  38  39
BRANCH  38  43
HETATM   43  O2  UNL     1     -28.946 -16.782  19.430  1.00  0.00    -0.388 OA
ATOM     44  H2  UNL     1     -28.428 -17.348  18.870  1.00  0.00     0.210 HD
ENDBRANCH  38  43
ENDBRANCH  37  38
BRANCH  37  45
HETATM   45  O3  UNL     1     -29.457 -19.108  19.819  1.00  0.00    -0.368 OA
ATOM     46  H3  UNL     1     -28.811 -19.093  19.123  1.00  0.00     0.212 HD
ENDBRANCH  37  45
ENDBRANCH  36  37
ENDBRANCH  35  36
ENDBRANCH   1  35
TORSDOF 11
ENDMDL
