MODEL 1
REMARK VINA RESULT: -6.452538540      0.000      0.000
REMARK  14 active torsions:
REMARK  status: ('A' for Active; 'I' for Inactive)
REMARK    1  A    between atoms: N1_1  and  C1_5 
REMARK    2  A    between atoms: C1_5  and  C2_6 
REMARK    3  A    between atoms: C4_11  and  N3_12 
REMARK    4  A    between atoms: N3_12  and  N4_14 
REMARK    5  A    between atoms: N6_19  and  N7_21 
REMARK    6  A    between atoms: C6_24  and  C7_25 
REMARK    7  A    between atoms: C9_28  and  O3_29 
REMARK    8  A    between atoms: C11_33  and  O5_34 
REMARK    9  A    between atoms: C12_36  and  O6_37 
REMARK   10  A    between atoms: O6_37  and  C13_38 
REMARK   11  A    between atoms: C13_38  and  C14_39 
REMARK   12  A    between atoms: C14_39  and  O7_40 
REMARK   13  A    between atoms: C14_39  and  C15_42 
REMARK   14  A    between atoms: C15_42  and  O8_43 
ROOT
HETATM    1  C2  UNL     1      -0.629  26.328  -6.050  1.00  0.00     0.088 A 
HETATM    2  C3  UNL     1       0.581  26.915  -5.792  1.00  0.00     0.272 A 
HETATM    3  O1  UNL     1       1.620  26.557  -6.452  1.00  0.00    -0.267 OA
HETATM    4  N2  UNL     1       0.817  27.868  -4.884  1.00  0.00    -0.153 N 
ATOM      5  H2  UNL     1       1.742  28.270  -4.735  1.00  0.00     0.187 HD
HETATM    6  C4  UNL     1      -0.269  28.255  -4.181  1.00  0.00     0.709 A 
HETATM    7  N5  UNL     1      -1.486  27.727  -4.378  1.00  0.00    -0.106 N 
HETATM    8  C5  UNL     1      -2.521  28.234  -3.607  1.00  0.00     0.163 A 
HETATM    9  N6  UNL     1      -2.232  28.989  -2.674  1.00  0.00    -0.290 N 
ATOM     10  H6  UNL     1      -1.217  29.084  -2.686  1.00  0.00     0.188 HD
HETATM   11  C6  UNL     1      -3.778  27.686  -3.872  1.00  0.00     0.106 A 
HETATM   12  C12 UNL     1      -4.012  26.687  -4.809  1.00  0.00     0.204 A 
HETATM   13  O9  UNL     1      -2.915  26.278  -5.484  1.00  0.00    -0.268 OA
HETATM   14  C16 UNL     1      -1.724  26.771  -5.288  1.00  0.00     0.188 A 
ENDROOT
BRANCH  11  15
HETATM   15  C7  UNL     1      -4.935  28.415  -3.310  1.00  0.00     0.131 A 
HETATM   16  O2  UNL     1      -5.337  28.325  -2.100  1.00  0.00    -0.316 OA
HETATM   17  C8  UNL     1      -6.364  29.024  -1.670  1.00  0.00     0.183 A 
HETATM   18  C9  UNL     1      -7.091  29.901  -2.464  1.00  0.00     0.141 A 
HETATM   19  C10 UNL     1      -6.702  30.023  -3.788  1.00  0.00     0.242 A 
HETATM   20  O4  UNL     1      -7.326  30.791  -4.563  1.00  0.00    -0.282 OA
HETATM   21  C11 UNL     1      -5.621  29.274  -4.200  1.00  0.00     0.154 A 
BRANCH  18  22
HETATM   22  O3  UNL     1      -8.151  30.644  -1.974  1.00  0.00    -0.355 OA
ATOM     23  H3  UNL     1      -8.344  31.522  -2.281  1.00  0.00     0.218 HD
ENDBRANCH  18  22
BRANCH  21  24
HETATM   24  O5  UNL     1      -5.243  29.400  -5.538  1.00  0.00    -0.355 OA
ATOM     25  H5  UNL     1      -5.882  29.401  -6.241  1.00  0.00     0.218 HD
ENDBRANCH  21  24
ENDBRANCH  11  15
BRANCH  12  26
HETATM   26  O6  UNL     1      -5.211  26.187  -5.012  1.00  0.00    -0.327 OA
BRANCH  26  27
HETATM   27  C13 UNL     1      -6.135  25.295  -5.238  1.00  0.00     0.211 C 
BRANCH  27  28
HETATM   28  C14 UNL     1      -6.511  24.265  -4.163  1.00  0.00     0.166 C 
BRANCH  28  29
HETATM   29  O7  UNL     1      -7.895  24.462  -3.895  1.00  0.00    -0.391 OA
ATOM     30  H7  UNL     1      -8.313  23.619  -4.030  1.00  0.00     0.210 HD
ENDBRANCH  28  29
BRANCH  28  31
HETATM   31  C15 UNL     1      -5.867  24.742  -2.827  1.00  0.00     0.198 C 
BRANCH  31  32
HETATM   32  O8  UNL     1      -6.722  25.651  -2.202  1.00  0.00    -0.398 OA
ATOM     33  H8  UNL     1      -6.205  26.292  -1.729  1.00  0.00     0.209 HD
ENDBRANCH  31  32
ENDBRANCH  28  31
ENDBRANCH  27  28
ENDBRANCH  26  27
ENDBRANCH  12  26
BRANCH   9  34
HETATM   34  N7  UNL     1      -2.666  29.731  -1.660  1.00  0.00    -0.344 N 
ATOM     35  H72 UNL     1      -3.601  30.024  -1.942  1.00  0.00     0.176 HD
ATOM     36  H71 UNL     1      -2.470  30.127  -0.740  1.00  0.00     0.176 HD
ENDBRANCH   9  34
BRANCH   6  37
HETATM   37  N3  UNL     1      -0.118  29.199  -3.285  1.00  0.00    -0.138 N 
ATOM     38  H3  UNL     1      -0.661  29.162  -2.422  1.00  0.00     0.205 HD
BRANCH  37  39
HETATM   39  N4  UNL     1       0.764  30.240  -3.488  1.00  0.00    -0.331 N 
ATOM     40  H42 UNL     1       1.153  30.373  -4.421  1.00  0.00     0.177 HD
ATOM     41  H41 UNL     1       1.026  30.865  -2.725  1.00  0.00     0.177 HD
ENDBRANCH  37  39
ENDBRANCH   6  37
BRANCH   1  42
HETATM   42  C1  UNL     1      -0.727  25.407  -7.180  1.00  0.00     0.278 C 
BRANCH  42  43
HETATM   43  N1  UNL     1      -1.478  25.950  -8.326  1.00  0.00    -0.075 N 
ATOM     44  H13 UNL     1      -1.035  26.800  -8.677  1.00  0.00     0.274 HD
ATOM     45  H12 UNL     1      -1.369  25.350  -9.143  1.00  0.00     0.274 HD
ATOM     46  H11 UNL     1      -2.466  26.114  -8.131  1.00  0.00     0.274 HD
ENDBRANCH  42  43
ENDBRANCH   1  42
TORSDOF 14
ENDMDL
MODEL 2
REMARK VINA RESULT: -6.104630065      3.975      5.400
REMARK  14 active torsions:
REMARK  status: ('A' for Active; 'I' for Inactive)
REMARK    1  A    between atoms: N1_1  and  C1_5 
REMARK    2  A    between atoms: C1_5  and  C2_6 
REMARK    3  A    between atoms: C4_11  and  N3_12 
REMARK    4  A    between atoms: N3_12  and  N4_14 
REMARK    5  A    between atoms: N6_19  and  N7_21 
REMARK    6  A    between atoms: C6_24  and  C7_25 
REMARK    7  A    between atoms: C9_28  and  O3_29 
REMARK    8  A    between atoms: C11_33  and  O5_34 
REMARK    9  A    between atoms: C12_36  and  O6_37 
REMARK   10  A    between atoms: O6_37  and  C13_38 
REMARK   11  A    between atoms: C13_38  and  C14_39 
REMARK   12  A    between atoms: C14_39  and  O7_40 
REMARK   13  A    between atoms: C14_39  and  C15_42 
REMARK   14  A    between atoms: C15_42  and  O8_43 
ROOT
HETATM    1  C2  UNL     1      -3.564  25.588   1.576  1.00  0.00     0.088 A 
HETATM    2  C3  UNL     1      -2.846  26.275   2.519  1.00  0.00     0.272 A 
HETATM    3  O1  UNL     1      -2.153  25.636   3.388  1.00  0.00    -0.267 OA
HETATM    4  N2  UNL     1      -2.782  27.605   2.645  1.00  0.00    -0.153 N 
ATOM      5  H2  UNL     1      -2.229  28.064   3.369  1.00  0.00     0.187 HD
HETATM    6  C4  UNL     1      -3.507  28.291   1.736  1.00  0.00     0.709 A 
HETATM    7  N5  UNL     1      -4.233  27.688   0.783  1.00  0.00    -0.106 N 
HETATM    8  C5  UNL     1      -4.909  28.511  -0.104  1.00  0.00     0.163 A 
HETATM    9  N6  UNL     1      -4.956  29.719   0.146  1.00  0.00    -0.290 N 
ATOM     10  H6  UNL     1      -4.438  29.852   1.015  1.00  0.00     0.188 HD
HETATM   11  C6  UNL     1      -5.620  27.843  -1.104  1.00  0.00     0.106 A 
HETATM   12  C12 UNL     1      -5.691  26.461  -1.220  1.00  0.00     0.204 A 
HETATM   13  O9  UNL     1      -4.993  25.779  -0.286  1.00  0.00    -0.268 OA
HETATM   14  C16 UNL     1      -4.299  26.355   0.656  1.00  0.00     0.188 A 
ENDROOT
BRANCH  11  15
HETATM   15  C7  UNL     1      -6.079  28.674  -2.238  1.00  0.00     0.131 A 
HETATM   16  O2  UNL     1      -7.104  29.438  -2.216  1.00  0.00    -0.316 OA
HETATM   17  C8  UNL     1      -7.437  30.163  -3.260  1.00  0.00     0.183 A 
HETATM   18  C9  UNL     1      -6.728  30.169  -4.454  1.00  0.00     0.141 A 
HETATM   19  C10 UNL     1      -5.616  29.348  -4.533  1.00  0.00     0.242 A 
HETATM   20  O4  UNL     1      -4.939  29.298  -5.590  1.00  0.00    -0.282 OA
HETATM   21  C11 UNL     1      -5.302  28.603  -3.417  1.00  0.00     0.154 A 
BRANCH  18  22
HETATM   22  O3  UNL     1      -7.088  30.966  -5.529  1.00  0.00    -0.355 OA
ATOM     23  H3  UNL     1      -6.800  30.787  -6.416  1.00  0.00     0.218 HD
ENDBRANCH  18  22
BRANCH  21  24
HETATM   24  O5  UNL     1      -4.182  27.773  -3.510  1.00  0.00    -0.355 OA
ATOM     25  H5  UNL     1      -3.877  27.437  -4.345  1.00  0.00     0.218 HD
ENDBRANCH  21  24
ENDBRANCH  11  15
BRANCH  12  26
HETATM   26  O6  UNL     1      -6.389  25.875  -2.169  1.00  0.00    -0.327 OA
BRANCH  26  27
HETATM   27  C13 UNL     1      -6.767  24.948  -3.005  1.00  0.00     0.211 C 
BRANCH  27  28
HETATM   28  C14 UNL     1      -5.755  23.946  -3.578  1.00  0.00     0.166 C 
BRANCH  28  29
HETATM   29  O7  UNL     1      -4.774  23.753  -2.565  1.00  0.00    -0.391 OA
ATOM     30  H7  UNL     1      -4.051  23.298  -2.981  1.00  0.00     0.210 HD
ENDBRANCH  28  29
BRANCH  28  31
HETATM   31  C15 UNL     1      -4.931  24.698  -4.665  1.00  0.00     0.198 C 
BRANCH  31  32
HETATM   32  O8  UNL     1      -5.703  25.734  -5.194  1.00  0.00    -0.398 OA
ATOM     33  H8  UNL     1      -6.215  25.403  -5.922  1.00  0.00     0.209 HD
ENDBRANCH  31  32
ENDBRANCH  28  31
ENDBRANCH  27  28
ENDBRANCH  26  27
ENDBRANCH  12  26
BRANCH   9  34
HETATM   34  N7  UNL     1      -5.387  30.922  -0.220  1.00  0.00    -0.344 N 
ATOM     35  H72 UNL     1      -6.373  30.782  -0.440  1.00  0.00     0.176 HD
ATOM     36  H71 UNL     1      -5.161  31.905  -0.373  1.00  0.00     0.176 HD
ENDBRANCH   9  34
BRANCH   6  37
HETATM   37  N3  UNL     1      -3.478  29.600   1.787  1.00  0.00    -0.138 N 
ATOM     38  H3  UNL     1      -4.016  30.140   1.109  1.00  0.00     0.205 HD
BRANCH  37  39
HETATM   39  N4  UNL     1      -2.733  30.260   2.742  1.00  0.00    -0.331 N 
ATOM     40  H42 UNL     1      -3.115  30.345   3.683  1.00  0.00     0.177 HD
ATOM     41  H41 UNL     1      -1.821  30.657   2.517  1.00  0.00     0.177 HD
ENDBRANCH  37  39
ENDBRANCH   6  37
BRANCH   1  42
HETATM   42  C1  UNL     1      -3.399  24.139   1.500  1.00  0.00     0.278 C 
BRANCH  42  43
HETATM   43  N1  UNL     1      -4.672  23.395   1.483  1.00  0.00    -0.075 N 
ATOM     44  H13 UNL     1      -4.500  22.390   1.452  1.00  0.00     0.274 HD
ATOM     45  H12 UNL     1      -5.138  23.462   2.387  1.00  0.00     0.274 HD
ATOM     46  H11 UNL     1      -5.302  23.675   0.732  1.00  0.00     0.274 HD
ENDBRANCH  42  43
ENDBRANCH   1  42
TORSDOF 14
ENDMDL
MODEL 3
REMARK VINA RESULT: -6.067422086      3.340      5.759
REMARK  14 active torsions:
REMARK  status: ('A' for Active; 'I' for Inactive)
REMARK    1  A    between atoms: N1_1  and  C1_5 
REMARK    2  A    between atoms: C1_5  and  C2_6 
REMARK    3  A    between atoms: C4_11  and  N3_12 
REMARK    4  A    between atoms: N3_12  and  N4_14 
REMARK    5  A    between atoms: N6_19  and  N7_21 
REMARK    6  A    between atoms: C6_24  and  C7_25 
REMARK    7  A    between atoms: C9_28  and  O3_29 
REMARK    8  A    between atoms: C11_33  and  O5_34 
REMARK    9  A    between atoms: C12_36  and  O6_37 
REMARK   10  A    between atoms: O6_37  and  C13_38 
REMARK   11  A    between atoms: C13_38  and  C14_39 
REMARK   12  A    between atoms: C14_39  and  O7_40 
REMARK   13  A    between atoms: C14_39  and  C15_42 
REMARK   14  A    between atoms: C15_42  and  O8_43 
ROOT
HETATM    1  C2  UNL     1      -5.811  29.308  -4.802  1.00  0.00     0.088 A 
HETATM    2  C3  UNL     1      -6.633  30.391  -4.638  1.00  0.00     0.272 A 
HETATM    3  O1  UNL     1      -7.223  30.907  -5.653  1.00  0.00    -0.267 OA
HETATM    4  N2  UNL     1      -6.904  31.005  -3.482  1.00  0.00    -0.153 N 
ATOM      5  H2  UNL     1      -7.527  31.811  -3.418  1.00  0.00     0.187 HD
HETATM    6  C4  UNL     1      -6.289  30.472  -2.404  1.00  0.00     0.709 A 
HETATM    7  N5  UNL     1      -5.472  29.412  -2.487  1.00  0.00    -0.106 N 
HETATM    8  C5  UNL     1      -4.926  28.948  -1.300  1.00  0.00     0.163 A 
HETATM    9  N6  UNL     1      -5.070  29.638  -0.287  1.00  0.00    -0.290 N 
ATOM     10  H6  UNL     1      -5.608  30.456  -0.572  1.00  0.00     0.188 HD
HETATM   11  C6  UNL     1      -4.113  27.819  -1.426  1.00  0.00     0.106 A 
HETATM   12  C12 UNL     1      -3.827  27.194  -2.633  1.00  0.00     0.204 A 
HETATM   13  O9  UNL     1      -4.416  27.754  -3.713  1.00  0.00    -0.268 OA
HETATM   14  C16 UNL     1      -5.198  28.796  -3.646  1.00  0.00     0.188 A 
ENDROOT
BRANCH  11  15
HETATM   15  C7  UNL     1      -3.782  27.115  -0.168  1.00  0.00     0.131 A 
HETATM   16  O2  UNL     1      -2.871  27.477   0.652  1.00  0.00    -0.316 OA
HETATM   17  C8  UNL     1      -2.649  26.809   1.763  1.00  0.00     0.183 A 
HETATM   18  C9  UNL     1      -3.362  25.679   2.141  1.00  0.00     0.141 A 
HETATM   19  C10 UNL     1      -4.352  25.239   1.277  1.00  0.00     0.242 A 
HETATM   20  O4  UNL     1      -5.025  24.215   1.555  1.00  0.00    -0.282 OA
HETATM   21  C11 UNL     1      -4.552  25.966   0.124  1.00  0.00     0.154 A 
BRANCH  18  22
HETATM   22  O3  UNL     1      -3.124  25.013   3.331  1.00  0.00    -0.355 OA
ATOM     23  H3  UNL     1      -3.518  24.172   3.533  1.00  0.00     0.218 HD
ENDBRANCH  18  22
BRANCH  21  24
HETATM   24  O5  UNL     1      -5.548  25.509  -0.742  1.00  0.00    -0.355 OA
ATOM     25  H5  UNL     1      -5.981  24.673  -0.610  1.00  0.00     0.218 HD
ENDBRANCH  21  24
ENDBRANCH  11  15
BRANCH  12  26
HETATM   26  O6  UNL     1      -3.041  26.142  -2.706  1.00  0.00    -0.327 OA
BRANCH  26  27
HETATM   27  C13 UNL     1      -2.603  24.974  -3.087  1.00  0.00     0.211 C 
BRANCH  27  28
HETATM   28  C14 UNL     1      -3.317  24.193  -4.199  1.00  0.00     0.166 C 
BRANCH  28  29
HETATM   29  O7  UNL     1      -3.596  25.136  -5.228  1.00  0.00    -0.391 OA
ATOM     30  H7  UNL     1      -4.541  25.221  -5.260  1.00  0.00     0.210 HD
ENDBRANCH  28  29
BRANCH  28  31
HETATM   31  C15 UNL     1      -4.750  23.868  -3.683  1.00  0.00     0.198 C 
BRANCH  31  32
HETATM   32  O8  UNL     1      -5.583  24.965  -3.910  1.00  0.00    -0.398 OA
ATOM     33  H8  UNL     1      -6.432  24.801  -3.518  1.00  0.00     0.209 HD
ENDBRANCH  31  32
ENDBRANCH  28  31
ENDBRANCH  27  28
ENDBRANCH  26  27
ENDBRANCH  12  26
BRANCH   9  34
HETATM   34  N7  UNL     1      -4.830  29.783   1.012  1.00  0.00    -0.344 N 
ATOM     35  H72 UNL     1      -3.921  29.340   1.153  1.00  0.00     0.176 HD
ATOM     36  H71 UNL     1      -5.155  30.137   1.912  1.00  0.00     0.176 HD
ENDBRANCH   9  34
BRANCH   6  37
HETATM   37  N3  UNL     1      -6.522  31.011  -1.233  1.00  0.00    -0.138 N 
ATOM     38  H3  UNL     1      -6.550  30.417  -0.404  1.00  0.00     0.205 HD
BRANCH  37  39
HETATM   39  N4  UNL     1      -6.729  32.369  -1.102  1.00  0.00    -0.331 N 
ATOM     40  H42 UNL     1      -6.810  32.932  -1.948  1.00  0.00     0.177 HD
ATOM     41  H41 UNL     1      -6.801  32.804  -0.182  1.00  0.00     0.177 HD
ENDBRANCH  37  39
ENDBRANCH   6  37
BRANCH   1  42
HETATM   42  C1  UNL     1      -5.747  28.679  -6.119  1.00  0.00     0.278 C 
BRANCH  42  43
HETATM   43  N1  UNL     1      -5.803  27.207  -6.080  1.00  0.00    -0.075 N 
ATOM     44  H13 UNL     1      -6.334  26.889  -5.268  1.00  0.00     0.274 HD
ATOM     45  H12 UNL     1      -6.401  26.850  -6.825  1.00  0.00     0.274 HD
ATOM     46  H11 UNL     1      -4.887  26.759  -6.108  1.00  0.00     0.274 HD
ENDBRANCH  42  43
ENDBRANCH   1  42
TORSDOF 14
ENDMDL
MODEL 4
REMARK VINA RESULT: -5.777865690      4.168      7.328
REMARK  14 active torsions:
REMARK  status: ('A' for Active; 'I' for Inactive)
REMARK    1  A    between atoms: N1_1  and  C1_5 
REMARK    2  A    between atoms: C1_5  and  C2_6 
REMARK    3  A    between atoms: C4_11  and  N3_12 
REMARK    4  A    between atoms: N3_12  and  N4_14 
REMARK    5  A    between atoms: N6_19  and  N7_21 
REMARK    6  A    between atoms: C6_24  and  C7_25 
REMARK    7  A    between atoms: C9_28  and  O3_29 
REMARK    8  A    between atoms: C11_33  and  O5_34 
REMARK    9  A    between atoms: C12_36  and  O6_37 
REMARK   10  A    between atoms: O6_37  and  C13_38 
REMARK   11  A    between atoms: C13_38  and  C14_39 
REMARK   12  A    between atoms: C14_39  and  O7_40 
REMARK   13  A    between atoms: C14_39  and  C15_42 
REMARK   14  A    between atoms: C15_42  and  O8_43 
ROOT
HETATM    1  C2  UNL     1      -3.819  27.742   3.133  1.00  0.00     0.088 A 
HETATM    2  C3  UNL     1      -3.983  26.438   3.517  1.00  0.00     0.272 A 
HETATM    3  O1  UNL     1      -3.882  26.117   4.755  1.00  0.00    -0.267 OA
HETATM    4  N2  UNL     1      -4.249  25.406   2.709  1.00  0.00    -0.153 N 
ATOM      5  H2  UNL     1      -4.361  24.452   3.052  1.00  0.00     0.187 HD
HETATM    6  C4  UNL     1      -4.358  25.730   1.403  1.00  0.00     0.709 A 
HETATM    7  N5  UNL     1      -4.212  26.984   0.951  1.00  0.00    -0.106 N 
HETATM    8  C5  UNL     1      -4.376  27.184  -0.410  1.00  0.00     0.163 A 
HETATM    9  N6  UNL     1      -4.456  26.188  -1.136  1.00  0.00    -0.290 N 
ATOM     10  H6  UNL     1      -4.387  25.378  -0.520  1.00  0.00     0.188 HD
HETATM   11  C6  UNL     1      -4.256  28.510  -0.832  1.00  0.00     0.106 A 
HETATM   12  C12 UNL     1      -3.967  29.574   0.013  1.00  0.00     0.204 A 
HETATM   13  O9  UNL     1      -3.823  29.239   1.314  1.00  0.00    -0.268 OA
HETATM   14  C16 UNL     1      -3.944  28.020   1.761  1.00  0.00     0.188 A 
ENDROOT
BRANCH  11  15
HETATM   15  C7  UNL     1      -4.736  28.802  -2.200  1.00  0.00     0.131 A 
HETATM   16  O2  UNL     1      -4.055  28.619  -3.267  1.00  0.00    -0.316 OA
HETATM   17  C8  UNL     1      -4.561  28.883  -4.451  1.00  0.00     0.183 A 
HETATM   18  C9  UNL     1      -5.844  29.373  -4.652  1.00  0.00     0.141 A 
HETATM   19  C10 UNL     1      -6.616  29.601  -3.525  1.00  0.00     0.242 A 
HETATM   20  O4  UNL     1      -7.783  30.056  -3.638  1.00  0.00    -0.282 OA
HETATM   21  C11 UNL     1      -6.050  29.312  -2.303  1.00  0.00     0.154 A 
BRANCH  18  22
HETATM   22  O3  UNL     1      -6.358  29.617  -5.915  1.00  0.00    -0.355 OA
ATOM     23  H3  UNL     1      -7.206  29.291  -6.192  1.00  0.00     0.218 HD
ENDBRANCH  18  22
BRANCH  21  24
HETATM   24  O5  UNL     1      -6.836  29.552  -1.174  1.00  0.00    -0.355 OA
ATOM     25  H5  UNL     1      -7.141  28.846  -0.616  1.00  0.00     0.218 HD
ENDBRANCH  21  24
ENDBRANCH  11  15
BRANCH  12  26
HETATM   26  O6  UNL     1      -3.845  30.805  -0.432  1.00  0.00    -0.327 OA
BRANCH  26  27
HETATM   27  C13 UNL     1      -4.028  32.095  -0.510  1.00  0.00     0.211 C 
BRANCH  27  28
HETATM   28  C14 UNL     1      -4.607  32.730  -1.782  1.00  0.00     0.166 C 
BRANCH  28  29
HETATM   29  O7  UNL     1      -4.080  34.050  -1.840  1.00  0.00    -0.391 OA
ATOM     30  H7  UNL     1      -4.818  34.635  -1.712  1.00  0.00     0.210 HD
ENDBRANCH  28  29
BRANCH  28  31
HETATM   31  C15 UNL     1      -6.114  33.011  -1.507  1.00  0.00     0.198 C 
BRANCH  31  32
HETATM   32  O8  UNL     1      -6.524  32.279  -0.392  1.00  0.00    -0.398 OA
ATOM     33  H8  UNL     1      -6.704  32.876   0.325  1.00  0.00     0.209 HD
ENDBRANCH  31  32
ENDBRANCH  28  31
ENDBRANCH  27  28
ENDBRANCH  26  27
ENDBRANCH  12  26
BRANCH   9  34
HETATM   34  N7  UNL     1      -4.593  25.710  -2.369  1.00  0.00    -0.344 N 
ATOM     35  H72 UNL     1      -5.561  25.391  -2.411  1.00  0.00     0.176 HD
ATOM     36  H71 UNL     1      -4.157  25.528  -3.272  1.00  0.00     0.176 HD
ENDBRANCH   9  34
BRANCH   6  37
HETATM   37  N3  UNL     1      -4.636  24.772   0.553  1.00  0.00    -0.138 N 
ATOM     38  H3  UNL     1      -4.970  25.012  -0.381  1.00  0.00     0.205 HD
BRANCH  37  39
HETATM   39  N4  UNL     1      -4.483  23.445   0.899  1.00  0.00    -0.331 N 
ATOM     40  H42 UNL     1      -5.305  22.924   1.202  1.00  0.00     0.177 HD
ATOM     41  H41 UNL     1      -3.570  22.991   0.854  1.00  0.00     0.177 HD
ENDBRANCH  37  39
ENDBRANCH   6  37
BRANCH   1  42
HETATM   42  C1  UNL     1      -3.678  28.759   4.172  1.00  0.00     0.278 C 
BRANCH  42  43
HETATM   43  N1  UNL     1      -4.769  29.750   4.188  1.00  0.00    -0.075 N 
ATOM     44  H13 UNL     1      -4.460  30.632   3.778  1.00  0.00     0.274 HD
ATOM     45  H12 UNL     1      -5.495  29.495   3.519  1.00  0.00     0.274 HD
ATOM     46  H11 UNL     1      -5.172  29.905   5.113  1.00  0.00     0.274 HD
ENDBRANCH  42  43
ENDBRANCH   1  42
TORSDOF 14
ENDMDL
MODEL 5
REMARK VINA RESULT: -5.743418449      5.191      7.973
REMARK  14 active torsions:
REMARK  status: ('A' for Active; 'I' for Inactive)
REMARK    1  A    between atoms: N1_1  and  C1_5 
REMARK    2  A    between atoms: C1_5  and  C2_6 
REMARK    3  A    between atoms: C4_11  and  N3_12 
REMARK    4  A    between atoms: N3_12  and  N4_14 
REMARK    5  A    between atoms: N6_19  and  N7_21 
REMARK    6  A    between atoms: C6_24  and  C7_25 
REMARK    7  A    between atoms: C9_28  and  O3_29 
REMARK    8  A    between atoms: C11_33  and  O5_34 
REMARK    9  A    between atoms: C12_36  and  O6_37 
REMARK   10  A    between atoms: O6_37  and  C13_38 
REMARK   11  A    between atoms: C13_38  and  C14_39 
REMARK   12  A    between atoms: C14_39  and  O7_40 
REMARK   13  A    between atoms: C14_39  and  C15_42 
REMARK   14  A    between atoms: C15_42  and  O8_43 
ROOT
HETATM    1  C2  UNL     1      -6.130  29.943  -2.860  1.00  0.00     0.088 A 
HETATM    2  C3  UNL     1      -5.181  28.989  -3.116  1.00  0.00     0.272 A 
HETATM    3  O1  UNL     1      -5.439  28.030  -3.927  1.00  0.00    -0.267 OA
HETATM    4  N2  UNL     1      -3.953  28.939  -2.590  1.00  0.00    -0.153 N 
ATOM      5  H2  UNL     1      -3.286  28.202  -2.817  1.00  0.00     0.187 HD
HETATM    6  C4  UNL     1      -3.667  29.943  -1.733  1.00  0.00     0.709 A 
HETATM    7  N5  UNL     1      -4.544  30.913  -1.434  1.00  0.00    -0.106 N 
HETATM    8  C5  UNL     1      -4.114  31.900  -0.561  1.00  0.00     0.163 A 
HETATM    9  N6  UNL     1      -3.041  31.727   0.025  1.00  0.00    -0.290 N 
ATOM     10  H6  UNL     1      -2.679  30.830  -0.298  1.00  0.00     0.188 HD
HETATM   11  C6  UNL     1      -5.043  32.911  -0.308  1.00  0.00     0.106 A 
HETATM   12  C12 UNL     1      -6.322  32.949  -0.851  1.00  0.00     0.204 A 
HETATM   13  O9  UNL     1      -6.615  31.922  -1.678  1.00  0.00    -0.268 OA
HETATM   14  C16 UNL     1      -5.777  30.964  -1.961  1.00  0.00     0.188 A 
ENDROOT
BRANCH  11  15
HETATM   15  C7  UNL     1      -4.517  34.127   0.349  1.00  0.00     0.131 A 
HETATM   16  O2  UNL     1      -4.525  34.336   1.610  1.00  0.00    -0.316 OA
HETATM   17  C8  UNL     1      -4.018  35.435   2.122  1.00  0.00     0.183 A 
HETATM   18  C9  UNL     1      -3.441  36.446   1.365  1.00  0.00     0.141 A 
HETATM   19  C10 UNL     1      -3.419  36.271  -0.009  1.00  0.00     0.242 A 
HETATM   20  O4  UNL     1      -2.922  37.155  -0.752  1.00  0.00    -0.282 OA
HETATM   21  C11 UNL     1      -3.961  35.106  -0.506  1.00  0.00     0.154 A 
BRANCH  18  22
HETATM   22  O3  UNL     1      -2.889  37.581   1.936  1.00  0.00    -0.355 OA
ATOM     23  H3  UNL     1      -2.797  38.398   1.460  1.00  0.00     0.218 HD
ENDBRANCH  18  22
BRANCH  21  24
HETATM   24  O5  UNL     1      -3.940  34.945  -1.893  1.00  0.00    -0.355 OA
ATOM     25  H5  UNL     1      -3.284  34.410  -2.325  1.00  0.00     0.218 HD
ENDBRANCH  21  24
ENDBRANCH  11  15
BRANCH  12  26
HETATM   26  O6  UNL     1      -7.171  33.913  -0.569  1.00  0.00    -0.327 OA
BRANCH  26  27
HETATM   27  C13 UNL     1      -7.852  35.016  -0.717  1.00  0.00     0.211 C 
BRANCH  27  28
HETATM   28  C14 UNL     1      -7.446  36.296   0.027  1.00  0.00     0.166 C 
BRANCH  28  29
HETATM   29  O7  UNL     1      -7.358  35.942   1.403  1.00  0.00    -0.391 OA
ATOM     30  H7  UNL     1      -7.034  36.713   1.854  1.00  0.00     0.210 HD
ENDBRANCH  28  29
BRANCH  28  31
HETATM   31  C15 UNL     1      -8.686  37.238   0.029  1.00  0.00     0.198 C 
BRANCH  31  32
HETATM   32  O8  UNL     1      -9.850  36.468   0.003  1.00  0.00    -0.398 OA
ATOM     33  H8  UNL     1     -10.370  36.712  -0.754  1.00  0.00     0.209 HD
ENDBRANCH  31  32
ENDBRANCH  28  31
ENDBRANCH  27  28
ENDBRANCH  26  27
ENDBRANCH  12  26
BRANCH   9  34
HETATM   34  N7  UNL     1      -2.151  32.199   0.893  1.00  0.00    -0.344 N 
ATOM     35  H72 UNL     1      -2.651  32.220   1.781  1.00  0.00     0.176 HD
ATOM     36  H71 UNL     1      -1.204  32.541   1.050  1.00  0.00     0.176 HD
ENDBRANCH   9  34
BRANCH   6  37
HETATM   37  N3  UNL     1      -2.475  29.970  -1.192  1.00  0.00    -0.138 N 
ATOM     38  H3  UNL     1      -2.352  30.387  -0.269  1.00  0.00     0.205 HD
BRANCH  37  39
HETATM   39  N4  UNL     1      -1.382  29.442  -1.848  1.00  0.00    -0.331 N 
ATOM     40  H42 UNL     1      -1.055  29.903  -2.696  1.00  0.00     0.177 HD
ATOM     41  H41 UNL     1      -0.908  28.609  -1.497  1.00  0.00     0.177 HD
ENDBRANCH  37  39
ENDBRANCH   6  37
BRANCH   1  42
HETATM   42  C1  UNL     1      -7.366  29.918  -3.638  1.00  0.00     0.278 C 
BRANCH  42  43
HETATM   43  N1  UNL     1      -7.176  30.233  -5.066  1.00  0.00    -0.075 N 
ATOM     44  H13 UNL     1      -6.220  30.027  -5.356  1.00  0.00     0.274 HD
ATOM     45  H12 UNL     1      -7.680  29.567  -5.651  1.00  0.00     0.274 HD
ATOM     46  H11 UNL     1      -7.429  31.191  -5.314  1.00  0.00     0.274 HD
ENDBRANCH  42  43
ENDBRANCH   1  42
TORSDOF 14
ENDMDL
