MODEL 1
REMARK VINA RESULT: -5.495438605      0.000      0.000
REMARK  15 active torsions:
REMARK  status: ('A' for Active; 'I' for Inactive)
REMARK    1  A    between atoms: C2_2  and  C3_3 
REMARK    2  A    between atoms: C3_3  and  O2_5 
REMARK    3  A    between atoms: O2_5  and  C4_6 
REMARK    4  A    between atoms: C5_7  and  N1_8 
REMARK       I    between atoms: N1_8  and  C6_10 
REMARK    5  A    between atoms: C9_14  and  O4_15 
REMARK    6  A    between atoms: C13_23  and  O6_24 
REMARK    7  A    between atoms: C13_23  and  C14_26 
REMARK    8  A    between atoms: C14_26  and  O7_27 
REMARK    9  A    between atoms: C14_26  and  C15_29 
REMARK   10  A    between atoms: C15_29  and  O8_30 
REMARK   11  A    between atoms: C16_32  and  O9_33 
REMARK   12  A    between atoms: C16_32  and  O10_35 
REMARK   13  A    between atoms: O10_35  and  N3_36 
REMARK   14  A    between atoms: N3_36  and  N4_37 
REMARK   15  A    between atoms: N3_36  and  N5_40 
ROOT
HETATM    1  C4  UNL     1      -4.738  31.905  -0.369  1.00  0.00     0.229 C 
HETATM    2  C5  UNL     1      -4.749  30.970   0.813  1.00  0.00     0.158 C 
HETATM    3  C8  UNL     1      -4.694  29.564   0.486  1.00  0.00     0.037 A 
HETATM    4  C9  UNL     1      -3.877  28.819   1.283  1.00  0.00     0.092 A 
HETATM    5  C10 UNL     1      -3.804  27.436   0.995  1.00  0.00     0.124 A 
HETATM    6  N2  UNL     1      -4.490  26.870   0.000  1.00  0.00    -0.370 N 
ATOM      7  H2  UNL     1      -4.397  25.867  -0.161  1.00  0.00     0.164 HD
HETATM    8  C11 UNL     1      -5.294  27.583  -0.788  1.00  0.00     0.125 A 
HETATM    9  C12 UNL     1      -5.397  28.945  -0.543  1.00  0.00     0.099 A 
HETATM   10  O5  UNL     1      -6.252  29.553  -1.423  1.00  0.00    -0.304 OA
HETATM   11  C13 UNL     1      -6.376  30.809  -1.994  1.00  0.00     0.258 C 
HETATM   12  C16 UNL     1      -5.915  31.980  -1.229  1.00  0.00     0.274 C 
ENDROOT
BRANCH  12  13
HETATM   13  O9  UNL     1      -5.565  32.942  -2.230  1.00  0.00    -0.358 OA
ATOM     14  H9  UNL     1      -5.334  33.722  -1.739  1.00  0.00     0.213 HD
ENDBRANCH  12  13
BRANCH  12  15
HETATM   15  O10 UNL     1      -6.970  32.606  -0.562  1.00  0.00    -0.217 OA
BRANCH  15  16
HETATM   16  N3  UNL     1      -6.781  33.888  -0.279  1.00  0.00    -0.012 NA
BRANCH  16  17
HETATM   17  N4  UNL     1      -7.008  34.034   1.117  1.00  0.00    -0.322 NA
ATOM     18  H42 UNL     1      -6.803  35.015   1.309  1.00  0.00     0.175 HD
ATOM     19  H41 UNL     1      -7.982  33.781   1.282  1.00  0.00     0.175 HD
ENDBRANCH  16  17
BRANCH  16  20
HETATM   20  N5  UNL     1      -7.718  34.736  -0.878  1.00  0.00    -0.322 NA
ATOM     21  H52 UNL     1      -7.748  34.437  -1.853  1.00  0.00     0.175 HD
ATOM     22  H51 UNL     1      -7.437  35.716  -0.882  1.00  0.00     0.175 HD
ENDBRANCH  16  20
ENDBRANCH  15  16
ENDBRANCH  12  15
BRANCH   1  23
HETATM   23  O2  UNL     1      -3.510  31.726  -1.054  1.00  0.00    -0.308 OA
BRANCH  23  24
HETATM   24  C3  UNL     1      -2.312  32.327  -0.656  1.00  0.00     0.259 C 
HETATM   25  O1  UNL     1      -2.253  33.572  -0.851  1.00  0.00    -0.265 OA
BRANCH  24  26
HETATM   26  C2  UNL     1      -1.193  31.607  -0.060  1.00  0.00     0.106 C 
HETATM   27  C1  UNL     1      -1.077  30.252  -0.704  1.00  0.00     0.015 C 
ENDBRANCH  24  26
ENDBRANCH  23  24
ENDBRANCH   1  23
BRANCH  11  28
HETATM   28  O6  UNL     1      -7.804  30.972  -2.092  1.00  0.00    -0.359 OA
ATOM     29  H6  UNL     1      -7.898  31.905  -2.241  1.00  0.00     0.213 HD
ENDBRANCH  11  28
BRANCH  11  30
HETATM   30  C14 UNL     1      -5.964  30.842  -3.456  1.00  0.00     0.210 C 
BRANCH  30  31
HETATM   31  O7  UNL     1      -4.775  30.238  -3.735  1.00  0.00    -0.388 OA
ATOM     32  H7  UNL     1      -4.814  29.293  -3.823  1.00  0.00     0.210 HD
ENDBRANCH  30  31
BRANCH  30  33
HETATM   33  C15 UNL     1      -7.062  30.221  -4.273  1.00  0.00     0.201 C 
BRANCH  33  34
HETATM   34  O8  UNL     1      -7.257  30.982  -5.413  1.00  0.00    -0.398 OA
ATOM     35  H8  UNL     1      -8.119  31.380  -5.373  1.00  0.00     0.209 HD
ENDBRANCH  33  34
ENDBRANCH  30  33
ENDBRANCH  11  30
BRANCH   2  36
HETATM   36  N1  UNL     1      -5.904  31.195   1.660  1.00  0.00    -0.350 N 
HETATM   37  C6  UNL     1      -5.872  31.355   3.064  1.00  0.00     0.214 C 
HETATM   38  C7  UNL     1      -7.129  31.579   3.849  1.00  0.00     0.117 C 
HETATM   39  O3  UNL     1      -4.819  31.325   3.746  1.00  0.00    -0.274 OA
ATOM     40  H1  UNL     1      -6.816  31.240   1.206  1.00  0.00     0.163 HD
ENDBRANCH   2  36
BRANCH   4  41
HETATM   41  O4  UNL     1      -3.155  29.336   2.307  1.00  0.00    -0.359 OA
ATOM     42  H4  UNL     1      -2.330  28.972   2.604  1.00  0.00     0.217 HD
ENDBRANCH   4  41
TORSDOF 15
ENDMDL
MODEL 2
REMARK VINA RESULT: -5.422402098      1.161      1.363
REMARK  15 active torsions:
REMARK  status: ('A' for Active; 'I' for Inactive)
REMARK    1  A    between atoms: C2_2  and  C3_3 
REMARK    2  A    between atoms: C3_3  and  O2_5 
REMARK    3  A    between atoms: O2_5  and  C4_6 
REMARK    4  A    between atoms: C5_7  and  N1_8 
REMARK       I    between atoms: N1_8  and  C6_10 
REMARK    5  A    between atoms: C9_14  and  O4_15 
REMARK    6  A    between atoms: C13_23  and  O6_24 
REMARK    7  A    between atoms: C13_23  and  C14_26 
REMARK    8  A    between atoms: C14_26  and  O7_27 
REMARK    9  A    between atoms: C14_26  and  C15_29 
REMARK   10  A    between atoms: C15_29  and  O8_30 
REMARK   11  A    between atoms: C16_32  and  O9_33 
REMARK   12  A    between atoms: C16_32  and  O10_35 
REMARK   13  A    between atoms: O10_35  and  N3_36 
REMARK   14  A    between atoms: N3_36  and  N4_37 
REMARK   15  A    between atoms: N3_36  and  N5_40 
ROOT
HETATM    1  C4  UNL     1      -4.246  30.838  -0.345  1.00  0.00     0.229 C 
HETATM    2  C5  UNL     1      -4.303  29.723   0.667  1.00  0.00     0.158 C 
HETATM    3  C8  UNL     1      -4.630  28.422   0.131  1.00  0.00     0.037 A 
HETATM    4  C9  UNL     1      -3.904  27.388   0.643  1.00  0.00     0.092 A 
HETATM    5  C10 UNL     1      -4.204  26.098   0.145  1.00  0.00     0.124 A 
HETATM    6  N2  UNL     1      -5.143  25.883  -0.778  1.00  0.00    -0.370 N 
ATOM      7  H2  UNL     1      -5.315  24.930  -1.100  1.00  0.00     0.164 HD
HETATM    8  C11 UNL     1      -5.863  26.881  -1.289  1.00  0.00     0.125 A 
HETATM    9  C12 UNL     1      -5.604  28.165  -0.830  1.00  0.00     0.099 A 
HETATM   10  O5  UNL     1      -6.411  29.090  -1.436  1.00  0.00    -0.304 OA
HETATM   11  C13 UNL     1      -6.318  30.428  -1.781  1.00  0.00     0.258 C 
HETATM   12  C16 UNL     1      -5.485  31.314  -0.951  1.00  0.00     0.274 C 
ENDROOT
BRANCH  12  13
HETATM   13  O9  UNL     1      -5.070  32.352  -1.846  1.00  0.00    -0.358 OA
ATOM     14  H9  UNL     1      -4.131  32.419  -1.712  1.00  0.00     0.213 HD
ENDBRANCH  12  13
BRANCH  12  15
HETATM   15  O10 UNL     1      -6.252  32.011  -0.014  1.00  0.00    -0.217 OA
BRANCH  15  16
HETATM   16  N3  UNL     1      -6.204  33.332  -0.112  1.00  0.00    -0.012 NA
BRANCH  16  17
HETATM   17  N4  UNL     1      -6.417  33.845   1.197  1.00  0.00    -0.322 NA
ATOM     18  H42 UNL     1      -6.550  34.848   1.061  1.00  0.00     0.175 HD
ATOM     19  H41 UNL     1      -7.242  33.371   1.565  1.00  0.00     0.175 HD
ENDBRANCH  16  17
BRANCH  16  20
HETATM   20  N5  UNL     1      -7.244  33.874  -0.875  1.00  0.00    -0.322 NA
ATOM     21  H52 UNL     1      -8.055  33.847  -0.258  1.00  0.00     0.175 HD
ATOM     22  H51 UNL     1      -7.482  33.315  -1.694  1.00  0.00     0.175 HD
ENDBRANCH  16  20
ENDBRANCH  15  16
ENDBRANCH  12  15
BRANCH   1  23
HETATM   23  O2  UNL     1      -3.210  30.538  -1.264  1.00  0.00    -0.308 OA
BRANCH  23  24
HETATM   24  C3  UNL     1      -1.863  30.442  -0.902  1.00  0.00     0.259 C 
HETATM   25  O1  UNL     1      -1.385  31.474  -0.357  1.00  0.00    -0.265 OA
BRANCH  24  26
HETATM   26  C2  UNL     1      -1.039  29.258  -1.121  1.00  0.00     0.106 C 
HETATM   27  C1  UNL     1      -1.681  28.397  -2.175  1.00  0.00     0.015 C 
ENDBRANCH  24  26
ENDBRANCH  23  24
ENDBRANCH   1  23
BRANCH  11  28
HETATM   28  O6  UNL     1      -7.665  30.899  -1.588  1.00  0.00    -0.359 OA
ATOM     29  H6  UNL     1      -7.652  31.749  -2.014  1.00  0.00     0.213 HD
ENDBRANCH  11  28
BRANCH  11  30
HETATM   30  C14 UNL     1      -6.130  30.647  -3.273  1.00  0.00     0.210 C 
BRANCH  30  31
HETATM   31  O7  UNL     1      -4.955  30.180  -3.782  1.00  0.00    -0.388 OA
ATOM     32  H7  UNL     1      -5.002  29.860  -4.676  1.00  0.00     0.210 HD
ENDBRANCH  30  31
BRANCH  30  33
HETATM   33  C15 UNL     1      -7.290  30.019  -3.995  1.00  0.00     0.201 C 
BRANCH  33  34
HETATM   34  O8  UNL     1      -7.444  30.642  -5.222  1.00  0.00    -0.398 OA
ATOM     35  H8  UNL     1      -8.351  30.906  -5.320  1.00  0.00     0.209 HD
ENDBRANCH  33  34
ENDBRANCH  30  33
ENDBRANCH  11  30
BRANCH   2  36
HETATM   36  N1  UNL     1      -5.235  30.021   1.738  1.00  0.00    -0.350 N 
HETATM   37  C6  UNL     1      -4.924  30.022   3.117  1.00  0.00     0.214 C 
HETATM   38  C7  UNL     1      -5.966  30.340   4.146  1.00  0.00     0.117 C 
HETATM   39  O3  UNL     1      -3.786  29.764   3.577  1.00  0.00    -0.274 OA
ATOM     40  H1  UNL     1      -6.193  30.248   1.474  1.00  0.00     0.163 HD
ENDBRANCH   2  36
BRANCH   4  41
HETATM   41  O4  UNL     1      -2.938  27.544   1.581  1.00  0.00    -0.359 OA
ATOM     42  H4  UNL     1      -3.095  27.466   2.514  1.00  0.00     0.217 HD
ENDBRANCH   4  41
TORSDOF 15
ENDMDL
MODEL 3
REMARK VINA RESULT: -5.403588692      3.756      6.496
REMARK  15 active torsions:
REMARK  status: ('A' for Active; 'I' for Inactive)
REMARK    1  A    between atoms: C2_2  and  C3_3 
REMARK    2  A    between atoms: C3_3  and  O2_5 
REMARK    3  A    between atoms: O2_5  and  C4_6 
REMARK    4  A    between atoms: C5_7  and  N1_8 
REMARK       I    between atoms: N1_8  and  C6_10 
REMARK    5  A    between atoms: C9_14  and  O4_15 
REMARK    6  A    between atoms: C13_23  and  O6_24 
REMARK    7  A    between atoms: C13_23  and  C14_26 
REMARK    8  A    between atoms: C14_26  and  O7_27 
REMARK    9  A    between atoms: C14_26  and  C15_29 
REMARK   10  A    between atoms: C15_29  and  O8_30 
REMARK   11  A    between atoms: C16_32  and  O9_33 
REMARK   12  A    between atoms: C16_32  and  O10_35 
REMARK   13  A    between atoms: O10_35  and  N3_36 
REMARK   14  A    between atoms: N3_36  and  N4_37 
REMARK   15  A    between atoms: N3_36  and  N5_40 
ROOT
HETATM    1  C4  UNL     1      -5.075  27.046  -2.817  1.00  0.00     0.229 C 
HETATM    2  C5  UNL     1      -4.000  26.723  -3.824  1.00  0.00     0.158 C 
HETATM    3  C8  UNL     1      -2.653  27.040  -3.409  1.00  0.00     0.037 A 
HETATM    4  C9  UNL     1      -1.717  26.102  -3.727  1.00  0.00     0.092 A 
HETATM    5  C10 UNL     1      -0.385  26.383  -3.342  1.00  0.00     0.124 A 
HETATM    6  N2  UNL     1      -0.042  27.501  -2.699  1.00  0.00    -0.370 N 
ATOM      7  H2  UNL     1       0.935  27.649  -2.445  1.00  0.00     0.164 HD
HETATM    8  C11 UNL     1      -0.944  28.429  -2.380  1.00  0.00     0.125 A 
HETATM    9  C12 UNL     1      -2.264  28.196  -2.739  1.00  0.00     0.099 A 
HETATM   10  O5  UNL     1      -3.081  29.225  -2.352  1.00  0.00    -0.304 OA
HETATM   11  C13 UNL     1      -4.408  29.364  -1.978  1.00  0.00     0.258 C 
HETATM   12  C16 UNL     1      -5.403  28.443  -2.550  1.00  0.00     0.274 C 
ENDROOT
BRANCH  12  13
HETATM   13  O9  UNL     1      -6.440  28.384  -1.565  1.00  0.00    -0.358 OA
ATOM     14  H9  UNL     1      -6.551  29.285  -1.283  1.00  0.00     0.213 HD
ENDBRANCH  12  13
BRANCH  12  15
HETATM   15  O10 UNL     1      -6.058  29.010  -3.646  1.00  0.00    -0.217 OA
BRANCH  15  16
HETATM   16  N3  UNL     1      -7.361  29.199  -3.491  1.00  0.00    -0.012 NA
BRANCH  16  17
HETATM   17  N4  UNL     1      -7.931  29.182  -4.795  1.00  0.00    -0.322 NA
ATOM     18  H42 UNL     1      -8.594  29.958  -4.794  1.00  0.00     0.175 HD
ATOM     19  H41 UNL     1      -7.160  29.305  -5.451  1.00  0.00     0.175 HD
ENDBRANCH  16  17
BRANCH  16  20
HETATM   20  N5  UNL     1      -7.687  30.460  -2.982  1.00  0.00    -0.322 NA
ATOM     21  H52 UNL     1      -6.822  30.995  -3.052  1.00  0.00     0.175 HD
ATOM     22  H51 UNL     1      -7.943  30.447  -1.994  1.00  0.00     0.175 HD
ENDBRANCH  16  20
ENDBRANCH  15  16
ENDBRANCH  12  15
BRANCH   1  23
HETATM   23  O2  UNL     1      -4.841  26.258  -1.664  1.00  0.00    -0.308 OA
BRANCH  23  24
HETATM   24  C3  UNL     1      -4.659  24.872  -1.702  1.00  0.00     0.259 C 
HETATM   25  O1  UNL     1      -5.502  24.245  -2.402  1.00  0.00    -0.265 OA
BRANCH  24  26
HETATM   26  C2  UNL     1      -3.592  24.167  -1.001  1.00  0.00     0.106 C 
HETATM   27  C1  UNL     1      -2.762  25.161  -0.235  1.00  0.00     0.015 C 
ENDBRANCH  24  26
ENDBRANCH  23  24
ENDBRANCH   1  23
BRANCH  11  28
HETATM   28  O6  UNL     1      -4.752  30.658  -2.510  1.00  0.00    -0.359 OA
ATOM     29  H6  UNL     1      -5.554  30.867  -2.047  1.00  0.00     0.213 HD
ENDBRANCH  11  28
BRANCH  11  30
HETATM   30  C14 UNL     1      -4.583  29.592  -0.486  1.00  0.00     0.210 C 
BRANCH  30  31
HETATM   31  O7  UNL     1      -3.488  29.313   0.275  1.00  0.00    -0.388 OA
ATOM     32  H7  UNL     1      -3.057  30.070   0.654  1.00  0.00     0.210 HD
ENDBRANCH  30  31
BRANCH  30  33
HETATM   33  C15 UNL     1      -5.011  31.017  -0.270  1.00  0.00     0.201 C 
BRANCH  33  34
HETATM   34  O8  UNL     1      -6.395  31.072  -0.254  1.00  0.00    -0.398 OA
ATOM     35  H8  UNL     1      -6.695  31.487  -1.053  1.00  0.00     0.209 HD
ENDBRANCH  33  34
ENDBRANCH  30  33
ENDBRANCH  11  30
BRANCH   2  36
HETATM   36  N1  UNL     1      -4.248  27.372  -5.097  1.00  0.00    -0.350 N 
HETATM   37  C6  UNL     1      -4.956  26.806  -6.181  1.00  0.00     0.214 C 
HETATM   38  C7  UNL     1      -5.153  27.564  -7.460  1.00  0.00     0.117 C 
HETATM   39  O3  UNL     1      -5.462  25.658  -6.162  1.00  0.00    -0.274 OA
ATOM     40  H1  UNL     1      -3.881  28.316  -5.220  1.00  0.00     0.163 HD
ENDBRANCH   2  36
BRANCH   4  41
HETATM   41  O4  UNL     1      -2.004  24.948  -4.378  1.00  0.00    -0.359 OA
ATOM     42  H4  UNL     1      -2.477  24.226  -3.981  1.00  0.00     0.217 HD
ENDBRANCH   4  41
TORSDOF 15
ENDMDL
MODEL 4
REMARK VINA RESULT: -5.275588559      1.192      1.311
REMARK  15 active torsions:
REMARK  status: ('A' for Active; 'I' for Inactive)
REMARK    1  A    between atoms: C2_2  and  C3_3 
REMARK    2  A    between atoms: C3_3  and  O2_5 
REMARK    3  A    between atoms: O2_5  and  C4_6 
REMARK    4  A    between atoms: C5_7  and  N1_8 
REMARK       I    between atoms: N1_8  and  C6_10 
REMARK    5  A    between atoms: C9_14  and  O4_15 
REMARK    6  A    between atoms: C13_23  and  O6_24 
REMARK    7  A    between atoms: C13_23  and  C14_26 
REMARK    8  A    between atoms: C14_26  and  O7_27 
REMARK    9  A    between atoms: C14_26  and  C15_29 
REMARK   10  A    between atoms: C15_29  and  O8_30 
REMARK   11  A    between atoms: C16_32  and  O9_33 
REMARK   12  A    between atoms: C16_32  and  O10_35 
REMARK   13  A    between atoms: O10_35  and  N3_36 
REMARK   14  A    between atoms: N3_36  and  N4_37 
REMARK   15  A    between atoms: N3_36  and  N5_40 
ROOT
HETATM    1  C4  UNL     1      -4.741  32.769  -0.394  1.00  0.00     0.229 C 
HETATM    2  C5  UNL     1      -4.462  32.026   0.887  1.00  0.00     0.158 C 
HETATM    3  C8  UNL     1      -4.202  30.613   0.735  1.00  0.00     0.037 A 
HETATM    4  C9  UNL     1      -3.187  30.128   1.504  1.00  0.00     0.092 A 
HETATM    5  C10 UNL     1      -2.909  28.746   1.386  1.00  0.00     0.124 A 
HETATM    6  N2  UNL     1      -3.593  27.942   0.568  1.00  0.00    -0.370 N 
ATOM      7  H2  UNL     1      -3.347  26.952   0.524  1.00  0.00     0.164 HD
HETATM    8  C11 UNL     1      -4.588  28.398  -0.190  1.00  0.00     0.125 A 
HETATM    9  C12 UNL     1      -4.896  29.749  -0.107  1.00  0.00     0.099 A 
HETATM   10  O5  UNL     1      -5.934  30.082  -0.936  1.00  0.00    -0.304 OA
HETATM   11  C13 UNL     1      -6.334  31.207  -1.638  1.00  0.00     0.258 C 
HETATM   12  C16 UNL     1      -6.000  32.534  -1.094  1.00  0.00     0.274 C 
ENDROOT
BRANCH  12  13
HETATM   13  O9  UNL     1      -5.933  33.383  -2.245  1.00  0.00    -0.358 OA
ATOM     14  H9  UNL     1      -5.522  32.845  -2.912  1.00  0.00     0.213 HD
ENDBRANCH  12  13
BRANCH  12  15
HETATM   15  O10 UNL     1      -7.068  33.079  -0.377  1.00  0.00    -0.217 OA
BRANCH  15  16
HETATM   16  N3  UNL     1      -7.004  34.388  -0.172  1.00  0.00    -0.012 NA
BRANCH  16  17
HETATM   17  N4  UNL     1      -7.385  34.606   1.181  1.00  0.00    -0.322 NA
ATOM     18  H42 UNL     1      -8.166  33.966   1.333  1.00  0.00     0.175 HD
ATOM     19  H41 UNL     1      -6.567  34.395   1.752  1.00  0.00     0.175 HD
ENDBRANCH  16  17
BRANCH  16  20
HETATM   20  N5  UNL     1      -7.933  35.117  -0.921  1.00  0.00    -0.322 NA
ATOM     21  H52 UNL     1      -7.493  36.026  -1.059  1.00  0.00     0.175 HD
ATOM     22  H51 UNL     1      -8.809  35.289  -0.428  1.00  0.00     0.175 HD
ENDBRANCH  16  20
ENDBRANCH  15  16
ENDBRANCH  12  15
BRANCH   1  23
HETATM   23  O2  UNL     1      -3.583  32.685  -1.206  1.00  0.00    -0.308 OA
BRANCH  23  24
HETATM   24  C3  UNL     1      -2.712  33.758  -1.418  1.00  0.00     0.259 C 
HETATM   25  O1  UNL     1      -3.252  34.796  -1.889  1.00  0.00    -0.265 OA
BRANCH  24  26
HETATM   26  C2  UNL     1      -1.282  33.720  -1.132  1.00  0.00     0.106 C 
HETATM   27  C1  UNL     1      -0.889  32.316  -0.759  1.00  0.00     0.015 C 
ENDBRANCH  24  26
ENDBRANCH  23  24
ENDBRANCH   1  23
BRANCH  11  28
HETATM   28  O6  UNL     1      -7.771  31.130  -1.568  1.00  0.00    -0.359 OA
ATOM     29  H6  UNL     1      -7.960  30.330  -2.043  1.00  0.00     0.213 HD
ENDBRANCH  11  28
BRANCH  11  30
HETATM   30  C14 UNL     1      -6.096  31.091  -3.134  1.00  0.00     0.210 C 
BRANCH  30  31
HETATM   31  O7  UNL     1      -4.848  30.676  -3.490  1.00  0.00    -0.388 OA
ATOM     32  H7  UNL     1      -4.184  30.771  -2.817  1.00  0.00     0.210 HD
ENDBRANCH  30  31
BRANCH  30  33
HETATM   33  C15 UNL     1      -7.131  30.164  -3.709  1.00  0.00     0.201 C 
BRANCH  33  34
HETATM   34  O8  UNL     1      -6.970  28.909  -3.144  1.00  0.00    -0.398 OA
ATOM     35  H8  UNL     1      -6.923  28.264  -3.840  1.00  0.00     0.209 HD
ENDBRANCH  33  34
ENDBRANCH  30  33
ENDBRANCH  11  30
BRANCH   2  36
HETATM   36  N1  UNL     1      -5.540  32.189   1.844  1.00  0.00    -0.350 N 
HETATM   37  C6  UNL     1      -5.379  32.518   3.210  1.00  0.00     0.214 C 
HETATM   38  C7  UNL     1      -6.563  32.659   4.118  1.00  0.00     0.117 C 
HETATM   39  O3  UNL     1      -4.266  32.713   3.755  1.00  0.00    -0.274 OA
ATOM     40  H1  UNL     1      -6.492  32.055   1.505  1.00  0.00     0.163 HD
ENDBRANCH   2  36
BRANCH   4  41
HETATM   41  O4  UNL     1      -2.458  30.895   2.351  1.00  0.00    -0.359 OA
ATOM     42  H4  UNL     1      -1.517  30.813   2.455  1.00  0.00     0.217 HD
ENDBRANCH   4  41
TORSDOF 15
ENDMDL
MODEL 5
REMARK VINA RESULT: -5.130885198      2.469      5.441
REMARK  15 active torsions:
REMARK  status: ('A' for Active; 'I' for Inactive)
REMARK    1  A    between atoms: C2_2  and  C3_3 
REMARK    2  A    between atoms: C3_3  and  O2_5 
REMARK    3  A    between atoms: O2_5  and  C4_6 
REMARK    4  A    between atoms: C5_7  and  N1_8 
REMARK       I    between atoms: N1_8  and  C6_10 
REMARK    5  A    between atoms: C9_14  and  O4_15 
REMARK    6  A    between atoms: C13_23  and  O6_24 
REMARK    7  A    between atoms: C13_23  and  C14_26 
REMARK    8  A    between atoms: C14_26  and  O7_27 
REMARK    9  A    between atoms: C14_26  and  C15_29 
REMARK   10  A    between atoms: C15_29  and  O8_30 
REMARK   11  A    between atoms: C16_32  and  O9_33 
REMARK   12  A    between atoms: C16_32  and  O10_35 
REMARK   13  A    between atoms: O10_35  and  N3_36 
REMARK   14  A    between atoms: N3_36  and  N4_37 
REMARK   15  A    between atoms: N3_36  and  N5_40 
ROOT
HETATM    1  C4  UNL     1      -5.111  31.728   0.956  1.00  0.00     0.229 C 
HETATM    2  C5  UNL     1      -4.943  33.221   1.085  1.00  0.00     0.158 C 
HETATM    3  C8  UNL     1      -5.998  34.013   0.496  1.00  0.00     0.037 A 
HETATM    4  C9  UNL     1      -6.395  35.085   1.236  1.00  0.00     0.092 A 
HETATM    5  C10 UNL     1      -7.423  35.887   0.685  1.00  0.00     0.124 A 
HETATM    6  N2  UNL     1      -7.987  35.623  -0.495  1.00  0.00    -0.370 N 
ATOM      7  H2  UNL     1      -8.726  36.237  -0.842  1.00  0.00     0.164 HD
HETATM    8  C11 UNL     1      -7.611  34.580  -1.232  1.00  0.00     0.125 A 
HETATM    9  C12 UNL     1      -6.605  33.764  -0.732  1.00  0.00     0.099 A 
HETATM   10  O5  UNL     1      -6.318  32.734  -1.587  1.00  0.00    -0.304 OA
HETATM   11  C13 UNL     1      -5.855  31.434  -1.469  1.00  0.00     0.258 C 
HETATM   12  C16 UNL     1      -4.952  31.105  -0.353  1.00  0.00     0.274 C 
ENDROOT
BRANCH  12  13
HETATM   13  O9  UNL     1      -5.177  29.711  -0.115  1.00  0.00    -0.358 OA
ATOM     14  H9  UNL     1      -5.194  29.632   0.832  1.00  0.00     0.213 HD
ENDBRANCH  12  13
BRANCH  12  15
HETATM   15  O10 UNL     1      -3.613  31.132  -0.750  1.00  0.00    -0.217 OA
BRANCH  15  16
HETATM   16  N3  UNL     1      -3.003  29.955  -0.768  1.00  0.00    -0.012 NA
BRANCH  16  17
HETATM   17  N4  UNL     1      -1.628  30.206  -0.504  1.00  0.00    -0.322 NA
ATOM     18  H42 UNL     1      -1.620  30.636   0.422  1.00  0.00     0.175 HD
ATOM     19  H41 UNL     1      -1.155  29.303  -0.538  1.00  0.00     0.175 HD
ENDBRANCH  16  17
BRANCH  16  20
HETATM   20  N5  UNL     1      -3.013  29.339  -2.023  1.00  0.00    -0.322 NA
ATOM     21  H52 UNL     1      -3.235  28.363  -1.828  1.00  0.00     0.175 HD
ATOM     22  H51 UNL     1      -2.104  29.345  -2.487  1.00  0.00     0.175 HD
ENDBRANCH  16  20
ENDBRANCH  15  16
ENDBRANCH  12  15
BRANCH   1  23
HETATM   23  O2  UNL     1      -6.289  31.362   1.652  1.00  0.00    -0.308 OA
BRANCH  23  24
HETATM   24  C3  UNL     1      -6.423  31.450   3.041  1.00  0.00     0.259 C 
HETATM   25  O1  UNL     1      -5.702  30.646   3.695  1.00  0.00    -0.265 OA
BRANCH  24  26
HETATM   26  C2  UNL     1      -7.313  32.383   3.721  1.00  0.00     0.106 C 
HETATM   27  C1  UNL     1      -8.384  31.610   4.442  1.00  0.00     0.015 C 
ENDBRANCH  24  26
ENDBRANCH  23  24
ENDBRANCH   1  23
BRANCH  11  28
HETATM   28  O6  UNL     1      -5.051  31.276  -2.654  1.00  0.00    -0.359 OA
ATOM     29  H6  UNL     1      -5.127  30.347  -2.835  1.00  0.00     0.213 HD
ENDBRANCH  11  28
BRANCH  11  30
HETATM   30  C14 UNL     1      -6.939  30.393  -1.696  1.00  0.00     0.210 C 
BRANCH  30  31
HETATM   31  O7  UNL     1      -8.213  30.877  -1.696  1.00  0.00    -0.388 OA
ATOM     32  H7  UNL     1      -8.391  31.545  -2.348  1.00  0.00     0.210 HD
ENDBRANCH  30  31
BRANCH  30  33
HETATM   33  C15 UNL     1      -6.656  29.688  -2.993  1.00  0.00     0.201 C 
BRANCH  33  34
HETATM   34  O8  UNL     1      -5.989  28.505  -2.723  1.00  0.00    -0.398 OA
ATOM     35  H8  UNL     1      -5.871  28.026  -3.535  1.00  0.00     0.209 HD
ENDBRANCH  33  34
ENDBRANCH  30  33
ENDBRANCH  11  30
BRANCH   2  36
HETATM   36  N1  UNL     1      -3.678  33.665   0.531  1.00  0.00    -0.350 N 
HETATM   37  C6  UNL     1      -2.730  34.474   1.200  1.00  0.00     0.214 C 
HETATM   38  C7  UNL     1      -1.452  34.882   0.533  1.00  0.00     0.117 C 
HETATM   39  O3  UNL     1      -2.879  34.902   2.370  1.00  0.00    -0.274 OA
ATOM     40  H1  UNL     1      -3.453  33.371  -0.419  1.00  0.00     0.163 HD
ENDBRANCH   2  36
BRANCH   4  41
HETATM   41  O4  UNL     1      -5.861  35.403   2.441  1.00  0.00    -0.359 OA
ATOM     42  H4  UNL     1      -6.363  35.430   3.247  1.00  0.00     0.217 HD
ENDBRANCH   4  41
TORSDOF 15
ENDMDL
