MODEL 1
REMARK VINA RESULT: -6.922231055      0.000      0.000
REMARK  6 active torsions:
REMARK  status: ('A' for Active; 'I' for Inactive)
REMARK    1  A    between atoms: C2_3  and  N2_4 
REMARK    2  A    between atoms: N2_4  and  O1_6 
REMARK    3  A    between atoms: C4_12  and  N4_13 
REMARK    4  A    between atoms: N4_13  and  N5_15 
REMARK    5  A    between atoms: C5_17  and  C6_18 
REMARK    6  A    between atoms: N7_25  and  N8_26 
ROOT
HETATM    1  N1  UNL     1      -8.690 -33.015  10.488  1.00  0.00    -0.077 NA
HETATM    2  C1  UNL     1      -8.399 -31.637  10.636  1.00  0.00     0.189 A 
HETATM    3  C2  UNL     1      -7.115 -31.193  10.809  1.00  0.00     0.166 A 
HETATM    4  C3  UNL     1      -6.859 -29.867  10.950  1.00  0.00     0.291 A 
HETATM    5  O2  UNL     1      -5.684 -29.438  11.110  1.00  0.00    -0.265 OA
HETATM    6  N3  UNL     1      -7.881 -28.981  10.918  1.00  0.00    -0.151 N 
ATOM      7  H3  UNL     1      -7.696 -27.983  11.022  1.00  0.00     0.188 HD
HETATM    8  C4  UNL     1      -9.138 -29.417  10.748  1.00  0.00     0.722 A 
HETATM    9  N7  UNL     1      -9.401 -30.719  10.609  1.00  0.00    -0.075 N 
ENDROOT
BRANCH   8  10
HETATM   10  N4  UNL     1     -10.142 -28.588  10.713  1.00  0.00    -0.130 N 
ATOM     11  H4  UNL     1     -10.828 -28.637  11.466  1.00  0.00     0.205 HD
BRANCH  10  12
HETATM   12  N5  UNL     1     -10.335 -27.664   9.741  1.00  0.00    -0.297 N 
HETATM   13  C5  UNL     1     -11.351 -27.158   9.228  1.00  0.00     0.119 C 
ATOM     14  H5  UNL     1      -9.464 -27.307   9.345  1.00  0.00     0.186 HD
BRANCH  13  15
HETATM   15  C6  UNL     1     -12.736 -27.415   9.530  1.00  0.00    -0.017 A 
HETATM   16  C7  UNL     1     -13.619 -26.320   9.587  1.00  0.00     0.030 A 
HETATM   17  C8  UNL     1     -14.950 -26.463   9.866  1.00  0.00     0.088 A 
HETATM   18  N6  UNL     1     -15.447 -27.689  10.096  1.00  0.00    -0.375 N 
HETATM   19  C9  UNL     1     -14.648 -28.761  10.054  1.00  0.00     0.088 A 
ATOM     20  H6  UNL     1     -16.440 -27.804  10.304  1.00  0.00     0.164 HD
HETATM   21  C10 UNL     1     -13.296 -28.642   9.774  1.00  0.00     0.030 A 
ENDBRANCH  13  15
ENDBRANCH  10  12
ENDBRANCH   8  10
BRANCH   9  22
HETATM   22  N8  UNL     1     -10.687 -31.207  10.432  1.00  0.00    -0.323 N 
ATOM     23  H82 UNL     1     -11.043 -32.016  10.942  1.00  0.00     0.178 HD
ATOM     24  H81 UNL     1     -11.276 -30.713   9.760  1.00  0.00     0.178 HD
ENDBRANCH   9  22
BRANCH   3  25
HETATM   25  N2  UNL     1      -6.078 -32.179  10.835  1.00  0.00    -0.261 N 
ATOM     26  H2  UNL     1      -5.400 -32.228  10.074  1.00  0.00     0.194 HD
BRANCH  25  27
HETATM   27  O1  UNL     1      -6.005 -32.979  11.791  1.00  0.00    -0.289 OA
ATOM     28  H1  UNL     1      -5.230 -33.520  11.897  1.00  0.00     0.244 HD
ENDBRANCH  25  27
ENDBRANCH   3  25
TORSDOF 6
ENDMDL
MODEL 2
REMARK VINA RESULT: -6.820310207      3.485      7.435
REMARK  6 active torsions:
REMARK  status: ('A' for Active; 'I' for Inactive)
REMARK    1  A    between atoms: C2_3  and  N2_4 
REMARK    2  A    between atoms: N2_4  and  O1_6 
REMARK    3  A    between atoms: C4_12  and  N4_13 
REMARK    4  A    between atoms: N4_13  and  N5_15 
REMARK    5  A    between atoms: C5_17  and  C6_18 
REMARK    6  A    between atoms: N7_25  and  N8_26 
ROOT
HETATM    1  N1  UNL     1     -12.860 -26.846   8.982  1.00  0.00    -0.077 NA
HETATM    2  C1  UNL     1     -12.978 -28.033   9.747  1.00  0.00     0.189 A 
HETATM    3  C2  UNL     1     -14.199 -28.501  10.156  1.00  0.00     0.166 A 
HETATM    4  C3  UNL     1     -14.288 -29.639  10.889  1.00  0.00     0.291 A 
HETATM    5  O2  UNL     1     -15.403 -30.086  11.275  1.00  0.00    -0.265 OA
HETATM    6  N3  UNL     1     -13.163 -30.315  11.217  1.00  0.00    -0.151 N 
ATOM      7  H3  UNL     1     -13.223 -31.172  11.768  1.00  0.00     0.188 HD
HETATM    8  C4  UNL     1     -11.968 -29.856  10.817  1.00  0.00     0.722 A 
HETATM    9  N7  UNL     1     -11.869 -28.736  10.095  1.00  0.00    -0.075 N 
ENDROOT
BRANCH   8  10
HETATM   10  N4  UNL     1     -10.867 -30.484  11.117  1.00  0.00    -0.130 N 
ATOM     11  H4  UNL     1     -10.473 -30.338  12.046  1.00  0.00     0.205 HD
BRANCH  10  12
HETATM   12  N5  UNL     1     -10.211 -31.319  10.275  1.00  0.00    -0.297 N 
HETATM   13  C5  UNL     1      -9.027 -31.692  10.188  1.00  0.00     0.119 C 
ATOM     14  H5  UNL     1     -10.816 -31.728   9.562  1.00  0.00     0.186 HD
BRANCH  13  15
HETATM   15  C6  UNL     1      -7.904 -31.327  11.013  1.00  0.00    -0.017 A 
HETATM   16  C7  UNL     1      -7.312 -32.325  11.812  1.00  0.00     0.030 A 
HETATM   17  C8  UNL     1      -6.244 -32.074  12.628  1.00  0.00     0.088 A 
HETATM   18  N6  UNL     1      -5.729 -30.835  12.679  1.00  0.00    -0.375 N 
HETATM   19  C9  UNL     1      -6.257 -29.854  11.940  1.00  0.00     0.088 A 
ATOM     20  H6  UNL     1      -4.931 -30.642  13.285  1.00  0.00     0.164 HD
HETATM   21  C10 UNL     1      -7.339 -30.081  11.106  1.00  0.00     0.030 A 
ENDBRANCH  13  15
ENDBRANCH  10  12
ENDBRANCH   8  10
BRANCH   9  22
HETATM   22  N8  UNL     1     -10.651 -28.231   9.663  1.00  0.00    -0.323 N 
ATOM     23  H82 UNL     1     -10.531 -27.791   8.751  1.00  0.00     0.178 HD
ATOM     24  H81 UNL     1      -9.864 -28.318  10.308  1.00  0.00     0.178 HD
ENDBRANCH   9  22
BRANCH   3  25
HETATM   25  N2  UNL     1     -15.353 -27.741   9.778  1.00  0.00    -0.261 N 
ATOM     26  H2  UNL     1     -16.023 -28.127   9.114  1.00  0.00     0.194 HD
BRANCH  25  27
HETATM   27  O1  UNL     1     -15.535 -26.605  10.264  1.00  0.00    -0.289 OA
ATOM     28  H1  UNL     1     -15.521 -25.842   9.698  1.00  0.00     0.244 HD
ENDBRANCH  25  27
ENDBRANCH   3  25
TORSDOF 6
ENDMDL
MODEL 3
REMARK VINA RESULT: -6.805297407      3.476      7.330
REMARK  6 active torsions:
REMARK  status: ('A' for Active; 'I' for Inactive)
REMARK    1  A    between atoms: C2_3  and  N2_4 
REMARK    2  A    between atoms: N2_4  and  O1_6 
REMARK    3  A    between atoms: C4_12  and  N4_13 
REMARK    4  A    between atoms: N4_13  and  N5_15 
REMARK    5  A    between atoms: C5_17  and  C6_18 
REMARK    6  A    between atoms: N7_25  and  N8_26 
ROOT
HETATM    1  N1  UNL     1     -12.847 -26.857   8.969  1.00  0.00    -0.077 NA
HETATM    2  C1  UNL     1     -12.951 -28.047   9.730  1.00  0.00     0.189 A 
HETATM    3  C2  UNL     1     -14.167 -28.531  10.137  1.00  0.00     0.166 A 
HETATM    4  C3  UNL     1     -14.243 -29.673  10.866  1.00  0.00     0.291 A 
HETATM    5  O2  UNL     1     -15.353 -30.135  11.249  1.00  0.00    -0.265 OA
HETATM    6  N3  UNL     1     -13.110 -30.336  11.192  1.00  0.00    -0.151 N 
ATOM      7  H3  UNL     1     -13.160 -31.195  11.740  1.00  0.00     0.188 HD
HETATM    8  C4  UNL     1     -11.920 -29.861  10.795  1.00  0.00     0.722 A 
HETATM    9  N7  UNL     1     -11.834 -28.738  10.077  1.00  0.00    -0.075 N 
ENDROOT
BRANCH   8  10
HETATM   10  N4  UNL     1     -10.812 -30.477  11.094  1.00  0.00    -0.130 N 
ATOM     11  H4  UNL     1     -10.423 -30.332  12.025  1.00  0.00     0.205 HD
BRANCH  10  12
HETATM   12  N5  UNL     1     -10.144 -31.299  10.248  1.00  0.00    -0.297 N 
HETATM   13  C5  UNL     1      -8.962 -31.684  10.184  1.00  0.00     0.119 C 
ATOM     14  H5  UNL     1     -10.733 -31.681   9.508  1.00  0.00     0.186 HD
BRANCH  13  15
HETATM   15  C6  UNL     1      -7.858 -31.355  11.049  1.00  0.00    -0.017 A 
HETATM   16  C7  UNL     1      -7.351 -30.042  11.012  1.00  0.00     0.030 A 
HETATM   17  C8  UNL     1      -6.306 -29.636  11.794  1.00  0.00     0.088 A 
HETATM   18  N6  UNL     1      -5.732 -30.511  12.635  1.00  0.00    -0.375 N 
HETATM   19  C9  UNL     1      -6.178 -31.770  12.706  1.00  0.00     0.088 A 
ATOM     20  H6  UNL     1      -4.952 -30.215  13.223  1.00  0.00     0.164 HD
HETATM   21  C10 UNL     1      -7.234 -32.207  11.924  1.00  0.00     0.030 A 
ENDBRANCH  13  15
ENDBRANCH  10  12
ENDBRANCH   8  10
BRANCH   9  22
HETATM   22  N8  UNL     1     -10.622 -28.217   9.648  1.00  0.00    -0.323 N 
ATOM     23  H82 UNL     1     -10.426 -28.019   8.667  1.00  0.00     0.178 HD
ATOM     24  H81 UNL     1      -9.921 -28.037  10.367  1.00  0.00     0.178 HD
ENDBRANCH   9  22
BRANCH   3  25
HETATM   25  N2  UNL     1     -15.329 -27.784   9.760  1.00  0.00    -0.261 N 
ATOM     26  H2  UNL     1     -16.006 -28.184   9.110  1.00  0.00     0.194 HD
BRANCH  25  27
HETATM   27  O1  UNL     1     -15.512 -26.641  10.229  1.00  0.00    -0.289 OA
ATOM     28  H1  UNL     1     -16.387 -26.270  10.241  1.00  0.00     0.244 HD
ENDBRANCH  25  27
ENDBRANCH   3  25
TORSDOF 6
ENDMDL
MODEL 4
REMARK VINA RESULT: -6.766545231      3.461      7.315
REMARK  6 active torsions:
REMARK  status: ('A' for Active; 'I' for Inactive)
REMARK    1  A    between atoms: C2_3  and  N2_4 
REMARK    2  A    between atoms: N2_4  and  O1_6 
REMARK    3  A    between atoms: C4_12  and  N4_13 
REMARK    4  A    between atoms: N4_13  and  N5_15 
REMARK    5  A    between atoms: C5_17  and  C6_18 
REMARK    6  A    between atoms: N7_25  and  N8_26 
ROOT
HETATM    1  N1  UNL     1     -12.850 -26.922   8.906  1.00  0.00    -0.077 NA
HETATM    2  C1  UNL     1     -12.940 -28.090   9.704  1.00  0.00     0.189 A 
HETATM    3  C2  UNL     1     -14.150 -28.573  10.128  1.00  0.00     0.166 A 
HETATM    4  C3  UNL     1     -14.212 -29.693  10.893  1.00  0.00     0.291 A 
HETATM    5  O2  UNL     1     -15.315 -30.153  11.294  1.00  0.00    -0.265 OA
HETATM    6  N3  UNL     1     -13.071 -30.333  11.236  1.00  0.00    -0.151 N 
ATOM      7  H3  UNL     1     -13.111 -31.176  11.810  1.00  0.00     0.188 HD
HETATM    8  C4  UNL     1     -11.887 -29.859  10.820  1.00  0.00     0.722 A 
HETATM    9  N7  UNL     1     -11.815 -28.758  10.067  1.00  0.00    -0.075 N 
ENDROOT
BRANCH   8  10
HETATM   10  N4  UNL     1     -10.772 -30.455  11.134  1.00  0.00    -0.130 N 
ATOM     11  H4  UNL     1     -10.403 -31.149  10.485  1.00  0.00     0.205 HD
BRANCH  10  12
HETATM   12  N5  UNL     1     -10.072 -30.214  12.269  1.00  0.00    -0.297 N 
HETATM   13  C5  UNL     1      -8.864 -30.288  12.563  1.00  0.00     0.119 C 
ATOM     14  H5  UNL     1     -10.657 -29.905  13.046  1.00  0.00     0.186 HD
BRANCH  13  15
HETATM   15  C6  UNL     1      -7.757 -30.683  11.731  1.00  0.00    -0.017 A 
HETATM   16  C7  UNL     1      -6.766 -29.725  11.442  1.00  0.00     0.030 A 
HETATM   17  C8  UNL     1      -5.679 -30.005  10.662  1.00  0.00     0.088 A 
HETATM   18  N6  UNL     1      -5.537 -31.236  10.145  1.00  0.00    -0.375 N 
HETATM   19  C9  UNL     1      -6.452 -32.180  10.390  1.00  0.00     0.088 A 
ATOM     20  H6  UNL     1      -4.727 -31.452   9.562  1.00  0.00     0.164 HD
HETATM   21  C10 UNL     1      -7.562 -31.922  11.177  1.00  0.00     0.030 A 
ENDBRANCH  13  15
ENDBRANCH  10  12
ENDBRANCH   8  10
BRANCH   9  22
HETATM   22  N8  UNL     1     -10.609 -28.239   9.619  1.00  0.00    -0.323 N 
ATOM     23  H82 UNL     1     -10.456 -27.239   9.491  1.00  0.00     0.178 HD
ATOM     24  H81 UNL     1      -9.867 -28.910   9.419  1.00  0.00     0.178 HD
ENDBRANCH   9  22
BRANCH   3  25
HETATM   25  N2  UNL     1     -15.320 -27.849   9.733  1.00  0.00    -0.261 N 
ATOM     26  H2  UNL     1     -16.018 -28.294   9.136  1.00  0.00     0.194 HD
BRANCH  25  27
HETATM   27  O1  UNL     1     -15.484 -26.674  10.120  1.00  0.00    -0.289 OA
ATOM     28  H1  UNL     1     -15.644 -25.985   9.485  1.00  0.00     0.244 HD
ENDBRANCH  25  27
ENDBRANCH   3  25
TORSDOF 6
ENDMDL
MODEL 5
REMARK VINA RESULT: -6.725289520      3.464      7.365
REMARK  6 active torsions:
REMARK  status: ('A' for Active; 'I' for Inactive)
REMARK    1  A    between atoms: C2_3  and  N2_4 
REMARK    2  A    between atoms: N2_4  and  O1_6 
REMARK    3  A    between atoms: C4_12  and  N4_13 
REMARK    4  A    between atoms: N4_13  and  N5_15 
REMARK    5  A    between atoms: C5_17  and  C6_18 
REMARK    6  A    between atoms: N7_25  and  N8_26 
ROOT
HETATM    1  N1  UNL     1     -12.845 -26.919   8.909  1.00  0.00    -0.077 NA
HETATM    2  C1  UNL     1     -12.938 -28.084   9.709  1.00  0.00     0.189 A 
HETATM    3  C2  UNL     1     -14.150 -28.566  10.131  1.00  0.00     0.166 A 
HETATM    4  C3  UNL     1     -14.215 -29.684  10.898  1.00  0.00     0.291 A 
HETATM    5  O2  UNL     1     -15.320 -30.143  11.296  1.00  0.00    -0.265 OA
HETATM    6  N3  UNL     1     -13.076 -30.324  11.247  1.00  0.00    -0.151 N 
ATOM      7  H3  UNL     1     -13.118 -31.165  11.823  1.00  0.00     0.188 HD
HETATM    8  C4  UNL     1     -11.890 -29.852  10.834  1.00  0.00     0.722 A 
HETATM    9  N7  UNL     1     -11.815 -28.752  10.079  1.00  0.00    -0.075 N 
ENDROOT
BRANCH   8  10
HETATM   10  N4  UNL     1     -10.777 -30.447  11.154  1.00  0.00    -0.130 N 
ATOM     11  H4  UNL     1     -10.395 -31.128  10.498  1.00  0.00     0.205 HD
BRANCH  10  12
HETATM   12  N5  UNL     1     -10.093 -30.221  12.302  1.00  0.00    -0.297 N 
HETATM   13  C5  UNL     1      -8.886 -30.261  12.602  1.00  0.00     0.119 C 
ATOM     14  H5  UNL     1     -10.695 -29.963  13.085  1.00  0.00     0.186 HD
BRANCH  13  15
HETATM   15  C6  UNL     1      -7.759 -30.583  11.764  1.00  0.00    -0.017 A 
HETATM   16  C7  UNL     1      -7.660 -31.892  11.255  1.00  0.00     0.030 A 
HETATM   17  C8  UNL     1      -6.628 -32.292  10.453  1.00  0.00     0.088 A 
HETATM   18  N6  UNL     1      -5.664 -31.415  10.130  1.00  0.00    -0.375 N 
HETATM   19  C9  UNL     1      -5.713 -30.159  10.591  1.00  0.00     0.088 A 
ATOM     20  H6  UNL     1      -4.891 -31.706   9.531  1.00  0.00     0.164 HD
HETATM   21  C10 UNL     1      -6.748 -29.730  11.405  1.00  0.00     0.030 A 
ENDBRANCH  13  15
ENDBRANCH  10  12
ENDBRANCH   8  10
BRANCH   9  22
HETATM   22  N8  UNL     1     -10.607 -28.234   9.633  1.00  0.00    -0.323 N 
ATOM     23  H82 UNL     1      -9.933 -27.796  10.261  1.00  0.00     0.178 HD
ATOM     24  H81 UNL     1     -10.416 -28.311   8.634  1.00  0.00     0.178 HD
ENDBRANCH   9  22
BRANCH   3  25
HETATM   25  N2  UNL     1     -15.319 -27.843   9.730  1.00  0.00    -0.261 N 
ATOM     26  H2  UNL     1     -16.009 -28.285   9.122  1.00  0.00     0.194 HD
BRANCH  25  27
HETATM   27  O1  UNL     1     -15.491 -26.671  10.125  1.00  0.00    -0.289 OA
ATOM     28  H1  UNL     1     -15.013 -25.959   9.715  1.00  0.00     0.244 HD
ENDBRANCH  25  27
ENDBRANCH   3  25
TORSDOF 6
ENDMDL
