MODEL 1
REMARK VINA RESULT: -6.185171824      0.000      0.000
REMARK  5 active torsions:
REMARK  status: ('A' for Active; 'I' for Inactive)
REMARK    1  A    between atoms: C2_2  and  C3_4 
REMARK    2  A    between atoms: N1_6  and  C4_7 
REMARK    3  A    between atoms: N4_14  and  N5_15 
REMARK    4  A    between atoms: C6_18  and  N6_19 
REMARK    5  A    between atoms: C7_22  and  C8_23 
ROOT
HETATM    1  C4  UNL     1     -11.541 -29.696  10.763  1.00  0.00     0.171 A 
HETATM    2  N2  UNL     1     -12.723 -30.228  11.112  1.00  0.00    -0.289 N 
ATOM      3  H2  UNL     1     -12.768 -31.090  11.656  1.00  0.00     0.172 HD
HETATM    4  C5  UNL     1     -13.849 -29.594  10.726  1.00  0.00     0.342 A 
HETATM    5  O2  UNL     1     -14.985 -30.045  11.023  1.00  0.00    -0.245 OA
HETATM    6  N3  UNL     1     -13.809 -28.460  10.008  1.00  0.00    -0.229 N 
ATOM      7  H3  UNL     1     -14.684 -28.012   9.736  1.00  0.00     0.194 HD
HETATM    8  N4  UNL     1     -12.671 -27.911   9.649  1.00  0.00    -0.179 N 
HETATM    9  C6  UNL     1     -11.539 -28.536  10.031  1.00  0.00     0.184 A 
ENDROOT
BRANCH   1  10
HETATM   10  N1  UNL     1     -10.302 -30.345  11.158  1.00  0.00    -0.254 N 
HETATM   11  S1  UNL     1      -9.318 -31.371  10.293  1.00  0.00     0.001 SA
HETATM   12  C3  UNL     1      -8.589 -31.200  11.811  1.00  0.00     0.102 A 
HETATM   13  C7  UNL     1      -9.565 -30.353  12.271  1.00  0.00     0.146 A 
BRANCH  12  14
HETATM   14  C2  UNL     1      -7.344 -31.785  12.363  1.00  0.00     0.166 C 
HETATM   15  C1  UNL     1      -6.079 -31.001  12.315  1.00  0.00     0.097 C 
HETATM   16  O1  UNL     1      -7.367 -32.926  12.863  1.00  0.00    -0.292 OA
ENDBRANCH  12  14
BRANCH  13  17
HETATM   17  C8  UNL     1      -9.805 -29.645  13.543  1.00  0.00     0.229 C 
HETATM   18  O3  UNL     1      -9.132 -28.643  13.824  1.00  0.00    -0.643 OA
HETATM   19  O4  UNL     1     -10.763 -30.038  14.472  1.00  0.00    -0.643 OA
ENDBRANCH  13  17
ENDBRANCH   1  10
BRANCH   9  20
HETATM   20  N6  UNL     1     -10.389 -28.019   9.691  1.00  0.00    -0.380 N 
ATOM     21  H62 UNL     1      -9.706 -27.816  10.421  1.00  0.00     0.158 HD
ATOM     22  H61 UNL     1     -10.213 -27.837   8.704  1.00  0.00     0.158 HD
ENDBRANCH   9  20
BRANCH   8  23
HETATM   23  N5  UNL     1     -12.583 -26.733   8.904  1.00  0.00    -0.322 N 
ATOM     24  H52 UNL     1     -12.811 -25.843   9.350  1.00  0.00     0.179 HD
ATOM     25  H51 UNL     1     -12.300 -26.705   7.925  1.00  0.00     0.179 HD
ENDBRANCH   8  23
TORSDOF 5
ENDMDL
MODEL 2
REMARK VINA RESULT: -5.985540330      1.417      2.133
REMARK  5 active torsions:
REMARK  status: ('A' for Active; 'I' for Inactive)
REMARK    1  A    between atoms: C2_2  and  C3_4 
REMARK    2  A    between atoms: N1_6  and  C4_7 
REMARK    3  A    between atoms: N4_14  and  N5_15 
REMARK    4  A    between atoms: C6_18  and  N6_19 
REMARK    5  A    between atoms: C7_22  and  C8_23 
ROOT
HETATM    1  C4  UNL     1     -11.089 -29.347  10.294  1.00  0.00     0.171 A 
HETATM    2  N2  UNL     1     -10.839 -28.346   9.435  1.00  0.00    -0.289 N 
ATOM      3  H2  UNL     1      -9.884 -28.130   9.148  1.00  0.00     0.172 HD
HETATM    4  C5  UNL     1     -11.881 -27.634   8.960  1.00  0.00     0.342 A 
HETATM    5  O2  UNL     1     -11.708 -26.686   8.151  1.00  0.00    -0.245 OA
HETATM    6  N3  UNL     1     -13.144 -27.903   9.326  1.00  0.00    -0.229 N 
ATOM      7  H3  UNL     1     -13.904 -27.340   8.944  1.00  0.00     0.194 HD
HETATM    8  N4  UNL     1     -13.426 -28.874  10.164  1.00  0.00    -0.179 N 
HETATM    9  C6  UNL     1     -12.392 -29.592  10.645  1.00  0.00     0.184 A 
ENDROOT
BRANCH   1  10
HETATM   10  N1  UNL     1      -9.996 -30.140  10.831  1.00  0.00    -0.254 N 
HETATM   11  S1  UNL     1      -9.013 -31.246  10.068  1.00  0.00     0.001 SA
HETATM   12  C3  UNL     1      -8.495 -31.198  11.680  1.00  0.00     0.102 A 
HETATM   13  C7  UNL     1      -9.432 -30.260  12.034  1.00  0.00     0.146 A 
BRANCH  12  14
HETATM   14  C2  UNL     1      -7.413 -31.933  12.376  1.00  0.00     0.166 C 
HETATM   15  C1  UNL     1      -6.264 -31.179  12.948  1.00  0.00     0.097 C 
HETATM   16  O1  UNL     1      -7.473 -33.173  12.475  1.00  0.00    -0.292 OA
ENDBRANCH  12  14
BRANCH  13  17
HETATM   17  C8  UNL     1      -9.775 -29.564  13.289  1.00  0.00     0.229 C 
HETATM   18  O3  UNL     1      -9.072 -28.623  13.682  1.00  0.00    -0.643 OA
HETATM   19  O4  UNL     1     -10.867 -29.904  14.081  1.00  0.00    -0.643 OA
ENDBRANCH  13  17
ENDBRANCH   1  10
BRANCH   9  20
HETATM   20  N6  UNL     1     -12.635 -30.566  11.481  1.00  0.00    -0.380 N 
ATOM     21  H62 UNL     1     -11.850 -31.042  11.925  1.00  0.00     0.158 HD
ATOM     22  H61 UNL     1     -13.607 -30.816  11.663  1.00  0.00     0.158 HD
ENDBRANCH   9  20
BRANCH   8  23
HETATM   23  N5  UNL     1     -14.725 -29.189  10.572  1.00  0.00    -0.322 N 
ATOM     24  H52 UNL     1     -15.054 -28.865  11.482  1.00  0.00     0.179 HD
ATOM     25  H51 UNL     1     -15.377 -29.733  10.006  1.00  0.00     0.179 HD
ENDBRANCH   8  23
TORSDOF 5
ENDMDL
MODEL 3
REMARK VINA RESULT: -5.759603719      2.449      3.260
REMARK  5 active torsions:
REMARK  status: ('A' for Active; 'I' for Inactive)
REMARK    1  A    between atoms: C2_2  and  C3_4 
REMARK    2  A    between atoms: N1_6  and  C4_7 
REMARK    3  A    between atoms: N4_14  and  N5_15 
REMARK    4  A    between atoms: C6_18  and  N6_19 
REMARK    5  A    between atoms: C7_22  and  C8_23 
ROOT
HETATM    1  C4  UNL     1     -10.832 -29.074  10.508  1.00  0.00     0.171 A 
HETATM    2  N2  UNL     1     -10.621 -28.172   9.536  1.00  0.00    -0.289 N 
ATOM      3  H2  UNL     1      -9.677 -27.852   9.317  1.00  0.00     0.172 HD
HETATM    4  C5  UNL     1     -11.686 -27.700   8.858  1.00  0.00     0.342 A 
HETATM    5  O2  UNL     1     -11.550 -26.854   7.937  1.00  0.00    -0.245 OA
HETATM    6  N3  UNL     1     -12.935 -28.109   9.134  1.00  0.00    -0.229 N 
ATOM      7  H3  UNL     1     -13.714 -27.727   8.597  1.00  0.00     0.194 HD
HETATM    8  N4  UNL     1     -13.179 -28.990  10.077  1.00  0.00    -0.179 N 
HETATM    9  C6  UNL     1     -12.121 -29.468  10.761  1.00  0.00     0.184 A 
ENDROOT
BRANCH   1  10
HETATM   10  N1  UNL     1      -9.712 -29.610  11.264  1.00  0.00    -0.254 N 
HETATM   11  S1  UNL     1      -9.031 -29.064  12.681  1.00  0.00     0.001 SA
HETATM   12  C3  UNL     1      -8.144 -30.436  12.238  1.00  0.00     0.102 A 
HETATM   13  C7  UNL     1      -8.891 -30.650  11.107  1.00  0.00     0.146 A 
BRANCH  12  14
HETATM   14  C2  UNL     1      -6.991 -31.102  12.890  1.00  0.00     0.166 C 
HETATM   15  C1  UNL     1      -7.233 -32.104  13.964  1.00  0.00     0.097 C 
HETATM   16  O1  UNL     1      -5.831 -30.818  12.534  1.00  0.00    -0.292 OA
ENDBRANCH  12  14
BRANCH  13  17
HETATM   17  C8  UNL     1      -8.870 -31.656  10.028  1.00  0.00     0.229 C 
HETATM   18  O3  UNL     1      -9.913 -32.250   9.721  1.00  0.00    -0.643 OA
HETATM   19  O4  UNL     1      -7.725 -31.989   9.311  1.00  0.00    -0.643 OA
ENDBRANCH  13  17
ENDBRANCH   1  10
BRANCH   9  20
HETATM   20  N6  UNL     1     -12.326 -30.346  11.706  1.00  0.00    -0.380 N 
ATOM     21  H62 UNL     1     -11.688 -31.137  11.791  1.00  0.00     0.158 HD
ATOM     22  H61 UNL     1     -13.121 -30.208  12.330  1.00  0.00     0.158 HD
ENDBRANCH   9  20
BRANCH   8  23
HETATM   23  N5  UNL     1     -14.461 -29.443  10.397  1.00  0.00    -0.322 N 
ATOM     24  H52 UNL     1     -14.760 -30.363  10.073  1.00  0.00     0.179 HD
ATOM     25  H51 UNL     1     -15.131 -28.902  10.945  1.00  0.00     0.179 HD
ENDBRANCH   8  23
TORSDOF 5
ENDMDL
MODEL 4
REMARK VINA RESULT: -5.703335575      2.113      2.563
REMARK  5 active torsions:
REMARK  status: ('A' for Active; 'I' for Inactive)
REMARK    1  A    between atoms: C2_2  and  C3_4 
REMARK    2  A    between atoms: N1_6  and  C4_7 
REMARK    3  A    between atoms: N4_14  and  N5_15 
REMARK    4  A    between atoms: C6_18  and  N6_19 
REMARK    5  A    between atoms: C7_22  and  C8_23 
ROOT
HETATM    1  C4  UNL     1     -10.612 -29.737  11.152  1.00  0.00     0.171 A 
HETATM    2  N2  UNL     1     -11.868 -30.208  11.205  1.00  0.00    -0.289 N 
ATOM      3  H2  UNL     1     -12.094 -31.031  11.763  1.00  0.00     0.172 HD
HETATM    4  C5  UNL     1     -12.823 -29.565  10.503  1.00  0.00     0.342 A 
HETATM    5  O2  UNL     1     -14.018 -29.959  10.514  1.00  0.00    -0.245 OA
HETATM    6  N3  UNL     1     -12.544 -28.480   9.762  1.00  0.00    -0.229 N 
ATOM      7  H3  UNL     1     -13.295 -28.024   9.245  1.00  0.00     0.194 HD
HETATM    8  N4  UNL     1     -11.327 -27.992   9.686  1.00  0.00    -0.179 N 
HETATM    9  C6  UNL     1     -10.365 -28.627  10.385  1.00  0.00     0.184 A 
ENDROOT
BRANCH   1  10
HETATM   10  N1  UNL     1      -9.551 -30.398  11.893  1.00  0.00    -0.254 N 
HETATM   11  S1  UNL     1      -9.116 -30.241  13.492  1.00  0.00     0.001 SA
HETATM   12  C3  UNL     1      -8.046 -31.373  12.829  1.00  0.00     0.102 A 
HETATM   13  C7  UNL     1      -8.616 -31.298  11.584  1.00  0.00     0.146 A 
BRANCH  12  14
HETATM   14  C2  UNL     1      -6.927 -32.127  13.441  1.00  0.00     0.166 C 
HETATM   15  C1  UNL     1      -5.550 -31.563  13.396  1.00  0.00     0.097 C 
HETATM   16  O1  UNL     1      -7.147 -33.225  13.987  1.00  0.00    -0.292 OA
ENDBRANCH  12  14
BRANCH  13  17
HETATM   17  C8  UNL     1      -8.355 -31.950  10.286  1.00  0.00     0.229 C 
HETATM   18  O3  UNL     1      -9.280 -32.511   9.683  1.00  0.00    -0.643 OA
HETATM   19  O4  UNL     1      -7.104 -31.975   9.678  1.00  0.00    -0.643 OA
ENDBRANCH  13  17
ENDBRANCH   1  10
BRANCH   9  20
HETATM   20  N6  UNL     1      -9.143 -28.169  10.333  1.00  0.00    -0.380 N 
ATOM     21  H62 UNL     1      -8.656 -28.165   9.437  1.00  0.00     0.158 HD
ATOM     22  H61 UNL     1      -8.716 -27.830  11.195  1.00  0.00     0.158 HD
ENDBRANCH   9  20
BRANCH   8  23
HETATM   23  N5  UNL     1     -10.992 -26.867   8.929  1.00  0.00    -0.322 N 
ATOM     24  H52 UNL     1     -10.121 -26.374   9.127  1.00  0.00     0.179 HD
ATOM     25  H51 UNL     1     -11.575 -26.499   8.177  1.00  0.00     0.179 HD
ENDBRANCH   8  23
TORSDOF 5
ENDMDL
MODEL 5
REMARK VINA RESULT: -5.429459164      2.846      6.190
REMARK  5 active torsions:
REMARK  status: ('A' for Active; 'I' for Inactive)
REMARK    1  A    between atoms: C2_2  and  C3_4 
REMARK    2  A    between atoms: N1_6  and  C4_7 
REMARK    3  A    between atoms: N4_14  and  N5_15 
REMARK    4  A    between atoms: C6_18  and  N6_19 
REMARK    5  A    between atoms: C7_22  and  C8_23 
ROOT
HETATM    1  C4  UNL     1      -9.871 -29.777  10.527  1.00  0.00     0.171 A 
HETATM    2  N2  UNL     1      -8.918 -28.899  10.878  1.00  0.00    -0.289 N 
ATOM      3  H2  UNL     1      -9.148 -27.920  11.052  1.00  0.00     0.172 HD
HETATM    4  C5  UNL     1      -7.650 -29.342  10.996  1.00  0.00     0.342 A 
HETATM    5  O2  UNL     1      -6.715 -28.566  11.323  1.00  0.00    -0.245 OA
HETATM    6  N3  UNL     1      -7.329 -30.627  10.770  1.00  0.00    -0.229 N 
ATOM      7  H3  UNL     1      -6.357 -30.921  10.869  1.00  0.00     0.194 HD
HETATM    8  N4  UNL     1      -8.234 -31.513  10.425  1.00  0.00    -0.179 N 
HETATM    9  C6  UNL     1      -9.505 -31.080  10.304  1.00  0.00     0.184 A 
ENDROOT
BRANCH   1  10
HETATM   10  N1  UNL     1     -11.251 -29.342  10.388  1.00  0.00    -0.254 N 
HETATM   11  S1  UNL     1     -12.645 -30.032  10.981  1.00  0.00     0.001 SA
HETATM   12  C3  UNL     1     -13.134 -28.650  10.133  1.00  0.00     0.102 A 
HETATM   13  C7  UNL     1     -11.850 -28.316   9.783  1.00  0.00     0.146 A 
BRANCH  12  14
HETATM   14  C2  UNL     1     -14.481 -28.077   9.902  1.00  0.00     0.166 C 
HETATM   15  C1  UNL     1     -14.659 -26.599   9.889  1.00  0.00     0.097 C 
HETATM   16  O1  UNL     1     -15.452 -28.836   9.720  1.00  0.00    -0.292 OA
ENDBRANCH  12  14
BRANCH  13  17
HETATM   17  C8  UNL     1     -11.243 -27.218   9.007  1.00  0.00     0.229 C 
HETATM   18  O3  UNL     1     -10.376 -26.502   9.529  1.00  0.00    -0.643 OA
HETATM   19  O4  UNL     1     -11.587 -26.926   7.691  1.00  0.00    -0.643 OA
ENDBRANCH  13  17
ENDBRANCH   1  10
BRANCH   9  20
HETATM   20  N6  UNL     1     -10.432 -31.934   9.962  1.00  0.00    -0.380 N 
ATOM     21  H62 UNL     1     -11.363 -31.838  10.367  1.00  0.00     0.158 HD
ATOM     22  H61 UNL     1     -10.191 -32.670   9.299  1.00  0.00     0.158 HD
ENDBRANCH   9  20
BRANCH   8  23
HETATM   23  N5  UNL     1      -7.945 -32.858  10.181  1.00  0.00    -0.322 N 
ATOM     24  H52 UNL     1      -7.145 -33.288  10.647  1.00  0.00     0.179 HD
ATOM     25  H51 UNL     1      -8.493 -33.448   9.555  1.00  0.00     0.179 HD
ENDBRANCH   8  23
TORSDOF 5
ENDMDL
