MODEL 1
REMARK VINA RESULT: -6.203700382      0.000      0.000
REMARK  5 active torsions:
REMARK  status: ('A' for Active; 'I' for Inactive)
REMARK    1  A    between atoms: C2_5  and  N3_6 
REMARK    2  A    between atoms: N3_6  and  N4_8 
REMARK    3  A    between atoms: C3_10  and  C4_11 
REMARK    4  A    between atoms: N6_17  and  N7_18 
REMARK    5  A    between atoms: C9_23  and  N8_24 
ROOT
HETATM    1  N1  UNL     1      -7.437 -29.639  14.235  1.00  0.00    -0.079 NA
HETATM    2  C1  UNL     1      -7.861 -30.216  13.000  1.00  0.00     0.170 A 
HETATM    3  N2  UNL     1      -8.506 -29.490  12.082  1.00  0.00    -0.173 N 
ATOM      4  H2  UNL     1      -8.696 -28.506  12.271  1.00  0.00     0.185 HD
HETATM    5  C2  UNL     1      -8.917 -30.029  10.900  1.00  0.00     0.722 A 
HETATM    6  N6  UNL     1      -8.687 -31.319  10.611  1.00  0.00    -0.050 N 
HETATM    7  C8  UNL     1      -8.032 -32.055  11.543  1.00  0.00     0.318 A 
HETATM    8  O1  UNL     1      -7.822 -33.262  11.263  1.00  0.00    -0.263 OA
HETATM    9  C9  UNL     1      -7.596 -31.565  12.750  1.00  0.00     0.214 A 
ENDROOT
BRANCH   5  10
HETATM   10  N3  UNL     1      -9.533 -29.282  10.053  1.00  0.00    -0.130 N 
ATOM     11  H3  UNL     1      -9.020 -28.899   9.258  1.00  0.00     0.205 HD
BRANCH  10  12
HETATM   12  N4  UNL     1     -10.867 -28.989  10.197  1.00  0.00    -0.295 N 
HETATM   13  C3  UNL     1     -11.464 -28.054   9.512  1.00  0.00     0.137 C 
ATOM     14  H4  UNL     1     -11.415 -29.527  10.868  1.00  0.00     0.186 HD
BRANCH  13  15
HETATM   15  C4  UNL     1     -12.875 -27.742   9.662  1.00  0.00     0.049 A 
HETATM   16  C5  UNL     1     -13.900 -28.637   9.884  1.00  0.00     0.032 A 
HETATM   17  C6  UNL     1     -15.102 -27.947   9.970  1.00  0.00     0.019 A 
HETATM   18  C7  UNL     1     -14.762 -26.623   9.793  1.00  0.00     0.088 A 
HETATM   19  N5  UNL     1     -13.441 -26.515   9.611  1.00  0.00    -0.365 N 
ATOM     20  H5  UNL     1     -12.938 -25.641   9.458  1.00  0.00     0.165 HD
ENDBRANCH  13  15
ENDBRANCH  10  12
ENDBRANCH   5  10
BRANCH   6  21
HETATM   21  N7  UNL     1      -9.105 -31.877   9.400  1.00  0.00    -0.321 N 
ATOM     22  H72 UNL     1      -9.862 -31.464   8.855  1.00  0.00     0.178 HD
ATOM     23  H71 UNL     1      -8.665 -32.718   9.024  1.00  0.00     0.178 HD
ENDBRANCH   6  21
BRANCH   9  24
HETATM   24  N8  UNL     1      -6.909 -32.369  13.708  1.00  0.00    -0.106 N 
HETATM   25  O2  UNL     1      -5.666 -32.461  13.666  1.00  0.00    -0.531 OA
HETATM   26  O3  UNL     1      -7.557 -33.064  14.699  1.00  0.00    -0.531 OA
ENDBRANCH   9  24
TORSDOF 5
ENDMDL
MODEL 2
REMARK VINA RESULT: -6.177471545      1.806      3.262
REMARK  5 active torsions:
REMARK  status: ('A' for Active; 'I' for Inactive)
REMARK    1  A    between atoms: C2_5  and  N3_6 
REMARK    2  A    between atoms: N3_6  and  N4_8 
REMARK    3  A    between atoms: C3_10  and  C4_11 
REMARK    4  A    between atoms: N6_17  and  N7_18 
REMARK    5  A    between atoms: C9_23  and  N8_24 
ROOT
HETATM    1  N1  UNL     1      -6.827 -33.479   8.787  1.00  0.00    -0.079 NA
HETATM    2  C1  UNL     1      -7.016 -32.777  10.016  1.00  0.00     0.170 A 
HETATM    3  N2  UNL     1      -7.209 -31.455  10.035  1.00  0.00    -0.173 N 
ATOM      4  H2  UNL     1      -7.222 -30.942   9.153  1.00  0.00     0.185 HD
HETATM    5  C2  UNL     1      -7.390 -30.773  11.201  1.00  0.00     0.722 A 
HETATM    6  N6  UNL     1      -7.380 -31.409  12.382  1.00  0.00    -0.050 N 
HETATM    7  C8  UNL     1      -7.185 -32.750  12.362  1.00  0.00     0.318 A 
HETATM    8  O1  UNL     1      -7.178 -33.336  13.474  1.00  0.00    -0.263 OA
HETATM    9  C9  UNL     1      -6.997 -33.488  11.219  1.00  0.00     0.214 A 
ENDROOT
BRANCH   5  10
HETATM   10  N3  UNL     1      -7.572 -29.500  11.159  1.00  0.00    -0.130 N 
ATOM     11  H3  UNL     1      -6.869 -28.881  11.563  1.00  0.00     0.205 HD
BRANCH  10  12
HETATM   12  N4  UNL     1      -8.693 -28.958  10.581  1.00  0.00    -0.295 N 
HETATM   13  C3  UNL     1      -9.900 -29.367  10.858  1.00  0.00     0.137 C 
ATOM     14  H4  UNL     1      -8.578 -28.202   9.906  1.00  0.00     0.186 HD
BRANCH  13  15
HETATM   15  C4  UNL     1     -11.089 -28.795  10.249  1.00  0.00     0.049 A 
HETATM   16  C5  UNL     1     -11.177 -27.594   9.578  1.00  0.00     0.032 A 
HETATM   17  C6  UNL     1     -12.483 -27.405   9.144  1.00  0.00     0.019 A 
HETATM   18  C7  UNL     1     -13.163 -28.524   9.574  1.00  0.00     0.088 A 
HETATM   19  N5  UNL     1     -12.327 -29.339  10.227  1.00  0.00    -0.365 N 
ATOM     20  H5  UNL     1     -12.584 -30.234  10.644  1.00  0.00     0.165 HD
ENDBRANCH  13  15
ENDBRANCH  10  12
ENDBRANCH   5  10
BRANCH   6  21
HETATM   21  N7  UNL     1      -7.566 -30.715  13.582  1.00  0.00    -0.321 N 
ATOM     22  H72 UNL     1      -8.471 -30.319  13.834  1.00  0.00     0.178 HD
ATOM     23  H71 UNL     1      -6.799 -30.583  14.242  1.00  0.00     0.178 HD
ENDBRANCH   6  21
BRANCH   9  24
HETATM   24  N8  UNL     1      -6.795 -34.900  11.234  1.00  0.00    -0.106 N 
HETATM   25  O2  UNL     1      -5.641 -35.363  11.323  1.00  0.00    -0.531 OA
HETATM   26  O3  UNL     1      -7.829 -35.801  11.155  1.00  0.00    -0.531 OA
ENDBRANCH   9  24
TORSDOF 5
ENDMDL
MODEL 3
REMARK VINA RESULT: -6.118524623      2.134      3.186
REMARK  5 active torsions:
REMARK  status: ('A' for Active; 'I' for Inactive)
REMARK    1  A    between atoms: C2_5  and  N3_6 
REMARK    2  A    between atoms: N3_6  and  N4_8 
REMARK    3  A    between atoms: C3_10  and  C4_11 
REMARK    4  A    between atoms: N6_17  and  N7_18 
REMARK    5  A    between atoms: C9_23  and  N8_24 
ROOT
HETATM    1  N1  UNL     1      -6.894 -33.084   8.867  1.00  0.00    -0.079 NA
HETATM    2  C1  UNL     1      -7.509 -32.123   9.724  1.00  0.00     0.170 A 
HETATM    3  N2  UNL     1      -8.838 -32.053   9.845  1.00  0.00    -0.173 N 
ATOM      4  H2  UNL     1      -9.420 -32.702   9.314  1.00  0.00     0.185 HD
HETATM    5  C2  UNL     1      -9.438 -31.140  10.659  1.00  0.00     0.722 A 
HETATM    6  N6  UNL     1      -8.710 -30.270  11.375  1.00  0.00    -0.050 N 
HETATM    7  C8  UNL     1      -7.362 -30.341  11.253  1.00  0.00     0.318 A 
HETATM    8  O1  UNL     1      -6.690 -29.520  11.928  1.00  0.00    -0.263 OA
HETATM    9  C9  UNL     1      -6.704 -31.239  10.448  1.00  0.00     0.214 A 
ENDROOT
BRANCH   5  10
HETATM   10  N3  UNL     1     -10.722 -31.119  10.737  1.00  0.00    -0.130 N 
ATOM     11  H3  UNL     1     -11.217 -31.954  11.052  1.00  0.00     0.205 HD
BRANCH  10  12
HETATM   12  N4  UNL     1     -11.440 -29.997  10.403  1.00  0.00    -0.295 N 
HETATM   13  C3  UNL     1     -12.736 -29.924  10.525  1.00  0.00     0.137 C 
ATOM     14  H4  UNL     1     -10.937 -29.185  10.045  1.00  0.00     0.186 HD
BRANCH  13  15
HETATM   15  C4  UNL     1     -13.498 -28.738  10.173  1.00  0.00     0.049 A 
HETATM   16  C5  UNL     1     -13.000 -27.555   9.670  1.00  0.00     0.032 A 
HETATM   17  C6  UNL     1     -14.048 -26.667   9.463  1.00  0.00     0.019 A 
HETATM   18  C7  UNL     1     -15.176 -27.355   9.856  1.00  0.00     0.088 A 
HETATM   19  N5  UNL     1     -14.838 -28.579  10.274  1.00  0.00    -0.365 N 
ATOM     20  H5  UNL     1     -15.489 -29.285  10.617  1.00  0.00     0.165 HD
ENDBRANCH  13  15
ENDBRANCH  10  12
ENDBRANCH   5  10
BRANCH   6  21
HETATM   21  N7  UNL     1      -9.320 -29.331  12.213  1.00  0.00    -0.321 N 
ATOM     22  H72 UNL     1     -10.276 -29.015  12.053  1.00  0.00     0.178 HD
ATOM     23  H71 UNL     1      -8.824 -28.932  13.011  1.00  0.00     0.178 HD
ENDBRANCH   6  21
BRANCH   9  24
HETATM   24  N8  UNL     1      -5.282 -31.287  10.344  1.00  0.00    -0.106 N 
HETATM   25  O2  UNL     1      -4.624 -32.000  11.126  1.00  0.00    -0.531 OA
HETATM   26  O3  UNL     1      -4.580 -30.572   9.404  1.00  0.00    -0.531 OA
ENDBRANCH   9  24
TORSDOF 5
ENDMDL
MODEL 4
REMARK VINA RESULT: -5.970638266      1.571      1.885
REMARK  5 active torsions:
REMARK  status: ('A' for Active; 'I' for Inactive)
REMARK    1  A    between atoms: C2_5  and  N3_6 
REMARK    2  A    between atoms: N3_6  and  N4_8 
REMARK    3  A    between atoms: C3_10  and  C4_11 
REMARK    4  A    between atoms: N6_17  and  N7_18 
REMARK    5  A    between atoms: C9_23  and  N8_24 
ROOT
HETATM    1  N1  UNL     1      -8.826 -28.651  13.933  1.00  0.00    -0.079 NA
HETATM    2  C1  UNL     1      -8.878 -29.482  12.774  1.00  0.00     0.170 A 
HETATM    3  N2  UNL     1     -10.038 -29.761  12.173  1.00  0.00    -0.173 N 
ATOM      4  H2  UNL     1     -10.901 -29.370  12.553  1.00  0.00     0.185 HD
HETATM    5  C2  UNL     1     -10.102 -30.554  11.066  1.00  0.00     0.722 A 
HETATM    6  N6  UNL     1      -8.992 -31.088  10.535  1.00  0.00    -0.050 N 
HETATM    7  C8  UNL     1      -7.814 -30.804  11.144  1.00  0.00     0.318 A 
HETATM    8  O1  UNL     1      -6.781 -31.310  10.638  1.00  0.00    -0.263 OA
HETATM    9  C9  UNL     1      -7.691 -30.013  12.261  1.00  0.00     0.214 A 
ENDROOT
BRANCH   5  10
HETATM   10  N3  UNL     1     -11.247 -30.789  10.530  1.00  0.00    -0.130 N 
ATOM     11  H3  UNL     1     -11.409 -31.685  10.069  1.00  0.00     0.205 HD
BRANCH  10  12
HETATM   12  N4  UNL     1     -12.256 -29.857  10.564  1.00  0.00    -0.295 N 
HETATM   13  C3  UNL     1     -12.326 -28.860   9.727  1.00  0.00     0.137 C 
ATOM     14  H4  UNL     1     -12.981 -29.950  11.274  1.00  0.00     0.186 HD
BRANCH  13  15
HETATM   15  C4  UNL     1     -13.392 -27.873   9.760  1.00  0.00     0.049 A 
HETATM   16  C5  UNL     1     -14.735 -28.114   9.963  1.00  0.00     0.032 A 
HETATM   17  C6  UNL     1     -15.427 -26.910   9.925  1.00  0.00     0.019 A 
HETATM   18  C7  UNL     1     -14.462 -25.954   9.696  1.00  0.00     0.088 A 
HETATM   19  N5  UNL     1     -13.261 -26.536   9.600  1.00  0.00    -0.365 N 
ATOM     20  H5  UNL     1     -12.382 -26.048   9.431  1.00  0.00     0.165 HD
ENDBRANCH  13  15
ENDBRANCH  10  12
ENDBRANCH   5  10
BRANCH   6  21
HETATM   21  N7  UNL     1      -9.050 -31.902   9.399  1.00  0.00    -0.321 N 
ATOM     22  H72 UNL     1      -9.940 -32.214   9.012  1.00  0.00     0.178 HD
ATOM     23  H71 UNL     1      -8.201 -32.208   8.923  1.00  0.00     0.178 HD
ENDBRANCH   6  21
BRANCH   9  24
HETATM   24  N8  UNL     1      -6.435 -29.734  12.876  1.00  0.00    -0.106 N 
HETATM   25  O2  UNL     1      -6.014 -30.467  13.792  1.00  0.00    -0.531 OA
HETATM   26  O3  UNL     1      -5.643 -28.675  12.505  1.00  0.00    -0.531 OA
ENDBRANCH   9  24
TORSDOF 5
ENDMDL
MODEL 5
REMARK VINA RESULT: -5.896488435      1.312      2.490
REMARK  5 active torsions:
REMARK  status: ('A' for Active; 'I' for Inactive)
REMARK    1  A    between atoms: C2_5  and  N3_6 
REMARK    2  A    between atoms: N3_6  and  N4_8 
REMARK    3  A    between atoms: C3_10  and  C4_11 
REMARK    4  A    between atoms: N6_17  and  N7_18 
REMARK    5  A    between atoms: C9_23  and  N8_24 
ROOT
HETATM    1  N1  UNL     1      -7.238 -33.180   8.890  1.00  0.00    -0.079 NA
HETATM    2  C1  UNL     1      -7.606 -32.312   9.962  1.00  0.00     0.170 A 
HETATM    3  N2  UNL     1      -8.173 -31.125   9.729  1.00  0.00    -0.173 N 
ATOM      4  H2  UNL     1      -8.346 -30.838   8.765  1.00  0.00     0.185 HD
HETATM    5  C2  UNL     1      -8.528 -30.288  10.743  1.00  0.00     0.722 A 
HETATM    6  N6  UNL     1      -8.319 -30.627  12.024  1.00  0.00    -0.050 N 
HETATM    7  C8  UNL     1      -7.744 -31.832  12.260  1.00  0.00     0.318 A 
HETATM    8  O1  UNL     1      -7.552 -32.139  13.464  1.00  0.00    -0.263 OA
HETATM    9  C9  UNL     1      -7.366 -32.715  11.279  1.00  0.00     0.214 A 
ENDROOT
BRANCH   5  10
HETATM   10  N3  UNL     1      -9.071 -29.156  10.459  1.00  0.00    -0.130 N 
ATOM     11  H3  UNL     1      -8.476 -28.359  10.232  1.00  0.00     0.205 HD
BRANCH  10  12
HETATM   12  N4  UNL     1     -10.435 -29.001  10.456  1.00  0.00    -0.295 N 
HETATM   13  C3  UNL     1     -11.040 -28.073   9.767  1.00  0.00     0.137 C 
ATOM     14  H4  UNL     1     -11.001 -29.638  11.016  1.00  0.00     0.186 HD
BRANCH  13  15
HETATM   15  C4  UNL     1     -12.483 -27.906   9.760  1.00  0.00     0.049 A 
HETATM   16  C5  UNL     1     -13.430 -28.892   9.943  1.00  0.00     0.032 A 
HETATM   17  C6  UNL     1     -14.698 -28.330   9.868  1.00  0.00     0.019 A 
HETATM   18  C7  UNL     1     -14.477 -26.989   9.637  1.00  0.00     0.088 A 
HETATM   19  N5  UNL     1     -13.162 -26.751   9.575  1.00  0.00    -0.365 N 
ATOM     20  H5  UNL     1     -12.736 -25.838   9.413  1.00  0.00     0.165 HD
ENDBRANCH  13  15
ENDBRANCH  10  12
ENDBRANCH   5  10
BRANCH   6  21
HETATM   21  N7  UNL     1      -8.681 -29.772  13.070  1.00  0.00    -0.321 N 
ATOM     22  H72 UNL     1      -9.576 -29.282  13.072  1.00  0.00     0.178 HD
ATOM     23  H71 UNL     1      -8.060 -29.612  13.863  1.00  0.00     0.178 HD
ENDBRANCH   6  21
BRANCH   9  24
HETATM   24  N8  UNL     1      -6.764 -33.976  11.563  1.00  0.00    -0.106 N 
HETATM   25  O2  UNL     1      -5.555 -34.036  11.861  1.00  0.00    -0.531 OA
HETATM   26  O3  UNL     1      -7.460 -35.159  11.526  1.00  0.00    -0.531 OA
ENDBRANCH   9  24
TORSDOF 5
ENDMDL
