MODEL 1
REMARK VINA RESULT: -6.796960745      0.000      0.000
REMARK  4 active torsions:
REMARK  status: ('A' for Active; 'I' for Inactive)
REMARK    1  A    between atoms: N4_9  and  C4_11 
REMARK    2  A    between atoms: C4_11  and  C5_15 
REMARK    3  A    between atoms: C5_15  and  N6_16 
REMARK    4  A    between atoms: C5_15  and  N7_20 
ROOT
HETATM    1  N1  UNL     1       3.797  14.121   7.087  1.00  0.00    -0.189 NA
HETATM    2  C1  UNL     1       4.406  13.851   8.033  1.00  0.00     0.127 C 
HETATM    3  C2  UNL     1       5.153  13.498   9.234  1.00  0.00     0.173 A 
HETATM    4  N2  UNL     1       6.401  13.808   9.553  1.00  0.00    -0.283 N 
ATOM      5  H2  UNL     1       6.966  14.366   8.913  1.00  0.00     0.188 HD
HETATM    6  N3  UNL     1       6.895  13.412  10.654  1.00  0.00    -0.278 N 
ATOM      7  H3  UNL     1       7.856  13.648  10.903  1.00  0.00     0.189 HD
HETATM    8  C3  UNL     1       6.146  12.685  11.481  1.00  0.00     0.167 A 
HETATM    9  N4  UNL     1       6.448  12.178  12.651  1.00  0.00    -0.322 N 
ATOM     10  H4  UNL     1       5.775  11.632  13.189  1.00  0.00     0.169 HD
HETATM   11  S1  UNL     1       4.671  12.587  10.598  1.00  0.00    -0.022 SA
ENDROOT
BRANCH   9  12
HETATM   12  C4  UNL     1       7.760  12.426  13.132  1.00  0.00     0.135 C 
HETATM   13  N5  UNL     1       8.047  13.402  13.918  1.00  0.00    -0.386 N 
ATOM     14  H52 UNL     1       7.308  14.037  14.220  1.00  0.00     0.157 HD
ATOM     15  H51 UNL     1       8.989  13.581  14.264  1.00  0.00     0.157 HD
BRANCH  12  16
HETATM   16  C5  UNL     1       8.832  11.506  12.693  1.00  0.00     0.444 C 
BRANCH  16  17
HETATM   17  N6  UNL     1       9.107  10.568  13.760  1.00  0.00    -0.043 N 
ATOM     18  H63 UNL     1       8.787  10.906  14.668  1.00  0.00     0.277 HD
ATOM     19  H62 UNL     1       8.523   9.733  13.705  1.00  0.00     0.277 HD
ATOM     20  H61 UNL     1      10.102  10.348  13.756  1.00  0.00     0.277 HD
ENDBRANCH  16  17
BRANCH  16  21
HETATM   21  N7  UNL     1      10.022  12.296  12.376  1.00  0.00    -0.043 N 
ATOM     22  H73 UNL     1      10.110  12.487  11.378  1.00  0.00     0.277 HD
ATOM     23  H72 UNL     1       9.949  13.261  12.698  1.00  0.00     0.277 HD
ATOM     24  H71 UNL     1      10.839  11.818  12.756  1.00  0.00     0.277 HD
ENDBRANCH  16  21
ENDBRANCH  12  16
ENDBRANCH   9  12
TORSDOF 4
ENDMDL
MODEL 2
REMARK VINA RESULT: -6.572133797      1.249      1.689
REMARK  4 active torsions:
REMARK  status: ('A' for Active; 'I' for Inactive)
REMARK    1  A    between atoms: N4_9  and  C4_11 
REMARK    2  A    between atoms: C4_11  and  C5_15 
REMARK    3  A    between atoms: C5_15  and  N6_16 
REMARK    4  A    between atoms: C5_15  and  N7_20 
ROOT
HETATM    1  N1  UNL     1       3.905  14.958   8.158  1.00  0.00    -0.189 NA
HETATM    2  C1  UNL     1       4.542  14.252   8.817  1.00  0.00     0.127 C 
HETATM    3  C2  UNL     1       5.322  13.356   9.661  1.00  0.00     0.173 A 
HETATM    4  N2  UNL     1       6.614  13.070   9.591  1.00  0.00    -0.283 N 
ATOM      5  H2  UNL     1       7.192  13.503   8.871  1.00  0.00     0.188 HD
HETATM    6  N3  UNL     1       7.134  12.257  10.417  1.00  0.00    -0.278 N 
ATOM      7  H3  UNL     1       8.128  12.034  10.366  1.00  0.00     0.189 HD
HETATM    8  C3  UNL     1       6.366  11.699  11.353  1.00  0.00     0.167 A 
HETATM    9  N4  UNL     1       6.688  10.846  12.294  1.00  0.00    -0.322 N 
ATOM     10  H4  UNL     1       5.996  10.490  12.954  1.00  0.00     0.169 HD
HETATM   11  S1  UNL     1       4.835  12.400  10.991  1.00  0.00    -0.022 SA
ENDROOT
BRANCH   9  12
HETATM   12  C4  UNL     1       8.047  10.441  12.347  1.00  0.00     0.135 C 
HETATM   13  N5  UNL     1       8.574   9.635  11.496  1.00  0.00    -0.386 N 
ATOM     14  H52 UNL     1       8.002   9.260  10.740  1.00  0.00     0.157 HD
ATOM     15  H51 UNL     1       9.551   9.345  11.534  1.00  0.00     0.157 HD
BRANCH  12  16
HETATM   16  C5  UNL     1       8.877  10.986  13.444  1.00  0.00     0.444 C 
BRANCH  16  17
HETATM   17  N6  UNL     1       8.011  11.621  14.413  1.00  0.00    -0.043 N 
ATOM     18  H63 UNL     1       8.490  12.346  14.948  1.00  0.00     0.277 HD
ATOM     19  H62 UNL     1       7.304  12.213  13.976  1.00  0.00     0.277 HD
ATOM     20  H61 UNL     1       7.603  10.903  15.010  1.00  0.00     0.277 HD
ENDBRANCH  16  17
BRANCH  16  21
HETATM   21  N7  UNL     1       9.821  11.951  12.878  1.00  0.00    -0.043 N 
ATOM     22  H73 UNL     1       9.495  12.913  12.965  1.00  0.00     0.277 HD
ATOM     23  H72 UNL     1      10.671  12.039  13.435  1.00  0.00     0.277 HD
ATOM     24  H71 UNL     1      10.012  11.688  11.912  1.00  0.00     0.277 HD
ENDBRANCH  16  21
ENDBRANCH  12  16
ENDBRANCH   9  12
TORSDOF 4
ENDMDL
MODEL 3
REMARK VINA RESULT: -6.561776475      2.848      4.075
REMARK  4 active torsions:
REMARK  status: ('A' for Active; 'I' for Inactive)
REMARK    1  A    between atoms: N4_9  and  C4_11 
REMARK    2  A    between atoms: C4_11  and  C5_15 
REMARK    3  A    between atoms: C5_15  and  N6_16 
REMARK    4  A    between atoms: C5_15  and  N7_20 
ROOT
HETATM    1  N1  UNL     1       5.994  18.608  14.033  1.00  0.00    -0.189 NA
HETATM    2  C1  UNL     1       6.215  17.501  13.782  1.00  0.00     0.127 C 
HETATM    3  C2  UNL     1       6.479  16.108  13.442  1.00  0.00     0.173 A 
HETATM    4  N2  UNL     1       7.152  15.201  14.136  1.00  0.00    -0.283 N 
ATOM      5  H2  UNL     1       7.563  15.450  15.035  1.00  0.00     0.188 HD
HETATM    6  N3  UNL     1       7.285  14.021  13.683  1.00  0.00    -0.278 N 
ATOM      7  H3  UNL     1       7.803  13.321  14.214  1.00  0.00     0.189 HD
HETATM    8  C3  UNL     1       6.742  13.709  12.508  1.00  0.00     0.167 A 
HETATM    9  N4  UNL     1       6.756  12.570  11.860  1.00  0.00    -0.322 N 
ATOM     10  H4  UNL     1       6.297  12.462  10.955  1.00  0.00     0.169 HD
HETATM   11  S1  UNL     1       6.017  15.207  12.065  1.00  0.00    -0.022 SA
ENDROOT
BRANCH   9  12
HETATM   12  C4  UNL     1       7.443  11.494  12.481  1.00  0.00     0.135 C 
HETATM   13  N5  UNL     1       6.972  10.848  13.488  1.00  0.00    -0.386 N 
ATOM     14  H52 UNL     1       6.063  11.109  13.870  1.00  0.00     0.157 HD
ATOM     15  H51 UNL     1       7.465  10.075  13.934  1.00  0.00     0.157 HD
BRANCH  12  16
HETATM   16  C5  UNL     1       8.761  11.117  11.926  1.00  0.00     0.444 C 
BRANCH  16  17
HETATM   17  N6  UNL     1       9.789  11.869  12.612  1.00  0.00    -0.043 N 
ATOM     18  H63 UNL     1       9.658  12.877  12.524  1.00  0.00     0.277 HD
ATOM     19  H62 UNL     1       9.708  11.804  13.627  1.00  0.00     0.277 HD
ATOM     20  H61 UNL     1      10.701  11.565  12.273  1.00  0.00     0.277 HD
ENDBRANCH  16  17
BRANCH  16  21
HETATM   21  N7  UNL     1       8.766  11.415  10.494  1.00  0.00    -0.043 N 
ATOM     22  H73 UNL     1       7.943  11.942  10.201  1.00  0.00     0.277 HD
ATOM     23  H72 UNL     1       9.472  12.106  10.241  1.00  0.00     0.277 HD
ATOM     24  H71 UNL     1       8.873  10.540   9.981  1.00  0.00     0.277 HD
ENDBRANCH  16  21
ENDBRANCH  12  16
ENDBRANCH   9  12
TORSDOF 4
ENDMDL
MODEL 4
REMARK VINA RESULT: -6.546170939      1.084      1.755
REMARK  4 active torsions:
REMARK  status: ('A' for Active; 'I' for Inactive)
REMARK    1  A    between atoms: N4_9  and  C4_11 
REMARK    2  A    between atoms: C4_11  and  C5_15 
REMARK    3  A    between atoms: C5_15  and  N6_16 
REMARK    4  A    between atoms: C5_15  and  N7_20 
ROOT
HETATM    1  N1  UNL     1       3.839  14.995   7.699  1.00  0.00    -0.189 NA
HETATM    2  C1  UNL     1       4.446  14.320   8.416  1.00  0.00     0.127 C 
HETATM    3  C2  UNL     1       5.188  13.459   9.329  1.00  0.00     0.173 A 
HETATM    4  N2  UNL     1       6.498  13.390   9.520  1.00  0.00    -0.283 N 
ATOM      5  H2  UNL     1       7.122  13.996   8.988  1.00  0.00     0.188 HD
HETATM    6  N3  UNL     1       6.977  12.572  10.365  1.00  0.00    -0.278 N 
ATOM      7  H3  UNL     1       7.985  12.516  10.515  1.00  0.00     0.189 HD
HETATM    8  C3  UNL     1       6.150  11.788  11.055  1.00  0.00     0.167 A 
HETATM    9  N4  UNL     1       6.423  10.884  11.964  1.00  0.00    -0.322 N 
ATOM     10  H4  UNL     1       5.688  10.345  12.421  1.00  0.00     0.169 HD
HETATM   11  S1  UNL     1       4.623  12.279  10.428  1.00  0.00    -0.022 SA
ENDROOT
BRANCH   9  12
HETATM   12  C4  UNL     1       7.794  10.694  12.280  1.00  0.00     0.135 C 
HETATM   13  N5  UNL     1       8.494   9.722  11.813  1.00  0.00    -0.386 N 
ATOM     14  H52 UNL     1       8.059   9.047  11.184  1.00  0.00     0.157 HD
ATOM     15  H51 UNL     1       9.479   9.586  12.039  1.00  0.00     0.157 HD
BRANCH  12  16
HETATM   16  C5  UNL     1       8.424  11.673  13.191  1.00  0.00     0.444 C 
BRANCH  16  17
HETATM   17  N6  UNL     1       9.825  11.795  12.849  1.00  0.00    -0.043 N 
ATOM     18  H63 UNL     1      10.438  11.447  13.586  1.00  0.00     0.277 HD
ATOM     19  H62 UNL     1      10.104  11.144  12.114  1.00  0.00     0.277 HD
ATOM     20  H61 UNL     1      10.021  12.765  12.605  1.00  0.00     0.277 HD
ENDBRANCH  16  17
BRANCH  16  21
HETATM   21  N7  UNL     1       8.264  11.199  14.566  1.00  0.00    -0.043 N 
ATOM     22  H73 UNL     1       8.488  11.916  15.256  1.00  0.00     0.277 HD
ATOM     23  H72 UNL     1       7.287  11.060  14.820  1.00  0.00     0.277 HD
ATOM     24  H71 UNL     1       8.823  10.355  14.685  1.00  0.00     0.277 HD
ENDBRANCH  16  21
ENDBRANCH  12  16
ENDBRANCH   9  12
TORSDOF 4
ENDMDL
MODEL 5
REMARK VINA RESULT: -6.454719118      2.914      4.103
REMARK  4 active torsions:
REMARK  status: ('A' for Active; 'I' for Inactive)
REMARK    1  A    between atoms: N4_9  and  C4_11 
REMARK    2  A    between atoms: C4_11  and  C5_15 
REMARK    3  A    between atoms: C5_15  and  N6_16 
REMARK    4  A    between atoms: C5_15  and  N7_20 
ROOT
HETATM    1  N1  UNL     1       4.394  18.052  14.380  1.00  0.00    -0.189 NA
HETATM    2  C1  UNL     1       5.035  17.140  14.068  1.00  0.00     0.127 C 
HETATM    3  C2  UNL     1       5.828  15.991  13.651  1.00  0.00     0.173 A 
HETATM    4  N2  UNL     1       6.788  15.363  14.316  1.00  0.00    -0.283 N 
ATOM      5  H2  UNL     1       7.051  15.680  15.249  1.00  0.00     0.188 HD
HETATM    6  N3  UNL     1       7.380  14.368  13.794  1.00  0.00    -0.278 N 
ATOM      7  H3  UNL     1       8.119  13.883  14.303  1.00  0.00     0.189 HD
HETATM    8  C3  UNL     1       7.025  13.964  12.576  1.00  0.00     0.167 A 
HETATM    9  N4  UNL     1       7.495  12.975  11.856  1.00  0.00    -0.322 N 
ATOM     10  H4  UNL     1       7.132  12.769  10.925  1.00  0.00     0.169 HD
HETATM   11  S1  UNL     1       5.782  15.094  12.197  1.00  0.00    -0.022 SA
ENDROOT
BRANCH   9  12
HETATM   12  C4  UNL     1       8.535  12.204  12.438  1.00  0.00     0.135 C 
HETATM   13  N5  UNL     1       9.770  12.562  12.420  1.00  0.00    -0.386 N 
ATOM     14  H52 UNL     1      10.030  13.439  11.969  1.00  0.00     0.157 HD
ATOM     15  H51 UNL     1      10.517  12.009  12.838  1.00  0.00     0.157 HD
BRANCH  12  16
HETATM   16  C5  UNL     1       8.156  10.932  13.091  1.00  0.00     0.444 C 
BRANCH  16  17
HETATM   17  N6  UNL     1       6.816  10.576  12.678  1.00  0.00    -0.043 N 
ATOM     18  H63 UNL     1       6.270  10.167  13.436  1.00  0.00     0.277 HD
ATOM     19  H62 UNL     1       6.231  11.394  12.507  1.00  0.00     0.277 HD
ATOM     20  H61 UNL     1       6.875   9.963  11.866  1.00  0.00     0.277 HD
ENDBRANCH  16  17
BRANCH  16  21
HETATM   21  N7  UNL     1       8.222  11.116  14.541  1.00  0.00    -0.043 N 
ATOM     22  H73 UNL     1       8.703  10.349  15.011  1.00  0.00     0.277 HD
ATOM     23  H72 UNL     1       8.856  11.867  14.812  1.00  0.00     0.277 HD
ATOM     24  H71 UNL     1       7.276  11.257  14.893  1.00  0.00     0.277 HD
ENDBRANCH  16  21
ENDBRANCH  12  16
ENDBRANCH   9  12
TORSDOF 4
ENDMDL
