MODEL 1
REMARK VINA RESULT: -7.247265891      0.000      0.000
REMARK  3 active torsions:
REMARK  status: ('A' for Active; 'I' for Inactive)
REMARK    1  A    between atoms: C4_8  and  S1_9 
REMARK    2  A    between atoms: S1_9  and  N4_10 
REMARK    3  A    between atoms: C5_17  and  N6_18 
ROOT
HETATM    1  N1  UNL     1       4.729  17.434  11.850  1.00  0.00    -0.191 NA
HETATM    2  C1  UNL     1       5.303  16.421  11.975  1.00  0.00     0.106 C 
HETATM    3  C2  UNL     1       5.990  15.170  12.145  1.00  0.00     0.129 A 
HETATM    4  C3  UNL     1       6.085  14.241  11.114  1.00  0.00     0.143 A 
HETATM    5  N2  UNL     1       5.467  14.587   9.875  1.00  0.00    -0.081 NA
HETATM    6  N3  UNL     1       6.723  13.069  11.258  1.00  0.00    -0.319 N 
ATOM      7  H3  UNL     1       6.770  12.412  10.478  1.00  0.00     0.169 HD
HETATM    8  C4  UNL     1       7.292  12.766  12.420  1.00  0.00     0.226 A 
HETATM    9  N5  UNL     1       7.218  13.641  13.435  1.00  0.00    -0.317 N 
ATOM     10  H5  UNL     1       7.659  13.396  14.322  1.00  0.00     0.169 HD
HETATM   11  C5  UNL     1       6.594  14.818  13.335  1.00  0.00     0.125 A 
ENDROOT
BRANCH  11  12
HETATM   12  N6  UNL     1       6.553  15.625  14.349  1.00  0.00    -0.384 N 
ATOM     13  H62 UNL     1       6.316  16.608  14.215  1.00  0.00     0.157 HD
ATOM     14  H61 UNL     1       6.759  15.280  15.287  1.00  0.00     0.157 HD
ENDBRANCH  11  12
BRANCH   8  15
HETATM   15  S1  UNL     1       8.148  11.273  12.720  1.00  0.00     0.289 S 
HETATM   16  O1  UNL     1       7.640  10.652  13.993  1.00  0.00    -0.198 OA
HETATM   17  O2  UNL     1       7.996  10.344  11.546  1.00  0.00    -0.198 OA
BRANCH  15  18
HETATM   18  N4  UNL     1       9.820  11.611  12.911  1.00  0.00    -0.322 N 
ATOM     19  H42 UNL     1      10.223  12.122  13.696  1.00  0.00     0.169 HD
ATOM     20  H41 UNL     1      10.333  11.220  12.120  1.00  0.00     0.169 HD
ENDBRANCH  15  18
ENDBRANCH   8  15
TORSDOF 3
ENDMDL
MODEL 2
REMARK VINA RESULT: -7.235108644      1.375      2.595
REMARK  3 active torsions:
REMARK  status: ('A' for Active; 'I' for Inactive)
REMARK    1  A    between atoms: C4_8  and  S1_9 
REMARK    2  A    between atoms: S1_9  and  N4_10 
REMARK    3  A    between atoms: C5_17  and  N6_18 
ROOT
HETATM    1  N1  UNL     1       4.076  15.671   9.635  1.00  0.00    -0.191 NA
HETATM    2  C1  UNL     1       4.740  14.886  10.197  1.00  0.00     0.106 C 
HETATM    3  C2  UNL     1       5.573  13.929  10.872  1.00  0.00     0.129 A 
HETATM    4  C3  UNL     1       5.945  14.090  12.201  1.00  0.00     0.143 A 
HETATM    5  N2  UNL     1       5.461  15.254  12.870  1.00  0.00    -0.081 NA
HETATM    6  N3  UNL     1       6.723  13.205  12.845  1.00  0.00    -0.319 N 
ATOM      7  H3  UNL     1       6.975  13.360  13.821  1.00  0.00     0.169 HD
HETATM    8  C4  UNL     1       7.163  12.127  12.204  1.00  0.00     0.226 A 
HETATM    9  N5  UNL     1       6.822  11.941  10.920  1.00  0.00    -0.317 N 
ATOM     10  H5  UNL     1       7.167  11.110  10.439  1.00  0.00     0.169 HD
HETATM   11  C5  UNL     1       6.051  12.797  10.242  1.00  0.00     0.125 A 
ENDROOT
BRANCH  11  12
HETATM   12  N6  UNL     1       5.752  12.567   9.002  1.00  0.00    -0.384 N 
ATOM     13  H62 UNL     1       5.240  11.724   8.743  1.00  0.00     0.157 HD
ATOM     14  H61 UNL     1       6.029  13.230   8.277  1.00  0.00     0.157 HD
ENDBRANCH  11  12
BRANCH   8  15
HETATM   15  S1  UNL     1       8.178  10.910  12.939  1.00  0.00     0.289 S 
HETATM   16  O1  UNL     1       7.708  10.649  14.344  1.00  0.00    -0.198 OA
HETATM   17  O2  UNL     1       8.171   9.658  12.105  1.00  0.00    -0.198 OA
BRANCH  15  18
HETATM   18  N4  UNL     1       9.793  11.488  13.006  1.00  0.00    -0.322 N 
ATOM     19  H42 UNL     1      10.423  11.542  12.205  1.00  0.00     0.169 HD
ATOM     20  H41 UNL     1      10.011  11.764  13.964  1.00  0.00     0.169 HD
ENDBRANCH  15  18
ENDBRANCH   8  15
TORSDOF 3
ENDMDL
MODEL 3
REMARK VINA RESULT: -7.126076780      2.170      3.210
REMARK  3 active torsions:
REMARK  status: ('A' for Active; 'I' for Inactive)
REMARK    1  A    between atoms: C4_8  and  S1_9 
REMARK    2  A    between atoms: S1_9  and  N4_10 
REMARK    3  A    between atoms: C5_17  and  N6_18 
ROOT
HETATM    1  N1  UNL     1       3.034  14.485   8.824  1.00  0.00    -0.191 NA
HETATM    2  C1  UNL     1       3.787  13.884   9.488  1.00  0.00     0.106 C 
HETATM    3  C2  UNL     1       4.731  13.157  10.292  1.00  0.00     0.129 A 
HETATM    4  C3  UNL     1       4.835  13.362  11.663  1.00  0.00     0.143 A 
HETATM    5  N2  UNL     1       3.960  14.330  12.240  1.00  0.00    -0.081 NA
HETATM    6  N3  UNL     1       5.712  12.691  12.427  1.00  0.00    -0.319 N 
ATOM      7  H3  UNL     1       5.759  12.870  13.431  1.00  0.00     0.169 HD
HETATM    8  C4  UNL     1       6.519  11.793  11.871  1.00  0.00     0.226 A 
HETATM    9  N5  UNL     1       6.444  11.572  10.550  1.00  0.00    -0.317 N 
ATOM     10  H5  UNL     1       7.069  10.880  10.136  1.00  0.00     0.169 HD
HETATM   11  C5  UNL     1       5.587  12.217   9.753  1.00  0.00     0.125 A 
ENDROOT
BRANCH  11  12
HETATM   12  N6  UNL     1       5.557  11.963   8.482  1.00  0.00    -0.384 N 
ATOM     13  H62 UNL     1       5.599  12.724   7.805  1.00  0.00     0.157 HD
ATOM     14  H61 UNL     1       5.490  10.999   8.154  1.00  0.00     0.157 HD
ENDBRANCH  11  12
BRANCH   8  15
HETATM   15  S1  UNL     1       7.696  10.862  12.766  1.00  0.00     0.289 S 
HETATM   16  O1  UNL     1       7.132  10.507  14.115  1.00  0.00    -0.198 OA
HETATM   17  O2  UNL     1       8.090   9.638  11.984  1.00  0.00    -0.198 OA
BRANCH  15  18
HETATM   18  N4  UNL     1       9.106  11.812  13.000  1.00  0.00    -0.322 N 
ATOM     19  H42 UNL     1       9.325  12.324  13.855  1.00  0.00     0.169 HD
ATOM     20  H41 UNL     1       9.676  11.779  12.155  1.00  0.00     0.169 HD
ENDBRANCH  15  18
ENDBRANCH   8  15
TORSDOF 3
ENDMDL
MODEL 4
REMARK VINA RESULT: -7.112710526      1.302      1.351
REMARK  3 active torsions:
REMARK  status: ('A' for Active; 'I' for Inactive)
REMARK    1  A    between atoms: C4_8  and  S1_9 
REMARK    2  A    between atoms: S1_9  and  N4_10 
REMARK    3  A    between atoms: C5_17  and  N6_18 
ROOT
HETATM    1  N1  UNL     1       4.184  16.577  10.547  1.00  0.00    -0.191 NA
HETATM    2  C1  UNL     1       4.839  15.629  10.758  1.00  0.00     0.106 C 
HETATM    3  C2  UNL     1       5.623  14.455  11.026  1.00  0.00     0.129 A 
HETATM    4  C3  UNL     1       6.170  13.690  10.002  1.00  0.00     0.143 A 
HETATM    5  N2  UNL     1       5.918  14.125   8.667  1.00  0.00    -0.081 NA
HETATM    6  N3  UNL     1       6.904  12.591  10.237  1.00  0.00    -0.319 N 
ATOM      7  H3  UNL     1       7.288  12.055   9.458  1.00  0.00     0.169 HD
HETATM    8  C4  UNL     1       7.127  12.202  11.488  1.00  0.00     0.226 A 
HETATM    9  N5  UNL     1       6.612  12.918  12.500  1.00  0.00    -0.317 N 
ATOM     10  H5  UNL     1       6.791  12.608  13.455  1.00  0.00     0.169 HD
HETATM   11  C5  UNL     1       5.877  14.018  12.311  1.00  0.00     0.125 A 
ENDROOT
BRANCH  11  12
HETATM   12  N6  UNL     1       5.405  14.671  13.326  1.00  0.00    -0.384 N 
ATOM     13  H62 UNL     1       4.407  14.647  13.534  1.00  0.00     0.157 HD
ATOM     14  H61 UNL     1       6.031  15.214  13.921  1.00  0.00     0.157 HD
ENDBRANCH  11  12
BRANCH   8  15
HETATM   15  S1  UNL     1       8.066  10.791  11.912  1.00  0.00     0.289 S 
HETATM   16  O1  UNL     1       7.183   9.794  12.612  1.00  0.00    -0.198 OA
HETATM   17  O2  UNL     1       8.705  10.206  10.681  1.00  0.00    -0.198 OA
BRANCH  15  18
HETATM   18  N4  UNL     1       9.322  11.253  12.987  1.00  0.00    -0.322 N 
ATOM     19  H42 UNL     1       9.786  12.161  12.981  1.00  0.00     0.169 HD
ATOM     20  H41 UNL     1       9.521  10.478  13.622  1.00  0.00     0.169 HD
ENDBRANCH  15  18
ENDBRANCH   8  15
TORSDOF 3
ENDMDL
MODEL 5
REMARK VINA RESULT: -7.000554129      0.747      2.190
REMARK  3 active torsions:
REMARK  status: ('A' for Active; 'I' for Inactive)
REMARK    1  A    between atoms: C4_8  and  S1_9 
REMARK    2  A    between atoms: S1_9  and  N4_10 
REMARK    3  A    between atoms: C5_17  and  N6_18 
ROOT
HETATM    1  N1  UNL     1       4.388  16.811  11.172  1.00  0.00    -0.191 NA
HETATM    2  C1  UNL     1       4.996  15.872  11.518  1.00  0.00     0.106 C 
HETATM    3  C2  UNL     1       5.755  14.719  11.919  1.00  0.00     0.129 A 
HETATM    4  C3  UNL     1       6.665  14.771  12.969  1.00  0.00     0.143 A 
HETATM    5  N2  UNL     1       6.814  16.026  13.632  1.00  0.00    -0.081 NA
HETATM    6  N3  UNL     1       7.381  13.704  13.355  1.00  0.00    -0.319 N 
ATOM      7  H3  UNL     1       8.041  13.782  14.130  1.00  0.00     0.169 HD
HETATM    8  C4  UNL     1       7.228  12.544  12.724  1.00  0.00     0.226 A 
HETATM    9  N5  UNL     1       6.357  12.460  11.707  1.00  0.00    -0.317 N 
ATOM     10  H5  UNL     1       6.249  11.564  11.231  1.00  0.00     0.169 HD
HETATM   11  C5  UNL     1       5.625  13.497  11.290  1.00  0.00     0.125 A 
ENDROOT
BRANCH  11  12
HETATM   12  N6  UNL     1       4.798  13.359  10.301  1.00  0.00    -0.384 N 
ATOM     13  H62 UNL     1       4.197  14.134  10.022  1.00  0.00     0.157 HD
ATOM     14  H61 UNL     1       4.745  12.473   9.798  1.00  0.00     0.157 HD
ENDBRANCH  11  12
BRANCH   8  15
HETATM   15  S1  UNL     1       8.104  11.090  13.141  1.00  0.00     0.289 S 
HETATM   16  O1  UNL     1       7.801  10.715  14.566  1.00  0.00    -0.198 OA
HETATM   17  O2  UNL     1       7.754   9.983  12.184  1.00  0.00    -0.198 OA
BRANCH  15  18
HETATM   18  N4  UNL     1       9.789  11.390  13.005  1.00  0.00    -0.322 N 
ATOM     19  H42 UNL     1      10.212  12.317  12.973  1.00  0.00     0.169 HD
ATOM     20  H41 UNL     1      10.284  10.499  12.963  1.00  0.00     0.169 HD
ENDBRANCH  15  18
ENDBRANCH   8  15
TORSDOF 3
ENDMDL
