MODEL 1
REMARK VINA RESULT: -7.589902003      0.000      0.000
REMARK  2 active torsions:
REMARK  status: ('A' for Active; 'I' for Inactive)
REMARK    1  A    between atoms: C1_2  and  C2_4 
REMARK    2  A    between atoms: N4_11  and  C4_13 
ROOT
HETATM    1  C2  UNL     1       8.764  12.045  12.582  1.00  0.00     0.167 A 
HETATM    2  N2  UNL     1       9.923  12.160  11.916  1.00  0.00    -0.233 N 
ATOM      3  H2  UNL     1      10.573  11.400  11.716  1.00  0.00     0.197 HD
HETATM    4  O2  UNL     1      10.079  13.392  11.572  1.00  0.00    -0.155 OA
HETATM    5  N3  UNL     1       9.092  14.139  11.963  1.00  0.00    -0.223 N 
ATOM      6  H3  UNL     1       8.984  15.142  11.814  1.00  0.00     0.198 HD
HETATM    7  C3  UNL     1       8.243  13.318  12.605  1.00  0.00     0.163 A 
HETATM    8  N4  UNL     1       7.126  13.639  13.156  1.00  0.00    -0.328 N 
ATOM      9  H4  UNL     1       6.572  12.915  13.613  1.00  0.00     0.169 HD
ENDROOT
BRANCH   1  10
HETATM   10  C1  UNL     1       8.235  10.808  13.133  1.00  0.00     0.287 C 
HETATM   11  N1  UNL     1       8.087   9.632  12.340  1.00  0.00    -0.056 NA
HETATM   12  O1  UNL     1       7.894  10.749  14.337  1.00  0.00    -0.269 OA
ENDBRANCH   1  10
BRANCH   8  13
HETATM   13  C4  UNL     1       6.642  14.978  13.144  1.00  0.00     0.095 C 
HETATM   14  N5  UNL     1       5.943  15.534  12.213  1.00  0.00    -0.293 N 
HETATM   15  N6  UNL     1       5.640  16.861  12.532  1.00  0.00    -0.140 NA
ATOM     16  H5  UNL     1       5.648  15.065  11.356  1.00  0.00     0.183 HD
HETATM   17  C5  UNL     1       5.713  16.935  13.980  1.00  0.00     0.142 C 
HETATM   18  C6  UNL     1       6.880  15.974  14.246  1.00  0.00     0.095 C 
ENDBRANCH   8  13
TORSDOF 2
ENDMDL
MODEL 2
REMARK VINA RESULT: -7.525751292      0.924      1.062
REMARK  2 active torsions:
REMARK  status: ('A' for Active; 'I' for Inactive)
REMARK    1  A    between atoms: C1_2  and  C2_4 
REMARK    2  A    between atoms: N4_11  and  C4_13 
ROOT
HETATM    1  C2  UNL     1       8.748  12.092  12.534  1.00  0.00     0.167 A 
HETATM    2  N2  UNL     1       9.867  12.357  11.842  1.00  0.00    -0.233 N 
ATOM      3  H2  UNL     1      10.587  11.679  11.591  1.00  0.00     0.197 HD
HETATM    4  O2  UNL     1       9.881  13.610  11.546  1.00  0.00    -0.155 OA
HETATM    5  N3  UNL     1       8.833  14.231  11.996  1.00  0.00    -0.223 N 
ATOM      6  H3  UNL     1       8.614  15.222  11.893  1.00  0.00     0.198 HD
HETATM    7  C3  UNL     1       8.097  13.300  12.626  1.00  0.00     0.163 A 
HETATM    8  N4  UNL     1       6.971  13.477  13.221  1.00  0.00    -0.328 N 
ATOM      9  H4  UNL     1       6.512  12.681  13.662  1.00  0.00     0.169 HD
ENDROOT
BRANCH   1  10
HETATM   10  C1  UNL     1       8.372  10.784  13.047  1.00  0.00     0.287 C 
HETATM   11  N1  UNL     1       8.388   9.619  12.225  1.00  0.00    -0.056 NA
HETATM   12  O1  UNL     1       8.021  10.653  14.243  1.00  0.00    -0.269 OA
ENDBRANCH   1  10
BRANCH   8  13
HETATM   13  C4  UNL     1       6.347  14.756  13.280  1.00  0.00     0.095 C 
HETATM   14  N5  UNL     1       6.384  15.584  14.269  1.00  0.00    -0.293 N 
HETATM   15  N6  UNL     1       5.661  16.746  13.984  1.00  0.00    -0.140 NA
ATOM     16  H5  UNL     1       6.878  15.412  15.146  1.00  0.00     0.183 HD
HETATM   17  C5  UNL     1       5.636  16.837  12.535  1.00  0.00     0.142 C 
HETATM   18  C6  UNL     1       5.527  15.351  12.167  1.00  0.00     0.095 C 
ENDBRANCH   8  13
TORSDOF 2
ENDMDL
MODEL 3
REMARK VINA RESULT: -7.303476069      2.893      3.370
REMARK  2 active torsions:
REMARK  status: ('A' for Active; 'I' for Inactive)
REMARK    1  A    between atoms: C1_2  and  C2_4 
REMARK    2  A    between atoms: N4_11  and  C4_13 
ROOT
HETATM    1  C2  UNL     1       7.547  12.425  13.006  1.00  0.00     0.167 A 
HETATM    2  N2  UNL     1       8.153  13.407  13.693  1.00  0.00    -0.233 N 
ATOM      3  H2  UNL     1       8.744  13.281  14.514  1.00  0.00     0.197 HD
HETATM    4  O2  UNL     1       7.862  14.533  13.141  1.00  0.00    -0.155 OA
HETATM    5  N3  UNL     1       7.088  14.389  12.109  1.00  0.00    -0.223 N 
ATOM      6  H3  UNL     1       6.721  15.127  11.508  1.00  0.00     0.198 HD
HETATM    7  C3  UNL     1       6.869  13.068  11.997  1.00  0.00     0.163 A 
HETATM    8  N4  UNL     1       6.155  12.476  11.107  1.00  0.00    -0.328 N 
ATOM      9  H4  UNL     1       6.071  11.460  11.133  1.00  0.00     0.169 HD
ENDROOT
BRANCH   1  10
HETATM   10  C1  UNL     1       7.633  11.008  13.321  1.00  0.00     0.287 C 
HETATM   11  N1  UNL     1       7.533  10.004  12.313  1.00  0.00    -0.056 NA
HETATM   12  O1  UNL     1       7.800  10.635  14.505  1.00  0.00    -0.269 OA
ENDBRANCH   1  10
BRANCH   8  13
HETATM   13  C4  UNL     1       5.477  13.201  10.085  1.00  0.00     0.095 C 
HETATM   14  N5  UNL     1       5.996  13.661   8.998  1.00  0.00    -0.293 N 
HETATM   15  N6  UNL     1       5.039  14.323   8.222  1.00  0.00    -0.140 NA
ATOM     16  H5  UNL     1       6.977  13.556   8.737  1.00  0.00     0.183 HD
HETATM   17  C5  UNL     1       3.763  13.761   8.623  1.00  0.00     0.142 C 
HETATM   18  C6  UNL     1       4.014  13.550  10.122  1.00  0.00     0.095 C 
ENDBRANCH   8  13
TORSDOF 2
ENDMDL
MODEL 4
REMARK VINA RESULT: -7.279110573      1.686      2.508
REMARK  2 active torsions:
REMARK  status: ('A' for Active; 'I' for Inactive)
REMARK    1  A    between atoms: C1_2  and  C2_4 
REMARK    2  A    between atoms: N4_11  and  C4_13 
ROOT
HETATM    1  C2  UNL     1       7.485  11.770  12.595  1.00  0.00     0.167 A 
HETATM    2  N2  UNL     1       6.564  10.890  12.171  1.00  0.00    -0.233 N 
ATOM      3  H2  UNL     1       6.744   9.922  11.906  1.00  0.00     0.197 HD
HETATM    4  O2  UNL     1       5.416  11.473  12.154  1.00  0.00    -0.155 OA
HETATM    5  N3  UNL     1       5.488  12.709  12.542  1.00  0.00    -0.223 N 
ATOM      6  H3  UNL     1       4.720  13.377  12.615  1.00  0.00     0.198 HD
HETATM    7  C3  UNL     1       6.783  12.930  12.828  1.00  0.00     0.163 A 
HETATM    8  N4  UNL     1       7.305  14.026  13.251  1.00  0.00    -0.328 N 
ATOM      9  H4  UNL     1       8.308  14.060  13.432  1.00  0.00     0.169 HD
ENDROOT
BRANCH   1  10
HETATM   10  C1  UNL     1       8.903  11.488  12.749  1.00  0.00     0.287 C 
HETATM   11  N1  UNL     1       9.905  12.332  12.185  1.00  0.00    -0.056 NA
HETATM   12  O1  UNL     1       9.279  10.481  13.392  1.00  0.00    -0.269 OA
ENDBRANCH   1  10
BRANCH   8  13
HETATM   13  C4  UNL     1       6.520  15.194  13.474  1.00  0.00     0.095 C 
HETATM   14  N5  UNL     1       6.216  15.708  14.617  1.00  0.00    -0.293 N 
HETATM   15  N6  UNL     1       5.431  16.855  14.463  1.00  0.00    -0.140 NA
ATOM     16  H5  UNL     1       6.510  15.327  15.517  1.00  0.00     0.183 HD
HETATM   17  C5  UNL     1       5.732  17.350  13.133  1.00  0.00     0.142 C 
HETATM   18  C6  UNL     1       5.911  16.026  12.379  1.00  0.00     0.095 C 
ENDBRANCH   8  13
TORSDOF 2
ENDMDL
MODEL 5
REMARK VINA RESULT: -7.143404484      2.562      2.804
REMARK  2 active torsions:
REMARK  status: ('A' for Active; 'I' for Inactive)
REMARK    1  A    between atoms: C1_2  and  C2_4 
REMARK    2  A    between atoms: N4_11  and  C4_13 
ROOT
HETATM    1  C2  UNL     1       8.512  11.800  12.141  1.00  0.00     0.167 A 
HETATM    2  N2  UNL     1       9.742  12.322  12.267  1.00  0.00    -0.233 N 
ATOM      3  H2  UNL     1      10.514  11.907  12.789  1.00  0.00     0.197 HD
HETATM    4  O2  UNL     1       9.785  13.434  11.618  1.00  0.00    -0.155 OA
HETATM    5  N3  UNL     1       8.653  13.713  11.049  1.00  0.00    -0.223 N 
ATOM      6  H3  UNL     1       8.435  14.533  10.483  1.00  0.00     0.198 HD
HETATM    7  C3  UNL     1       7.825  12.700  11.360  1.00  0.00     0.163 A 
HETATM    8  N4  UNL     1       6.598  12.567  11.003  1.00  0.00    -0.328 N 
ATOM      9  H4  UNL     1       6.078  11.745  11.308  1.00  0.00     0.169 HD
ENDROOT
BRANCH   1  10
HETATM   10  C1  UNL     1       8.070  10.547  12.733  1.00  0.00     0.287 C 
HETATM   11  N1  UNL     1       7.162  10.512  13.832  1.00  0.00    -0.056 NA
HETATM   12  O1  UNL     1       8.486   9.456  12.281  1.00  0.00    -0.269 OA
ENDBRANCH   1  10
BRANCH   8  13
HETATM   13  C4  UNL     1       5.944  13.538  10.191  1.00  0.00     0.095 C 
HETATM   14  N5  UNL     1       5.828  13.512   8.906  1.00  0.00    -0.293 N 
HETATM   15  N6  UNL     1       5.124  14.627   8.439  1.00  0.00    -0.140 NA
ATOM     16  H5  UNL     1       6.201  12.774   8.308  1.00  0.00     0.183 HD
HETATM   17  C5  UNL     1       4.315  15.068   9.560  1.00  0.00     0.142 C 
HETATM   18  C6  UNL     1       5.272  14.774  10.724  1.00  0.00     0.095 C 
ENDBRANCH   8  13
TORSDOF 2
ENDMDL
