MODEL 1
REMARK VINA RESULT: -6.456939614      0.000      0.000
REMARK  3 active torsions:
REMARK  status: ('A' for Active; 'I' for Inactive)
REMARK    1  A    between atoms: N1_1  and  N2_4 
REMARK    2  A    between atoms: N2_4  and  C1_6 
REMARK    3  A    between atoms: C2_9  and  C3_10 
ROOT
HETATM    1  C1  UNL     1       6.138  12.344  10.110  1.00  0.00     0.167 A 
HETATM    2  N3  UNL     1       7.425  12.716  10.071  1.00  0.00    -0.330 N 
ATOM      3  H3  UNL     1       7.706  13.297   9.281  1.00  0.00     0.168 HD
HETATM    4  C2  UNL     1       8.380  12.411  10.952  1.00  0.00     0.129 A 
HETATM    5  C4  UNL     1       8.226  11.645  12.087  1.00  0.00     0.135 A 
HETATM    6  N5  UNL     1       9.335  11.397  12.946  1.00  0.00    -0.095 NA
HETATM    7  C5  UNL     1       7.026  11.069  12.485  1.00  0.00     0.243 A 
HETATM    8  O2  UNL     1       6.996  10.389  13.538  1.00  0.00    -0.278 OA
HETATM    9  S1  UNL     1       5.704  11.375  11.446  1.00  0.00    -0.009 SA
ENDROOT
BRANCH   1  10
HETATM   10  N2  UNL     1       5.298  12.710   9.183  1.00  0.00    -0.286 N 
ATOM     11  H2  UNL     1       4.665  13.499   9.314  1.00  0.00     0.188 HD
BRANCH  10  12
HETATM   12  N1  UNL     1       5.311  11.959   7.988  1.00  0.00    -0.343 N 
ATOM     13  H12 UNL     1       5.224  10.943   8.010  1.00  0.00     0.176 HD
ATOM     14  H11 UNL     1       5.412  12.485   7.120  1.00  0.00     0.176 HD
ENDBRANCH  10  12
ENDBRANCH   1  10
BRANCH   4  15
HETATM   15  C3  UNL     1       9.742  12.937  10.702  1.00  0.00     0.283 C 
HETATM   16  N4  UNL     1      10.118  14.233  11.100  1.00  0.00    -0.056 NA
HETATM   17  O1  UNL     1      10.571  12.218  10.128  1.00  0.00    -0.269 OA
ENDBRANCH   4  15
TORSDOF 3
ENDMDL
MODEL 2
REMARK VINA RESULT: -6.358718984      2.976      4.302
REMARK  3 active torsions:
REMARK  status: ('A' for Active; 'I' for Inactive)
REMARK    1  A    between atoms: N1_1  and  N2_4 
REMARK    2  A    between atoms: N2_4  and  C1_6 
REMARK    3  A    between atoms: C2_9  and  C3_10 
ROOT
HETATM    1  C1  UNL     1       6.863  14.718  13.103  1.00  0.00     0.167 A 
HETATM    2  N3  UNL     1       7.538  13.610  13.439  1.00  0.00    -0.330 N 
ATOM      3  H3  UNL     1       8.314  13.731  14.090  1.00  0.00     0.168 HD
HETATM    4  C2  UNL     1       7.307  12.365  13.017  1.00  0.00     0.129 A 
HETATM    5  C4  UNL     1       6.317  11.972  12.143  1.00  0.00     0.135 A 
HETATM    6  N5  UNL     1       6.181  10.602  11.775  1.00  0.00    -0.095 NA
HETATM    7  C5  UNL     1       5.397  12.836  11.564  1.00  0.00     0.243 A 
HETATM    8  O2  UNL     1       4.535  12.374  10.779  1.00  0.00    -0.278 OA
HETATM    9  S1  UNL     1       5.571  14.476  12.014  1.00  0.00    -0.009 SA
ENDROOT
BRANCH   1  10
HETATM   10  N2  UNL     1       7.188  15.883  13.587  1.00  0.00    -0.286 N 
ATOM     11  H2  UNL     1       7.629  16.599  13.010  1.00  0.00     0.188 HD
BRANCH  10  12
HETATM   12  N1  UNL     1       6.899  16.101  14.952  1.00  0.00    -0.343 N 
ATOM     13  H12 UNL     1       6.288  15.466  15.464  1.00  0.00     0.176 HD
ATOM     14  H11 UNL     1       7.332  16.918  15.383  1.00  0.00     0.176 HD
ENDBRANCH  10  12
ENDBRANCH   1  10
BRANCH   4  15
HETATM   15  C3  UNL     1       8.189  11.290  13.527  1.00  0.00     0.283 C 
HETATM   16  N4  UNL     1       9.399  10.962  12.888  1.00  0.00    -0.056 NA
HETATM   17  O1  UNL     1       7.854  10.664  14.542  1.00  0.00    -0.269 OA
ENDBRANCH   4  15
TORSDOF 3
ENDMDL
MODEL 3
REMARK VINA RESULT: -6.245699245      2.377      3.813
REMARK  3 active torsions:
REMARK  status: ('A' for Active; 'I' for Inactive)
REMARK    1  A    between atoms: N1_1  and  N2_4 
REMARK    2  A    between atoms: N2_4  and  C1_6 
REMARK    3  A    between atoms: C2_9  and  C3_10 
ROOT
HETATM    1  C1  UNL     1       9.051  12.319  10.722  1.00  0.00     0.167 A 
HETATM    2  N3  UNL     1       7.938  12.909  10.265  1.00  0.00    -0.330 N 
ATOM      3  H3  UNL     1       8.053  13.541   9.473  1.00  0.00     0.168 HD
HETATM    4  C2  UNL     1       6.697  12.760  10.731  1.00  0.00     0.129 A 
HETATM    5  C4  UNL     1       6.313  11.961  11.785  1.00  0.00     0.135 A 
HETATM    6  N5  UNL     1       4.945  11.894  12.180  1.00  0.00    -0.095 NA
HETATM    7  C5  UNL     1       7.184  11.177  12.531  1.00  0.00     0.243 A 
HETATM    8  O2  UNL     1       6.729  10.486  13.472  1.00  0.00    -0.278 OA
HETATM    9  S1  UNL     1       8.821  11.266  12.047  1.00  0.00    -0.009 SA
ENDROOT
BRANCH   1  10
HETATM   10  N2  UNL     1      10.213  12.547  10.177  1.00  0.00    -0.286 N 
ATOM     11  H2  UNL     1      10.529  12.035   9.355  1.00  0.00     0.188 HD
BRANCH  10  12
HETATM   12  N1  UNL     1      11.010  13.541  10.786  1.00  0.00    -0.343 N 
ATOM     13  H12 UNL     1      12.007  13.606  10.585  1.00  0.00     0.176 HD
ATOM     14  H11 UNL     1      10.534  14.176  11.427  1.00  0.00     0.176 HD
ENDBRANCH  10  12
ENDBRANCH   1  10
BRANCH   4  15
HETATM   15  C3  UNL     1       5.615  13.519  10.062  1.00  0.00     0.283 C 
HETATM   16  N4  UNL     1       5.272  14.824  10.461  1.00  0.00    -0.056 NA
HETATM   17  O1  UNL     1       4.997  12.993   9.126  1.00  0.00    -0.269 OA
ENDBRANCH   4  15
TORSDOF 3
ENDMDL
MODEL 4
REMARK VINA RESULT: -6.183699707      2.338      3.146
REMARK  3 active torsions:
REMARK  status: ('A' for Active; 'I' for Inactive)
REMARK    1  A    between atoms: N1_1  and  N2_4 
REMARK    2  A    between atoms: N2_4  and  C1_6 
REMARK    3  A    between atoms: C2_9  and  C3_10 
ROOT
HETATM    1  C1  UNL     1       5.451  12.619  10.131  1.00  0.00     0.167 A 
HETATM    2  N3  UNL     1       6.017  11.646  10.858  1.00  0.00    -0.330 N 
ATOM      3  H3  UNL     1       5.807  10.688  10.578  1.00  0.00     0.168 HD
HETATM    4  C2  UNL     1       6.826  11.792  11.910  1.00  0.00     0.129 A 
HETATM    5  C4  UNL     1       7.241  12.986  12.458  1.00  0.00     0.135 A 
HETATM    6  N5  UNL     1       8.111  12.998  13.587  1.00  0.00    -0.095 NA
HETATM    7  C5  UNL     1       6.868  14.237  11.983  1.00  0.00     0.243 A 
HETATM    8  O2  UNL     1       7.304  15.262  12.558  1.00  0.00    -0.278 OA
HETATM    9  S1  UNL     1       5.825  14.208  10.629  1.00  0.00    -0.009 SA
ENDROOT
BRANCH   1  10
HETATM   10  N2  UNL     1       4.675  12.345   9.120  1.00  0.00    -0.286 N 
ATOM     11  H2  UNL     1       3.664  12.471   9.171  1.00  0.00     0.188 HD
BRANCH  10  12
HETATM   12  N1  UNL     1       5.307  11.866   7.953  1.00  0.00    -0.343 N 
ATOM     13  H12 UNL     1       5.458  12.479   7.151  1.00  0.00     0.176 HD
ATOM     14  H11 UNL     1       5.597  10.888   7.961  1.00  0.00     0.176 HD
ENDBRANCH  10  12
ENDBRANCH   1  10
BRANCH   4  15
HETATM   15  C3  UNL     1       7.336  10.564  12.562  1.00  0.00     0.283 C 
HETATM   16  N4  UNL     1       8.313   9.756  11.955  1.00  0.00    -0.056 NA
HETATM   17  O1  UNL     1       6.890  10.241  13.672  1.00  0.00    -0.269 OA
ENDBRANCH   4  15
TORSDOF 3
ENDMDL
MODEL 5
REMARK VINA RESULT: -6.161197553      4.262      5.564
REMARK  3 active torsions:
REMARK  status: ('A' for Active; 'I' for Inactive)
REMARK    1  A    between atoms: N1_1  and  N2_4 
REMARK    2  A    between atoms: N2_4  and  C1_6 
REMARK    3  A    between atoms: C2_9  and  C3_10 
ROOT
HETATM    1  C1  UNL     1       7.573  13.640  13.066  1.00  0.00     0.167 A 
HETATM    2  N3  UNL     1       6.989  14.703  13.635  1.00  0.00    -0.330 N 
ATOM      3  H3  UNL     1       7.228  14.886  14.609  1.00  0.00     0.168 HD
HETATM    4  C2  UNL     1       6.127  15.549  13.067  1.00  0.00     0.129 A 
HETATM    5  C4  UNL     1       5.666  15.494  11.770  1.00  0.00     0.135 A 
HETATM    6  N5  UNL     1       4.742  16.467  11.290  1.00  0.00    -0.095 NA
HETATM    7  C5  UNL     1       6.041  14.527  10.847  1.00  0.00     0.243 A 
HETATM    8  O2  UNL     1       5.561  14.568   9.690  1.00  0.00    -0.278 OA
HETATM    9  S1  UNL     1       7.149  13.365  11.435  1.00  0.00    -0.009 SA
ENDROOT
BRANCH   1  10
HETATM   10  N2  UNL     1       8.404  12.886  13.731  1.00  0.00    -0.286 N 
ATOM     11  H2  UNL     1       9.355  13.189  13.938  1.00  0.00     0.188 HD
BRANCH  10  12
HETATM   12  N1  UNL     1       7.917  11.628  14.148  1.00  0.00    -0.343 N 
ATOM     13  H12 UNL     1       8.544  10.830  14.240  1.00  0.00     0.176 HD
ATOM     14  H11 UNL     1       6.917  11.570  14.346  1.00  0.00     0.176 HD
ENDBRANCH  10  12
ENDBRANCH   1  10
BRANCH   4  15
HETATM   15  C3  UNL     1       5.606  16.660  13.897  1.00  0.00     0.283 C 
HETATM   16  N4  UNL     1       6.300  17.877  14.022  1.00  0.00    -0.056 NA
HETATM   17  O1  UNL     1       4.530  16.515  14.495  1.00  0.00    -0.269 OA
ENDBRANCH   4  15
TORSDOF 3
ENDMDL
