MODEL 1
REMARK VINA RESULT: -5.898215306      0.000      0.000
REMARK  2 active torsions:
REMARK  status: ('A' for Active; 'I' for Inactive)
REMARK       I    between atoms: C1_4  and  N3_6 
REMARK    1  A    between atoms: N3_6  and  C2_8 
REMARK    2  A    between atoms: N5_12  and  O1_13 
ROOT
HETATM    1  C2  UNL     1       6.921  11.897  10.421  1.00  0.00     0.702 A 
HETATM    2  N4  UNL     1       8.218  11.584  10.356  1.00  0.00    -0.182 N 
ATOM      3  H4  UNL     1       8.825  11.781   9.561  1.00  0.00     0.185 HD
HETATM    4  C3  UNL     1       8.613  10.967  11.498  1.00  0.00     0.251 A 
HETATM    5  N5  UNL     1       7.521  10.905  12.273  1.00  0.00    -0.144 N 
HETATM    6  N6  UNL     1       6.491  11.471  11.618  1.00  0.00    -0.104 N 
ATOM      7  H6  UNL     1       5.539  11.561  11.974  1.00  0.00     0.208 HD
ENDROOT
BRANCH   1   8
HETATM    8  N3  UNL     1       6.183  12.482   9.552  1.00  0.00    -0.162 N 
HETATM    9  C1  UNL     1       6.047  13.878   9.423  1.00  0.00     0.200 C 
HETATM   10  N1  UNL     1       5.805  14.692  10.391  1.00  0.00    -0.373 N 
HETATM   11  N2  UNL     1       6.189  14.425   8.130  1.00  0.00    -0.063 NA
ATOM     12  H12 UNL     1       5.707  15.703  10.298  1.00  0.00     0.158 HD
ATOM     13  H11 UNL     1       5.702  14.297  11.326  1.00  0.00     0.158 HD
ATOM     14  H3  UNL     1       5.654  11.894   8.908  1.00  0.00     0.187 HD
ENDBRANCH   1   8
BRANCH   5  15
HETATM   15  O1  UNL     1       7.479  10.347  13.542  1.00  0.00    -0.267 OA
ATOM     16  H1  UNL     1       6.847  10.574  14.215  1.00  0.00     0.247 HD
ENDBRANCH   5  15
TORSDOF 2
ENDMDL
MODEL 2
REMARK VINA RESULT: -5.897453268      1.114      1.503
REMARK  2 active torsions:
REMARK  status: ('A' for Active; 'I' for Inactive)
REMARK       I    between atoms: C1_4  and  N3_6 
REMARK    1  A    between atoms: N3_6  and  C2_8 
REMARK    2  A    between atoms: N5_12  and  O1_13 
ROOT
HETATM    1  C2  UNL     1       6.811  12.366  10.721  1.00  0.00     0.702 A 
HETATM    2  N4  UNL     1       7.985  11.804  10.420  1.00  0.00    -0.182 N 
ATOM      3  H4  UNL     1       8.513  11.980   9.565  1.00  0.00     0.185 HD
HETATM    4  C3  UNL     1       8.376  10.965  11.412  1.00  0.00     0.251 A 
HETATM    5  N5  UNL     1       7.408  11.023  12.337  1.00  0.00    -0.144 N 
HETATM    6  N6  UNL     1       6.455  11.876  11.918  1.00  0.00    -0.104 N 
ATOM      7  H6  UNL     1       5.602  12.110  12.427  1.00  0.00     0.208 HD
ENDROOT
BRANCH   1   8
HETATM    8  N3  UNL     1       6.118  13.207  10.047  1.00  0.00    -0.162 N 
HETATM    9  C1  UNL     1       5.275  12.871   8.970  1.00  0.00     0.200 C 
HETATM   10  N1  UNL     1       5.607  12.125   7.974  1.00  0.00    -0.373 N 
HETATM   11  N2  UNL     1       3.965  13.394   8.985  1.00  0.00    -0.063 NA
ATOM     12  H12 UNL     1       4.997  11.881   7.194  1.00  0.00     0.158 HD
ATOM     13  H11 UNL     1       6.554  11.746   7.962  1.00  0.00     0.158 HD
ATOM     14  H3  UNL     1       6.180  14.190  10.310  1.00  0.00     0.187 HD
ENDBRANCH   1   8
BRANCH   5  15
HETATM   15  O1  UNL     1       7.406  10.313  13.529  1.00  0.00    -0.267 OA
ATOM     16  H1  UNL     1       7.387  10.705  14.395  1.00  0.00     0.247 HD
ENDBRANCH   5  15
TORSDOF 2
ENDMDL
MODEL 3
REMARK VINA RESULT: -5.814612837      1.608      1.758
REMARK  2 active torsions:
REMARK  status: ('A' for Active; 'I' for Inactive)
REMARK       I    between atoms: C1_4  and  N3_6 
REMARK    1  A    between atoms: N3_6  and  C2_8 
REMARK    2  A    between atoms: N5_12  and  O1_13 
ROOT
HETATM    1  C2  UNL     1       6.931  11.428  11.335  1.00  0.00     0.702 A 
HETATM    2  N4  UNL     1       8.059  11.528  10.625  1.00  0.00    -0.182 N 
ATOM      3  H4  UNL     1       8.114  11.859   9.663  1.00  0.00     0.185 HD
HETATM    4  C3  UNL     1       9.122  11.125  11.367  1.00  0.00     0.251 A 
HETATM    5  N5  UNL     1       8.618  10.771  12.558  1.00  0.00    -0.144 N 
HETATM    6  N6  UNL     1       7.286  10.955  12.539  1.00  0.00    -0.104 N 
ATOM      7  H6  UNL     1       6.649  10.766  13.314  1.00  0.00     0.208 HD
ENDROOT
BRANCH   1   8
HETATM    8  N3  UNL     1       5.730  11.709  10.992  1.00  0.00    -0.162 N 
HETATM    9  C1  UNL     1       5.072  12.919  11.288  1.00  0.00     0.200 C 
HETATM   10  N1  UNL     1       5.024  13.472  12.451  1.00  0.00    -0.373 N 
HETATM   11  N2  UNL     1       4.415  13.576  10.226  1.00  0.00    -0.063 NA
ATOM     12  H12 UNL     1       4.549  14.348  12.665  1.00  0.00     0.158 HD
ATOM     13  H11 UNL     1       5.499  12.997  13.219  1.00  0.00     0.158 HD
ATOM     14  H3  UNL     1       5.211  11.006  10.466  1.00  0.00     0.187 HD
ENDBRANCH   1   8
BRANCH   5  15
HETATM   15  O1  UNL     1       9.366  10.296  13.626  1.00  0.00    -0.267 OA
ATOM     16  H1  UNL     1       9.528  10.774  14.430  1.00  0.00     0.247 HD
ENDBRANCH   5  15
TORSDOF 2
ENDMDL
MODEL 4
REMARK VINA RESULT: -5.756551675      2.469      4.381
REMARK  2 active torsions:
REMARK  status: ('A' for Active; 'I' for Inactive)
REMARK       I    between atoms: C1_4  and  N3_6 
REMARK    1  A    between atoms: N3_6  and  C2_8 
REMARK    2  A    between atoms: N5_12  and  O1_13 
ROOT
HETATM    1  C2  UNL     1       7.034  11.858  10.917  1.00  0.00     0.702 A 
HETATM    2  N4  UNL     1       5.700  11.790  10.911  1.00  0.00    -0.182 N 
ATOM      3  H4  UNL     1       5.146  11.170  11.502  1.00  0.00     0.185 HD
HETATM    4  C3  UNL     1       5.186  12.661  10.007  1.00  0.00     0.251 A 
HETATM    5  N5  UNL     1       6.242  13.271   9.451  1.00  0.00    -0.144 N 
HETATM    6  N6  UNL     1       7.367  12.783  10.004  1.00  0.00    -0.104 N 
ATOM      7  H6  UNL     1       8.318  13.070   9.768  1.00  0.00     0.208 HD
ENDROOT
BRANCH   1   8
HETATM    8  N3  UNL     1       7.877  11.201  11.624  1.00  0.00    -0.162 N 
HETATM    9  C1  UNL     1       8.219  11.507  12.956  1.00  0.00     0.200 C 
HETATM   10  N1  UNL     1       8.546  12.675  13.388  1.00  0.00    -0.373 N 
HETATM   11  N2  UNL     1       8.199  10.448  13.888  1.00  0.00    -0.063 NA
ATOM     12  H12 UNL     1       8.793  12.897  14.352  1.00  0.00     0.158 HD
ATOM     13  H11 UNL     1       8.560  13.441  12.714  1.00  0.00     0.158 HD
ATOM     14  H3  UNL     1       8.335  10.399  11.191  1.00  0.00     0.187 HD
ENDBRANCH   1   8
BRANCH   5  15
HETATM   15  O1  UNL     1       6.168  14.247   8.468  1.00  0.00    -0.267 OA
ATOM     16  H1  UNL     1       6.481  14.144   7.576  1.00  0.00     0.247 HD
ENDBRANCH   5  15
TORSDOF 2
ENDMDL
MODEL 5
REMARK VINA RESULT: -5.755318495      2.256      2.663
REMARK  2 active torsions:
REMARK  status: ('A' for Active; 'I' for Inactive)
REMARK       I    between atoms: C1_4  and  N3_6 
REMARK    1  A    between atoms: N3_6  and  C2_8 
REMARK    2  A    between atoms: N5_12  and  O1_13 
ROOT
HETATM    1  C2  UNL     1       6.987  12.035  12.026  1.00  0.00     0.702 A 
HETATM    2  N4  UNL     1       7.379  11.117  12.914  1.00  0.00    -0.182 N 
ATOM      3  H4  UNL     1       7.015  11.030  13.862  1.00  0.00     0.185 HD
HETATM    4  C3  UNL     1       8.332  10.314  12.375  1.00  0.00     0.251 A 
HETATM    5  N5  UNL     1       8.520  10.764  11.126  1.00  0.00    -0.144 N 
HETATM    6  N6  UNL     1       7.702  11.811  10.913  1.00  0.00    -0.104 N 
ATOM      7  H6  UNL     1       7.637  12.347  10.047  1.00  0.00     0.208 HD
ENDROOT
BRANCH   1   8
HETATM    8  N3  UNL     1       6.115  12.965  12.152  1.00  0.00    -0.162 N 
HETATM    9  C1  UNL     1       6.414  14.312  12.436  1.00  0.00     0.200 C 
HETATM   10  N1  UNL     1       7.194  14.716  13.378  1.00  0.00    -0.373 N 
HETATM   11  N2  UNL     1       5.809  15.294  11.623  1.00  0.00    -0.063 NA
ATOM     12  H12 UNL     1       7.410  15.691  13.583  1.00  0.00     0.158 HD
ATOM     13  H11 UNL     1       7.631  14.007  13.966  1.00  0.00     0.158 HD
ATOM     14  H3  UNL     1       5.134  12.712  12.039  1.00  0.00     0.187 HD
ENDBRANCH   1   8
BRANCH   5  15
HETATM   15  O1  UNL     1       9.415  10.224  10.215  1.00  0.00    -0.267 OA
ATOM     16  H1  UNL     1       9.522  10.520   9.318  1.00  0.00     0.247 HD
ENDBRANCH   5  15
TORSDOF 2
ENDMDL
