MODEL 1
REMARK VINA RESULT: -6.582586081      0.000      0.000
REMARK  2 active torsions:
REMARK  status: ('A' for Active; 'I' for Inactive)
REMARK       I    between atoms: N1_1  and  C1_4 
REMARK       I    between atoms: C1_4  and  N3_6 
REMARK    1  A    between atoms: N3_6  and  C2_8 
REMARK    2  A    between atoms: N6_15  and  N7_16 
ROOT
HETATM    1  C2  UNL     1       6.658  12.226  11.278  1.00  0.00     0.724 A 
HETATM    2  N4  UNL     1       7.381  12.433  10.163  1.00  0.00    -0.126 N 
ATOM      3  H4  UNL     1       8.089  11.800   9.792  1.00  0.00     0.206 HD
HETATM    4  N5  UNL     1       7.029  13.589   9.623  1.00  0.00    -0.235 N 
ATOM      5  H5  UNL     1       7.422  13.986   8.770  1.00  0.00     0.192 HD
HETATM    6  C3  UNL     1       6.067  14.161  10.379  1.00  0.00     0.375 A 
HETATM    7  O1  UNL     1       5.500  15.275  10.156  1.00  0.00    -0.243 OA
HETATM    8  N6  UNL     1       5.857  13.302  11.391  1.00  0.00    -0.035 N 
ENDROOT
BRANCH   1   9
HETATM    9  N3  UNL     1       6.714  11.202  12.088  1.00  0.00    -0.161 N 
HETATM   10  C1  UNL     1       7.963  10.871  12.667  1.00  0.00     0.200 C 
HETATM   11  N1  UNL     1       8.442  11.650  13.568  1.00  0.00    -0.373 N 
HETATM   12  N2  UNL     1       8.647   9.707  12.247  1.00  0.00    -0.063 NA
ATOM     13  H12 UNL     1       9.342  11.411  13.985  1.00  0.00     0.158 HD
ATOM     14  H11 UNL     1       7.947  12.489  13.871  1.00  0.00     0.158 HD
ATOM     15  H3  UNL     1       5.879  10.656  12.297  1.00  0.00     0.187 HD
ENDBRANCH   1   9
BRANCH   8  16
HETATM   16  N7  UNL     1       4.922  13.509  12.425  1.00  0.00    -0.320 N 
ATOM     17  H72 UNL     1       5.171  13.762  13.381  1.00  0.00     0.178 HD
ATOM     18  H71 UNL     1       3.911  13.429  12.324  1.00  0.00     0.178 HD
ENDBRANCH   8  16
TORSDOF 2
ENDMDL
MODEL 2
REMARK VINA RESULT: -6.454929790      2.436      4.024
REMARK  2 active torsions:
REMARK  status: ('A' for Active; 'I' for Inactive)
REMARK       I    between atoms: N1_1  and  C1_4 
REMARK       I    between atoms: C1_4  and  N3_6 
REMARK    1  A    between atoms: N3_6  and  C2_8 
REMARK    2  A    between atoms: N6_15  and  N7_16 
ROOT
HETATM    1  C2  UNL     1       7.389  12.104  11.924  1.00  0.00     0.724 A 
HETATM    2  N4  UNL     1       7.612  13.020  12.883  1.00  0.00    -0.126 N 
ATOM      3  H4  UNL     1       6.908  13.391  13.520  1.00  0.00     0.206 HD
HETATM    4  N5  UNL     1       8.891  13.363  12.870  1.00  0.00    -0.235 N 
ATOM      5  H5  UNL     1       9.326  14.040  13.495  1.00  0.00     0.192 HD
HETATM    6  C3  UNL     1       9.528  12.676  11.897  1.00  0.00     0.375 A 
HETATM    7  O1  UNL     1      10.760  12.759  11.604  1.00  0.00    -0.243 OA
HETATM    8  N6  UNL     1       8.582  11.908  11.331  1.00  0.00    -0.035 N 
ENDROOT
BRANCH   1   9
HETATM    9  N3  UNL     1       6.259  11.521  11.623  1.00  0.00    -0.161 N 
HETATM   10  C1  UNL     1       5.311  12.247  10.863  1.00  0.00     0.200 C 
HETATM   11  N1  UNL     1       5.564  12.466   9.624  1.00  0.00    -0.373 N 
HETATM   12  N2  UNL     1       4.122  12.709  11.474  1.00  0.00    -0.063 NA
ATOM     13  H12 UNL     1       4.881  12.989   9.076  1.00  0.00     0.158 HD
ATOM     14  H11 UNL     1       6.422  12.133   9.183  1.00  0.00     0.158 HD
ATOM     15  H3  UNL     1       6.065  10.567  11.929  1.00  0.00     0.187 HD
ENDBRANCH   1   9
BRANCH   8  16
HETATM   16  N7  UNL     1       8.816  11.021  10.261  1.00  0.00    -0.320 N 
ATOM     17  H72 UNL     1       8.082  10.607   9.688  1.00  0.00     0.178 HD
ATOM     18  H71 UNL     1       9.736  10.707   9.953  1.00  0.00     0.178 HD
ENDBRANCH   8  16
TORSDOF 2
ENDMDL
MODEL 3
REMARK VINA RESULT: -6.381644957      2.501      4.217
REMARK  2 active torsions:
REMARK  status: ('A' for Active; 'I' for Inactive)
REMARK       I    between atoms: N1_1  and  C1_4 
REMARK       I    between atoms: C1_4  and  N3_6 
REMARK    1  A    between atoms: N3_6  and  C2_8 
REMARK    2  A    between atoms: N6_15  and  N7_16 
ROOT
HETATM    1  C2  UNL     1       7.630  13.094  12.504  1.00  0.00     0.724 A 
HETATM    2  N4  UNL     1       8.562  12.722  13.399  1.00  0.00    -0.126 N 
ATOM      3  H4  UNL     1       9.166  13.357  13.921  1.00  0.00     0.206 HD
HETATM    4  N5  UNL     1       8.571  11.402  13.496  1.00  0.00    -0.235 N 
ATOM      5  H5  UNL     1       9.184  10.860  14.105  1.00  0.00     0.192 HD
HETATM    6  C3  UNL     1       7.643  10.886  12.662  1.00  0.00     0.375 A 
HETATM    7  O1  UNL     1       7.383   9.654  12.500  1.00  0.00    -0.243 OA
HETATM    8  N6  UNL     1       7.078  11.947  12.064  1.00  0.00    -0.035 N 
ENDROOT
BRANCH   1   9
HETATM    9  N3  UNL     1       7.317  14.307  12.132  1.00  0.00    -0.161 N 
HETATM   10  C1  UNL     1       6.105  14.864  12.606  1.00  0.00     0.200 C 
HETATM   11  N1  UNL     1       6.029  15.190  13.846  1.00  0.00    -0.373 N 
HETATM   12  N2  UNL     1       5.019  15.046  11.719  1.00  0.00    -0.063 NA
ATOM     13  H12 UNL     1       5.156  15.591  14.187  1.00  0.00     0.158 HD
ATOM     14  H11 UNL     1       6.813  15.059  14.485  1.00  0.00     0.158 HD
ATOM     15  H3  UNL     1       7.932  14.839  11.515  1.00  0.00     0.187 HD
ENDBRANCH   1   9
BRANCH   8  16
HETATM   16  N7  UNL     1       6.047  11.861  11.106  1.00  0.00    -0.320 N 
ATOM     17  H72 UNL     1       5.551  11.002  10.874  1.00  0.00     0.178 HD
ATOM     18  H71 UNL     1       5.696  12.643  10.554  1.00  0.00     0.178 HD
ENDBRANCH   8  16
TORSDOF 2
ENDMDL
MODEL 4
REMARK VINA RESULT: -6.363954943      2.753      4.044
REMARK  2 active torsions:
REMARK  status: ('A' for Active; 'I' for Inactive)
REMARK       I    between atoms: N1_1  and  C1_4 
REMARK       I    between atoms: C1_4  and  N3_6 
REMARK    1  A    between atoms: N3_6  and  C2_8 
REMARK    2  A    between atoms: N6_15  and  N7_16 
ROOT
HETATM    1  C2  UNL     1       8.363  13.069  12.234  1.00  0.00     0.724 A 
HETATM    2  N4  UNL     1       9.111  13.421  11.173  1.00  0.00    -0.126 N 
ATOM      3  H4  UNL     1       9.387  14.374  10.936  1.00  0.00     0.206 HD
HETATM    4  N5  UNL     1       9.432  12.337  10.486  1.00  0.00    -0.235 N 
ATOM      5  H5  UNL     1       9.995  12.322   9.636  1.00  0.00     0.192 HD
HETATM    6  C3  UNL     1       8.896  11.252  11.087  1.00  0.00     0.375 A 
HETATM    7  O1  UNL     1       9.004  10.049  10.697  1.00  0.00    -0.243 OA
HETATM    8  N6  UNL     1       8.244  11.730  12.160  1.00  0.00    -0.035 N 
ENDROOT
BRANCH   1   9
HETATM    9  N3  UNL     1       7.855  13.851  13.149  1.00  0.00    -0.161 N 
HETATM   10  C1  UNL     1       6.705  14.610  12.820  1.00  0.00     0.200 C 
HETATM   11  N1  UNL     1       5.588  13.993  12.681  1.00  0.00    -0.373 N 
HETATM   12  N2  UNL     1       6.810  16.010  12.653  1.00  0.00    -0.063 NA
ATOM     13  H12 UNL     1       4.760  14.540  12.444  1.00  0.00     0.158 HD
ATOM     14  H11 UNL     1       5.513  12.983  12.802  1.00  0.00     0.158 HD
ATOM     15  H3  UNL     1       8.275  13.914  14.076  1.00  0.00     0.187 HD
ENDBRANCH   1   9
BRANCH   8  16
HETATM   16  N7  UNL     1       7.535  10.929  13.077  1.00  0.00    -0.320 N 
ATOM     17  H72 UNL     1       7.204  11.254  13.985  1.00  0.00     0.178 HD
ATOM     18  H71 UNL     1       7.283   9.953  12.929  1.00  0.00     0.178 HD
ENDBRANCH   8  16
TORSDOF 2
ENDMDL
MODEL 5
REMARK VINA RESULT: -6.361711976      2.382      4.215
REMARK  2 active torsions:
REMARK  status: ('A' for Active; 'I' for Inactive)
REMARK       I    between atoms: N1_1  and  C1_4 
REMARK       I    between atoms: C1_4  and  N3_6 
REMARK    1  A    between atoms: N3_6  and  C2_8 
REMARK    2  A    between atoms: N6_15  and  N7_16 
ROOT
HETATM    1  C2  UNL     1       8.012  12.678  12.672  1.00  0.00     0.724 A 
HETATM    2  N4  UNL     1       8.503  11.834  13.598  1.00  0.00    -0.126 N 
ATOM      3  H4  UNL     1       8.492  11.992  14.605  1.00  0.00     0.206 HD
HETATM    4  N5  UNL     1       9.000  10.767  12.995  1.00  0.00    -0.235 N 
ATOM      5  H5  UNL     1       9.433   9.972  13.465  1.00  0.00     0.192 HD
HETATM    6  C3  UNL     1       8.845  10.895  11.659  1.00  0.00     0.375 A 
HETATM    7  O1  UNL     1       9.209  10.056  10.778  1.00  0.00    -0.243 OA
HETATM    8  N6  UNL     1       8.235  12.079  11.488  1.00  0.00    -0.035 N 
ENDROOT
BRANCH   1   9
HETATM    9  N3  UNL     1       7.440  13.836  12.870  1.00  0.00    -0.161 N 
HETATM   10  C1  UNL     1       6.182  14.075  12.267  1.00  0.00     0.200 C 
HETATM   11  N1  UNL     1       5.158  13.455  12.730  1.00  0.00    -0.373 N 
HETATM   12  N2  UNL     1       6.079  14.978  11.183  1.00  0.00    -0.063 NA
ATOM     13  H12 UNL     1       4.251  13.626  12.296  1.00  0.00     0.158 HD
ATOM     14  H11 UNL     1       5.232  12.804  13.512  1.00  0.00     0.158 HD
ATOM     15  H3  UNL     1       7.890  14.550  13.444  1.00  0.00     0.187 HD
ENDBRANCH   1   9
BRANCH   8  16
HETATM   16  N7  UNL     1       7.879  12.613  10.233  1.00  0.00    -0.320 N 
ATOM     17  H72 UNL     1       8.502  12.646   9.426  1.00  0.00     0.178 HD
ATOM     18  H71 UNL     1       6.971  13.016  10.005  1.00  0.00     0.178 HD
ENDBRANCH   8  16
TORSDOF 2
ENDMDL
