MODEL 1
REMARK VINA RESULT: -6.057986130      0.000      0.000
REMARK  2 active torsions:
REMARK  status: ('A' for Active; 'I' for Inactive)
REMARK    1  A    between atoms: N2_5  and  N3_7 
REMARK       I    between atoms: N3_7  and  C4_9 
REMARK       I    between atoms: C4_9  and  N4_11 
REMARK    2  A    between atoms: N4_11  and  N5_13 
ROOT
HETATM    1  C1  UNL     1      10.600  13.315  10.545  1.00  0.00     0.020 C 
HETATM    2  C2  UNL     1       9.883  12.472  11.014  1.00  0.00    -0.043 C 
HETATM    3  C3  UNL     1       9.029  11.461  11.556  1.00  0.00     0.184 C 
HETATM    4  N1  UNL     1       9.011  10.181  10.946  1.00  0.00    -0.071 NA
HETATM    5  N2  UNL     1       8.283  11.694  12.576  1.00  0.00    -0.277 N 
ATOM      6  H2  UNL     1       7.678  10.965  12.954  1.00  0.00     0.189 HD
ENDROOT
BRANCH   5   7
HETATM    7  N3  UNL     1       8.315  12.958  13.157  1.00  0.00    -0.248 N 
HETATM    8  C4  UNL     1       7.396  13.964  12.780  1.00  0.00     0.352 C 
HETATM    9  O1  UNL     1       6.519  13.727  11.895  1.00  0.00    -0.244 OA
HETATM   10  N4  UNL     1       7.422  15.247  13.365  1.00  0.00    -0.257 N 
ATOM     11  H4  UNL     1       8.130  15.431  14.076  1.00  0.00     0.191 HD
ATOM     12  H3  UNL     1       9.017  13.162  13.870  1.00  0.00     0.192 HD
BRANCH  10  13
HETATM   13  N5  UNL     1       6.551  16.274  13.039  1.00  0.00    -0.341 N 
ATOM     14  H52 UNL     1       6.090  16.213  12.131  1.00  0.00     0.177 HD
ATOM     15  H51 UNL     1       6.348  17.071  13.642  1.00  0.00     0.177 HD
ENDBRANCH  10  13
ENDBRANCH   5   7
TORSDOF 2
ENDMDL
MODEL 2
REMARK VINA RESULT: -5.964078527      2.618      3.076
REMARK  2 active torsions:
REMARK  status: ('A' for Active; 'I' for Inactive)
REMARK    1  A    between atoms: N2_5  and  N3_7 
REMARK       I    between atoms: N3_7  and  C4_9 
REMARK       I    between atoms: C4_9  and  N4_11 
REMARK    2  A    between atoms: N4_11  and  N5_13 
ROOT
HETATM    1  C1  UNL     1       9.337  10.657  12.807  1.00  0.00     0.020 C 
HETATM    2  C2  UNL     1       9.460  11.520  11.979  1.00  0.00    -0.043 C 
HETATM    3  C3  UNL     1       9.620  12.554  11.004  1.00  0.00     0.184 C 
HETATM    4  N1  UNL     1      10.867  13.222  10.912  1.00  0.00    -0.071 NA
HETATM    5  N2  UNL     1       8.658  12.884  10.217  1.00  0.00    -0.277 N 
ATOM      6  H2  UNL     1       8.784  13.623   9.525  1.00  0.00     0.189 HD
ENDROOT
BRANCH   5   7
HETATM    7  N3  UNL     1       7.443  12.215  10.325  1.00  0.00    -0.248 N 
HETATM    8  C4  UNL     1       6.331  12.810  10.965  1.00  0.00     0.352 C 
HETATM    9  O1  UNL     1       6.427  13.975  11.459  1.00  0.00    -0.244 OA
HETATM   10  N4  UNL     1       5.096  12.140  11.078  1.00  0.00    -0.257 N 
ATOM     11  H4  UNL     1       5.026  11.203  10.680  1.00  0.00     0.191 HD
ATOM     12  H3  UNL     1       7.352  11.277   9.934  1.00  0.00     0.192 HD
BRANCH  10  13
HETATM   13  N5  UNL     1       3.972  12.667  11.693  1.00  0.00    -0.341 N 
ATOM     14  H52 UNL     1       3.741  12.301  12.617  1.00  0.00     0.177 HD
ATOM     15  H51 UNL     1       3.374  13.385  11.284  1.00  0.00     0.177 HD
ENDBRANCH  10  13
ENDBRANCH   5   7
TORSDOF 2
ENDMDL
MODEL 3
REMARK VINA RESULT: -5.927369126      3.223      4.301
REMARK  2 active torsions:
REMARK  status: ('A' for Active; 'I' for Inactive)
REMARK    1  A    between atoms: N2_5  and  N3_7 
REMARK       I    between atoms: N3_7  and  C4_9 
REMARK       I    between atoms: C4_9  and  N4_11 
REMARK    2  A    between atoms: N4_11  and  N5_13 
ROOT
HETATM    1  C1  UNL     1       5.150  15.376  10.499  1.00  0.00     0.020 C 
HETATM    2  C2  UNL     1       5.367  14.316   9.975  1.00  0.00    -0.043 C 
HETATM    3  C3  UNL     1       5.607  13.054   9.346  1.00  0.00     0.184 C 
HETATM    4  N1  UNL     1       4.850  12.706   8.199  1.00  0.00    -0.071 NA
HETATM    5  N2  UNL     1       6.491  12.240   9.801  1.00  0.00    -0.277 N 
ATOM      6  H2  UNL     1       6.654  11.343   9.344  1.00  0.00     0.189 HD
ENDROOT
BRANCH   5   7
HETATM    7  N3  UNL     1       7.222  12.602  10.928  1.00  0.00    -0.248 N 
HETATM    8  C4  UNL     1       7.461  11.683  11.976  1.00  0.00     0.352 C 
HETATM    9  O1  UNL     1       7.006  10.501  11.904  1.00  0.00    -0.244 OA
HETATM   10  N4  UNL     1       8.201  12.042  13.121  1.00  0.00    -0.257 N 
ATOM     11  H4  UNL     1       8.564  12.994  13.173  1.00  0.00     0.191 HD
ATOM     12  H3  UNL     1       7.593  13.550  11.000  1.00  0.00     0.192 HD
BRANCH  10  13
HETATM   13  N5  UNL     1       8.468  11.190  14.180  1.00  0.00    -0.341 N 
ATOM     14  H52 UNL     1       9.043  10.372  13.977  1.00  0.00     0.177 HD
ATOM     15  H51 UNL     1       8.131  11.330  15.133  1.00  0.00     0.177 HD
ENDBRANCH  10  13
ENDBRANCH   5   7
TORSDOF 2
ENDMDL
MODEL 4
REMARK VINA RESULT: -5.917944175      2.747      4.275
REMARK  2 active torsions:
REMARK  status: ('A' for Active; 'I' for Inactive)
REMARK    1  A    between atoms: N2_5  and  N3_7 
REMARK       I    between atoms: N3_7  and  C4_9 
REMARK       I    between atoms: C4_9  and  N4_11 
REMARK    2  A    between atoms: N4_11  and  N5_13 
ROOT
HETATM    1  C1  UNL     1       5.661  16.095  11.970  1.00  0.00     0.020 C 
HETATM    2  C2  UNL     1       5.848  15.324  11.068  1.00  0.00    -0.043 C 
HETATM    3  C3  UNL     1       6.055  14.408   9.989  1.00  0.00     0.184 C 
HETATM    4  N1  UNL     1       5.253  14.529   8.825  1.00  0.00    -0.071 NA
HETATM    5  N2  UNL     1       6.948  13.486  10.057  1.00  0.00    -0.277 N 
ATOM      6  H2  UNL     1       7.086  12.839   9.281  1.00  0.00     0.189 HD
ENDROOT
BRANCH   5   7
HETATM    7  N3  UNL     1       7.722  13.385  11.209  1.00  0.00    -0.248 N 
HETATM    8  C4  UNL     1       7.617  12.268  12.070  1.00  0.00     0.352 C 
HETATM    9  O1  UNL     1       6.804  11.331  11.804  1.00  0.00    -0.244 OA
HETATM   10  N4  UNL     1       8.399  12.159  13.238  1.00  0.00    -0.257 N 
ATOM     11  H4  UNL     1       9.050  12.916  13.448  1.00  0.00     0.191 HD
ATOM     12  H3  UNL     1       8.379  14.132  11.436  1.00  0.00     0.192 HD
BRANCH  10  13
HETATM   13  N5  UNL     1       8.342  11.093  14.122  1.00  0.00    -0.341 N 
ATOM     14  H52 UNL     1       8.527  11.300  15.103  1.00  0.00     0.177 HD
ATOM     15  H51 UNL     1       8.129  10.132  13.853  1.00  0.00     0.177 HD
ENDBRANCH  10  13
ENDBRANCH   5   7
TORSDOF 2
ENDMDL
MODEL 5
REMARK VINA RESULT: -5.865232324      2.563      5.353
REMARK  2 active torsions:
REMARK  status: ('A' for Active; 'I' for Inactive)
REMARK    1  A    between atoms: N2_5  and  N3_7 
REMARK       I    between atoms: N3_7  and  C4_9 
REMARK       I    between atoms: C4_9  and  N4_11 
REMARK    2  A    between atoms: N4_11  and  N5_13 
ROOT
HETATM    1  C1  UNL     1       6.842  18.460  14.398  1.00  0.00     0.020 C 
HETATM    2  C2  UNL     1       6.332  17.904  13.462  1.00  0.00    -0.043 C 
HETATM    3  C3  UNL     1       5.709  17.251  12.352  1.00  0.00     0.184 C 
HETATM    4  N1  UNL     1       4.643  17.905  11.683  1.00  0.00    -0.071 NA
HETATM    5  N2  UNL     1       6.098  16.091  11.956  1.00  0.00    -0.277 N 
ATOM      6  H2  UNL     1       5.646  15.636  11.164  1.00  0.00     0.189 HD
ENDROOT
BRANCH   5   7
HETATM    7  N3  UNL     1       7.144  15.468  12.628  1.00  0.00    -0.248 N 
HETATM    8  C4  UNL     1       7.256  14.059  12.669  1.00  0.00     0.352 C 
HETATM    9  O1  UNL     1       6.392  13.333  12.089  1.00  0.00    -0.244 OA
HETATM   10  N4  UNL     1       8.315  13.420  13.347  1.00  0.00    -0.257 N 
ATOM     11  H4  UNL     1       9.005  14.009  13.813  1.00  0.00     0.191 HD
ATOM     12  H3  UNL     1       7.845  16.040  13.100  1.00  0.00     0.192 HD
BRANCH  10  13
HETATM   13  N5  UNL     1       8.479  12.046  13.425  1.00  0.00    -0.341 N 
ATOM     14  H52 UNL     1       8.299  11.614  14.330  1.00  0.00     0.177 HD
ATOM     15  H51 UNL     1       8.764  11.455  12.644  1.00  0.00     0.177 HD
ENDBRANCH  10  13
ENDBRANCH   5   7
TORSDOF 2
ENDMDL
