MODEL 1
REMARK VINA RESULT: -7.849354185      0.000      0.000
REMARK  8 active torsions:
REMARK  status: ('A' for Active; 'I' for Inactive)
REMARK    1  A    between atoms: C1_2  and  C2_3 
REMARK       I    between atoms: C1_2  and  N4_25 
REMARK    2  A    between atoms: C2_3  and  N1_4 
REMARK    3  A    between atoms: C2_3  and  C12_17 
REMARK    4  A    between atoms: N1_4  and  C3_6 
REMARK    5  A    between atoms: C3_6  and  C4_7 
REMARK    6  A    between atoms: C4_7  and  O2_8 
REMARK    7  A    between atoms: C4_7  and  C5_10 
REMARK    8  A    between atoms: C5_10  and  C6_11 
ROOT
HETATM    1  C2  UNL     1      18.588   4.043  11.925  1.00  0.00     0.221 C 
ENDROOT
BRANCH   1   2
HETATM    2  C1  UNL     1      20.008   3.995  11.540  1.00  0.00     0.248 C 
HETATM    3  O1  UNL     1      20.915   3.515  12.283  1.00  0.00    -0.271 OA
HETATM    4  N4  UNL     1      20.430   4.511  10.277  1.00  0.00    -0.350 N 
HETATM    5  C16 UNL     1      21.809   4.496   9.763  1.00  0.00     0.126 C 
HETATM    6  C19 UNL     1      19.574   5.164   9.320  1.00  0.00     0.126 C 
HETATM    7  C17 UNL     1      21.771   5.333   8.525  1.00  0.00     0.021 C 
HETATM    8  C18 UNL     1      20.513   6.171   8.645  1.00  0.00     0.021 C 
ENDBRANCH   1   2
BRANCH   1   9
HETATM    9  N1  UNL     1      18.313   4.416  13.275  1.00  0.00    -0.402 N 
ATOM     10  H1  UNL     1      18.831   4.001  14.050  1.00  0.00     0.154 HD
BRANCH   9  11
HETATM   11  C3  UNL     1      17.297   5.379  13.508  1.00  0.00     0.146 C 
BRANCH  11  12
HETATM   12  C4  UNL     1      17.050   5.438  15.057  1.00  0.00     0.136 C 
BRANCH  12  13
HETATM   13  O2  UNL     1      17.333   6.783  15.393  1.00  0.00    -0.394 OA
ATOM     14  H2  UNL     1      16.569   7.059  15.886  1.00  0.00     0.210 HD
ENDBRANCH  12  13
BRANCH  12  15
HETATM   15  C5  UNL     1      15.626   5.077  15.316  1.00  0.00     0.038 C 
BRANCH  15  16
HETATM   16  C6  UNL     1      15.462   3.704  15.836  1.00  0.00    -0.012 C 
HETATM   17  C7  UNL     1      14.502   3.689  17.041  1.00  0.00     0.005 C 
HETATM   18  C8  UNL     1      13.981   2.282  17.129  1.00  0.00     0.000 C 
HETATM   19  C9  UNL     1      15.079   1.269  17.308  1.00  0.00     0.000 C 
HETATM   20  C10 UNL     1      16.294   1.514  16.501  1.00  0.00     0.000 C 
HETATM   21  C11 UNL     1      16.674   2.979  16.322  1.00  0.00     0.005 C 
ENDBRANCH  15  16
ENDBRANCH  12  15
ENDBRANCH  11  12
ENDBRANCH   9  11
ENDBRANCH   1   9
BRANCH   1  22
HETATM   22  C12 UNL     1      17.873   2.768  11.592  1.00  0.00     0.056 A 
HETATM   23  C13 UNL     1      16.636   2.780  11.063  1.00  0.00     0.115 A 
HETATM   24  N2  UNL     1      16.013   1.628  10.767  1.00  0.00    -0.372 N 
HETATM   25  C14 UNL     1      16.643   0.466  11.007  1.00  0.00     0.104 A 
ATOM     26  H2  UNL     1      15.075   1.635  10.366  1.00  0.00     0.164 HD
HETATM   27  C15 UNL     1      17.911   0.484  11.551  1.00  0.00     0.105 A 
HETATM   28  N3  UNL     1      18.567   1.629  11.861  1.00  0.00    -0.365 N 
ATOM     29  H3  UNL     1      19.505   1.635  12.264  1.00  0.00     0.165 HD
ENDBRANCH   1  22
TORSDOF 8
ENDMDL
MODEL 2
REMARK VINA RESULT: -7.783645479      1.631      4.092
REMARK  8 active torsions:
REMARK  status: ('A' for Active; 'I' for Inactive)
REMARK    1  A    between atoms: C1_2  and  C2_3 
REMARK       I    between atoms: C1_2  and  N4_25 
REMARK    2  A    between atoms: C2_3  and  N1_4 
REMARK    3  A    between atoms: C2_3  and  C12_17 
REMARK    4  A    between atoms: N1_4  and  C3_6 
REMARK    5  A    between atoms: C3_6  and  C4_7 
REMARK    6  A    between atoms: C4_7  and  O2_8 
REMARK    7  A    between atoms: C4_7  and  C5_10 
REMARK    8  A    between atoms: C5_10  and  C6_11 
ROOT
HETATM    1  C2  UNL     1      17.889   5.005  12.219  1.00  0.00     0.221 C 
ENDROOT
BRANCH   1   2
HETATM    2  C1  UNL     1      17.330   4.060  11.239  1.00  0.00     0.248 C 
HETATM    3  O1  UNL     1      16.803   4.422  10.144  1.00  0.00    -0.271 OA
HETATM    4  N4  UNL     1      17.354   2.655  11.496  1.00  0.00    -0.350 N 
HETATM    5  C16 UNL     1      16.857   1.609  10.589  1.00  0.00     0.126 C 
HETATM    6  C19 UNL     1      17.838   2.044  12.708  1.00  0.00     0.126 C 
HETATM    7  C17 UNL     1      16.902   0.348  11.390  1.00  0.00     0.021 C 
HETATM    8  C18 UNL     1      16.960   0.793  12.839  1.00  0.00     0.021 C 
ENDBRANCH   1   2
BRANCH   1   9
HETATM    9  N1  UNL     1      17.169   6.225  12.398  1.00  0.00    -0.402 N 
ATOM     10  H1  UNL     1      17.428   7.068  11.885  1.00  0.00     0.154 HD
BRANCH   9  11
HETATM   11  C3  UNL     1      16.084   6.231  13.313  1.00  0.00     0.146 C 
BRANCH  11  12
HETATM   12  C4  UNL     1      16.560   5.491  14.613  1.00  0.00     0.136 C 
BRANCH  12  13
HETATM   13  O2  UNL     1      17.382   6.444  15.261  1.00  0.00    -0.394 OA
ATOM     14  H2  UNL     1      16.768   6.970  15.761  1.00  0.00     0.210 HD
ENDBRANCH  12  13
BRANCH  12  15
HETATM   15  C5  UNL     1      15.354   5.141  15.418  1.00  0.00     0.038 C 
BRANCH  15  16
HETATM   16  C6  UNL     1      15.349   3.736  15.873  1.00  0.00    -0.012 C 
HETATM   17  C7  UNL     1      14.482   3.575  17.136  1.00  0.00     0.005 C 
HETATM   18  C8  UNL     1      14.095   2.123  17.182  1.00  0.00     0.000 C 
HETATM   19  C9  UNL     1      15.289   1.208  17.233  1.00  0.00     0.000 C 
HETATM   20  C10 UNL     1      16.417   1.602  16.362  1.00  0.00     0.000 C 
HETATM   21  C11 UNL     1      16.653   3.103  16.239  1.00  0.00     0.005 C 
ENDBRANCH  15  16
ENDBRANCH  12  15
ENDBRANCH  11  12
ENDBRANCH   9  11
ENDBRANCH   1   9
BRANCH   1  22
HETATM   22  C12 UNL     1      19.334   5.300  11.953  1.00  0.00     0.056 A 
HETATM   23  C13 UNL     1      20.139   5.772  12.921  1.00  0.00     0.115 A 
HETATM   24  N2  UNL     1      21.433   6.026  12.665  1.00  0.00    -0.372 N 
HETATM   25  C14 UNL     1      21.909   5.802  11.430  1.00  0.00     0.104 A 
ATOM     26  H2  UNL     1      22.044   6.384  13.399  1.00  0.00     0.164 HD
HETATM   27  C15 UNL     1      21.061   5.317  10.456  1.00  0.00     0.105 A 
HETATM   28  N3  UNL     1      19.751   5.051  10.680  1.00  0.00    -0.365 N 
ATOM     29  H3  UNL     1      19.128   4.694   9.955  1.00  0.00     0.165 HD
ENDBRANCH   1  22
TORSDOF 8
ENDMDL
MODEL 3
REMARK VINA RESULT: -7.714206890      3.070      6.807
REMARK  8 active torsions:
REMARK  status: ('A' for Active; 'I' for Inactive)
REMARK    1  A    between atoms: C1_2  and  C2_3 
REMARK       I    between atoms: C1_2  and  N4_25 
REMARK    2  A    between atoms: C2_3  and  N1_4 
REMARK    3  A    between atoms: C2_3  and  C12_17 
REMARK    4  A    between atoms: N1_4  and  C3_6 
REMARK    5  A    between atoms: C3_6  and  C4_7 
REMARK    6  A    between atoms: C4_7  and  O2_8 
REMARK    7  A    between atoms: C4_7  and  C5_10 
REMARK    8  A    between atoms: C5_10  and  C6_11 
ROOT
HETATM    1  C2  UNL     1      16.964   3.324  14.143  1.00  0.00     0.221 C 
ENDROOT
BRANCH   1   2
HETATM    2  C1  UNL     1      15.677   3.572  14.814  1.00  0.00     0.248 C 
HETATM    3  O1  UNL     1      14.883   4.499  14.475  1.00  0.00    -0.271 OA
HETATM    4  N4  UNL     1      15.267   2.756  15.912  1.00  0.00    -0.350 N 
HETATM    5  C16 UNL     1      13.998   2.881  16.646  1.00  0.00     0.126 C 
HETATM    6  C19 UNL     1      16.054   1.701  16.499  1.00  0.00     0.126 C 
HETATM    7  C17 UNL     1      14.137   1.966  17.819  1.00  0.00     0.021 C 
HETATM    8  C18 UNL     1      15.627   1.730  17.972  1.00  0.00     0.021 C 
ENDBRANCH   1   2
BRANCH   1   9
HETATM    9  N1  UNL     1      17.713   4.480  13.769  1.00  0.00    -0.402 N 
ATOM     10  H1  UNL     1      17.817   4.745  12.790  1.00  0.00     0.154 HD
BRANCH   9  11
HETATM   11  C3  UNL     1      18.310   5.250  14.802  1.00  0.00     0.146 C 
BRANCH  11  12
HETATM   12  C4  UNL     1      19.670   5.804  14.249  1.00  0.00     0.136 C 
BRANCH  12  13
HETATM   13  O2  UNL     1      20.127   4.779  13.388  1.00  0.00    -0.394 OA
ATOM     14  H2  UNL     1      19.336   4.473  12.960  1.00  0.00     0.210 HD
ENDBRANCH  12  13
BRANCH  12  15
HETATM   15  C5  UNL     1      19.393   7.076  13.520  1.00  0.00     0.038 C 
BRANCH  15  16
HETATM   16  C6  UNL     1      20.045   8.250  14.135  1.00  0.00    -0.012 C 
HETATM   17  C7  UNL     1      19.162   8.841  15.250  1.00  0.00     0.005 C 
HETATM   18  C8  UNL     1      20.095   9.614  16.141  1.00  0.00     0.000 C 
HETATM   19  C9  UNL     1      20.827  10.703  15.404  1.00  0.00     0.000 C 
HETATM   20  C10 UNL     1      21.298  10.337  14.051  1.00  0.00     0.000 C 
HETATM   21  C11 UNL     1      20.370   9.420  13.264  1.00  0.00     0.005 C 
ENDBRANCH  15  16
ENDBRANCH  12  15
ENDBRANCH  11  12
ENDBRANCH   9  11
ENDBRANCH   1   9
BRANCH   1  22
HETATM   22  C12 UNL     1      16.814   2.411  12.964  1.00  0.00     0.056 A 
HETATM   23  C13 UNL     1      16.199   2.820  11.839  1.00  0.00     0.115 A 
HETATM   24  N2  UNL     1      16.078   1.989  10.791  1.00  0.00    -0.372 N 
HETATM   25  C14 UNL     1      16.579   0.747  10.882  1.00  0.00     0.104 A 
ATOM     26  H2  UNL     1      15.612   2.298   9.938  1.00  0.00     0.164 HD
HETATM   27  C15 UNL     1      17.204   0.354  12.048  1.00  0.00     0.105 A 
HETATM   28  N3  UNL     1      17.343   1.166  13.124  1.00  0.00    -0.365 N 
ATOM     29  H3  UNL     1      17.805   0.870  13.984  1.00  0.00     0.165 HD
ENDBRANCH   1  22
TORSDOF 8
ENDMDL
MODEL 4
REMARK VINA RESULT: -7.657348088      3.369      6.228
REMARK  8 active torsions:
REMARK  status: ('A' for Active; 'I' for Inactive)
REMARK    1  A    between atoms: C1_2  and  C2_3 
REMARK       I    between atoms: C1_2  and  N4_25 
REMARK    2  A    between atoms: C2_3  and  N1_4 
REMARK    3  A    between atoms: C2_3  and  C12_17 
REMARK    4  A    between atoms: N1_4  and  C3_6 
REMARK    5  A    between atoms: C3_6  and  C4_7 
REMARK    6  A    between atoms: C4_7  and  O2_8 
REMARK    7  A    between atoms: C4_7  and  C5_10 
REMARK    8  A    between atoms: C5_10  and  C6_11 
ROOT
HETATM    1  C2  UNL     1      16.758   3.037  14.614  1.00  0.00     0.221 C 
ENDROOT
BRANCH   1   2
HETATM    2  C1  UNL     1      16.855   1.690  14.027  1.00  0.00     0.248 C 
HETATM    3  O1  UNL     1      16.577   0.631  14.665  1.00  0.00    -0.271 OA
HETATM    4  N4  UNL     1      17.288   1.521  12.677  1.00  0.00    -0.350 N 
HETATM    5  C16 UNL     1      17.399   0.238  11.966  1.00  0.00     0.126 C 
HETATM    6  C19 UNL     1      17.721   2.585  11.807  1.00  0.00     0.126 C 
HETATM    7  C17 UNL     1      18.092   0.564  10.682  1.00  0.00     0.021 C 
HETATM    8  C18 UNL     1      18.767   1.901  10.918  1.00  0.00     0.021 C 
ENDBRANCH   1   2
BRANCH   1   9
HETATM    9  N1  UNL     1      17.992   3.723  14.824  1.00  0.00    -0.402 N 
ATOM     10  H1  UNL     1      18.871   3.211  14.902  1.00  0.00     0.154 HD
BRANCH   9  11
HETATM   11  C3  UNL     1      17.959   5.139  14.922  1.00  0.00     0.146 C 
BRANCH  11  12
HETATM   12  C4  UNL     1      19.368   5.673  14.483  1.00  0.00     0.136 C 
BRANCH  12  13
HETATM   13  O2  UNL     1      19.908   4.612  13.718  1.00  0.00    -0.394 OA
ATOM     14  H2  UNL     1      20.846   4.760  13.755  1.00  0.00     0.210 HD
ENDBRANCH  12  13
BRANCH  12  15
HETATM   15  C5  UNL     1      19.165   6.910  13.673  1.00  0.00     0.038 C 
BRANCH  15  16
HETATM   16  C6  UNL     1      19.875   8.083  14.220  1.00  0.00    -0.012 C 
HETATM   17  C7  UNL     1      19.028   8.776  15.304  1.00  0.00     0.005 C 
HETATM   18  C8  UNL     1      20.002   9.551  16.148  1.00  0.00     0.000 C 
HETATM   19  C9  UNL     1      20.781  10.563  15.351  1.00  0.00     0.000 C 
HETATM   20  C10 UNL     1      21.226  10.100  14.019  1.00  0.00     0.000 C 
HETATM   21  C11 UNL     1      20.251   9.187  13.285  1.00  0.00     0.005 C 
ENDBRANCH  15  16
ENDBRANCH  12  15
ENDBRANCH  11  12
ENDBRANCH   9  11
ENDBRANCH   1   9
BRANCH   1  22
HETATM   22  C12 UNL     1      15.951   3.040  15.877  1.00  0.00     0.056 A 
HETATM   23  C13 UNL     1      14.861   3.819  16.006  1.00  0.00     0.115 A 
HETATM   24  N2  UNL     1      14.147   3.806  17.143  1.00  0.00    -0.372 N 
HETATM   25  C14 UNL     1      14.537   3.005  18.148  1.00  0.00     0.104 A 
ATOM     26  H2  UNL     1      13.321   4.396  17.242  1.00  0.00     0.164 HD
HETATM   27  C15 UNL     1      15.659   2.217  17.989  1.00  0.00     0.105 A 
HETATM   28  N3  UNL     1      16.402   2.207  16.855  1.00  0.00    -0.365 N 
ATOM     29  H3  UNL     1      17.231   1.623  16.743  1.00  0.00     0.165 HD
ENDBRANCH   1  22
TORSDOF 8
ENDMDL
MODEL 5
REMARK VINA RESULT: -7.595563994      3.086      6.776
REMARK  8 active torsions:
REMARK  status: ('A' for Active; 'I' for Inactive)
REMARK    1  A    between atoms: C1_2  and  C2_3 
REMARK       I    between atoms: C1_2  and  N4_25 
REMARK    2  A    between atoms: C2_3  and  N1_4 
REMARK    3  A    between atoms: C2_3  and  C12_17 
REMARK    4  A    between atoms: N1_4  and  C3_6 
REMARK    5  A    between atoms: C3_6  and  C4_7 
REMARK    6  A    between atoms: C4_7  and  O2_8 
REMARK    7  A    between atoms: C4_7  and  C5_10 
REMARK    8  A    between atoms: C5_10  and  C6_11 
ROOT
HETATM    1  C2  UNL     1      17.126   3.294  14.086  1.00  0.00     0.221 C 
ENDROOT
BRANCH   1   2
HETATM    2  C1  UNL     1      15.866   3.648  14.760  1.00  0.00     0.248 C 
HETATM    3  O1  UNL     1      15.163   4.652  14.439  1.00  0.00    -0.271 OA
HETATM    4  N4  UNL     1      15.379   2.853  15.842  1.00  0.00    -0.350 N 
HETATM    5  C16 UNL     1      14.126   3.082  16.577  1.00  0.00     0.126 C 
HETATM    6  C19 UNL     1      16.062   1.718  16.409  1.00  0.00     0.126 C 
HETATM    7  C17 UNL     1      14.175   2.134  17.732  1.00  0.00     0.021 C 
HETATM    8  C18 UNL     1      15.636   1.758  17.882  1.00  0.00     0.021 C 
ENDBRANCH   1   2
BRANCH   1   9
HETATM    9  N1  UNL     1      17.952   4.386  13.681  1.00  0.00    -0.402 N 
ATOM     10  H1  UNL     1      18.249   4.488  12.710  1.00  0.00     0.154 HD
BRANCH   9  11
HETATM   11  C3  UNL     1      18.349   5.324  14.669  1.00  0.00     0.146 C 
BRANCH  11  12
HETATM   12  C4  UNL     1      18.253   6.753  14.027  1.00  0.00     0.136 C 
BRANCH  12  13
HETATM   13  O2  UNL     1      17.011   6.735  13.347  1.00  0.00    -0.394 OA
ATOM     14  H2  UNL     1      16.944   7.607  12.975  1.00  0.00     0.210 HD
ENDBRANCH  12  13
BRANCH  12  15
HETATM   15  C5  UNL     1      18.282   7.761  15.127  1.00  0.00     0.038 C 
BRANCH  15  16
HETATM   16  C6  UNL     1      19.242   8.856  14.883  1.00  0.00    -0.012 C 
HETATM   17  C7  UNL     1      20.296   8.435  13.842  1.00  0.00     0.005 C 
HETATM   18  C8  UNL     1      20.839   9.715  13.271  1.00  0.00     0.000 C 
HETATM   19  C9  UNL     1      21.450  10.604  14.321  1.00  0.00     0.000 C 
HETATM   20  C10 UNL     1      20.704  10.669  15.597  1.00  0.00     0.000 C 
HETATM   21  C11 UNL     1      20.046   9.367  16.035  1.00  0.00     0.005 C 
ENDBRANCH  15  16
ENDBRANCH  12  15
ENDBRANCH  11  12
ENDBRANCH   9  11
ENDBRANCH   1   9
BRANCH   1  22
HETATM   22  C12 UNL     1      16.901   2.368  12.928  1.00  0.00     0.056 A 
HETATM   23  C13 UNL     1      16.264   2.782  11.818  1.00  0.00     0.115 A 
HETATM   24  N2  UNL     1      16.075   1.940  10.789  1.00  0.00    -0.372 N 
HETATM   25  C14 UNL     1      16.532   0.681  10.885  1.00  0.00     0.104 A 
ATOM     26  H2  UNL     1      15.592   2.253   9.947  1.00  0.00     0.164 HD
HETATM   27  C15 UNL     1      17.181   0.283  12.036  1.00  0.00     0.105 A 
HETATM   28  N3  UNL     1      17.387   1.107  13.093  1.00  0.00    -0.365 N 
ATOM     29  H3  UNL     1      17.868   0.807  13.941  1.00  0.00     0.165 HD
ENDBRANCH   1  22
TORSDOF 8
ENDMDL
