MODEL 1
REMARK VINA RESULT: -7.049566397      0.000      0.000
REMARK  9 active torsions:
REMARK  status: ('A' for Active; 'I' for Inactive)
REMARK    1  A    between atoms: C2_2  and  O1_4 
REMARK    2  A    between atoms: O1_4  and  C4_5 
REMARK    3  A    between atoms: C4_5  and  C5_6 
REMARK    4  A    between atoms: C5_6  and  O2_7 
REMARK    5  A    between atoms: C5_6  and  C6_9 
REMARK    6  A    between atoms: C6_9  and  N1_10 
REMARK    7  A    between atoms: C11_16  and  C12_17 
REMARK    8  A    between atoms: C12_17  and  C13_18 
REMARK    9  A    between atoms: C13_18  and  O3_19 
ROOT
HETATM    1  N1  UNL     1      17.366   4.496  14.401  1.00  0.00    -0.341 N 
HETATM    2  C7  UNL     1      18.593   5.185  14.678  1.00  0.00     0.200 C 
HETATM    3  S1  UNL     1      19.590   5.513  13.223  1.00  0.00    -0.139 SA
HETATM    4  C8  UNL     1      18.669   5.011  11.743  1.00  0.00     0.018 C 
HETATM    5  C9  UNL     1      18.876   3.526  11.568  1.00  0.00     0.021 C 
HETATM    6  C10 UNL     1      20.371   3.325  11.373  1.00  0.00     0.006 C 
HETATM    7  C11 UNL     1      20.859   3.994  10.112  1.00  0.00    -0.012 C 
HETATM    8  C14 UNL     1      19.928   5.012   9.566  1.00  0.00     0.006 C 
HETATM    9  C15 UNL     1      19.166   5.800  10.578  1.00  0.00     0.021 C 
HETATM   10  C16 UNL     1      17.197   5.323  12.035  1.00  0.00     0.123 C 
HETATM   11  C17 UNL     1      16.785   4.385  13.111  1.00  0.00     0.222 C 
HETATM   12  O4  UNL     1      15.927   3.501  12.877  1.00  0.00    -0.273 OA
ENDROOT
BRANCH   1  13
HETATM   13  C6  UNL     1      16.686   3.876  15.524  1.00  0.00     0.160 C 
BRANCH  13  14
HETATM   14  C5  UNL     1      17.129   2.411  15.530  1.00  0.00     0.160 C 
BRANCH  14  15
HETATM   15  C4  UNL     1      16.019   1.508  16.030  1.00  0.00     0.201 C 
BRANCH  15  16
HETATM   16  O1  UNL     1      16.199   1.306  17.383  1.00  0.00    -0.384 OA
BRANCH  16  17
HETATM   17  C2  UNL     1      15.005   1.558  18.058  1.00  0.00     0.113 C 
HETATM   18  C1  UNL     1      15.168   2.848  18.818  1.00  0.00     0.039 C 
HETATM   19  C3  UNL     1      13.895   1.664  17.039  1.00  0.00     0.039 C 
ENDBRANCH  16  17
ENDBRANCH  15  16
ENDBRANCH  14  15
BRANCH  14  20
HETATM   20  O2  UNL     1      18.148   2.341  16.504  1.00  0.00    -0.392 OA
ATOM     21  H2  UNL     1      17.805   2.787  17.270  1.00  0.00     0.210 HD
ENDBRANCH  14  20
ENDBRANCH  13  14
ENDBRANCH   1  13
BRANCH   7  22
HETATM   22  C12 UNL     1      22.256   4.470  10.352  1.00  0.00     0.030 C 
BRANCH  22  23
HETATM   23  C13 UNL     1      23.075   4.644   9.114  1.00  0.00     0.164 C 
BRANCH  23  24
HETATM   24  O3  UNL     1      24.272   3.944   9.262  1.00  0.00    -0.401 OA
ATOM     25  H3  UNL     1      24.329   3.285   8.581  1.00  0.00     0.209 HD
ENDBRANCH  23  24
ENDBRANCH  22  23
ENDBRANCH   7  22
TORSDOF 9
ENDMDL
MODEL 2
REMARK VINA RESULT: -6.892646966      2.594      7.033
REMARK  9 active torsions:
REMARK  status: ('A' for Active; 'I' for Inactive)
REMARK    1  A    between atoms: C2_2  and  O1_4 
REMARK    2  A    between atoms: O1_4  and  C4_5 
REMARK    3  A    between atoms: C4_5  and  C5_6 
REMARK    4  A    between atoms: C5_6  and  O2_7 
REMARK    5  A    between atoms: C5_6  and  C6_9 
REMARK    6  A    between atoms: C6_9  and  N1_10 
REMARK    7  A    between atoms: C11_16  and  C12_17 
REMARK    8  A    between atoms: C12_17  and  C13_18 
REMARK    9  A    between atoms: C13_18  and  O3_19 
ROOT
HETATM    1  N1  UNL     1      18.465   4.696  12.333  1.00  0.00    -0.341 N 
HETATM    2  C7  UNL     1      17.297   3.957  11.953  1.00  0.00     0.200 C 
HETATM    3  S1  UNL     1      16.009   3.934  13.201  1.00  0.00    -0.139 SA
HETATM    4  C8  UNL     1      16.489   5.018  14.574  1.00  0.00     0.018 C 
HETATM    5  C9  UNL     1      17.399   4.222  15.477  1.00  0.00     0.021 C 
HETATM    6  C10 UNL     1      16.578   3.044  15.976  1.00  0.00     0.006 C 
HETATM    7  C11 UNL     1      15.408   3.500  16.813  1.00  0.00    -0.012 C 
HETATM    8  C14 UNL     1      15.063   4.932  16.643  1.00  0.00     0.006 C 
HETATM    9  C15 UNL     1      15.255   5.485  15.272  1.00  0.00     0.021 C 
HETATM   10  C16 UNL     1      17.244   6.193  13.941  1.00  0.00     0.123 C 
HETATM   11  C17 UNL     1      18.509   5.625  13.405  1.00  0.00     0.222 C 
HETATM   12  O4  UNL     1      19.609   5.967  13.902  1.00  0.00    -0.273 OA
ENDROOT
BRANCH   1  13
HETATM   13  C6  UNL     1      19.673   4.470  11.561  1.00  0.00     0.160 C 
BRANCH  13  14
HETATM   14  C5  UNL     1      19.293   3.472  10.465  1.00  0.00     0.160 C 
BRANCH  14  15
HETATM   15  C4  UNL     1      19.670   2.057  10.861  1.00  0.00     0.201 C 
BRANCH  15  16
HETATM   16  O1  UNL     1      18.782   1.187  10.263  1.00  0.00    -0.384 OA
BRANCH  16  17
HETATM   17  C2  UNL     1      18.001   0.569  11.239  1.00  0.00     0.113 C 
HETATM   18  C1  UNL     1      16.557   0.738  10.849  1.00  0.00     0.039 C 
HETATM   19  C3  UNL     1      18.381  -0.892  11.296  1.00  0.00     0.039 C 
ENDBRANCH  16  17
ENDBRANCH  15  16
ENDBRANCH  14  15
BRANCH  14  20
HETATM   20  O2  UNL     1      20.122   3.797   9.370  1.00  0.00    -0.392 OA
ATOM     21  H2  UNL     1      19.645   4.448   8.869  1.00  0.00     0.210 HD
ENDBRANCH  14  20
ENDBRANCH  13  14
ENDBRANCH   1  13
BRANCH   7  22
HETATM   22  C12 UNL     1      14.281   2.541  16.595  1.00  0.00     0.030 C 
BRANCH  22  23
HETATM   23  C13 UNL     1      14.206   1.433  17.594  1.00  0.00     0.164 C 
BRANCH  23  24
HETATM   24  O3  UNL     1      15.117   0.439  17.238  1.00  0.00    -0.401 OA
ATOM     25  H3  UNL     1      14.678  -0.196  16.685  1.00  0.00     0.209 HD
ENDBRANCH  23  24
ENDBRANCH  22  23
ENDBRANCH   7  22
TORSDOF 9
ENDMDL
MODEL 3
REMARK VINA RESULT: -6.674738553      2.301      3.759
REMARK  9 active torsions:
REMARK  status: ('A' for Active; 'I' for Inactive)
REMARK    1  A    between atoms: C2_2  and  O1_4 
REMARK    2  A    between atoms: O1_4  and  C4_5 
REMARK    3  A    between atoms: C4_5  and  C5_6 
REMARK    4  A    between atoms: C5_6  and  O2_7 
REMARK    5  A    between atoms: C5_6  and  C6_9 
REMARK    6  A    between atoms: C6_9  and  N1_10 
REMARK    7  A    between atoms: C11_16  and  C12_17 
REMARK    8  A    between atoms: C12_17  and  C13_18 
REMARK    9  A    between atoms: C13_18  and  O3_19 
ROOT
HETATM    1  N1  UNL     1      16.703   3.842  15.313  1.00  0.00    -0.341 N 
HETATM    2  C7  UNL     1      18.090   4.095  15.570  1.00  0.00     0.200 C 
HETATM    3  S1  UNL     1      18.782   5.431  14.593  1.00  0.00    -0.139 SA
HETATM    4  C8  UNL     1      17.456   6.221  13.639  1.00  0.00     0.018 C 
HETATM    5  C9  UNL     1      17.248   5.396  12.392  1.00  0.00     0.021 C 
HETATM    6  C10 UNL     1      18.565   5.437  11.632  1.00  0.00     0.006 C 
HETATM    7  C11 UNL     1      18.903   6.839  11.187  1.00  0.00    -0.012 C 
HETATM    8  C14 UNL     1      18.151   7.900  11.901  1.00  0.00     0.006 C 
HETATM    9  C15 UNL     1      17.854   7.627  13.337  1.00  0.00     0.021 C 
HETATM   10  C16 UNL     1      16.210   6.179  14.531  1.00  0.00     0.123 C 
HETATM   11  C17 UNL     1      15.836   4.745  14.644  1.00  0.00     0.222 C 
HETATM   12  O4  UNL     1      14.758   4.338  14.149  1.00  0.00    -0.273 OA
ENDROOT
BRANCH   1  13
HETATM   13  C6  UNL     1      16.164   2.575  15.773  1.00  0.00     0.160 C 
BRANCH  13  14
HETATM   14  C5  UNL     1      17.011   1.489  15.107  1.00  0.00     0.160 C 
BRANCH  14  15
HETATM   15  C4  UNL     1      16.929   1.585  13.595  1.00  0.00     0.201 C 
BRANCH  15  16
HETATM   16  O1  UNL     1      16.901   0.306  13.080  1.00  0.00    -0.384 OA
BRANCH  16  17
HETATM   17  C2  UNL     1      16.913   0.361  11.686  1.00  0.00     0.113 C 
HETATM   18  C1  UNL     1      16.315   1.679  11.273  1.00  0.00     0.039 C 
HETATM   19  C3  UNL     1      18.344   0.243  11.218  1.00  0.00     0.039 C 
ENDBRANCH  16  17
ENDBRANCH  15  16
ENDBRANCH  14  15
BRANCH  14  20
HETATM   20  O2  UNL     1      16.381   0.272  15.448  1.00  0.00    -0.392 OA
ATOM     21  H2  UNL     1      16.042   0.395  16.327  1.00  0.00     0.210 HD
ENDBRANCH  14  20
ENDBRANCH  13  14
ENDBRANCH   1  13
BRANCH   7  22
HETATM   22  C12 UNL     1      20.391   6.984  11.211  1.00  0.00     0.030 C 
BRANCH  22  23
HETATM   23  C13 UNL     1      21.133   5.734  11.556  1.00  0.00     0.164 C 
BRANCH  23  24
HETATM   24  O3  UNL     1      22.180   6.052  12.420  1.00  0.00    -0.401 OA
ATOM     25  H3  UNL     1      22.274   5.356  13.059  1.00  0.00     0.209 HD
ENDBRANCH  23  24
ENDBRANCH  22  23
ENDBRANCH   7  22
TORSDOF 9
ENDMDL
MODEL 4
REMARK VINA RESULT: -6.634761385      1.179      1.568
REMARK  9 active torsions:
REMARK  status: ('A' for Active; 'I' for Inactive)
REMARK    1  A    between atoms: C2_2  and  O1_4 
REMARK    2  A    between atoms: O1_4  and  C4_5 
REMARK    3  A    between atoms: C4_5  and  C5_6 
REMARK    4  A    between atoms: C5_6  and  O2_7 
REMARK    5  A    between atoms: C5_6  and  C6_9 
REMARK    6  A    between atoms: C6_9  and  N1_10 
REMARK    7  A    between atoms: C11_16  and  C12_17 
REMARK    8  A    between atoms: C12_17  and  C13_18 
REMARK    9  A    between atoms: C13_18  and  O3_19 
ROOT
HETATM    1  N1  UNL     1      16.995   4.040  13.234  1.00  0.00    -0.341 N 
HETATM    2  C7  UNL     1      18.067   4.866  13.707  1.00  0.00     0.200 C 
HETATM    3  S1  UNL     1      19.259   5.311  12.442  1.00  0.00    -0.139 SA
HETATM    4  C8  UNL     1      18.674   4.709  10.833  1.00  0.00     0.018 C 
HETATM    5  C9  UNL     1      19.076   3.259  10.723  1.00  0.00     0.021 C 
HETATM    6  C10 UNL     1      20.595   3.233  10.795  1.00  0.00     0.006 C 
HETATM    7  C11 UNL     1      21.216   3.957   9.626  1.00  0.00    -0.012 C 
HETATM    8  C14 UNL     1      20.284   4.862   8.909  1.00  0.00     0.006 C 
HETATM    9  C15 UNL     1      19.273   5.554   9.758  1.00  0.00     0.021 C 
HETATM   10  C16 UNL     1      17.147   4.848  10.860  1.00  0.00     0.123 C 
HETATM   11  C17 UNL     1      16.664   3.866  11.865  1.00  0.00     0.222 C 
HETATM   12  O4  UNL     1      15.967   2.889  11.501  1.00  0.00    -0.273 OA
ENDROOT
BRANCH   1  13
HETATM   13  C6  UNL     1      16.205   3.343  14.233  1.00  0.00     0.160 C 
BRANCH  13  14
HETATM   14  C5  UNL     1      15.633   4.427  15.150  1.00  0.00     0.160 C 
BRANCH  14  15
HETATM   15  C4  UNL     1      14.994   3.816  16.382  1.00  0.00     0.201 C 
BRANCH  15  16
HETATM   16  O1  UNL     1      15.892   2.935  16.946  1.00  0.00    -0.384 OA
BRANCH  16  17
HETATM   17  C2  UNL     1      15.224   2.078  17.820  1.00  0.00     0.113 C 
HETATM   18  C1  UNL     1      15.007   2.818  19.113  1.00  0.00     0.039 C 
HETATM   19  C3  UNL     1      13.908   1.688  17.190  1.00  0.00     0.039 C 
ENDBRANCH  16  17
ENDBRANCH  15  16
ENDBRANCH  14  15
BRANCH  14  20
HETATM   20  O2  UNL     1      14.575   5.006  14.417  1.00  0.00    -0.392 OA
ATOM     21  H2  UNL     1      14.915   5.824  14.075  1.00  0.00     0.210 HD
ENDBRANCH  14  20
ENDBRANCH  13  14
ENDBRANCH   1  13
BRANCH   7  22
HETATM   22  C12 UNL     1      22.486   4.591  10.096  1.00  0.00     0.030 C 
BRANCH  22  23
HETATM   23  C13 UNL     1      23.510   4.799   9.027  1.00  0.00     0.164 C 
BRANCH  23  24
HETATM   24  O3  UNL     1      24.553   3.893   9.218  1.00  0.00    -0.401 OA
ATOM     25  H3  UNL     1      24.214   3.010   9.136  1.00  0.00     0.209 HD
ENDBRANCH  23  24
ENDBRANCH  22  23
ENDBRANCH   7  22
TORSDOF 9
ENDMDL
MODEL 5
REMARK VINA RESULT: -6.528724469      2.361      7.984
REMARK  9 active torsions:
REMARK  status: ('A' for Active; 'I' for Inactive)
REMARK    1  A    between atoms: C2_2  and  O1_4 
REMARK    2  A    between atoms: O1_4  and  C4_5 
REMARK    3  A    between atoms: C4_5  and  C5_6 
REMARK    4  A    between atoms: C5_6  and  O2_7 
REMARK    5  A    between atoms: C5_6  and  C6_9 
REMARK    6  A    between atoms: C6_9  and  N1_10 
REMARK    7  A    between atoms: C11_16  and  C12_17 
REMARK    8  A    between atoms: C12_17  and  C13_18 
REMARK    9  A    between atoms: C13_18  and  O3_19 
ROOT
HETATM    1  N1  UNL     1      19.028   4.349  12.362  1.00  0.00    -0.341 N 
HETATM    2  C7  UNL     1      18.059   3.346  12.031  1.00  0.00     0.200 C 
HETATM    3  S1  UNL     1      16.614   3.349  13.094  1.00  0.00    -0.139 SA
HETATM    4  C8  UNL     1      16.708   4.764  14.226  1.00  0.00     0.018 C 
HETATM    5  C9  UNL     1      17.580   4.353  15.387  1.00  0.00     0.021 C 
HETATM    6  C10 UNL     1      16.882   3.174  16.046  1.00  0.00     0.006 C 
HETATM    7  C11 UNL     1      15.542   3.572  16.615  1.00  0.00    -0.012 C 
HETATM    8  C14 UNL     1      15.012   4.851  16.080  1.00  0.00     0.006 C 
HETATM    9  C15 UNL     1      15.325   5.132  14.650  1.00  0.00     0.021 C 
HETATM   10  C16 UNL     1      17.363   5.898  13.430  1.00  0.00     0.123 C 
HETATM   11  C17 UNL     1      18.766   5.472  13.188  1.00  0.00     0.222 C 
HETATM   12  O4  UNL     1      19.712   6.106  13.715  1.00  0.00    -0.273 OA
ENDROOT
BRANCH   1  13
HETATM   13  C6  UNL     1      20.360   4.192  11.807  1.00  0.00     0.160 C 
BRANCH  13  14
HETATM   14  C5  UNL     1      20.438   5.150  10.616  1.00  0.00     0.160 C 
BRANCH  14  15
HETATM   15  C4  UNL     1      20.506   4.388   9.307  1.00  0.00     0.201 C 
BRANCH  15  16
HETATM   16  O1  UNL     1      19.387   4.700   8.563  1.00  0.00    -0.384 OA
BRANCH  16  17
HETATM   17  C2  UNL     1      19.633   5.843   7.803  1.00  0.00     0.113 C 
HETATM   18  C1  UNL     1      20.747   5.525   6.841  1.00  0.00     0.039 C 
HETATM   19  C3  UNL     1      18.365   6.204   7.065  1.00  0.00     0.039 C 
ENDBRANCH  16  17
ENDBRANCH  15  16
ENDBRANCH  14  15
BRANCH  14  20
HETATM   20  O2  UNL     1      21.685   5.798  10.748  1.00  0.00    -0.392 OA
ATOM     21  H2  UNL     1      21.661   6.530  10.143  1.00  0.00     0.210 HD
ENDBRANCH  14  20
ENDBRANCH  13  14
ENDBRANCH   1  13
BRANCH   7  22
HETATM   22  C12 UNL     1      14.622   2.400  16.496  1.00  0.00     0.030 C 
BRANCH  22  23
HETATM   23  C13 UNL     1      14.722   1.416  17.616  1.00  0.00     0.164 C 
BRANCH  23  24
HETATM   24  O3  UNL     1      15.363   0.267  17.153  1.00  0.00    -0.401 OA
ATOM     25  H3  UNL     1      14.746  -0.245  16.643  1.00  0.00     0.209 HD
ENDBRANCH  23  24
ENDBRANCH  22  23
ENDBRANCH   7  22
TORSDOF 9
ENDMDL
