MODEL 1
REMARK VINA RESULT: -7.350370656      0.000      0.000
REMARK  9 active torsions:
REMARK  status: ('A' for Active; 'I' for Inactive)
REMARK    1  A    between atoms: O1_1  and  C1_3 
REMARK    2  A    between atoms: C1_3  and  C2_4 
REMARK    3  A    between atoms: C2_4  and  C3_5 
REMARK    4  A    between atoms: C4_6  and  C5_7 
REMARK    5  A    between atoms: C5_7  and  C6_8 
REMARK    6  A    between atoms: C12_15  and  C13_16 
REMARK    7  A    between atoms: C13_16  and  O3_17 
REMARK    8  A    between atoms: N1_20  and  C15_21 
REMARK    9  A    between atoms: C15_21  and  C16_22 
ROOT
HETATM    1  C3  UNL     1      16.722   3.670  12.110  1.00  0.00     0.114 C 
HETATM    2  C4  UNL     1      16.832   3.400  13.527  1.00  0.00     0.145 C 
HETATM    3  O2  UNL     1      18.073   3.795  14.108  1.00  0.00    -0.375 OA
HETATM    4  C12 UNL     1      18.335   5.111  13.817  1.00  0.00     0.163 C 
HETATM    5  C14 UNL     1      18.637   5.096  12.297  1.00  0.00     0.156 C 
HETATM    6  N1  UNL     1      17.371   4.909  11.697  1.00  0.00    -0.381 N 
ENDROOT
BRANCH   2   7
HETATM    7  C5  UNL     1      15.801   3.755  14.528  1.00  0.00     0.038 C 
BRANCH   7   8
HETATM    8  C6  UNL     1      15.924   3.209  15.886  1.00  0.00    -0.012 C 
HETATM    9  C7  UNL     1      16.159   1.766  16.048  1.00  0.00     0.005 C 
HETATM   10  C8  UNL     1      15.617   1.370  17.449  1.00  0.00     0.000 C 
HETATM   11  C9  UNL     1      14.110   1.441  17.343  1.00  0.00     0.000 C 
HETATM   12  C10 UNL     1      13.666   2.826  16.920  1.00  0.00     0.000 C 
HETATM   13  C11 UNL     1      14.833   3.762  16.808  1.00  0.00     0.005 C 
ENDBRANCH   7   8
ENDBRANCH   2   7
BRANCH   1  14
HETATM   14  C2  UNL     1      17.290   2.533  11.267  1.00  0.00     0.054 C 
BRANCH  14  15
HETATM   15  C1  UNL     1      16.368   1.393  11.040  1.00  0.00     0.166 C 
BRANCH  15  16
HETATM   16  O1  UNL     1      16.344   1.082   9.651  1.00  0.00    -0.401 OA
ATOM     17  H1  UNL     1      15.492   1.308   9.297  1.00  0.00     0.209 HD
ENDBRANCH  15  16
ENDBRANCH  14  15
ENDBRANCH   1  14
BRANCH   6  18
HETATM   18  C15 UNL     1      17.141   5.321  10.387  1.00  0.00     0.090 C 
BRANCH  18  19
HETATM   19  C16 UNL     1      16.547   6.722  10.341  1.00  0.00     0.159 C 
HETATM   20  C17 UNL     1      16.990   7.450   9.083  1.00  0.00     0.039 C 
HETATM   21  C18 UNL     1      15.771   8.278   8.713  1.00  0.00     0.029 C 
HETATM   22  C19 UNL     1      14.673   7.388   9.277  1.00  0.00     0.168 C 
HETATM   23  O4  UNL     1      15.184   6.727  10.360  1.00  0.00    -0.381 OA
ENDBRANCH  18  19
ENDBRANCH   6  18
BRANCH   4  24
HETATM   24  C13 UNL     1      19.469   5.696  14.580  1.00  0.00     0.197 C 
BRANCH  24  25
HETATM   25  O3  UNL     1      20.034   4.699  15.369  1.00  0.00    -0.398 OA
ATOM     26  H3  UNL     1      20.097   5.019  16.261  1.00  0.00     0.209 HD
ENDBRANCH  24  25
ENDBRANCH   4  24
TORSDOF 9
ENDMDL
MODEL 2
REMARK VINA RESULT: -7.275905624      1.655      2.075
REMARK  9 active torsions:
REMARK  status: ('A' for Active; 'I' for Inactive)
REMARK    1  A    between atoms: O1_1  and  C1_3 
REMARK    2  A    between atoms: C1_3  and  C2_4 
REMARK    3  A    between atoms: C2_4  and  C3_5 
REMARK    4  A    between atoms: C4_6  and  C5_7 
REMARK    5  A    between atoms: C5_7  and  C6_8 
REMARK    6  A    between atoms: C12_15  and  C13_16 
REMARK    7  A    between atoms: C13_16  and  O3_17 
REMARK    8  A    between atoms: N1_20  and  C15_21 
REMARK    9  A    between atoms: C15_21  and  C16_22 
ROOT
HETATM    1  C3  UNL     1      16.766   5.105  12.594  1.00  0.00     0.114 C 
HETATM    2  C4  UNL     1      17.100   4.916  13.989  1.00  0.00     0.145 C 
HETATM    3  O2  UNL     1      18.312   5.549  14.396  1.00  0.00    -0.375 OA
HETATM    4  C12 UNL     1      18.292   6.878  14.051  1.00  0.00     0.163 C 
HETATM    5  C14 UNL     1      18.398   6.856  12.505  1.00  0.00     0.156 C 
HETATM    6  N1  UNL     1      17.123   6.422  12.079  1.00  0.00    -0.381 N 
ENDROOT
BRANCH   2   7
HETATM    7  C5  UNL     1      16.156   5.122  15.110  1.00  0.00     0.038 C 
BRANCH   7   8
HETATM    8  C6  UNL     1      15.284   4.010  15.507  1.00  0.00    -0.012 C 
HETATM    9  C7  UNL     1      14.469   4.149  16.723  1.00  0.00     0.005 C 
HETATM   10  C8  UNL     1      14.186   2.715  17.249  1.00  0.00     0.000 C 
HETATM   11  C9  UNL     1      15.501   2.209  17.798  1.00  0.00     0.000 C 
HETATM   12  C10 UNL     1      16.573   2.233  16.730  1.00  0.00     0.000 C 
HETATM   13  C11 UNL     1      16.015   2.667  15.406  1.00  0.00     0.005 C 
ENDBRANCH   7   8
ENDBRANCH   2   7
BRANCH   1  14
HETATM   14  C2  UNL     1      17.421   4.054  11.704  1.00  0.00     0.054 C 
BRANCH  14  15
HETATM   15  C1  UNL     1      16.757   2.729  11.696  1.00  0.00     0.166 C 
BRANCH  15  16
HETATM   16  O1  UNL     1      15.409   2.885  11.264  1.00  0.00    -0.401 OA
ATOM     17  H1  UNL     1      14.903   3.286  11.962  1.00  0.00     0.209 HD
ENDBRANCH  15  16
ENDBRANCH  14  15
ENDBRANCH   1  14
BRANCH   6  18
HETATM   18  C15 UNL     1      16.658   6.734  10.803  1.00  0.00     0.090 C 
BRANCH  18  19
HETATM   19  C16 UNL     1      15.237   7.278  10.846  1.00  0.00     0.159 C 
HETATM   20  C17 UNL     1      15.248   8.793  10.966  1.00  0.00     0.039 C 
HETATM   21  C18 UNL     1      14.048   9.216  10.137  1.00  0.00     0.029 C 
HETATM   22  C19 UNL     1      14.019   8.079   9.126  1.00  0.00     0.168 C 
HETATM   23  O4  UNL     1      14.507   6.959   9.740  1.00  0.00    -0.381 OA
ENDBRANCH  18  19
ENDBRANCH   6  18
BRANCH   4  24
HETATM   24  C13 UNL     1      19.386   7.687  14.650  1.00  0.00     0.197 C 
BRANCH  24  25
HETATM   25  O3  UNL     1      18.820   8.693  15.426  1.00  0.00    -0.398 OA
ATOM     26  H3  UNL     1      19.318   9.491  15.298  1.00  0.00     0.209 HD
ENDBRANCH  24  25
ENDBRANCH   4  24
TORSDOF 9
ENDMDL
MODEL 3
REMARK VINA RESULT: -7.204113463      1.887      2.641
REMARK  9 active torsions:
REMARK  status: ('A' for Active; 'I' for Inactive)
REMARK    1  A    between atoms: O1_1  and  C1_3 
REMARK    2  A    between atoms: C1_3  and  C2_4 
REMARK    3  A    between atoms: C2_4  and  C3_5 
REMARK    4  A    between atoms: C4_6  and  C5_7 
REMARK    5  A    between atoms: C5_7  and  C6_8 
REMARK    6  A    between atoms: C12_15  and  C13_16 
REMARK    7  A    between atoms: C13_16  and  O3_17 
REMARK    8  A    between atoms: N1_20  and  C15_21 
REMARK    9  A    between atoms: C15_21  and  C16_22 
ROOT
HETATM    1  C3  UNL     1      17.801   5.007  11.944  1.00  0.00     0.114 C 
HETATM    2  C4  UNL     1      18.760   4.678  12.976  1.00  0.00     0.145 C 
HETATM    3  O2  UNL     1      20.114   4.632  12.530  1.00  0.00    -0.375 OA
HETATM    4  C12 UNL     1      20.440   5.798  11.883  1.00  0.00     0.163 C 
HETATM    5  C14 UNL     1      19.623   5.726  10.567  1.00  0.00     0.156 C 
HETATM    6  N1  UNL     1      18.294   5.977  10.974  1.00  0.00    -0.381 N 
ENDROOT
BRANCH   2   7
HETATM    7  C5  UNL     1      18.810   5.323  14.308  1.00  0.00     0.038 C 
BRANCH   7   8
HETATM    8  C6  UNL     1      17.764   4.997  15.285  1.00  0.00    -0.012 C 
HETATM    9  C7  UNL     1      17.210   3.635  15.301  1.00  0.00     0.005 C 
HETATM   10  C8  UNL     1      15.780   3.730  15.900  1.00  0.00     0.000 C 
HETATM   11  C9  UNL     1      14.935   4.410  14.846  1.00  0.00     0.000 C 
HETATM   12  C10 UNL     1      15.507   5.766  14.491  1.00  0.00     0.000 C 
HETATM   13  C11 UNL     1      16.697   6.096  15.344  1.00  0.00     0.005 C 
ENDBRANCH   7   8
ENDBRANCH   2   7
BRANCH   1  14
HETATM   14  C2  UNL     1      17.335   3.769  11.185  1.00  0.00     0.054 C 
BRANCH  14  15
HETATM   15  C1  UNL     1      16.444   2.859  11.944  1.00  0.00     0.166 C 
BRANCH  15  16
HETATM   16  O1  UNL     1      15.312   2.539  11.142  1.00  0.00    -0.401 OA
ATOM     17  H1  UNL     1      14.922   1.733  11.461  1.00  0.00     0.209 HD
ENDBRANCH  15  16
ENDBRANCH  14  15
ENDBRANCH   1  14
BRANCH   6  18
HETATM   18  C15 UNL     1      17.359   6.476  10.069  1.00  0.00     0.090 C 
BRANCH  18  19
HETATM   19  C16 UNL     1      16.065   6.871  10.769  1.00  0.00     0.159 C 
HETATM   20  C17 UNL     1      16.154   8.295  11.293  1.00  0.00     0.039 C 
HETATM   21  C18 UNL     1      14.744   8.825  11.102  1.00  0.00     0.029 C 
HETATM   22  C19 UNL     1      14.320   8.001   9.895  1.00  0.00     0.168 C 
HETATM   23  O4  UNL     1      14.974   6.801   9.955  1.00  0.00    -0.381 OA
ENDBRANCH  18  19
ENDBRANCH   6  18
BRANCH   4  24
HETATM   24  C13 UNL     1      21.890   5.962  11.601  1.00  0.00     0.197 C 
BRANCH  24  25
HETATM   25  O3  UNL     1      22.533   4.759  11.876  1.00  0.00    -0.398 OA
ATOM     26  H3  UNL     1      22.938   4.821  12.733  1.00  0.00     0.209 HD
ENDBRANCH  24  25
ENDBRANCH   4  24
TORSDOF 9
ENDMDL
MODEL 4
REMARK VINA RESULT: -7.199199619      2.293      4.737
REMARK  9 active torsions:
REMARK  status: ('A' for Active; 'I' for Inactive)
REMARK    1  A    between atoms: O1_1  and  C1_3 
REMARK    2  A    between atoms: C1_3  and  C2_4 
REMARK    3  A    between atoms: C2_4  and  C3_5 
REMARK    4  A    between atoms: C4_6  and  C5_7 
REMARK    5  A    between atoms: C5_7  and  C6_8 
REMARK    6  A    between atoms: C12_15  and  C13_16 
REMARK    7  A    between atoms: C13_16  and  O3_17 
REMARK    8  A    between atoms: N1_20  and  C15_21 
REMARK    9  A    between atoms: C15_21  and  C16_22 
ROOT
HETATM    1  C3  UNL     1      17.697   3.119  11.900  1.00  0.00     0.114 C 
HETATM    2  C4  UNL     1      16.804   2.338  12.728  1.00  0.00     0.145 C 
HETATM    3  O2  UNL     1      16.495   1.047  12.206  1.00  0.00    -0.375 OA
HETATM    4  C12 UNL     1      17.650   0.364  11.915  1.00  0.00     0.163 C 
HETATM    5  C14 UNL     1      18.224   1.121  10.690  1.00  0.00     0.156 C 
HETATM    6  N1  UNL     1      18.723   2.326  11.233  1.00  0.00    -0.381 N 
ENDROOT
BRANCH   2   7
HETATM    7  C5  UNL     1      16.972   2.140  14.185  1.00  0.00     0.038 C 
BRANCH   7   8
HETATM    8  C6  UNL     1      16.436   3.158  15.098  1.00  0.00    -0.012 C 
HETATM    9  C7  UNL     1      15.272   3.949  14.670  1.00  0.00     0.005 C 
HETATM   10  C8  UNL     1      15.322   5.291  15.449  1.00  0.00     0.000 C 
HETATM   11  C9  UNL     1      16.476   6.070  14.857  1.00  0.00     0.000 C 
HETATM   12  C10 UNL     1      17.766   5.286  14.970  1.00  0.00     0.000 C 
HETATM   13  C11 UNL     1      17.559   3.998  15.713  1.00  0.00     0.005 C 
ENDBRANCH   7   8
ENDBRANCH   2   7
BRANCH   1  14
HETATM   14  C2  UNL     1      16.943   3.911  10.837  1.00  0.00     0.054 C 
BRANCH  14  15
HETATM   15  C1  UNL     1      16.984   5.385  10.998  1.00  0.00     0.166 C 
BRANCH  15  16
HETATM   16  O1  UNL     1      15.795   5.947  10.450  1.00  0.00    -0.401 OA
ATOM     17  H1  UNL     1      16.019   6.728   9.959  1.00  0.00     0.209 HD
ENDBRANCH  15  16
ENDBRANCH  14  15
ENDBRANCH   1  14
BRANCH   6  18
HETATM   18  C15 UNL     1      19.726   3.037  10.577  1.00  0.00     0.090 C 
BRANCH  18  19
HETATM   19  C16 UNL     1      20.693   3.674  11.566  1.00  0.00     0.159 C 
HETATM   20  C17 UNL     1      21.681   4.573  10.842  1.00  0.00     0.039 C 
HETATM   21  C18 UNL     1      21.894   5.714  11.821  1.00  0.00     0.029 C 
HETATM   22  C19 UNL     1      20.542   5.711  12.520  1.00  0.00     0.168 C 
HETATM   23  O4  UNL     1      20.071   4.427  12.515  1.00  0.00    -0.381 OA
ENDBRANCH  18  19
ENDBRANCH   6  18
BRANCH   4  24
HETATM   24  C13 UNL     1      17.454  -1.077  11.608  1.00  0.00     0.197 C 
BRANCH  24  25
HETATM   25  O3  UNL     1      18.699  -1.696  11.577  1.00  0.00    -0.398 OA
ATOM     26  H3  UNL     1      18.877  -1.974  10.686  1.00  0.00     0.209 HD
ENDBRANCH  24  25
ENDBRANCH   4  24
TORSDOF 9
ENDMDL
MODEL 5
REMARK VINA RESULT: -6.973261955      1.916      6.910
REMARK  9 active torsions:
REMARK  status: ('A' for Active; 'I' for Inactive)
REMARK    1  A    between atoms: O1_1  and  C1_3 
REMARK    2  A    between atoms: C1_3  and  C2_4 
REMARK    3  A    between atoms: C2_4  and  C3_5 
REMARK    4  A    between atoms: C4_6  and  C5_7 
REMARK    5  A    between atoms: C5_7  and  C6_8 
REMARK    6  A    between atoms: C12_15  and  C13_16 
REMARK    7  A    between atoms: C13_16  and  O3_17 
REMARK    8  A    between atoms: N1_20  and  C15_21 
REMARK    9  A    between atoms: C15_21  and  C16_22 
ROOT
HETATM    1  C3  UNL     1      17.703   5.475  14.279  1.00  0.00     0.114 C 
HETATM    2  C4  UNL     1      17.467   6.048  12.972  1.00  0.00     0.145 C 
HETATM    3  O2  UNL     1      17.572   5.120  11.893  1.00  0.00    -0.375 OA
HETATM    4  C12 UNL     1      16.769   4.031  12.126  1.00  0.00     0.163 C 
HETATM    5  C14 UNL     1      17.472   3.302  13.299  1.00  0.00     0.156 C 
HETATM    6  N1  UNL     1      17.198   4.115  14.422  1.00  0.00    -0.381 N 
ENDROOT
BRANCH   2   7
HETATM    7  C5  UNL     1      16.314   6.912  12.632  1.00  0.00     0.038 C 
BRANCH   7   8
HETATM    8  C6  UNL     1      16.349   7.667  11.373  1.00  0.00    -0.012 C 
HETATM    9  C7  UNL     1      17.171   8.885  11.301  1.00  0.00     0.005 C 
HETATM   10  C8  UNL     1      16.555   9.785  10.195  1.00  0.00     0.000 C 
HETATM   11  C9  UNL     1      15.254  10.306  10.763  1.00  0.00     0.000 C 
HETATM   12  C10 UNL     1      14.342   9.163  11.153  1.00  0.00     0.000 C 
HETATM   13  C11 UNL     1      14.943   7.837  10.789  1.00  0.00     0.005 C 
ENDBRANCH   7   8
ENDBRANCH   2   7
BRANCH   1  14
HETATM   14  C2  UNL     1      19.184   5.473  14.641  1.00  0.00     0.054 C 
BRANCH  14  15
HETATM   15  C1  UNL     1      20.104   5.861  13.545  1.00  0.00     0.166 C 
BRANCH  15  16
HETATM   16  O1  UNL     1      20.616   4.684  12.927  1.00  0.00    -0.401 OA
ATOM     17  H1  UNL     1      20.160   3.927  13.275  1.00  0.00     0.209 HD
ENDBRANCH  15  16
ENDBRANCH  14  15
ENDBRANCH   1  14
BRANCH   6  18
HETATM   18  C15 UNL     1      17.223   3.578  15.707  1.00  0.00     0.090 C 
BRANCH  18  19
HETATM   19  C16 UNL     1      15.908   2.888  16.047  1.00  0.00     0.159 C 
HETATM   20  C17 UNL     1      16.016   2.158  17.375  1.00  0.00     0.039 C 
HETATM   21  C18 UNL     1      14.634   2.335  17.982  1.00  0.00     0.029 C 
HETATM   22  C19 UNL     1      14.246   3.667  17.358  1.00  0.00     0.168 C 
HETATM   23  O4  UNL     1      14.858   3.752  16.137  1.00  0.00    -0.381 OA
ENDBRANCH  18  19
ENDBRANCH   6  18
BRANCH   4  24
HETATM   24  C13 UNL     1      16.604   3.126  10.958  1.00  0.00     0.197 C 
BRANCH  24  25
HETATM   25  O3  UNL     1      15.379   2.476  11.071  1.00  0.00    -0.398 OA
ATOM     26  H3  UNL     1      15.449   1.816  11.751  1.00  0.00     0.209 HD
ENDBRANCH  24  25
ENDBRANCH   4  24
TORSDOF 9
ENDMDL
