MODEL 1
REMARK VINA RESULT: -7.484428432      0.000      0.000
REMARK  9 active torsions:
REMARK  status: ('A' for Active; 'I' for Inactive)
REMARK    1  A    between atoms: C2_2  and  C3_3 
REMARK    2  A    between atoms: C3_3  and  C4_4 
REMARK    3  A    between atoms: C4_4  and  C5_5 
REMARK    4  A    between atoms: C4_4  and  C6_12 
REMARK    5  A    between atoms: C5_5  and  O1_6 
REMARK    6  A    between atoms: N1_8  and  O2_10 
REMARK    7  A    between atoms: C6_12  and  C7_13 
REMARK    8  A    between atoms: C6_12  and  C13_24 
REMARK    9  A    between atoms: C7_13  and  C8_15 
REMARK       I    between atoms: C8_15  and  N2_17 
ROOT
HETATM    1  C6  UNL     1      17.366   4.617  13.412  1.00  0.00     0.012 C 
ENDROOT
BRANCH   1   2
HETATM    2  C4  UNL     1      18.331   5.671  13.349  1.00  0.00     0.103 C 
BRANCH   2   3
HETATM    3  C3  UNL     1      18.904   6.277  14.596  1.00  0.00     0.044 C 
BRANCH   3   4
HETATM    4  C2  UNL     1      18.532   7.746  14.588  1.00  0.00    -0.036 C 
HETATM    5  C1  UNL     1      19.322   8.633  15.179  1.00  0.00     0.007 C 
ENDBRANCH   3   4
ENDBRANCH   2   3
BRANCH   2   6
HETATM    6  C5  UNL     1      19.514   5.303  12.535  1.00  0.00     0.144 C 
HETATM    7  N1  UNL     1      20.298   4.393  12.999  1.00  0.00    -0.251 N 
ATOM      8  H1  UNL     1      20.082   3.962  13.899  1.00  0.00     0.196 HD
BRANCH   6   9
HETATM    9  O1  UNL     1      19.840   5.861  11.310  1.00  0.00    -0.348 OA
ATOM     10  H1  UNL     1      19.858   5.392  10.485  1.00  0.00     0.219 HD
ENDBRANCH   6   9
BRANCH   7  11
HETATM   11  O2  UNL     1      21.416   3.987  12.315  1.00  0.00    -0.288 OA
ATOM     12  H2  UNL     1      21.678   3.075  12.284  1.00  0.00     0.244 HD
ENDBRANCH   7  11
ENDBRANCH   2   6
ENDBRANCH   1   2
BRANCH   1  13
HETATM   13  C7  UNL     1      16.820   4.286  12.032  1.00  0.00     0.247 C 
HETATM   14  O3  UNL     1      16.653   5.275  11.236  1.00  0.00    -0.282 OA
BRANCH  13  15
HETATM   15  C8  UNL     1      16.502   2.979  11.584  1.00  0.00     0.302 C 
HETATM   16  O4  UNL     1      15.240   2.704  11.593  1.00  0.00    -0.263 OA
HETATM   17  N2  UNL     1      17.311   1.934  11.137  1.00  0.00    -0.257 N 
HETATM   18  C9  UNL     1      16.721   0.612  10.781  1.00  0.00     0.140 C 
HETATM   19  C12 UNL     1      18.710   1.995  10.953  1.00  0.00     0.369 C 
HETATM   20  C10 UNL     1      17.507  -0.487  11.415  1.00  0.00     0.047 C 
HETATM   21  C11 UNL     1      18.990  -0.395  11.254  1.00  0.00     0.182 C 
HETATM   22  O5  UNL     1      19.470   0.940  11.473  1.00  0.00    -0.304 OA
HETATM   23  O6  UNL     1      19.211   2.969  10.344  1.00  0.00    -0.238 OA
ENDBRANCH  13  15
ENDBRANCH   1  13
BRANCH   1  24
HETATM   24  C13 UNL     1      16.243   4.475  14.325  1.00  0.00    -0.069 C 
HETATM   25  C14 UNL     1      16.373   3.768  15.610  1.00  0.00     0.035 C 
HETATM   26  C15 UNL     1      14.977   4.012  16.213  1.00  0.00     0.005 C 
HETATM   27  C16 UNL     1      14.833   5.505  15.962  1.00  0.00     0.005 C 
HETATM   28  C17 UNL     1      15.417   5.721  14.560  1.00  0.00     0.035 C 
ENDBRANCH   1  24
TORSDOF 9
ENDMDL
MODEL 2
REMARK VINA RESULT: -7.454728091      1.562      2.328
REMARK  9 active torsions:
REMARK  status: ('A' for Active; 'I' for Inactive)
REMARK    1  A    between atoms: C2_2  and  C3_3 
REMARK    2  A    between atoms: C3_3  and  C4_4 
REMARK    3  A    between atoms: C4_4  and  C5_5 
REMARK    4  A    between atoms: C4_4  and  C6_12 
REMARK    5  A    between atoms: C5_5  and  O1_6 
REMARK    6  A    between atoms: N1_8  and  O2_10 
REMARK    7  A    between atoms: C6_12  and  C7_13 
REMARK    8  A    between atoms: C6_12  and  C13_24 
REMARK    9  A    between atoms: C7_13  and  C8_15 
REMARK       I    between atoms: C8_15  and  N2_17 
ROOT
HETATM    1  C6  UNL     1      16.952   4.051  15.109  1.00  0.00     0.012 C 
ENDROOT
BRANCH   1   2
HETATM    2  C4  UNL     1      17.653   5.199  14.622  1.00  0.00     0.103 C 
BRANCH   2   3
HETATM    3  C3  UNL     1      17.634   6.498  15.371  1.00  0.00     0.044 C 
BRANCH   3   4
HETATM    4  C2  UNL     1      18.270   7.539  14.471  1.00  0.00    -0.036 C 
HETATM    5  C1  UNL     1      19.002   8.512  14.997  1.00  0.00     0.007 C 
ENDBRANCH   3   4
ENDBRANCH   2   3
BRANCH   2   6
HETATM    6  C5  UNL     1      19.092   4.922  14.391  1.00  0.00     0.144 C 
HETATM    7  N1  UNL     1      19.491   4.816  13.171  1.00  0.00    -0.251 N 
ATOM      8  H1  UNL     1      18.814   4.924  12.416  1.00  0.00     0.196 HD
BRANCH   6   9
HETATM    9  O1  UNL     1      20.040   4.769  15.388  1.00  0.00    -0.348 OA
ATOM     10  H1  UNL     1      19.972   4.163  16.117  1.00  0.00     0.219 HD
ENDBRANCH   6   9
BRANCH   7  11
HETATM   11  O2  UNL     1      20.803   4.561  12.862  1.00  0.00    -0.288 OA
ATOM     12  H2  UNL     1      21.256   5.039  12.178  1.00  0.00     0.244 HD
ENDBRANCH   7  11
ENDBRANCH   2   6
ENDBRANCH   1   2
BRANCH   1  13
HETATM   13  C7  UNL     1      16.265   3.303  13.976  1.00  0.00     0.247 C 
HETATM   14  O3  UNL     1      15.087   3.696  13.670  1.00  0.00    -0.282 OA
BRANCH  13  15
HETATM   15  C8  UNL     1      16.845   2.230  13.254  1.00  0.00     0.302 C 
HETATM   16  O4  UNL     1      16.781   1.087  13.853  1.00  0.00    -0.263 OA
HETATM   17  N2  UNL     1      17.475   2.188  12.009  1.00  0.00    -0.257 N 
HETATM   18  C9  UNL     1      18.068   0.919  11.498  1.00  0.00     0.140 C 
HETATM   19  C12 UNL     1      17.607   3.273  11.116  1.00  0.00     0.369 C 
HETATM   20  C10 UNL     1      19.445   1.170  10.981  1.00  0.00     0.047 C 
HETATM   21  C11 UNL     1      19.588   2.344  10.069  1.00  0.00     0.182 C 
HETATM   22  O5  UNL     1      18.873   3.489  10.556  1.00  0.00    -0.304 OA
HETATM   23  O6  UNL     1      16.610   3.987  10.859  1.00  0.00    -0.238 OA
ENDBRANCH  13  15
ENDBRANCH   1  13
BRANCH   1  24
HETATM   24  C13 UNL     1      16.048   3.961  16.245  1.00  0.00    -0.069 C 
HETATM   25  C14 UNL     1      14.723   4.603  16.235  1.00  0.00     0.035 C 
HETATM   26  C15 UNL     1      14.155   4.106  17.577  1.00  0.00     0.005 C 
HETATM   27  C16 UNL     1      14.492   2.627  17.481  1.00  0.00     0.005 C 
HETATM   28  C17 UNL     1      15.896   2.589  16.864  1.00  0.00     0.035 C 
ENDBRANCH   1  24
TORSDOF 9
ENDMDL
MODEL 3
REMARK VINA RESULT: -7.044494832      2.010      3.084
REMARK  9 active torsions:
REMARK  status: ('A' for Active; 'I' for Inactive)
REMARK    1  A    between atoms: C2_2  and  C3_3 
REMARK    2  A    between atoms: C3_3  and  C4_4 
REMARK    3  A    between atoms: C4_4  and  C5_5 
REMARK    4  A    between atoms: C4_4  and  C6_12 
REMARK    5  A    between atoms: C5_5  and  O1_6 
REMARK    6  A    between atoms: N1_8  and  O2_10 
REMARK    7  A    between atoms: C6_12  and  C7_13 
REMARK    8  A    between atoms: C6_12  and  C13_24 
REMARK    9  A    between atoms: C7_13  and  C8_15 
REMARK       I    between atoms: C8_15  and  N2_17 
ROOT
HETATM    1  C6  UNL     1      16.585   4.258  14.993  1.00  0.00     0.012 C 
ENDROOT
BRANCH   1   2
HETATM    2  C4  UNL     1      16.679   5.681  14.880  1.00  0.00     0.103 C 
BRANCH   2   3
HETATM    3  C3  UNL     1      17.997   6.358  14.649  1.00  0.00     0.044 C 
BRANCH   3   4
HETATM    4  C2  UNL     1      18.003   7.620  15.489  1.00  0.00    -0.036 C 
HETATM    5  C1  UNL     1      18.940   8.538  15.299  1.00  0.00     0.007 C 
ENDBRANCH   3   4
ENDBRANCH   2   3
BRANCH   2   6
HETATM    6  C5  UNL     1      15.792   6.220  13.820  1.00  0.00     0.144 C 
HETATM    7  N1  UNL     1      16.340   6.593  12.716  1.00  0.00    -0.251 N 
ATOM      8  H1  UNL     1      17.350   6.507  12.609  1.00  0.00     0.196 HD
BRANCH   6   9
HETATM    9  O1  UNL     1      14.418   6.351  13.927  1.00  0.00    -0.348 OA
ATOM     10  H1  UNL     1      13.933   7.152  13.764  1.00  0.00     0.219 HD
ENDBRANCH   6   9
BRANCH   7  11
HETATM   11  O2  UNL     1      15.598   7.103  11.681  1.00  0.00    -0.288 OA
ATOM     12  H2  UNL     1      16.008   7.449  10.897  1.00  0.00     0.244 HD
ENDBRANCH   7  11
ENDBRANCH   2   6
ENDBRANCH   1   2
BRANCH   1  13
HETATM   13  C7  UNL     1      16.372   3.610  13.633  1.00  0.00     0.247 C 
HETATM   14  O3  UNL     1      15.163   3.541  13.222  1.00  0.00    -0.282 OA
BRANCH  13  15
HETATM   15  C8  UNL     1      17.411   3.100  12.814  1.00  0.00     0.302 C 
HETATM   16  O4  UNL     1      18.183   4.003  12.307  1.00  0.00    -0.263 OA
HETATM   17  N2  UNL     1      17.747   1.794  12.455  1.00  0.00    -0.257 N 
HETATM   18  C9  UNL     1      18.867   1.528  11.508  1.00  0.00     0.140 C 
HETATM   19  C12 UNL     1      17.120   0.622  12.931  1.00  0.00     0.369 C 
HETATM   20  C10 UNL     1      18.433   0.555  10.464  1.00  0.00     0.047 C 
HETATM   21  C11 UNL     1      17.733  -0.664  10.969  1.00  0.00     0.182 C 
HETATM   22  O5  UNL     1      16.767  -0.345  11.981  1.00  0.00    -0.304 OA
HETATM   23  O6  UNL     1      16.907   0.490  14.159  1.00  0.00    -0.238 OA
ENDBRANCH  13  15
ENDBRANCH   1  13
BRANCH   1  24
HETATM   24  C13 UNL     1      15.793   3.478  15.930  1.00  0.00    -0.069 C 
HETATM   25  C14 UNL     1      16.416   2.540  16.879  1.00  0.00     0.035 C 
HETATM   26  C15 UNL     1      15.184   2.092  17.688  1.00  0.00     0.005 C 
HETATM   27  C16 UNL     1      14.543   3.441  17.972  1.00  0.00     0.005 C 
HETATM   28  C17 UNL     1      14.704   4.229  16.665  1.00  0.00     0.035 C 
ENDBRANCH   1  24
TORSDOF 9
ENDMDL
MODEL 4
REMARK VINA RESULT: -6.995760520      2.655      4.910
REMARK  9 active torsions:
REMARK  status: ('A' for Active; 'I' for Inactive)
REMARK    1  A    between atoms: C2_2  and  C3_3 
REMARK    2  A    between atoms: C3_3  and  C4_4 
REMARK    3  A    between atoms: C4_4  and  C5_5 
REMARK    4  A    between atoms: C4_4  and  C6_12 
REMARK    5  A    between atoms: C5_5  and  O1_6 
REMARK    6  A    between atoms: N1_8  and  O2_10 
REMARK    7  A    between atoms: C6_12  and  C7_13 
REMARK    8  A    between atoms: C6_12  and  C13_24 
REMARK    9  A    between atoms: C7_13  and  C8_15 
REMARK       I    between atoms: C8_15  and  N2_17 
ROOT
HETATM    1  C6  UNL     1      18.304   5.254  13.545  1.00  0.00     0.012 C 
ENDROOT
BRANCH   1   2
HETATM    2  C4  UNL     1      17.171   5.134  12.680  1.00  0.00     0.103 C 
BRANCH   2   3
HETATM    3  C3  UNL     1      16.902   6.144  11.605  1.00  0.00     0.044 C 
BRANCH   3   4
HETATM    4  C2  UNL     1      15.930   7.156  12.178  1.00  0.00    -0.036 C 
HETATM    5  C1  UNL     1      15.530   8.183  11.439  1.00  0.00     0.007 C 
ENDBRANCH   3   4
ENDBRANCH   2   3
BRANCH   2   6
HETATM    6  C5  UNL     1      17.133   3.826  11.982  1.00  0.00     0.144 C 
HETATM    7  N1  UNL     1      18.048   2.967  12.274  1.00  0.00    -0.251 N 
ATOM      8  H1  UNL     1      18.756   3.212  12.966  1.00  0.00     0.196 HD
BRANCH   6   9
HETATM    9  O1  UNL     1      16.189   3.456  11.039  1.00  0.00    -0.348 OA
ATOM     10  H1  UNL     1      16.109   3.834  10.171  1.00  0.00     0.219 HD
ENDBRANCH   6   9
BRANCH   7  11
HETATM   11  O2  UNL     1      18.092   1.732  11.679  1.00  0.00    -0.288 OA
ATOM     12  H2  UNL     1      17.355   1.135  11.713  1.00  0.00     0.244 HD
ENDBRANCH   7  11
ENDBRANCH   2   6
ENDBRANCH   1   2
BRANCH   1  13
HETATM   13  C7  UNL     1      18.012   4.670  14.919  1.00  0.00     0.247 C 
HETATM   14  O3  UNL     1      19.029   4.400  15.647  1.00  0.00    -0.282 OA
BRANCH  13  15
HETATM   15  C8  UNL     1      16.712   4.423  15.429  1.00  0.00     0.302 C 
HETATM   16  O4  UNL     1      15.973   5.477  15.539  1.00  0.00    -0.263 OA
HETATM   17  N2  UNL     1      16.088   3.243  15.835  1.00  0.00    -0.257 N 
HETATM   18  C9  UNL     1      14.712   3.267  16.406  1.00  0.00     0.140 C 
HETATM   19  C12 UNL     1      16.640   1.946  15.744  1.00  0.00     0.369 C 
HETATM   20  C10 UNL     1      14.662   2.452  17.655  1.00  0.00     0.047 C 
HETATM   21  C11 UNL     1      15.284   1.096  17.566  1.00  0.00     0.182 C 
HETATM   22  O5  UNL     1      16.543   1.130  16.878  1.00  0.00    -0.304 OA
HETATM   23  O6  UNL     1      17.183   1.579  14.676  1.00  0.00    -0.238 OA
ENDBRANCH  13  15
ENDBRANCH   1  13
BRANCH   1  24
HETATM   24  C13 UNL     1      19.138   6.421  13.781  1.00  0.00    -0.069 C 
HETATM   25  C14 UNL     1      19.978   7.002  12.719  1.00  0.00     0.035 C 
HETATM   26  C15 UNL     1      20.533   8.244  13.442  1.00  0.00     0.005 C 
HETATM   27  C16 UNL     1      19.253   8.797  14.048  1.00  0.00     0.005 C 
HETATM   28  C17 UNL     1      18.489   7.560  14.536  1.00  0.00     0.035 C 
ENDBRANCH   1  24
TORSDOF 9
ENDMDL
MODEL 5
REMARK VINA RESULT: -6.991327039      1.953      3.394
REMARK  9 active torsions:
REMARK  status: ('A' for Active; 'I' for Inactive)
REMARK    1  A    between atoms: C2_2  and  C3_3 
REMARK    2  A    between atoms: C3_3  and  C4_4 
REMARK    3  A    between atoms: C4_4  and  C5_5 
REMARK    4  A    between atoms: C4_4  and  C6_12 
REMARK    5  A    between atoms: C5_5  and  O1_6 
REMARK    6  A    between atoms: N1_8  and  O2_10 
REMARK    7  A    between atoms: C6_12  and  C7_13 
REMARK    8  A    between atoms: C6_12  and  C13_24 
REMARK    9  A    between atoms: C7_13  and  C8_15 
REMARK       I    between atoms: C8_15  and  N2_17 
ROOT
HETATM    1  C6  UNL     1      16.697   3.739  14.944  1.00  0.00     0.012 C 
ENDROOT
BRANCH   1   2
HETATM    2  C4  UNL     1      16.854   5.161  14.915  1.00  0.00     0.103 C 
BRANCH   2   3
HETATM    3  C3  UNL     1      18.168   5.792  14.563  1.00  0.00     0.044 C 
BRANCH   3   4
HETATM    4  C2  UNL     1      18.225   7.128  15.277  1.00  0.00    -0.036 C 
HETATM    5  C1  UNL     1      19.013   8.091  14.818  1.00  0.00     0.007 C 
ENDBRANCH   3   4
ENDBRANCH   2   3
BRANCH   2   6
HETATM    6  C5  UNL     1      15.872   5.815  14.017  1.00  0.00     0.144 C 
HETATM    7  N1  UNL     1      16.322   6.370  12.945  1.00  0.00    -0.251 N 
ATOM      8  H1  UNL     1      17.323   6.340  12.752  1.00  0.00     0.196 HD
BRANCH   6   9
HETATM    9  O1  UNL     1      14.507   5.875  14.242  1.00  0.00    -0.348 OA
ATOM     10  H1  UNL     1      14.028   6.662  14.472  1.00  0.00     0.219 HD
ENDBRANCH   6   9
BRANCH   7  11
HETATM   11  O2  UNL     1      15.488   6.998  12.055  1.00  0.00    -0.288 OA
ATOM     12  H2  UNL     1      15.607   7.910  11.819  1.00  0.00     0.244 HD
ENDBRANCH   7  11
ENDBRANCH   2   6
ENDBRANCH   1   2
BRANCH   1  13
HETATM   13  C7  UNL     1      16.456   3.183  13.549  1.00  0.00     0.247 C 
HETATM   14  O3  UNL     1      15.256   3.250  13.111  1.00  0.00    -0.282 OA
BRANCH  13  15
HETATM   15  C8  UNL     1      17.461   2.616  12.724  1.00  0.00     0.302 C 
HETATM   16  O4  UNL     1      17.881   1.459  13.114  1.00  0.00    -0.263 OA
HETATM   17  N2  UNL     1      18.079   3.088  11.565  1.00  0.00    -0.257 N 
HETATM   18  C9  UNL     1      19.174   2.312  10.916  1.00  0.00     0.140 C 
HETATM   19  C12 UNL     1      17.751   4.281  10.884  1.00  0.00     0.369 C 
HETATM   20  C10 UNL     1      20.320   3.213  10.599  1.00  0.00     0.047 C 
HETATM   21  C11 UNL     1      19.965   4.493   9.916  1.00  0.00     0.182 C 
HETATM   22  O5  UNL     1      18.813   5.113  10.507  1.00  0.00    -0.304 OA
HETATM   23  O6  UNL     1      16.550   4.546  10.645  1.00  0.00    -0.238 OA
ENDBRANCH  13  15
ENDBRANCH   1  13
BRANCH   1  24
HETATM   24  C13 UNL     1      15.871   2.940  15.835  1.00  0.00    -0.069 C 
HETATM   25  C14 UNL     1      16.389   1.729  16.494  1.00  0.00     0.035 C 
HETATM   26  C15 UNL     1      15.191   1.356  17.388  1.00  0.00     0.005 C 
HETATM   27  C16 UNL     1      14.882   2.711  18.003  1.00  0.00     0.005 C 
HETATM   28  C17 UNL     1      15.055   3.709  16.851  1.00  0.00     0.035 C 
ENDBRANCH   1  24
TORSDOF 9
ENDMDL
