MODEL 1
REMARK VINA RESULT: -7.063555974      0.000      0.000
REMARK  7 active torsions:
REMARK  status: ('A' for Active; 'I' for Inactive)
REMARK    1  A    between atoms: C3_3  and  N1_4 
REMARK    2  A    between atoms: N1_4  and  C4_5 
REMARK    3  A    between atoms: N1_4  and  C9_16 
REMARK    4  A    between atoms: C4_5  and  C5_6 
REMARK    5  A    between atoms: C5_6  and  C6_7 
REMARK    6  A    between atoms: C8_10  and  N2_11 
REMARK    7  A    between atoms: C12_19  and  O1_20 
ROOT
HETATM    1  C1  UNL     1      19.166   7.861  14.633  1.00  0.00     0.013 C 
HETATM    2  C2  UNL     1      18.189   7.473  14.040  1.00  0.00    -0.087 C 
HETATM    3  C3  UNL     1      16.995   7.000  13.291  1.00  0.00     0.365 C 
ENDROOT
BRANCH   3   4
HETATM    4  N1  UNL     1      16.670   5.652  13.656  1.00  0.00     0.104 N 
BRANCH   4   5
HETATM    5  C4  UNL     1      16.281   5.466  14.990  1.00  0.00     0.280 C 
BRANCH   5   6
HETATM    6  C5  UNL     1      14.885   4.803  14.966  1.00  0.00     0.087 C 
BRANCH   6   7
HETATM    7  C6  UNL     1      14.910   3.836  16.136  1.00  0.00     0.019 A 
HETATM    8  C7  UNL     1      14.407   4.229  17.344  1.00  0.00     0.078 A 
HETATM    9  S1  UNL     1      14.644   2.833  18.298  1.00  0.00    -0.064 SA
HETATM   10  C8  UNL     1      15.363   1.841  17.114  1.00  0.00     0.142 A 
HETATM   11  N3  UNL     1      15.390   2.623  16.038  1.00  0.00    -0.340 N 
ATOM     12  H3  UNL     1      15.775   2.284  15.156  1.00  0.00     0.167 HD
BRANCH  10  13
HETATM   13  N2  UNL     1      15.794   0.600  17.207  1.00  0.00    -0.380 N 
ATOM     14  H22 UNL     1      15.255  -0.221  17.482  1.00  0.00     0.158 HD
ATOM     15  H21 UNL     1      16.724   0.219  17.032  1.00  0.00     0.158 HD
ENDBRANCH  10  13
ENDBRANCH   6   7
ENDBRANCH   5   6
ENDBRANCH   4   5
BRANCH   4  16
HETATM   16  C9  UNL     1      17.668   4.792  13.083  1.00  0.00     0.224 C 
HETATM   17  C10 UNL     1      17.523   4.844  11.601  1.00  0.00     0.039 C 
HETATM   18  C11 UNL     1      17.635   3.620  10.804  1.00  0.00     0.048 C 
HETATM   19  C12 UNL     1      18.010   2.346  11.571  1.00  0.00     0.124 C 
HETATM   20  C14 UNL     1      17.461   1.117  10.942  1.00  0.00     0.161 C 
HETATM   21  C17 UNL     1      17.168   2.443  12.817  1.00  0.00     0.030 C 
HETATM   22  O2  UNL     1      17.272   0.840   9.786  1.00  0.00    -0.295 OA
HETATM   23  C15 UNL     1      17.150   0.201  12.093  1.00  0.00     0.082 C 
HETATM   24  C16 UNL     1      17.050   1.067  13.323  1.00  0.00     0.015 C 
HETATM   25  C18 UNL     1      17.839   3.452  13.693  1.00  0.00     0.044 C 
BRANCH  19  26
HETATM   26  O1  UNL     1      19.344   2.347  11.707  1.00  0.00    -0.377 OA
HETATM   27  C13 UNL     1      20.187   2.632  10.698  1.00  0.00     0.203 C 
ENDBRANCH  19  26
ENDBRANCH   4  16
ENDBRANCH   3   4
TORSDOF 7
ENDMDL
MODEL 2
REMARK VINA RESULT: -6.599823690      3.182      5.776
REMARK  7 active torsions:
REMARK  status: ('A' for Active; 'I' for Inactive)
REMARK    1  A    between atoms: C3_3  and  N1_4 
REMARK    2  A    between atoms: N1_4  and  C4_5 
REMARK    3  A    between atoms: N1_4  and  C9_16 
REMARK    4  A    between atoms: C4_5  and  C5_6 
REMARK    5  A    between atoms: C5_6  and  C6_7 
REMARK    6  A    between atoms: C8_10  and  N2_11 
REMARK    7  A    between atoms: C12_19  and  O1_20 
ROOT
HETATM    1  C1  UNL     1      14.987   2.534  18.067  1.00  0.00     0.013 C 
HETATM    2  C2  UNL     1      15.874   2.687  17.264  1.00  0.00    -0.087 C 
HETATM    3  C3  UNL     1      16.969   2.855  16.271  1.00  0.00     0.365 C 
ENDROOT
BRANCH   3   4
HETATM    4  N1  UNL     1      16.567   3.743  15.221  1.00  0.00     0.104 N 
BRANCH   4   5
HETATM    5  C4  UNL     1      16.349   3.143  13.972  1.00  0.00     0.280 C 
BRANCH   5   6
HETATM    6  C5  UNL     1      16.861   1.689  14.073  1.00  0.00     0.087 C 
BRANCH   6   7
HETATM    7  C6  UNL     1      17.484   1.416  12.716  1.00  0.00     0.019 A 
HETATM    8  C7  UNL     1      17.050   0.350  11.979  1.00  0.00     0.078 A 
HETATM    9  S1  UNL     1      18.017   0.474  10.576  1.00  0.00    -0.064 SA
HETATM   10  C8  UNL     1      18.906   1.861  11.007  1.00  0.00     0.142 A 
HETATM   11  N3  UNL     1      18.424   2.171  12.209  1.00  0.00    -0.340 N 
ATOM     12  H3  UNL     1      18.779   2.978  12.721  1.00  0.00     0.167 HD
BRANCH  10  13
HETATM   13  N2  UNL     1      19.845   2.499  10.339  1.00  0.00    -0.380 N 
ATOM     14  H22 UNL     1      20.803   2.189  10.176  1.00  0.00     0.158 HD
ATOM     15  H21 UNL     1      19.809   3.401   9.866  1.00  0.00     0.158 HD
ENDBRANCH  10  13
ENDBRANCH   6   7
ENDBRANCH   5   6
ENDBRANCH   4   5
BRANCH   4  16
HETATM   16  C9  UNL     1      17.385   4.921  15.307  1.00  0.00     0.224 C 
HETATM   17  C10 UNL     1      16.603   6.065  14.758  1.00  0.00     0.039 C 
HETATM   18  C11 UNL     1      17.250   7.055  13.895  1.00  0.00     0.048 C 
HETATM   19  C12 UNL     1      18.762   6.894  13.697  1.00  0.00     0.124 C 
HETATM   20  C14 UNL     1      19.225   7.408  12.381  1.00  0.00     0.161 C 
HETATM   21  C17 UNL     1      18.921   5.408  13.507  1.00  0.00     0.030 C 
HETATM   22  O2  UNL     1      18.836   8.332  11.715  1.00  0.00    -0.295 OA
HETATM   23  C15 UNL     1      20.355   6.498  11.988  1.00  0.00     0.082 C 
HETATM   24  C16 UNL     1      20.196   5.234  12.794  1.00  0.00     0.015 C 
HETATM   25  C18 UNL     1      18.795   4.801  14.867  1.00  0.00     0.044 C 
BRANCH  19  26
HETATM   26  O1  UNL     1      19.360   7.464  14.753  1.00  0.00    -0.377 OA
HETATM   27  C13 UNL     1      19.207   8.762  15.075  1.00  0.00     0.203 C 
ENDBRANCH  19  26
ENDBRANCH   4  16
ENDBRANCH   3   4
TORSDOF 7
ENDMDL
MODEL 3
REMARK VINA RESULT: -6.531979216      3.427      5.318
REMARK  7 active torsions:
REMARK  status: ('A' for Active; 'I' for Inactive)
REMARK    1  A    between atoms: C3_3  and  N1_4 
REMARK    2  A    between atoms: N1_4  and  C4_5 
REMARK    3  A    between atoms: N1_4  and  C9_16 
REMARK    4  A    between atoms: C4_5  and  C5_6 
REMARK    5  A    between atoms: C5_6  and  C6_7 
REMARK    6  A    between atoms: C8_10  and  N2_11 
REMARK    7  A    between atoms: C12_19  and  O1_20 
ROOT
HETATM    1  C1  UNL     1      20.129   9.545  16.109  1.00  0.00     0.013 C 
HETATM    2  C2  UNL     1      19.489   9.224  15.138  1.00  0.00    -0.087 C 
HETATM    3  C3  UNL     1      18.709   8.845  13.929  1.00  0.00     0.365 C 
ENDROOT
BRANCH   3   4
HETATM    4  N1  UNL     1      18.955   7.477  13.578  1.00  0.00     0.104 N 
BRANCH   4   5
HETATM    5  C4  UNL     1      19.628   7.277  12.364  1.00  0.00     0.280 C 
BRANCH   5   6
HETATM    6  C5  UNL     1      20.843   6.371  12.664  1.00  0.00     0.087 C 
BRANCH   6   7
HETATM    7  C6  UNL     1      20.668   5.188  11.730  1.00  0.00     0.019 A 
HETATM    8  C7  UNL     1      20.876   5.353  10.390  1.00  0.00     0.078 A 
HETATM    9  S1  UNL     1      20.576   3.782   9.789  1.00  0.00    -0.064 SA
HETATM   10  C8  UNL     1      20.208   3.016  11.266  1.00  0.00     0.142 A 
HETATM   11  N3  UNL     1      20.331   3.998  12.157  1.00  0.00    -0.340 N 
ATOM     12  H3  UNL     1      20.166   3.826  13.149  1.00  0.00     0.167 HD
BRANCH  10  13
HETATM   13  N2  UNL     1      19.880   1.763  11.504  1.00  0.00    -0.380 N 
ATOM     14  H22 UNL     1      19.707   1.333  12.413  1.00  0.00     0.158 HD
ATOM     15  H21 UNL     1      19.741   0.992  10.852  1.00  0.00     0.158 HD
ENDBRANCH  10  13
ENDBRANCH   6   7
ENDBRANCH   5   6
ENDBRANCH   4   5
BRANCH   4  16
HETATM   16  C9  UNL     1      17.757   6.734  13.854  1.00  0.00     0.224 C 
HETATM   17  C10 UNL     1      18.078   5.717  14.896  1.00  0.00     0.039 C 
HETATM   18  C11 UNL     1      17.545   4.357  14.791  1.00  0.00     0.048 C 
HETATM   19  C12 UNL     1      16.576   4.099  13.629  1.00  0.00     0.124 C 
HETATM   20  C14 UNL     1      16.614   2.692  13.154  1.00  0.00     0.161 C 
HETATM   21  C17 UNL     1      17.231   4.818  12.478  1.00  0.00     0.030 C 
HETATM   22  O2  UNL     1      16.796   1.663  13.753  1.00  0.00    -0.295 OA
HETATM   23  C15 UNL     1      16.370   2.777  11.674  1.00  0.00     0.082 C 
HETATM   24  C16 UNL     1      16.691   4.192  11.262  1.00  0.00     0.015 C 
HETATM   25  C18 UNL     1      16.961   6.273  12.692  1.00  0.00     0.044 C 
BRANCH  19  26
HETATM   26  O1  UNL     1      15.365   4.514  14.028  1.00  0.00    -0.377 OA
HETATM   27  C13 UNL     1      14.856   4.243  15.243  1.00  0.00     0.203 C 
ENDBRANCH  19  26
ENDBRANCH   4  16
ENDBRANCH   3   4
TORSDOF 7
ENDMDL
MODEL 4
REMARK VINA RESULT: -6.459188534      2.696      4.939
REMARK  7 active torsions:
REMARK  status: ('A' for Active; 'I' for Inactive)
REMARK    1  A    between atoms: C3_3  and  N1_4 
REMARK    2  A    between atoms: N1_4  and  C4_5 
REMARK    3  A    between atoms: N1_4  and  C9_16 
REMARK    4  A    between atoms: C4_5  and  C5_6 
REMARK    5  A    between atoms: C5_6  and  C6_7 
REMARK    6  A    between atoms: C8_10  and  N2_11 
REMARK    7  A    between atoms: C12_19  and  O1_20 
ROOT
HETATM    1  C1  UNL     1      14.871   3.220  17.407  1.00  0.00     0.013 C 
HETATM    2  C2  UNL     1      14.881   3.811  16.355  1.00  0.00    -0.087 C 
HETATM    3  C3  UNL     1      14.886   4.557  15.068  1.00  0.00     0.365 C 
ENDROOT
BRANCH   3   4
HETATM    4  N1  UNL     1      16.197   4.556  14.489  1.00  0.00     0.104 N 
BRANCH   4   5
HETATM    5  C4  UNL     1      16.822   5.809  14.408  1.00  0.00     0.280 C 
BRANCH   5   6
HETATM    6  C5  UNL     1      18.243   5.645  14.991  1.00  0.00     0.087 C 
BRANCH   6   7
HETATM    7  C6  UNL     1      19.143   6.341  13.986  1.00  0.00     0.019 A 
HETATM    8  C7  UNL     1      18.744   7.527  13.436  1.00  0.00     0.078 A 
HETATM    9  S1  UNL     1      20.059   7.902  12.412  1.00  0.00    -0.064 SA
HETATM   10  C8  UNL     1      21.029   6.540  12.743  1.00  0.00     0.142 A 
HETATM   11  N3  UNL     1      20.302   5.856  13.624  1.00  0.00    -0.340 N 
ATOM     12  H3  UNL     1      20.643   4.975  14.009  1.00  0.00     0.167 HD
BRANCH  10  13
HETATM   13  N2  UNL     1      22.212   6.215  12.264  1.00  0.00    -0.380 N 
ATOM     14  H22 UNL     1      22.430   5.913  11.314  1.00  0.00     0.158 HD
ATOM     15  H21 UNL     1      23.119   6.196  12.728  1.00  0.00     0.158 HD
ENDBRANCH  10  13
ENDBRANCH   6   7
ENDBRANCH   5   6
ENDBRANCH   4   5
BRANCH   4  16
HETATM   16  C9  UNL     1      16.163   3.707  13.331  1.00  0.00     0.224 C 
HETATM   17  C10 UNL     1      16.562   2.335  13.757  1.00  0.00     0.039 C 
HETATM   18  C11 UNL     1      17.457   1.532  12.919  1.00  0.00     0.048 C 
HETATM   19  C12 UNL     1      17.847   2.145  11.568  1.00  0.00     0.124 C 
HETATM   20  C14 UNL     1      19.187   1.699  11.104  1.00  0.00     0.161 C 
HETATM   21  C17 UNL     1      18.118   3.585  11.917  1.00  0.00     0.030 C 
HETATM   22  O2  UNL     1      19.760   0.650  11.242  1.00  0.00    -0.295 OA
HETATM   23  C15 UNL     1      19.755   2.884  10.374  1.00  0.00     0.082 C 
HETATM   24  C16 UNL     1      18.990   4.094  10.846  1.00  0.00     0.015 C 
HETATM   25  C18 UNL     1      16.779   4.228  12.089  1.00  0.00     0.044 C 
BRANCH  19  26
HETATM   26  O1  UNL     1      16.850   1.877  10.712  1.00  0.00    -0.377 OA
HETATM   27  C13 UNL     1      16.381   0.635  10.491  1.00  0.00     0.203 C 
ENDBRANCH  19  26
ENDBRANCH   4  16
ENDBRANCH   3   4
TORSDOF 7
ENDMDL
MODEL 5
REMARK VINA RESULT: -6.433501006      2.206      4.708
REMARK  7 active torsions:
REMARK  status: ('A' for Active; 'I' for Inactive)
REMARK    1  A    between atoms: C3_3  and  N1_4 
REMARK    2  A    between atoms: N1_4  and  C4_5 
REMARK    3  A    between atoms: N1_4  and  C9_16 
REMARK    4  A    between atoms: C4_5  and  C5_6 
REMARK    5  A    between atoms: C5_6  and  C6_7 
REMARK    6  A    between atoms: C8_10  and  N2_11 
REMARK    7  A    between atoms: C12_19  and  O1_20 
ROOT
HETATM    1  C1  UNL     1      18.312  -1.625  11.559  1.00  0.00     0.013 C 
HETATM    2  C2  UNL     1      17.631  -0.629  11.543  1.00  0.00    -0.087 C 
HETATM    3  C3  UNL     1      16.776   0.587  11.533  1.00  0.00     0.365 C 
ENDROOT
BRANCH   3   4
HETATM    4  N1  UNL     1      17.475   1.701  12.105  1.00  0.00     0.104 N 
BRANCH   4   5
HETATM    5  C4  UNL     1      16.772   2.416  13.085  1.00  0.00     0.280 C 
BRANCH   5   6
HETATM    6  C5  UNL     1      17.007   1.691  14.430  1.00  0.00     0.087 C 
BRANCH   6   7
HETATM    7  C6  UNL     1      16.179   2.479  15.429  1.00  0.00     0.019 A 
HETATM    8  C7  UNL     1      15.554   3.626  15.028  1.00  0.00     0.078 A 
HETATM    9  S1  UNL     1      14.767   4.120  16.462  1.00  0.00    -0.064 SA
HETATM   10  C8  UNL     1      15.275   2.848  17.476  1.00  0.00     0.142 A 
HETATM   11  N3  UNL     1      16.026   2.100  16.672  1.00  0.00    -0.340 N 
ATOM     12  H3  UNL     1      16.473   1.250  17.016  1.00  0.00     0.167 HD
BRANCH  10  13
HETATM   13  N2  UNL     1      15.006   2.629  18.746  1.00  0.00    -0.380 N 
ATOM     14  H22 UNL     1      14.509   3.247  19.387  1.00  0.00     0.158 HD
ATOM     15  H21 UNL     1      15.235   1.825  19.330  1.00  0.00     0.158 HD
ENDBRANCH  10  13
ENDBRANCH   6   7
ENDBRANCH   5   6
ENDBRANCH   4   5
BRANCH   4  16
HETATM   16  C9  UNL     1      18.115   2.412  11.034  1.00  0.00     0.224 C 
HETATM   17  C10 UNL     1      19.584   2.184  11.146  1.00  0.00     0.039 C 
HETATM   18  C11 UNL     1      20.522   3.288  10.925  1.00  0.00     0.048 C 
HETATM   19  C12 UNL     1      19.905   4.619  10.478  1.00  0.00     0.124 C 
HETATM   20  C14 UNL     1      20.699   5.795  10.921  1.00  0.00     0.161 C 
HETATM   21  C17 UNL     1      18.685   4.737  11.355  1.00  0.00     0.030 C 
HETATM   22  O2  UNL     1      21.886   5.937  11.060  1.00  0.00    -0.295 OA
HETATM   23  C15 UNL     1      19.681   6.867  11.192  1.00  0.00     0.082 C 
HETATM   24  C16 UNL     1      18.357   6.171  11.385  1.00  0.00     0.015 C 
HETATM   25  C18 UNL     1      17.671   3.802  10.781  1.00  0.00     0.044 C 
BRANCH  19  26
HETATM   26  O1  UNL     1      19.726   4.543   9.151  1.00  0.00    -0.377 OA
HETATM   27  C13 UNL     1      20.739   4.411   8.276  1.00  0.00     0.203 C 
ENDBRANCH  19  26
ENDBRANCH   4  16
ENDBRANCH   3   4
TORSDOF 7
ENDMDL
