MODEL 1
REMARK VINA RESULT: -5.915238863      0.000      0.000
REMARK  6 active torsions:
REMARK  status: ('A' for Active; 'I' for Inactive)
REMARK    1  A    between atoms: C2_2  and  C3_3 
REMARK       I    between atoms: C3_3  and  N1_5 
REMARK    2  A    between atoms: N1_5  and  C4_7 
REMARK    3  A    between atoms: N2_10  and  C6_11 
REMARK    4  A    between atoms: C6_11  and  C7_12 
REMARK    5  A    between atoms: C7_12  and  N3_14 
REMARK    6  A    between atoms: N3_14  and  C9_16 
ROOT
HETATM    1  C4  UNL     1      -0.872   5.513  84.105  1.00  0.00     0.241 C 
HETATM    2  S1  UNL     1      -0.559   7.135  84.862  1.00  0.00    -0.114 SA
HETATM    3  C5  UNL     1      -1.240   8.161  83.498  1.00  0.00     0.202 C 
HETATM    4  N2  UNL     1      -1.143   7.217  82.405  1.00  0.00    -0.339 N 
HETATM    5  C10 UNL     1      -1.473   5.904  82.806  1.00  0.00     0.253 C 
HETATM    6  O3  UNL     1      -2.212   5.068  82.171  1.00  0.00    -0.270 OA
ENDROOT
BRANCH   4   7
HETATM    7  C6  UNL     1      -0.761   7.565  81.053  1.00  0.00     0.151 C 
BRANCH   7   8
HETATM    8  C7  UNL     1       0.497   6.898  80.592  1.00  0.00     0.097 C 
HETATM    9  C8  UNL     1       0.887   7.316  79.186  1.00  0.00     0.034 C 
BRANCH   8  10
HETATM   10  N3  UNL     1       1.567   7.354  81.459  1.00  0.00    -0.362 N 
ATOM     11  H3  UNL     1       1.655   8.346  81.684  1.00  0.00     0.162 HD
BRANCH  10  12
HETATM   12  C9  UNL     1       2.492   6.415  81.994  1.00  0.00     0.348 C 
HETATM   13  O2  UNL     1       2.254   5.198  82.100  1.00  0.00    -0.284 OA
ENDBRANCH  10  12
ENDBRANCH   8  10
ENDBRANCH   7   8
ENDBRANCH   4   7
BRANCH   1  14
HETATM   14  N1  UNL     1      -1.825   4.777  84.935  1.00  0.00    -0.336 N 
HETATM   15  C3  UNL     1      -1.296   4.027  86.009  1.00  0.00     0.241 C 
HETATM   16  O1  UNL     1      -0.039   3.997  86.235  1.00  0.00    -0.269 OA
ATOM     17  H1  UNL     1      -2.828   4.804  84.748  1.00  0.00     0.164 HD
BRANCH  15  18
HETATM   18  C2  UNL     1      -2.208   3.277  86.863  1.00  0.00     0.064 C 
HETATM   19  C1  UNL     1      -3.425   3.646  87.165  1.00  0.00     0.017 C 
ENDBRANCH  15  18
ENDBRANCH   1  14
TORSDOF 6
ENDMDL
MODEL 2
REMARK VINA RESULT: -5.868150674      1.550      2.006
REMARK  6 active torsions:
REMARK  status: ('A' for Active; 'I' for Inactive)
REMARK    1  A    between atoms: C2_2  and  C3_3 
REMARK       I    between atoms: C3_3  and  N1_5 
REMARK    2  A    between atoms: N1_5  and  C4_7 
REMARK    3  A    between atoms: N2_10  and  C6_11 
REMARK    4  A    between atoms: C6_11  and  C7_12 
REMARK    5  A    between atoms: C7_12  and  N3_14 
REMARK    6  A    between atoms: N3_14  and  C9_16 
ROOT
HETATM    1  C4  UNL     1      -0.900   5.262  84.374  1.00  0.00     0.241 C 
HETATM    2  S1  UNL     1      -0.505   6.984  84.797  1.00  0.00    -0.114 SA
HETATM    3  C5  UNL     1      -1.065   7.743  83.220  1.00  0.00     0.202 C 
HETATM    4  N2  UNL     1      -0.993   6.588  82.350  1.00  0.00    -0.339 N 
HETATM    5  C10 UNL     1      -1.426   5.409  82.994  1.00  0.00     0.253 C 
HETATM    6  O3  UNL     1      -2.197   4.505  82.508  1.00  0.00    -0.270 OA
ENDROOT
BRANCH   4   7
HETATM    7  C6  UNL     1      -0.539   6.626  80.976  1.00  0.00     0.151 C 
BRANCH   7   8
HETATM    8  C7  UNL     1       0.742   7.376  80.786  1.00  0.00     0.097 C 
HETATM    9  C8  UNL     1       1.912   6.695  81.473  1.00  0.00     0.034 C 
BRANCH   8  10
HETATM   10  N3  UNL     1       1.043   7.358  79.367  1.00  0.00    -0.362 N 
ATOM     11  H3  UNL     1       1.905   6.927  79.032  1.00  0.00     0.162 HD
BRANCH  10  12
HETATM   12  C9  UNL     1       0.132   7.943  78.443  1.00  0.00     0.348 C 
HETATM   13  O2  UNL     1      -0.405   7.314  77.514  1.00  0.00    -0.284 OA
ENDBRANCH  10  12
ENDBRANCH   8  10
ENDBRANCH   7   8
ENDBRANCH   4   7
BRANCH   1  14
HETATM   14  N1  UNL     1      -1.931   4.771  85.289  1.00  0.00    -0.336 N 
HETATM   15  C3  UNL     1      -1.546   3.777  86.216  1.00  0.00     0.241 C 
HETATM   16  O1  UNL     1      -0.349   3.332  86.245  1.00  0.00    -0.269 OA
ATOM     17  H1  UNL     1      -2.885   5.130  85.259  1.00  0.00     0.164 HD
BRANCH  15  18
HETATM   18  C2  UNL     1      -2.538   3.258  87.148  1.00  0.00     0.064 C 
HETATM   19  C1  UNL     1      -3.795   3.618  87.181  1.00  0.00     0.017 C 
ENDBRANCH  15  18
ENDBRANCH   1  14
TORSDOF 6
ENDMDL
MODEL 3
REMARK VINA RESULT: -5.855020051      2.786      5.108
REMARK  6 active torsions:
REMARK  status: ('A' for Active; 'I' for Inactive)
REMARK    1  A    between atoms: C2_2  and  C3_3 
REMARK       I    between atoms: C3_3  and  N1_5 
REMARK    2  A    between atoms: N1_5  and  C4_7 
REMARK    3  A    between atoms: N2_10  and  C6_11 
REMARK    4  A    between atoms: C6_11  and  C7_12 
REMARK    5  A    between atoms: C7_12  and  N3_14 
REMARK    6  A    between atoms: N3_14  and  C9_16 
ROOT
HETATM    1  C4  UNL     1      -0.807   7.748  84.306  1.00  0.00     0.241 C 
HETATM    2  S1  UNL     1      -2.605   7.687  84.555  1.00  0.00    -0.114 SA
HETATM    3  C5  UNL     1      -2.674   6.018  85.321  1.00  0.00     0.202 C 
HETATM    4  N2  UNL     1      -1.429   5.467  84.829  1.00  0.00    -0.339 N 
HETATM    5  C10 UNL     1      -0.390   6.423  84.827  1.00  0.00     0.253 C 
HETATM    6  O3  UNL     1       0.820   6.246  85.218  1.00  0.00    -0.270 OA
ENDROOT
BRANCH   4   7
HETATM    7  C6  UNL     1      -1.254   4.097  84.396  1.00  0.00     0.151 C 
BRANCH   7   8
HETATM    8  C7  UNL     1      -0.733   3.971  82.999  1.00  0.00     0.097 C 
HETATM    9  C8  UNL     1      -0.788   2.540  82.493  1.00  0.00     0.034 C 
BRANCH   8  10
HETATM   10  N3  UNL     1      -1.618   4.735  82.140  1.00  0.00    -0.362 N 
ATOM     11  H3  UNL     1      -2.629   4.631  82.226  1.00  0.00     0.162 HD
BRANCH  10  12
HETATM   12  C9  UNL     1      -1.071   5.631  81.179  1.00  0.00     0.348 C 
HETATM   13  O2  UNL     1      -0.926   5.345  79.977  1.00  0.00    -0.284 OA
ENDBRANCH  10  12
ENDBRANCH   8  10
ENDBRANCH   7   8
ENDBRANCH   4   7
BRANCH   1  14
HETATM   14  N1  UNL     1      -0.253   8.837  85.110  1.00  0.00    -0.336 N 
HETATM   15  C3  UNL     1       0.718   9.659  84.497  1.00  0.00     0.241 C 
HETATM   16  O1  UNL     1       1.091   9.452  83.292  1.00  0.00    -0.269 OA
ATOM     17  H1  UNL     1      -0.554   8.996  86.072  1.00  0.00     0.164 HD
BRANCH  15  18
HETATM   18  C2  UNL     1       1.299  10.757  85.259  1.00  0.00     0.064 C 
HETATM   19  C1  UNL     1       1.690  11.897  84.751  1.00  0.00     0.017 C 
ENDBRANCH  15  18
ENDBRANCH   1  14
TORSDOF 6
ENDMDL
MODEL 4
REMARK VINA RESULT: -5.850426613      1.576      2.348
REMARK  6 active torsions:
REMARK  status: ('A' for Active; 'I' for Inactive)
REMARK    1  A    between atoms: C2_2  and  C3_3 
REMARK       I    between atoms: C3_3  and  N1_5 
REMARK    2  A    between atoms: N1_5  and  C4_7 
REMARK    3  A    between atoms: N2_10  and  C6_11 
REMARK    4  A    between atoms: C6_11  and  C7_12 
REMARK    5  A    between atoms: C7_12  and  N3_14 
REMARK    6  A    between atoms: N3_14  and  C9_16 
ROOT
HETATM    1  C4  UNL     1      -0.854   5.124  84.247  1.00  0.00     0.241 C 
HETATM    2  S1  UNL     1      -0.335   6.812  84.670  1.00  0.00    -0.114 SA
HETATM    3  C5  UNL     1      -0.883   7.618  83.113  1.00  0.00     0.202 C 
HETATM    4  N2  UNL     1      -0.910   6.468  82.234  1.00  0.00    -0.339 N 
HETATM    5  C10 UNL     1      -1.404   5.315  82.883  1.00  0.00     0.253 C 
HETATM    6  O3  UNL     1      -2.245   4.468  82.412  1.00  0.00    -0.270 OA
ENDROOT
BRANCH   4   7
HETATM    7  C6  UNL     1      -0.490   6.486  80.849  1.00  0.00     0.151 C 
BRANCH   7   8
HETATM    8  C7  UNL     1       0.120   7.784  80.422  1.00  0.00     0.097 C 
HETATM    9  C8  UNL     1       1.467   7.591  79.749  1.00  0.00     0.034 C 
BRANCH   8  10
HETATM   10  N3  UNL     1      -0.753   8.358  79.417  1.00  0.00    -0.362 N 
ATOM     11  H3  UNL     1      -0.543   8.238  78.426  1.00  0.00     0.162 HD
BRANCH  10  12
HETATM   12  C9  UNL     1      -1.906   9.092  79.818  1.00  0.00     0.348 C 
HETATM   13  O2  UNL     1      -3.062   8.633  79.775  1.00  0.00    -0.284 OA
ENDBRANCH  10  12
ENDBRANCH   8  10
ENDBRANCH   7   8
ENDBRANCH   4   7
BRANCH   1  14
HETATM   14  N1  UNL     1      -1.891   4.696  85.186  1.00  0.00    -0.336 N 
HETATM   15  C3  UNL     1      -1.521   3.743  86.161  1.00  0.00     0.241 C 
HETATM   16  O1  UNL     1      -0.331   3.280  86.212  1.00  0.00    -0.269 OA
ATOM     17  H1  UNL     1      -2.839   5.068  85.139  1.00  0.00     0.164 HD
BRANCH  15  18
HETATM   18  C2  UNL     1      -2.521   3.286  87.118  1.00  0.00     0.064 C 
HETATM   19  C1  UNL     1      -3.764   3.691  87.152  1.00  0.00     0.017 C 
ENDBRANCH  15  18
ENDBRANCH   1  14
TORSDOF 6
ENDMDL
MODEL 5
REMARK VINA RESULT: -5.695892524      3.056      5.519
REMARK  6 active torsions:
REMARK  status: ('A' for Active; 'I' for Inactive)
REMARK    1  A    between atoms: C2_2  and  C3_3 
REMARK       I    between atoms: C3_3  and  N1_5 
REMARK    2  A    between atoms: N1_5  and  C4_7 
REMARK    3  A    between atoms: N2_10  and  C6_11 
REMARK    4  A    between atoms: C6_11  and  C7_12 
REMARK    5  A    between atoms: C7_12  and  N3_14 
REMARK    6  A    between atoms: N3_14  and  C9_16 
ROOT
HETATM    1  C4  UNL     1      -0.043   8.438  83.591  1.00  0.00     0.241 C 
HETATM    2  S1  UNL     1      -1.833   8.161  83.727  1.00  0.00    -0.114 SA
HETATM    3  C5  UNL     1      -1.765   6.343  83.991  1.00  0.00     0.202 C 
HETATM    4  N2  UNL     1      -0.464   6.059  83.423  1.00  0.00    -0.339 N 
HETATM    5  C10 UNL     1       0.483   7.058  83.738  1.00  0.00     0.253 C 
HETATM    6  O3  UNL     1       1.694   6.877  84.121  1.00  0.00    -0.270 OA
ENDROOT
BRANCH   4   7
HETATM    7  C6  UNL     1      -0.154   4.887  82.632  1.00  0.00     0.151 C 
BRANCH   7   8
HETATM    8  C7  UNL     1      -1.163   3.790  82.761  1.00  0.00     0.097 C 
HETATM    9  C8  UNL     1      -1.357   3.032  81.459  1.00  0.00     0.034 C 
BRANCH   8  10
HETATM   10  N3  UNL     1      -0.635   2.831  83.711  1.00  0.00    -0.362 N 
ATOM     11  H3  UNL     1       0.034   2.123  83.405  1.00  0.00     0.162 HD
BRANCH  10  12
HETATM   12  C9  UNL     1      -1.051   2.879  85.071  1.00  0.00     0.348 C 
HETATM   13  O2  UNL     1      -0.292   3.171  86.013  1.00  0.00    -0.284 OA
ENDBRANCH  10  12
ENDBRANCH   8  10
ENDBRANCH   7   8
ENDBRANCH   4   7
BRANCH   1  14
HETATM   14  N1  UNL     1       0.391   9.295  84.694  1.00  0.00    -0.336 N 
HETATM   15  C3  UNL     1       1.279  10.347  84.379  1.00  0.00     0.241 C 
HETATM   16  O1  UNL     1       1.681  10.533  83.181  1.00  0.00    -0.269 OA
ATOM     17  H1  UNL     1       0.067   9.140  85.649  1.00  0.00     0.164 HD
BRANCH  15  18
HETATM   18  C2  UNL     1       1.738  11.228  85.445  1.00  0.00     0.064 C 
HETATM   19  C1  UNL     1       2.719  12.086  85.337  1.00  0.00     0.017 C 
ENDBRANCH  15  18
ENDBRANCH   1  14
TORSDOF 6
ENDMDL
