MODEL 1
REMARK VINA RESULT: -7.813467887      0.000      0.000
REMARK  8 active torsions:
REMARK  status: ('A' for Active; 'I' for Inactive)
REMARK    1  A    between atoms: C2_2  and  N1_3 
REMARK    2  A    between atoms: C2_2  and  C15_26 
REMARK       I    between atoms: N1_3  and  C3_5 
REMARK    3  A    between atoms: C3_5  and  C4_7 
REMARK    4  A    between atoms: C4_7  and  N2_8 
REMARK    5  A    between atoms: C7_13  and  C8_14 
REMARK    6  A    between atoms: C11_18  and  O3_19 
REMARK    7  A    between atoms: C15_26  and  O6_28 
REMARK    8  A    between atoms: O6_28  and  C16_29 
ROOT
HETATM    1  N2  UNL     1      22.359  -3.884   6.795  1.00  0.00    -0.265 N 
HETATM    2  C5  UNL     1      23.699  -3.639   6.449  1.00  0.00     0.294 C 
HETATM    3  O2  UNL     1      24.620  -4.428   6.197  1.00  0.00    -0.259 OA
HETATM    4  S1  UNL     1      23.849  -1.864   6.435  1.00  0.00    -0.023 SA
HETATM    5  C6  UNL     1      22.059  -1.561   6.207  1.00  0.00     0.079 C 
HETATM    6  C7  UNL     1      21.568  -0.445   5.747  1.00  0.00     0.036 C 
HETATM    7  C14 UNL     1      21.483  -2.808   6.677  1.00  0.00     0.268 C 
HETATM    8  O4  UNL     1      20.229  -2.883   6.964  1.00  0.00    -0.266 OA
ENDROOT
BRANCH   1   9
HETATM    9  C4  UNL     1      21.941  -5.221   7.252  1.00  0.00     0.238 C 
BRANCH   9  10
HETATM   10  C3  UNL     1      21.991  -5.300   8.733  1.00  0.00     0.236 C 
HETATM   11  N1  UNL     1      23.147  -5.816   9.396  1.00  0.00    -0.346 N 
ATOM     12  H1  UNL     1      23.936  -6.125   8.829  1.00  0.00     0.163 HD
HETATM   13  O1  UNL     1      21.047  -4.927   9.462  1.00  0.00    -0.272 OA
BRANCH  11  14
HETATM   14  C2  UNL     1      23.248  -5.918  10.822  1.00  0.00     0.180 C 
HETATM   15  C1  UNL     1      23.862  -7.231  11.260  1.00  0.00     0.043 C 
BRANCH  14  16
HETATM   16  C15 UNL     1      23.994  -4.756  11.389  1.00  0.00     0.282 C 
HETATM   17  O5  UNL     1      24.017  -4.625  12.627  1.00  0.00    -0.263 OA
BRANCH  16  18
HETATM   18  O6  UNL     1      24.646  -3.844  10.610  1.00  0.00    -0.310 OA
BRANCH  18  19
HETATM   19  C16 UNL     1      26.045  -3.673  10.527  1.00  0.00     0.060 C 
HETATM   20  C17 UNL     1      26.799  -4.973  10.618  1.00  0.00     0.045 C 
HETATM   21  C18 UNL     1      26.320  -3.093   9.133  1.00  0.00     0.045 C 
HETATM   22  C19 UNL     1      26.511  -2.700  11.571  1.00  0.00     0.045 C 
ENDBRANCH  18  19
ENDBRANCH  16  18
ENDBRANCH  14  16
ENDBRANCH  11  14
ENDBRANCH   9  10
ENDBRANCH   1   9
BRANCH   6  23
HETATM   23  C8  UNL     1      20.200  -0.079   5.517  1.00  0.00    -0.032 A 
HETATM   24  C9  UNL     1      19.311  -0.954   4.901  1.00  0.00     0.038 A 
HETATM   25  C10 UNL     1      17.985  -0.616   4.707  1.00  0.00     0.069 A 
HETATM   26 CL1  UNL     1      16.857  -1.723   3.929  1.00  0.00    -0.081 Cl
HETATM   27  C11 UNL     1      17.513   0.624   5.131  1.00  0.00     0.104 A 
HETATM   28  C12 UNL     1      18.373   1.484   5.734  1.00  0.00     0.046 A 
HETATM   29 BR1  UNL     1      17.755   3.179   6.327  1.00  0.00    -0.048 Br
HETATM   30  C13 UNL     1      19.707   1.130   5.924  1.00  0.00     0.033 A 
BRANCH  27  31
HETATM   31  O3  UNL     1      16.167   0.919   4.911  1.00  0.00    -0.358 OA
ATOM     32  H3  UNL     1      15.952   1.770   4.547  1.00  0.00     0.217 HD
ENDBRANCH  27  31
ENDBRANCH   6  23
TORSDOF 8
ENDMDL
MODEL 2
REMARK VINA RESULT: -7.727092941      0.872      1.330
REMARK  8 active torsions:
REMARK  status: ('A' for Active; 'I' for Inactive)
REMARK    1  A    between atoms: C2_2  and  N1_3 
REMARK    2  A    between atoms: C2_2  and  C15_26 
REMARK       I    between atoms: N1_3  and  C3_5 
REMARK    3  A    between atoms: C3_5  and  C4_7 
REMARK    4  A    between atoms: C4_7  and  N2_8 
REMARK    5  A    between atoms: C7_13  and  C8_14 
REMARK    6  A    between atoms: C11_18  and  O3_19 
REMARK    7  A    between atoms: C15_26  and  O6_28 
REMARK    8  A    between atoms: O6_28  and  C16_29 
ROOT
HETATM    1  N2  UNL     1      22.268  -3.963   6.866  1.00  0.00    -0.265 N 
HETATM    2  C5  UNL     1      23.601  -3.780   6.460  1.00  0.00     0.294 C 
HETATM    3  O2  UNL     1      24.485  -4.610   6.208  1.00  0.00    -0.259 OA
HETATM    4  S1  UNL     1      23.808  -2.013   6.362  1.00  0.00    -0.023 SA
HETATM    5  C6  UNL     1      22.021  -1.659   6.188  1.00  0.00     0.079 C 
HETATM    6  C7  UNL     1      21.550  -0.548   5.697  1.00  0.00     0.036 C 
HETATM    7  C14 UNL     1      21.424  -2.864   6.733  1.00  0.00     0.268 C 
HETATM    8  O4  UNL     1      20.180  -2.883   7.070  1.00  0.00    -0.266 OA
ENDROOT
BRANCH   1   9
HETATM    9  C4  UNL     1      21.825  -5.265   7.398  1.00  0.00     0.238 C 
BRANCH   9  10
HETATM   10  C3  UNL     1      21.951  -5.289   8.876  1.00  0.00     0.236 C 
HETATM   11  N1  UNL     1      23.152  -5.754   9.496  1.00  0.00    -0.346 N 
ATOM     12  H1  UNL     1      23.919  -6.064   8.901  1.00  0.00     0.163 HD
HETATM   13  O1  UNL     1      21.036  -4.913   9.638  1.00  0.00    -0.272 OA
BRANCH  11  14
HETATM   14  C2  UNL     1      23.326  -5.803  10.918  1.00  0.00     0.180 C 
HETATM   15  C1  UNL     1      23.812  -7.157  11.389  1.00  0.00     0.043 C 
BRANCH  14  16
HETATM   16  C15 UNL     1      24.233  -4.712  11.382  1.00  0.00     0.282 C 
HETATM   17  O5  UNL     1      24.437  -3.754  10.613  1.00  0.00    -0.263 OA
BRANCH  16  18
HETATM   18  O6  UNL     1      24.841  -4.724  12.606  1.00  0.00    -0.310 OA
BRANCH  18  19
HETATM   19  C16 UNL     1      26.231  -4.794  12.841  1.00  0.00     0.060 C 
HETATM   20  C17 UNL     1      27.038  -4.836  11.571  1.00  0.00     0.045 C 
HETATM   21  C18 UNL     1      26.604  -3.494  13.565  1.00  0.00     0.045 C 
HETATM   22  C19 UNL     1      26.549  -5.965  13.726  1.00  0.00     0.045 C 
ENDBRANCH  18  19
ENDBRANCH  16  18
ENDBRANCH  14  16
ENDBRANCH  11  14
ENDBRANCH   9  10
ENDBRANCH   1   9
BRANCH   6  23
HETATM   23  C8  UNL     1      20.187  -0.145   5.502  1.00  0.00    -0.032 A 
HETATM   24  C9  UNL     1      19.261  -0.992   4.903  1.00  0.00     0.038 A 
HETATM   25  C10 UNL     1      17.940  -0.619   4.743  1.00  0.00     0.069 A 
HETATM   26 CL1  UNL     1      16.766  -1.692   3.986  1.00  0.00    -0.081 Cl
HETATM   27  C11 UNL     1      17.510   0.629   5.186  1.00  0.00     0.104 A 
HETATM   28  C12 UNL     1      18.406   1.463   5.772  1.00  0.00     0.046 A 
HETATM   29 BR1  UNL     1      17.848   3.170   6.390  1.00  0.00    -0.048 Br
HETATM   30  C13 UNL     1      19.735   1.073   5.928  1.00  0.00     0.033 A 
BRANCH  27  31
HETATM   31  O3  UNL     1      16.167   0.960   5.000  1.00  0.00    -0.358 OA
ATOM     32  H3  UNL     1      15.957   1.863   4.789  1.00  0.00     0.217 HD
ENDBRANCH  27  31
ENDBRANCH   6  23
TORSDOF 8
ENDMDL
MODEL 3
REMARK VINA RESULT: -7.711681925      1.458      1.692
REMARK  8 active torsions:
REMARK  status: ('A' for Active; 'I' for Inactive)
REMARK    1  A    between atoms: C2_2  and  N1_3 
REMARK    2  A    between atoms: C2_2  and  C15_26 
REMARK       I    between atoms: N1_3  and  C3_5 
REMARK    3  A    between atoms: C3_5  and  C4_7 
REMARK    4  A    between atoms: C4_7  and  N2_8 
REMARK    5  A    between atoms: C7_13  and  C8_14 
REMARK    6  A    between atoms: C11_18  and  O3_19 
REMARK    7  A    between atoms: C15_26  and  O6_28 
REMARK    8  A    between atoms: O6_28  and  C16_29 
ROOT
HETATM    1  N2  UNL     1      22.421  -3.864   6.932  1.00  0.00    -0.265 N 
HETATM    2  C5  UNL     1      23.750  -3.532   6.617  1.00  0.00     0.294 C 
HETATM    3  O2  UNL     1      24.732  -4.259   6.411  1.00  0.00    -0.259 OA
HETATM    4  S1  UNL     1      23.774  -1.751   6.563  1.00  0.00    -0.023 SA
HETATM    5  C6  UNL     1      21.974  -1.584   6.278  1.00  0.00     0.079 C 
HETATM    6  C7  UNL     1      21.419  -0.517   5.777  1.00  0.00     0.036 C 
HETATM    7  C14 UNL     1      21.475  -2.858   6.762  1.00  0.00     0.268 C 
HETATM    8  O4  UNL     1      20.221  -3.016   7.016  1.00  0.00    -0.266 OA
ENDROOT
BRANCH   1   9
HETATM    9  C4  UNL     1      22.086  -5.218   7.411  1.00  0.00     0.238 C 
BRANCH   9  10
HETATM   10  C3  UNL     1      22.097  -5.259   8.893  1.00  0.00     0.236 C 
HETATM   11  N1  UNL     1      23.253  -5.714   9.601  1.00  0.00    -0.346 N 
ATOM     12  H1  UNL     1      24.069  -6.006   9.063  1.00  0.00     0.163 HD
HETATM   13  O1  UNL     1      21.119  -4.905   9.586  1.00  0.00    -0.272 OA
BRANCH  11  14
HETATM   14  C2  UNL     1      23.316  -5.778  11.031  1.00  0.00     0.180 C 
HETATM   15  C1  UNL     1      23.826  -7.117  11.522  1.00  0.00     0.043 C 
BRANCH  14  16
HETATM   16  C15 UNL     1      24.133  -4.655  11.579  1.00  0.00     0.282 C 
HETATM   17  O5  UNL     1      24.269  -4.580  12.815  1.00  0.00    -0.263 OA
BRANCH  16  18
HETATM   18  O6  UNL     1      24.731  -3.717  10.785  1.00  0.00    -0.310 OA
BRANCH  18  19
HETATM   19  C16 UNL     1      26.121  -3.549  10.604  1.00  0.00     0.060 C 
HETATM   20  C17 UNL     1      26.853  -4.855  10.453  1.00  0.00     0.045 C 
HETATM   21  C18 UNL     1      26.287  -2.787   9.283  1.00  0.00     0.045 C 
HETATM   22  C19 UNL     1      26.694  -2.731  11.725  1.00  0.00     0.045 C 
ENDBRANCH  18  19
ENDBRANCH  16  18
ENDBRANCH  14  16
ENDBRANCH  11  14
ENDBRANCH   9  10
ENDBRANCH   1   9
BRANCH   6  23
HETATM   23  C8  UNL     1      20.036  -0.255   5.499  1.00  0.00    -0.032 A 
HETATM   24  C9  UNL     1      19.463   0.981   5.781  1.00  0.00     0.038 A 
HETATM   25  C10 UNL     1      18.140   1.247   5.485  1.00  0.00     0.069 A 
HETATM   26 CL1  UNL     1      17.414   2.812   5.841  1.00  0.00    -0.081 Cl
HETATM   27  C11 UNL     1      17.349   0.267   4.891  1.00  0.00     0.104 A 
HETATM   28  C12 UNL     1      17.899  -0.942   4.611  1.00  0.00     0.046 A 
HETATM   29 BR1  UNL     1      16.845  -2.296   3.796  1.00  0.00    -0.048 Br
HETATM   30  C13 UNL     1      19.235  -1.196   4.914  1.00  0.00     0.033 A 
BRANCH  27  31
HETATM   31  O3  UNL     1      16.018   0.583   4.613  1.00  0.00    -0.358 OA
ATOM     32  H3  UNL     1      15.599   0.138   3.885  1.00  0.00     0.217 HD
ENDBRANCH  27  31
ENDBRANCH   6  23
TORSDOF 8
ENDMDL
MODEL 4
REMARK VINA RESULT: -7.684988694      1.879      2.193
REMARK  8 active torsions:
REMARK  status: ('A' for Active; 'I' for Inactive)
REMARK    1  A    between atoms: C2_2  and  N1_3 
REMARK    2  A    between atoms: C2_2  and  C15_26 
REMARK       I    between atoms: N1_3  and  C3_5 
REMARK    3  A    between atoms: C3_5  and  C4_7 
REMARK    4  A    between atoms: C4_7  and  N2_8 
REMARK    5  A    between atoms: C7_13  and  C8_14 
REMARK    6  A    between atoms: C11_18  and  O3_19 
REMARK    7  A    between atoms: C15_26  and  O6_28 
REMARK    8  A    between atoms: O6_28  and  C16_29 
ROOT
HETATM    1  N2  UNL     1      23.312  -3.392   6.131  1.00  0.00    -0.265 N 
HETATM    2  C5  UNL     1      24.626  -2.893   6.118  1.00  0.00     0.294 C 
HETATM    3  O2  UNL     1      25.680  -3.416   5.735  1.00  0.00    -0.259 OA
HETATM    4  S1  UNL     1      24.495  -1.252   6.801  1.00  0.00    -0.023 SA
HETATM    5  C6  UNL     1      22.713  -1.072   6.427  1.00  0.00     0.079 C 
HETATM    6  C7  UNL     1      22.103   0.076   6.352  1.00  0.00     0.036 C 
HETATM    7  C14 UNL     1      22.295  -2.456   6.293  1.00  0.00     0.268 C 
HETATM    8  O4  UNL     1      21.045  -2.769   6.330  1.00  0.00    -0.266 OA
ENDROOT
BRANCH   1   9
HETATM    9  C4  UNL     1      23.065  -4.838   5.977  1.00  0.00     0.238 C 
BRANCH   9  10
HETATM   10  C3  UNL     1      22.568  -5.416   7.250  1.00  0.00     0.236 C 
HETATM   11  N1  UNL     1      23.427  -5.516   8.388  1.00  0.00    -0.346 N 
ATOM     12  H1  UNL     1      24.386  -5.178   8.305  1.00  0.00     0.163 HD
HETATM   13  O1  UNL     1      21.400  -5.835   7.391  1.00  0.00    -0.272 OA
BRANCH  11  14
HETATM   14  C2  UNL     1      23.002  -6.068   9.640  1.00  0.00     0.180 C 
HETATM   15  C1  UNL     1      23.754  -7.335   9.992  1.00  0.00     0.043 C 
BRANCH  14  16
HETATM   16  C15 UNL     1      23.105  -5.057  10.732  1.00  0.00     0.282 C 
HETATM   17  O5  UNL     1      22.127  -4.912  11.489  1.00  0.00    -0.263 OA
BRANCH  16  18
HETATM   18  O6  UNL     1      24.221  -4.294  10.932  1.00  0.00    -0.310 OA
BRANCH  18  19
HETATM   19  C16 UNL     1      25.195  -4.494  11.934  1.00  0.00     0.060 C 
HETATM   20  C17 UNL     1      24.761  -5.487  12.980  1.00  0.00     0.045 C 
HETATM   21  C18 UNL     1      26.416  -5.095  11.226  1.00  0.00     0.045 C 
HETATM   22  C19 UNL     1      25.576  -3.182  12.556  1.00  0.00     0.045 C 
ENDBRANCH  18  19
ENDBRANCH  16  18
ENDBRANCH  14  16
ENDBRANCH  11  14
ENDBRANCH   9  10
ENDBRANCH   1   9
BRANCH   6  23
HETATM   23  C8  UNL     1      20.726   0.359   6.066  1.00  0.00    -0.032 A 
HETATM   24  C9  UNL     1      20.154   1.583   6.401  1.00  0.00     0.038 A 
HETATM   25  C10 UNL     1      18.837   1.870   6.097  1.00  0.00     0.069 A 
HETATM   26 CL1  UNL     1      18.112   3.419   6.519  1.00  0.00    -0.081 Cl
HETATM   27  C11 UNL     1      18.051   0.925   5.442  1.00  0.00     0.104 A 
HETATM   28  C12 UNL     1      18.600  -0.271   5.111  1.00  0.00     0.046 A 
HETATM   29 BR1  UNL     1      17.553  -1.577   4.213  1.00  0.00    -0.048 Br
HETATM   30  C13 UNL     1      19.930  -0.547   5.422  1.00  0.00     0.033 A 
BRANCH  27  31
HETATM   31  O3  UNL     1      16.727   1.262   5.159  1.00  0.00    -0.358 OA
ATOM     32  H3  UNL     1      16.446   2.152   5.340  1.00  0.00     0.217 HD
ENDBRANCH  27  31
ENDBRANCH   6  23
TORSDOF 8
ENDMDL
MODEL 5
REMARK VINA RESULT: -7.619168361      4.053      9.594
REMARK  8 active torsions:
REMARK  status: ('A' for Active; 'I' for Inactive)
REMARK    1  A    between atoms: C2_2  and  N1_3 
REMARK    2  A    between atoms: C2_2  and  C15_26 
REMARK       I    between atoms: N1_3  and  C3_5 
REMARK    3  A    between atoms: C3_5  and  C4_7 
REMARK    4  A    between atoms: C4_7  and  N2_8 
REMARK    5  A    between atoms: C7_13  and  C8_14 
REMARK    6  A    between atoms: C11_18  and  O3_19 
REMARK    7  A    between atoms: C15_26  and  O6_28 
REMARK    8  A    between atoms: O6_28  and  C16_29 
ROOT
HETATM    1  N2  UNL     1      21.647  -1.098   5.891  1.00  0.00    -0.265 N 
HETATM    2  C5  UNL     1      22.091   0.207   6.165  1.00  0.00     0.294 C 
HETATM    3  O2  UNL     1      21.495   1.290   6.094  1.00  0.00    -0.259 OA
HETATM    4  S1  UNL     1      23.789   0.014   6.671  1.00  0.00    -0.023 SA
HETATM    5  C6  UNL     1      23.608  -1.745   7.143  1.00  0.00     0.079 C 
HETATM    6  C7  UNL     1      24.424  -2.365   7.946  1.00  0.00     0.036 C 
HETATM    7  C14 UNL     1      22.428  -2.136   6.393  1.00  0.00     0.268 C 
HETATM    8  O4  UNL     1      22.147  -3.381   6.215  1.00  0.00    -0.266 OA
ENDROOT
BRANCH   1   9
HETATM    9  C4  UNL     1      20.415  -1.315   5.112  1.00  0.00     0.238 C 
BRANCH   9  10
HETATM   10  C3  UNL     1      19.257  -0.681   5.788  1.00  0.00     0.236 C 
HETATM   11  N1  UNL     1      18.724   0.556   5.312  1.00  0.00    -0.346 N 
ATOM     12  H1  UNL     1      19.155   0.990   4.496  1.00  0.00     0.163 HD
HETATM   13  O1  UNL     1      18.699  -1.184   6.787  1.00  0.00    -0.272 OA
BRANCH  11  14
HETATM   14  C2  UNL     1      17.610   1.214   5.929  1.00  0.00     0.180 C 
HETATM   15  C1  UNL     1      17.844   2.702   6.094  1.00  0.00     0.043 C 
BRANCH  14  16
HETATM   16  C15 UNL     1      16.348   0.946   5.177  1.00  0.00     0.282 C 
HETATM   17  O5  UNL     1      16.386   0.118   4.248  1.00  0.00    -0.263 OA
BRANCH  16  18
HETATM   18  O6  UNL     1      15.167   1.567   5.469  1.00  0.00    -0.310 OA
BRANCH  18  19
HETATM   19  C16 UNL     1      14.590   2.634   4.746  1.00  0.00     0.060 C 
HETATM   20  C17 UNL     1      15.427   3.064   3.571  1.00  0.00     0.045 C 
HETATM   21  C18 UNL     1      13.268   2.098   4.181  1.00  0.00     0.045 C 
HETATM   22  C19 UNL     1      14.307   3.788   5.664  1.00  0.00     0.045 C 
ENDBRANCH  18  19
ENDBRANCH  16  18
ENDBRANCH  14  16
ENDBRANCH  11  14
ENDBRANCH   9  10
ENDBRANCH   1   9
BRANCH   6  23
HETATM   23  C8  UNL     1      24.398  -3.726   8.399  1.00  0.00    -0.032 A 
HETATM   24  C9  UNL     1      23.986  -4.052   9.687  1.00  0.00     0.038 A 
HETATM   25  C10 UNL     1      23.930  -5.365  10.116  1.00  0.00     0.069 A 
HETATM   26 CL1  UNL     1      23.406  -5.779  11.746  1.00  0.00    -0.081 Cl
HETATM   27  C11 UNL     1      24.290  -6.396   9.251  1.00  0.00     0.104 A 
HETATM   28  C12 UNL     1      24.692  -6.088   7.992  1.00  0.00     0.046 A 
HETATM   29 BR1  UNL     1      25.185  -7.474   6.790  1.00  0.00    -0.048 Br
HETATM   30  C13 UNL     1      24.744  -4.760   7.574  1.00  0.00     0.033 A 
BRANCH  27  31
HETATM   31  O3  UNL     1      24.217  -7.704   9.731  1.00  0.00    -0.358 OA
ATOM     32  H3  UNL     1      25.025  -8.199   9.797  1.00  0.00     0.217 HD
ENDBRANCH  27  31
ENDBRANCH   6  23
TORSDOF 8
ENDMDL
