MODEL 1
REMARK VINA RESULT: -8.460599057      0.000      0.000
REMARK  6 active torsions:
REMARK  status: ('A' for Active; 'I' for Inactive)
REMARK    1  A    between atoms: C3_4  and  O1_5 
REMARK    2  A    between atoms: O1_5  and  C4_6 
REMARK    3  A    between atoms: C13_20  and  N3_21 
REMARK    4  A    between atoms: N3_21  and  C14_23 
REMARK    5  A    between atoms: C14_23  and  C15_24 
REMARK    6  A    between atoms: C15_24  and  C16_25 
ROOT
HETATM    1  N1  UNL     1      20.517  -4.026   7.365  1.00  0.00    -0.191 NA
HETATM    2  C1  UNL     1      21.320  -3.319   6.980  1.00  0.00     0.106 C 
HETATM    3  C2  UNL     1      22.300  -2.423   6.493  1.00  0.00     0.131 A 
HETATM    4  C3  UNL     1      21.919  -1.221   5.966  1.00  0.00     0.186 A 
HETATM    5  N2  UNL     1      22.957  -0.442   5.480  1.00  0.00    -0.169 N 
ATOM      6  H2  UNL     1      22.712   0.462   5.077  1.00  0.00     0.186 HD
HETATM    7  C13 UNL     1      24.223  -0.767   5.494  1.00  0.00     0.681 A 
HETATM    8  N4  UNL     1      24.557  -1.962   6.026  1.00  0.00    -0.183 N 
ATOM      9  H4  UNL     1      25.538  -2.243   6.053  1.00  0.00     0.185 HD
HETATM   10  C17 UNL     1      23.615  -2.792   6.523  1.00  0.00     0.121 A 
HETATM   11 BR2  UNL     1      24.155  -4.488   7.270  1.00  0.00    -0.029 Br
ENDROOT
BRANCH   4  12
HETATM   12  O1  UNL     1      20.723  -0.703   5.860  1.00  0.00    -0.291 OA
BRANCH  12  13
HETATM   13  C4  UNL     1      19.507  -0.598   5.468  1.00  0.00     0.092 A 
HETATM   14  C5  UNL     1      18.832  -1.671   4.870  1.00  0.00     0.057 A 
HETATM   15  C6  UNL     1      17.536  -1.611   4.432  1.00  0.00     0.016 A 
HETATM   16 BR1  UNL     1      16.667  -3.115   3.619  1.00  0.00    -0.051 Br
HETATM   17  C7  UNL     1      16.862  -0.424   4.591  1.00  0.00     0.057 A 
HETATM   18  C8  UNL     1      17.464   0.687   5.175  1.00  0.00     0.093 A 
HETATM   19  O2  UNL     1      16.815   1.815   5.319  1.00  0.00    -0.275 OA
HETATM   20  C12 UNL     1      18.759   0.575   5.596  1.00  0.00     0.032 A 
HETATM   21  C9  UNL     1      17.325   2.898   5.855  1.00  0.00     0.288 A 
HETATM   22  O3  UNL     1      16.667   3.971   5.978  1.00  0.00    -0.260 OA
HETATM   23  C10 UNL     1      18.639   2.874   6.309  1.00  0.00     0.083 A 
HETATM   24  C11 UNL     1      19.330   1.700   6.167  1.00  0.00     0.023 A 
ENDBRANCH  12  13
ENDBRANCH   4  12
BRANCH   7  25
HETATM   25  N3  UNL     1      25.194  -0.059   5.039  1.00  0.00    -0.225 N 
ATOM     26  H3  UNL     1      25.146   0.363   4.112  1.00  0.00     0.177 HD
BRANCH  25  27
HETATM   27  C14 UNL     1      26.375   0.124   5.893  1.00  0.00     0.148 C 
BRANCH  27  28
HETATM   28  C15 UNL     1      27.638  -0.185   5.068  1.00  0.00     0.133 C 
BRANCH  28  29
HETATM   29  C16 UNL     1      27.213  -0.380   3.662  1.00  0.00     0.174 C 
HETATM   30  O4  UNL     1      27.167   0.576   2.856  1.00  0.00    -0.648 OA
HETATM   31  O5  UNL     1      26.859  -1.653   3.230  1.00  0.00    -0.648 OA
ENDBRANCH  28  29
ENDBRANCH  27  28
ENDBRANCH  25  27
ENDBRANCH   7  25
TORSDOF 6
ENDMDL
MODEL 2
REMARK VINA RESULT: -8.293208777      1.172      1.282
REMARK  6 active torsions:
REMARK  status: ('A' for Active; 'I' for Inactive)
REMARK    1  A    between atoms: C3_4  and  O1_5 
REMARK    2  A    between atoms: O1_5  and  C4_6 
REMARK    3  A    between atoms: C13_20  and  N3_21 
REMARK    4  A    between atoms: N3_21  and  C14_23 
REMARK    5  A    between atoms: C14_23  and  C15_24 
REMARK    6  A    between atoms: C15_24  and  C16_25 
ROOT
HETATM    1  N1  UNL     1      20.534  -3.937   7.339  1.00  0.00    -0.191 NA
HETATM    2  C1  UNL     1      21.331  -3.216   6.964  1.00  0.00     0.106 C 
HETATM    3  C2  UNL     1      22.302  -2.305   6.490  1.00  0.00     0.131 A 
HETATM    4  C3  UNL     1      21.909  -1.099   5.980  1.00  0.00     0.186 A 
HETATM    5  N2  UNL     1      22.939  -0.303   5.505  1.00  0.00    -0.169 N 
ATOM      6  H2  UNL     1      22.686   0.604   5.114  1.00  0.00     0.186 HD
HETATM    7  C13 UNL     1      24.208  -0.616   5.515  1.00  0.00     0.681 A 
HETATM    8  N4  UNL     1      24.555  -1.815   6.030  1.00  0.00    -0.183 N 
ATOM      9  H4  UNL     1      25.538  -2.086   6.054  1.00  0.00     0.185 HD
HETATM   10  C17 UNL     1      23.620  -2.660   6.516  1.00  0.00     0.121 A 
HETATM   11 BR2  UNL     1      24.177  -4.362   7.239  1.00  0.00    -0.029 Br
ENDROOT
BRANCH   4  12
HETATM   12  O1  UNL     1      20.708  -0.592   5.880  1.00  0.00    -0.291 OA
BRANCH  12  13
HETATM   13  C4  UNL     1      19.491  -0.493   5.491  1.00  0.00     0.092 A 
HETATM   14  C5  UNL     1      18.822  -1.570   4.892  1.00  0.00     0.057 A 
HETATM   15  C6  UNL     1      17.524  -1.518   4.457  1.00  0.00     0.016 A 
HETATM   16 BR1  UNL     1      16.664  -3.027   3.643  1.00  0.00    -0.051 Br
HETATM   17  C7  UNL     1      16.843  -0.337   4.620  1.00  0.00     0.057 A 
HETATM   18  C8  UNL     1      17.438   0.777   5.205  1.00  0.00     0.093 A 
HETATM   19  O2  UNL     1      16.781   1.900   5.353  1.00  0.00    -0.275 OA
HETATM   20  C12 UNL     1      18.735   0.673   5.623  1.00  0.00     0.032 A 
HETATM   21  C9  UNL     1      17.285   2.986   5.890  1.00  0.00     0.288 A 
HETATM   22  O3  UNL     1      16.620   4.055   6.016  1.00  0.00    -0.260 OA
HETATM   23  C10 UNL     1      18.600   2.970   6.341  1.00  0.00     0.083 A 
HETATM   24  C11 UNL     1      19.299   1.802   6.195  1.00  0.00     0.023 A 
ENDBRANCH  12  13
ENDBRANCH   4  12
BRANCH   7  25
HETATM   25  N3  UNL     1      25.173   0.107   5.070  1.00  0.00    -0.225 N 
ATOM     26  H3  UNL     1      25.123   1.125   5.100  1.00  0.00     0.177 HD
BRANCH  25  27
HETATM   27  C14 UNL     1      26.349  -0.575   4.516  1.00  0.00     0.148 C 
BRANCH  27  28
HETATM   28  C15 UNL     1      27.616   0.188   4.946  1.00  0.00     0.133 C 
BRANCH  28  29
HETATM   29  C16 UNL     1      27.468   0.516   6.384  1.00  0.00     0.174 C 
HETATM   30  O4  UNL     1      27.536   1.697   6.794  1.00  0.00    -0.648 OA
HETATM   31  O5  UNL     1      27.248  -0.510   7.296  1.00  0.00    -0.648 OA
ENDBRANCH  28  29
ENDBRANCH  27  28
ENDBRANCH  25  27
ENDBRANCH   7  25
TORSDOF 6
ENDMDL
MODEL 3
REMARK VINA RESULT: -7.929657572      0.940      1.163
REMARK  6 active torsions:
REMARK  status: ('A' for Active; 'I' for Inactive)
REMARK    1  A    between atoms: C3_4  and  O1_5 
REMARK    2  A    between atoms: O1_5  and  C4_6 
REMARK    3  A    between atoms: C13_20  and  N3_21 
REMARK    4  A    between atoms: N3_21  and  C14_23 
REMARK    5  A    between atoms: C14_23  and  C15_24 
REMARK    6  A    between atoms: C15_24  and  C16_25 
ROOT
HETATM    1  N1  UNL     1      20.405  -3.931   7.334  1.00  0.00    -0.191 NA
HETATM    2  C1  UNL     1      21.241  -3.246   6.978  1.00  0.00     0.106 C 
HETATM    3  C2  UNL     1      22.261  -2.377   6.528  1.00  0.00     0.131 A 
HETATM    4  C3  UNL     1      21.932  -1.167   5.986  1.00  0.00     0.186 A 
HETATM    5  N2  UNL     1      23.008  -0.416   5.538  1.00  0.00    -0.169 N 
ATOM      6  H2  UNL     1      22.802   0.494   5.125  1.00  0.00     0.186 HD
HETATM    7  C13 UNL     1      24.263  -0.774   5.601  1.00  0.00     0.681 A 
HETATM    8  N4  UNL     1      24.546  -1.976   6.146  1.00  0.00    -0.183 N 
ATOM      9  H4  UNL     1      25.517  -2.283   6.210  1.00  0.00     0.185 HD
HETATM   10  C17 UNL     1      23.564  -2.780   6.608  1.00  0.00     0.121 A 
HETATM   11 BR2  UNL     1      24.031  -4.489   7.377  1.00  0.00    -0.029 Br
ENDROOT
BRANCH   4  12
HETATM   12  O1  UNL     1      20.755  -0.618   5.834  1.00  0.00    -0.291 OA
BRANCH  12  13
HETATM   13  C4  UNL     1      19.532  -0.518   5.463  1.00  0.00     0.092 A 
HETATM   14  C5  UNL     1      18.853  -1.594   4.873  1.00  0.00     0.057 A 
HETATM   15  C6  UNL     1      17.550  -1.540   4.456  1.00  0.00     0.016 A 
HETATM   16 BR1  UNL     1      16.676  -3.047   3.654  1.00  0.00    -0.051 Br
HETATM   17  C7  UNL     1      16.872  -0.358   4.630  1.00  0.00     0.057 A 
HETATM   18  C8  UNL     1      17.477   0.755   5.207  1.00  0.00     0.093 A 
HETATM   19  O2  UNL     1      16.824   1.879   5.365  1.00  0.00    -0.275 OA
HETATM   20  C12 UNL     1      18.780   0.649   5.606  1.00  0.00     0.032 A 
HETATM   21  C9  UNL     1      17.337   2.963   5.896  1.00  0.00     0.288 A 
HETATM   22  O3  UNL     1      16.674   4.033   6.033  1.00  0.00    -0.260 OA
HETATM   23  C10 UNL     1      18.658   2.946   6.328  1.00  0.00     0.083 A 
HETATM   24  C11 UNL     1      19.354   1.777   6.171  1.00  0.00     0.023 A 
ENDBRANCH  12  13
ENDBRANCH   4  12
BRANCH   7  25
HETATM   25  N3  UNL     1      25.269  -0.093   5.182  1.00  0.00    -0.225 N 
ATOM     26  H3  UNL     1      25.337   0.197   4.207  1.00  0.00     0.177 HD
BRANCH  25  27
HETATM   27  C14 UNL     1      26.318   0.256   6.149  1.00  0.00     0.148 C 
BRANCH  27  28
HETATM   28  C15 UNL     1      27.693   0.079   5.477  1.00  0.00     0.133 C 
BRANCH  28  29
HETATM   29  C16 UNL     1      28.146  -1.304   5.753  1.00  0.00     0.174 C 
HETATM   30  O4  UNL     1      27.459  -2.295   5.419  1.00  0.00    -0.648 OA
HETATM   31  O5  UNL     1      29.362  -1.504   6.396  1.00  0.00    -0.648 OA
ENDBRANCH  28  29
ENDBRANCH  27  28
ENDBRANCH  25  27
ENDBRANCH   7  25
TORSDOF 6
ENDMDL
MODEL 4
REMARK VINA RESULT: -7.911110012      2.587      4.559
REMARK  6 active torsions:
REMARK  status: ('A' for Active; 'I' for Inactive)
REMARK    1  A    between atoms: C3_4  and  O1_5 
REMARK    2  A    between atoms: O1_5  and  C4_6 
REMARK    3  A    between atoms: C13_20  and  N3_21 
REMARK    4  A    between atoms: N3_21  and  C14_23 
REMARK    5  A    between atoms: C14_23  and  C15_24 
REMARK    6  A    between atoms: C15_24  and  C16_25 
ROOT
HETATM    1  N1  UNL     1      24.238   0.196   5.085  1.00  0.00    -0.191 NA
HETATM    2  C1  UNL     1      23.852  -0.736   5.611  1.00  0.00     0.106 C 
HETATM    3  C2  UNL     1      23.347  -1.885   6.262  1.00  0.00     0.131 A 
HETATM    4  C3  UNL     1      21.997  -2.076   6.352  1.00  0.00     0.186 A 
HETATM    5  N2  UNL     1      21.614  -3.212   7.047  1.00  0.00    -0.169 N 
ATOM      6  H2  UNL     1      20.613  -3.388   7.138  1.00  0.00     0.186 HD
HETATM    7  C13 UNL     1      22.424  -4.076   7.598  1.00  0.00     0.681 A 
HETATM    8  N4  UNL     1      23.751  -3.852   7.484  1.00  0.00    -0.183 N 
ATOM      9  H4  UNL     1      24.409  -4.510   7.902  1.00  0.00     0.185 HD
HETATM   10  C17 UNL     1      24.221  -2.771   6.826  1.00  0.00     0.121 A 
HETATM   11 BR2  UNL     1      26.129  -2.503   6.698  1.00  0.00    -0.029 Br
ENDROOT
BRANCH   4  12
HETATM   12  O1  UNL     1      21.022  -1.348   5.874  1.00  0.00    -0.291 OA
BRANCH  12  13
HETATM   13  C4  UNL     1      19.826  -1.051   5.521  1.00  0.00     0.092 A 
HETATM   14  C5  UNL     1      18.992  -1.987   4.893  1.00  0.00     0.057 A 
HETATM   15  C6  UNL     1      17.709  -1.722   4.493  1.00  0.00     0.016 A 
HETATM   16 BR1  UNL     1      16.618  -3.046   3.635  1.00  0.00    -0.051 Br
HETATM   17  C7  UNL     1      17.215  -0.462   4.727  1.00  0.00     0.057 A 
HETATM   18  C8  UNL     1      17.981   0.522   5.345  1.00  0.00     0.093 A 
HETATM   19  O2  UNL     1      17.502   1.722   5.559  1.00  0.00    -0.275 OA
HETATM   20  C12 UNL     1      19.256   0.207   5.725  1.00  0.00     0.032 A 
HETATM   21  C9  UNL     1      18.173   2.693   6.131  1.00  0.00     0.288 A 
HETATM   22  O3  UNL     1      17.677   3.842   6.322  1.00  0.00    -0.260 OA
HETATM   23  C10 UNL     1      19.479   2.461   6.548  1.00  0.00     0.083 A 
HETATM   24  C11 UNL     1      19.993   1.210   6.332  1.00  0.00     0.023 A 
ENDBRANCH  12  13
ENDBRANCH   4  12
BRANCH   7  25
HETATM   25  N3  UNL     1      22.083  -5.128   8.254  1.00  0.00    -0.225 N 
ATOM     26  H3  UNL     1      21.151  -5.215   8.656  1.00  0.00     0.177 HD
BRANCH  25  27
HETATM   27  C14 UNL     1      23.076  -6.199   8.407  1.00  0.00     0.148 C 
BRANCH  27  28
HETATM   28  C15 UNL     1      23.182  -6.571   9.897  1.00  0.00     0.133 C 
BRANCH  28  29
HETATM   29  C16 UNL     1      23.111  -5.311  10.674  1.00  0.00     0.174 C 
HETATM   30  O4  UNL     1      22.146  -5.065  11.433  1.00  0.00    -0.648 OA
HETATM   31  O5  UNL     1      24.140  -4.383  10.558  1.00  0.00    -0.648 OA
ENDBRANCH  28  29
ENDBRANCH  27  28
ENDBRANCH  25  27
ENDBRANCH   7  25
TORSDOF 6
ENDMDL
MODEL 5
REMARK VINA RESULT: -7.712756340      2.705      4.498
REMARK  6 active torsions:
REMARK  status: ('A' for Active; 'I' for Inactive)
REMARK    1  A    between atoms: C3_4  and  O1_5 
REMARK    2  A    between atoms: O1_5  and  C4_6 
REMARK    3  A    between atoms: C13_20  and  N3_21 
REMARK    4  A    between atoms: N3_21  and  C14_23 
REMARK    5  A    between atoms: C14_23  and  C15_24 
REMARK    6  A    between atoms: C15_24  and  C16_25 
ROOT
HETATM    1  N1  UNL     1      24.179   0.196   5.102  1.00  0.00    -0.191 NA
HETATM    2  C1  UNL     1      23.791  -0.760   5.581  1.00  0.00     0.106 C 
HETATM    3  C2  UNL     1      23.283  -1.939   6.173  1.00  0.00     0.131 A 
HETATM    4  C3  UNL     1      21.932  -2.129   6.257  1.00  0.00     0.186 A 
HETATM    5  N2  UNL     1      21.545  -3.297   6.894  1.00  0.00    -0.169 N 
ATOM      6  H2  UNL     1      20.544  -3.474   6.978  1.00  0.00     0.186 HD
HETATM    7  C13 UNL     1      22.354  -4.193   7.397  1.00  0.00     0.681 A 
HETATM    8  N4  UNL     1      23.681  -3.968   7.291  1.00  0.00    -0.183 N 
ATOM      9  H4  UNL     1      24.338  -4.650   7.673  1.00  0.00     0.185 HD
HETATM   10  C17 UNL     1      24.154  -2.856   6.689  1.00  0.00     0.121 A 
HETATM   11 BR2  UNL     1      26.063  -2.590   6.569  1.00  0.00    -0.029 Br
ENDROOT
BRANCH   4  12
HETATM   12  O1  UNL     1      20.959  -1.373   5.820  1.00  0.00    -0.291 OA
BRANCH  12  13
HETATM   13  C4  UNL     1      19.765  -1.058   5.473  1.00  0.00     0.092 A 
HETATM   14  C5  UNL     1      18.924  -1.973   4.824  1.00  0.00     0.057 A 
HETATM   15  C6  UNL     1      17.644  -1.688   4.429  1.00  0.00     0.016 A 
HETATM   16 BR1  UNL     1      16.541  -2.983   3.542  1.00  0.00    -0.051 Br
HETATM   17  C7  UNL     1      17.161  -0.429   4.690  1.00  0.00     0.057 A 
HETATM   18  C8  UNL     1      17.935   0.535   5.330  1.00  0.00     0.093 A 
HETATM   19  O2  UNL     1      17.467   1.734   5.570  1.00  0.00    -0.275 OA
HETATM   20  C12 UNL     1      19.206   0.200   5.703  1.00  0.00     0.032 A 
HETATM   21  C9  UNL     1      18.146   2.687   6.163  1.00  0.00     0.288 A 
HETATM   22  O3  UNL     1      17.660   3.836   6.378  1.00  0.00    -0.260 OA
HETATM   23  C10 UNL     1      19.449   2.434   6.575  1.00  0.00     0.083 A 
HETATM   24  C11 UNL     1      19.952   1.184   6.332  1.00  0.00     0.023 A 
ENDBRANCH  12  13
ENDBRANCH   4  12
BRANCH   7  25
HETATM   25  N3  UNL     1      22.010  -5.275   7.998  1.00  0.00    -0.225 N 
ATOM     26  H3  UNL     1      21.517  -6.017   7.503  1.00  0.00     0.177 HD
BRANCH  25  27
HETATM   27  C14 UNL     1      22.348  -5.412   9.421  1.00  0.00     0.148 C 
BRANCH  27  28
HETATM   28  C15 UNL     1      23.110  -6.734   9.627  1.00  0.00     0.133 C 
BRANCH  28  29
HETATM   29  C16 UNL     1      23.133  -7.440   8.323  1.00  0.00     0.174 C 
HETATM   30  O4  UNL     1      22.248  -8.270   8.016  1.00  0.00    -0.648 OA
HETATM   31  O5  UNL     1      24.158  -7.172   7.424  1.00  0.00    -0.648 OA
ENDBRANCH  28  29
ENDBRANCH  27  28
ENDBRANCH  25  27
ENDBRANCH   7  25
TORSDOF 6
ENDMDL
