MODEL 1
REMARK VINA RESULT: -9.098632055      0.000      0.000
REMARK  9 active torsions:
REMARK  status: ('A' for Active; 'I' for Inactive)
REMARK    1  A    between atoms: C2_2  and  C3_3 
REMARK    2  A    between atoms: C4_4  and  C5_5 
REMARK    3  A    between atoms: C8_9  and  C9_10 
REMARK       I    between atoms: C9_10  and  N1_12 
REMARK    4  A    between atoms: N1_12  and  N2_14 
REMARK    5  A    between atoms: N2_14  and  C10_15 
REMARK    6  A    between atoms: C10_15  and  C11_16 
REMARK    7  A    between atoms: C13_18  and  O2_19 
REMARK    8  A    between atoms: C15_21  and  O3_22 
REMARK    9  A    between atoms: C16_24  and  O4_25 
ROOT
HETATM    1  C9  UNL     1      19.761   1.562   5.999  1.00  0.00     0.281 C 
HETATM    2  O1  UNL     1      20.433   2.588   6.253  1.00  0.00    -0.265 OA
HETATM    3  N1  UNL     1      20.371   0.258   6.082  1.00  0.00    -0.199 N 
ATOM      4  H1  UNL     1      19.798  -0.558   5.868  1.00  0.00     0.205 HD
ENDROOT
BRANCH   3   5
HETATM    5  N2  UNL     1      21.608   0.071   6.413  1.00  0.00    -0.335 NA
BRANCH   5   6
HETATM    6  C10 UNL     1      22.750  -0.039   6.699  1.00  0.00     0.220 C 
BRANCH   6   7
HETATM    7  C11 UNL     1      23.683  -0.852   5.883  1.00  0.00     0.000 A 
HETATM    8  C12 UNL     1      23.369  -2.155   5.537  1.00  0.00     0.053 A 
HETATM    9  C13 UNL     1      24.242  -2.899   4.782  1.00  0.00     0.105 A 
HETATM   10  C15 UNL     1      25.436  -2.339   4.368  1.00  0.00     0.133 A 
HETATM   11  C16 UNL     1      25.715  -1.055   4.724  1.00  0.00     0.105 A 
HETATM   12  C18 UNL     1      24.861  -0.275   5.483  1.00  0.00     0.053 A 
BRANCH   9  13
HETATM   13  O2  UNL     1      23.961  -4.206   4.418  1.00  0.00    -0.353 OA
HETATM   14  C14 UNL     1      23.847  -5.177   5.433  1.00  0.00     0.210 C 
ENDBRANCH   9  13
BRANCH  10  15
HETATM   15  O3  UNL     1      26.343  -3.077   3.596  1.00  0.00    -0.356 OA
ATOM     16  H3  UNL     1      27.122  -2.667   3.240  1.00  0.00     0.218 HD
ENDBRANCH  10  15
BRANCH  11  17
HETATM   17  O4  UNL     1      26.917  -0.485   4.309  1.00  0.00    -0.353 OA
HETATM   18  C17 UNL     1      27.017   0.686   3.556  1.00  0.00     0.210 C 
ENDBRANCH  11  17
ENDBRANCH   6   7
ENDBRANCH   5   6
ENDBRANCH   3   5
BRANCH   1  19
HETATM   19  C8  UNL     1      18.369   1.699   5.622  1.00  0.00     0.053 A 
HETATM   20  C7  UNL     1      17.774   0.688   4.910  1.00  0.00     0.028 A 
HETATM   21  C6  UNL     1      16.459   0.792   4.541  1.00  0.00     0.042 A 
HETATM   22 BR1  UNL     1      18.754  -0.875   4.420  1.00  0.00    -0.050 Br
HETATM   23  C5  UNL     1      15.672   1.884   4.851  1.00  0.00     0.036 A 
HETATM   24  C20 UNL     1      16.308   2.887   5.572  1.00  0.00     0.030 A 
HETATM   25  C19 UNL     1      17.622   2.800   5.950  1.00  0.00     0.039 A 
HETATM   26 BR2  UNL     1      15.243   4.421   6.021  1.00  0.00    -0.050 Br
BRANCH  23  27
HETATM   27  C4  UNL     1      14.293   1.974   4.454  1.00  0.00    -0.066 C 
HETATM   28  C3  UNL     1      13.130   2.037   4.136  1.00  0.00    -0.101 C 
BRANCH  28  29
HETATM   29  C2  UNL     1      11.716   2.096   3.764  1.00  0.00     0.090 C 
HETATM   30  C1  UNL     1      10.944   2.610   4.935  1.00  0.00     0.018 C 
ENDBRANCH  28  29
ENDBRANCH  23  27
ENDBRANCH   1  19
TORSDOF 9
ENDMDL
MODEL 2
REMARK VINA RESULT: -9.094133474      0.084      2.429
REMARK  9 active torsions:
REMARK  status: ('A' for Active; 'I' for Inactive)
REMARK    1  A    between atoms: C2_2  and  C3_3 
REMARK    2  A    between atoms: C4_4  and  C5_5 
REMARK    3  A    between atoms: C8_9  and  C9_10 
REMARK       I    between atoms: C9_10  and  N1_12 
REMARK    4  A    between atoms: N1_12  and  N2_14 
REMARK    5  A    between atoms: N2_14  and  C10_15 
REMARK    6  A    between atoms: C10_15  and  C11_16 
REMARK    7  A    between atoms: C13_18  and  O2_19 
REMARK    8  A    between atoms: C15_21  and  O3_22 
REMARK    9  A    between atoms: C16_24  and  O4_25 
ROOT
HETATM    1  C9  UNL     1      19.722   1.566   5.981  1.00  0.00     0.281 C 
HETATM    2  O1  UNL     1      20.394   2.593   6.236  1.00  0.00    -0.265 OA
HETATM    3  N1  UNL     1      20.338   0.264   6.051  1.00  0.00    -0.199 N 
ATOM      4  H1  UNL     1      19.767  -0.554   5.838  1.00  0.00     0.205 HD
ENDROOT
BRANCH   3   5
HETATM    5  N2  UNL     1      21.578   0.079   6.371  1.00  0.00    -0.335 NA
BRANCH   5   6
HETATM    6  C10 UNL     1      22.715  -0.026   6.677  1.00  0.00     0.220 C 
BRANCH   6   7
HETATM    7  C11 UNL     1      23.668  -0.829   5.874  1.00  0.00     0.000 A 
HETATM    8  C12 UNL     1      24.855  -0.274   5.423  1.00  0.00     0.053 A 
HETATM    9  C13 UNL     1      25.731  -1.026   4.679  1.00  0.00     0.105 A 
HETATM   10  C15 UNL     1      25.421  -2.341   4.383  1.00  0.00     0.133 A 
HETATM   11  C16 UNL     1      24.247  -2.856   4.842  1.00  0.00     0.105 A 
HETATM   12  C18 UNL     1      23.342  -2.130   5.593  1.00  0.00     0.053 A 
BRANCH   9  13
HETATM   13  O2  UNL     1      26.925  -0.505   4.210  1.00  0.00    -0.353 OA
HETATM   14  C14 UNL     1      26.945   0.831   3.761  1.00  0.00     0.210 C 
ENDBRANCH   9  13
BRANCH  10  15
HETATM   15  O3  UNL     1      26.298  -3.129   3.626  1.00  0.00    -0.356 OA
ATOM     16  H3  UNL     1      26.816  -3.810   4.038  1.00  0.00     0.218 HD
ENDBRANCH  10  15
BRANCH  11  17
HETATM   17  O4  UNL     1      23.931  -4.181   4.547  1.00  0.00    -0.353 OA
HETATM   18  C17 UNL     1      23.776  -5.187   5.503  1.00  0.00     0.210 C 
ENDBRANCH  11  17
ENDBRANCH   6   7
ENDBRANCH   5   6
ENDBRANCH   3   5
BRANCH   1  19
HETATM   19  C8  UNL     1      18.327   1.699   5.616  1.00  0.00     0.053 A 
HETATM   20  C7  UNL     1      17.733   0.696   4.895  1.00  0.00     0.028 A 
HETATM   21  C6  UNL     1      16.414   0.797   4.538  1.00  0.00     0.042 A 
HETATM   22 BR1  UNL     1      18.718  -0.855   4.376  1.00  0.00    -0.050 Br
HETATM   23  C5  UNL     1      15.623   1.880   4.868  1.00  0.00     0.036 A 
HETATM   24  C20 UNL     1      16.259   2.876   5.599  1.00  0.00     0.030 A 
HETATM   25  C19 UNL     1      17.576   2.792   5.966  1.00  0.00     0.039 A 
HETATM   26 BR2  UNL     1      15.188   4.397   6.077  1.00  0.00    -0.050 Br
BRANCH  23  27
HETATM   27  C4  UNL     1      14.241   1.967   4.483  1.00  0.00    -0.066 C 
HETATM   28  C3  UNL     1      13.077   2.057   4.173  1.00  0.00    -0.101 C 
BRANCH  28  29
HETATM   29  C2  UNL     1      11.664   2.180   3.812  1.00  0.00     0.090 C 
HETATM   30  C1  UNL     1      10.918   2.683   5.004  1.00  0.00     0.018 C 
ENDBRANCH  28  29
ENDBRANCH  23  27
ENDBRANCH   1  19
TORSDOF 9
ENDMDL
MODEL 3
REMARK VINA RESULT: -8.901347791      0.985      2.618
REMARK  9 active torsions:
REMARK  status: ('A' for Active; 'I' for Inactive)
REMARK    1  A    between atoms: C2_2  and  C3_3 
REMARK    2  A    between atoms: C4_4  and  C5_5 
REMARK    3  A    between atoms: C8_9  and  C9_10 
REMARK       I    between atoms: C9_10  and  N1_12 
REMARK    4  A    between atoms: N1_12  and  N2_14 
REMARK    5  A    between atoms: N2_14  and  C10_15 
REMARK    6  A    between atoms: C10_15  and  C11_16 
REMARK    7  A    between atoms: C13_18  and  O2_19 
REMARK    8  A    between atoms: C15_21  and  O3_22 
REMARK    9  A    between atoms: C16_24  and  O4_25 
ROOT
HETATM    1  C9  UNL     1      19.994   0.829   6.523  1.00  0.00     0.281 C 
HETATM    2  O1  UNL     1      20.186   0.904   7.758  1.00  0.00    -0.265 OA
HETATM    3  N1  UNL     1      21.079   0.472   5.642  1.00  0.00    -0.199 N 
ATOM      4  H1  UNL     1      20.892   0.419   4.641  1.00  0.00     0.205 HD
ENDROOT
BRANCH   3   5
HETATM    5  N2  UNL     1      22.277   0.215   6.057  1.00  0.00    -0.335 NA
BRANCH   5   6
HETATM    6  C10 UNL     1      23.348  -0.071   6.467  1.00  0.00     0.220 C 
BRANCH   6   7
HETATM    7  C11 UNL     1      24.400  -0.628   5.583  1.00  0.00     0.000 A 
HETATM    8  C12 UNL     1      25.424   0.175   5.109  1.00  0.00     0.053 A 
HETATM    9  C13 UNL     1      26.392  -0.350   4.290  1.00  0.00     0.105 A 
HETATM   10  C15 UNL     1      26.339  -1.687   3.942  1.00  0.00     0.133 A 
HETATM   11  C16 UNL     1      25.320  -2.450   4.425  1.00  0.00     0.105 A 
HETATM   12  C18 UNL     1      24.328  -1.956   5.251  1.00  0.00     0.053 A 
BRANCH   9  13
HETATM   13  O2  UNL     1      27.430   0.423   3.797  1.00  0.00    -0.353 OA
HETATM   14  C14 UNL     1      27.755   1.620   4.468  1.00  0.00     0.210 C 
ENDBRANCH   9  13
BRANCH  10  15
HETATM   15  O3  UNL     1      27.316  -2.248   3.108  1.00  0.00    -0.356 OA
ATOM     16  H3  UNL     1      27.875  -1.694   2.576  1.00  0.00     0.218 HD
ENDBRANCH  10  15
BRANCH  11  17
HETATM   17  O4  UNL     1      25.263  -3.798   4.076  1.00  0.00    -0.353 OA
HETATM   18  C17 UNL     1      24.453  -4.743   4.710  1.00  0.00     0.210 C 
ENDBRANCH  11  17
ENDBRANCH   6   7
ENDBRANCH   5   6
ENDBRANCH   3   5
BRANCH   1  19
HETATM   19  C8  UNL     1      18.675   1.102   5.989  1.00  0.00     0.053 A 
HETATM   20  C7  UNL     1      17.999   0.096   5.349  1.00  0.00     0.028 A 
HETATM   21  C6  UNL     1      16.750   0.328   4.835  1.00  0.00     0.042 A 
HETATM   22 BR1  UNL     1      18.771  -1.640   5.159  1.00  0.00    -0.050 Br
HETATM   23  C5  UNL     1      16.112   1.550   4.924  1.00  0.00     0.036 A 
HETATM   24  C20 UNL     1      16.828   2.544   5.580  1.00  0.00     0.030 A 
HETATM   25  C19 UNL     1      18.077   2.331   6.100  1.00  0.00     0.039 A 
HETATM   26 BR2  UNL     1      15.970   4.258   5.722  1.00  0.00    -0.050 Br
BRANCH  23  27
HETATM   27  C4  UNL     1      14.801   1.774   4.378  1.00  0.00    -0.066 C 
HETATM   28  C3  UNL     1      13.701   1.943   3.910  1.00  0.00    -0.101 C 
BRANCH  28  29
HETATM   29  C2  UNL     1      12.370   2.130   3.332  1.00  0.00     0.090 C 
HETATM   30  C1  UNL     1      11.416   2.438   4.439  1.00  0.00     0.018 C 
ENDBRANCH  28  29
ENDBRANCH  23  27
ENDBRANCH   1  19
TORSDOF 9
ENDMDL
MODEL 4
REMARK VINA RESULT: -8.867101235      2.352      3.450
REMARK  9 active torsions:
REMARK  status: ('A' for Active; 'I' for Inactive)
REMARK    1  A    between atoms: C2_2  and  C3_3 
REMARK    2  A    between atoms: C4_4  and  C5_5 
REMARK    3  A    between atoms: C8_9  and  C9_10 
REMARK       I    between atoms: C9_10  and  N1_12 
REMARK    4  A    between atoms: N1_12  and  N2_14 
REMARK    5  A    between atoms: N2_14  and  C10_15 
REMARK    6  A    between atoms: C10_15  and  C11_16 
REMARK    7  A    between atoms: C13_18  and  O2_19 
REMARK    8  A    between atoms: C15_21  and  O3_22 
REMARK    9  A    between atoms: C16_24  and  O4_25 
ROOT
HETATM    1  C9  UNL     1      19.879   0.739   6.465  1.00  0.00     0.281 C 
HETATM    2  O1  UNL     1      20.084   0.743   7.701  1.00  0.00    -0.265 OA
HETATM    3  N1  UNL     1      20.955   0.430   5.555  1.00  0.00    -0.199 N 
ATOM      4  H1  UNL     1      20.758   0.436   4.554  1.00  0.00     0.205 HD
ENDROOT
BRANCH   3   5
HETATM    5  N2  UNL     1      22.156   0.146   5.943  1.00  0.00    -0.335 NA
BRANCH   5   6
HETATM    6  C10 UNL     1      23.232  -0.172   6.315  1.00  0.00     0.220 C 
BRANCH   6   7
HETATM    7  C11 UNL     1      23.462  -1.443   7.041  1.00  0.00     0.000 A 
HETATM    8  C12 UNL     1      24.397  -1.516   8.061  1.00  0.00     0.053 A 
HETATM    9  C13 UNL     1      24.603  -2.698   8.728  1.00  0.00     0.105 A 
HETATM   10  C15 UNL     1      23.871  -3.817   8.375  1.00  0.00     0.133 A 
HETATM   11  C16 UNL     1      22.960  -3.713   7.369  1.00  0.00     0.105 A 
HETATM   12  C18 UNL     1      22.725  -2.540   6.676  1.00  0.00     0.053 A 
BRANCH   9  13
HETATM   13  O2  UNL     1      25.529  -2.808   9.751  1.00  0.00    -0.353 OA
HETATM   14  C14 UNL     1      26.676  -1.988   9.711  1.00  0.00     0.210 C 
ENDBRANCH   9  13
BRANCH  10  15
HETATM   15  O3  UNL     1      24.063  -5.035   9.039  1.00  0.00    -0.356 OA
ATOM     16  H3  UNL     1      23.931  -5.101   9.978  1.00  0.00     0.218 HD
ENDBRANCH  10  15
BRANCH  11  17
HETATM   17  O4  UNL     1      22.219  -4.838   7.010  1.00  0.00    -0.353 OA
HETATM   18  C17 UNL     1      20.885  -5.049   7.361  1.00  0.00     0.210 C 
ENDBRANCH  11  17
ENDBRANCH   6   7
ENDBRANCH   5   6
ENDBRANCH   3   5
BRANCH   1  19
HETATM   19  C8  UNL     1      18.557   1.048   5.961  1.00  0.00     0.053 A 
HETATM   20  C7  UNL     1      17.833   0.055   5.352  1.00  0.00     0.028 A 
HETATM   21  C6  UNL     1      16.579   0.321   4.867  1.00  0.00     0.042 A 
HETATM   22 BR1  UNL     1      18.545  -1.706   5.168  1.00  0.00    -0.050 Br
HETATM   23  C5  UNL     1      15.983   1.563   4.955  1.00  0.00     0.036 A 
HETATM   24  C20 UNL     1      16.746   2.543   5.578  1.00  0.00     0.030 A 
HETATM   25  C19 UNL     1      18.001   2.296   6.069  1.00  0.00     0.039 A 
HETATM   26 BR2  UNL     1      15.948   4.285   5.718  1.00  0.00    -0.050 Br
BRANCH  23  27
HETATM   27  C4  UNL     1      14.667   1.822   4.439  1.00  0.00    -0.066 C 
HETATM   28  C3  UNL     1      13.552   2.032   4.023  1.00  0.00    -0.101 C 
BRANCH  28  29
HETATM   29  C2  UNL     1      12.194   2.276   3.536  1.00  0.00     0.090 C 
HETATM   30  C1  UNL     1      11.317   2.553   4.713  1.00  0.00     0.018 C 
ENDBRANCH  28  29
ENDBRANCH  23  27
ENDBRANCH   1  19
TORSDOF 9
ENDMDL
MODEL 5
REMARK VINA RESULT: -8.858597892      2.298      2.800
REMARK  9 active torsions:
REMARK  status: ('A' for Active; 'I' for Inactive)
REMARK    1  A    between atoms: C2_2  and  C3_3 
REMARK    2  A    between atoms: C4_4  and  C5_5 
REMARK    3  A    between atoms: C8_9  and  C9_10 
REMARK       I    between atoms: C9_10  and  N1_12 
REMARK    4  A    between atoms: N1_12  and  N2_14 
REMARK    5  A    between atoms: N2_14  and  C10_15 
REMARK    6  A    between atoms: C10_15  and  C11_16 
REMARK    7  A    between atoms: C13_18  and  O2_19 
REMARK    8  A    between atoms: C15_21  and  O3_22 
REMARK    9  A    between atoms: C16_24  and  O4_25 
ROOT
HETATM    1  C9  UNL     1      19.881   0.760   6.518  1.00  0.00     0.281 C 
HETATM    2  O1  UNL     1      20.060   0.765   7.758  1.00  0.00    -0.265 OA
HETATM    3  N1  UNL     1      20.978   0.459   5.630  1.00  0.00    -0.199 N 
ATOM      4  H1  UNL     1      20.802   0.463   4.626  1.00  0.00     0.205 HD
ENDROOT
BRANCH   3   5
HETATM    5  N2  UNL     1      22.172   0.182   6.043  1.00  0.00    -0.335 NA
BRANCH   5   6
HETATM    6  C10 UNL     1      23.243  -0.130   6.434  1.00  0.00     0.220 C 
BRANCH   6   7
HETATM    7  C11 UNL     1      23.509  -1.479   6.989  1.00  0.00     0.000 A 
HETATM    8  C12 UNL     1      22.728  -2.562   6.620  1.00  0.00     0.053 A 
HETATM    9  C13 UNL     1      22.983  -3.807   7.139  1.00  0.00     0.105 A 
HETATM   10  C15 UNL     1      24.024  -3.973   8.034  1.00  0.00     0.133 A 
HETATM   11  C16 UNL     1      24.773  -2.889   8.376  1.00  0.00     0.105 A 
HETATM   12  C18 UNL     1      24.547  -1.621   7.873  1.00  0.00     0.053 A 
BRANCH   9  13
HETATM   13  O2  UNL     1      22.223  -4.912   6.794  1.00  0.00    -0.353 OA
HETATM   14  C14 UNL     1      20.894  -4.985   7.257  1.00  0.00     0.210 C 
ENDBRANCH   9  13
BRANCH  10  15
HETATM   15  O3  UNL     1      24.305  -5.233   8.578  1.00  0.00    -0.356 OA
ATOM     16  H3  UNL     1      25.029  -5.752   8.250  1.00  0.00     0.218 HD
ENDBRANCH  10  15
BRANCH  11  17
HETATM   17  O4  UNL     1      25.824  -3.052   9.276  1.00  0.00    -0.353 OA
HETATM   18  C17 UNL     1      25.744  -2.770  10.642  1.00  0.00     0.210 C 
ENDBRANCH  11  17
ENDBRANCH   6   7
ENDBRANCH   5   6
ENDBRANCH   3   5
BRANCH   1  19
HETATM   19  C8  UNL     1      18.568   1.060   5.986  1.00  0.00     0.053 A 
HETATM   20  C7  UNL     1      17.864   0.064   5.360  1.00  0.00     0.028 A 
HETATM   21  C6  UNL     1      16.620   0.321   4.849  1.00  0.00     0.042 A 
HETATM   22 BR1  UNL     1      18.593  -1.692   5.187  1.00  0.00    -0.050 Br
HETATM   23  C5  UNL     1      16.012   1.559   4.926  1.00  0.00     0.036 A 
HETATM   24  C20 UNL     1      16.755   2.543   5.567  1.00  0.00     0.030 A 
HETATM   25  C19 UNL     1      18.000   2.304   6.085  1.00  0.00     0.039 A 
HETATM   26 BR2  UNL     1      15.940   4.278   5.694  1.00  0.00    -0.050 Br
BRANCH  23  27
HETATM   27  C4  UNL     1      14.705   1.809   4.383  1.00  0.00    -0.066 C 
HETATM   28  C3  UNL     1      13.603   1.999   3.928  1.00  0.00    -0.101 C 
BRANCH  28  29
HETATM   29  C2  UNL     1      12.263   2.207   3.376  1.00  0.00     0.090 C 
HETATM   30  C1  UNL     1      11.326   2.473   4.508  1.00  0.00     0.018 C 
ENDBRANCH  28  29
ENDBRANCH  23  27
ENDBRANCH   1  19
TORSDOF 9
ENDMDL
