MODEL 1
REMARK VINA RESULT: -7.347855783      0.000      0.000
REMARK  6 active torsions:
REMARK  status: ('A' for Active; 'I' for Inactive)
REMARK    1  A    between atoms: O1_2  and  C2_3 
REMARK    2  A    between atoms: C4_5  and  N1_6 
REMARK    3  A    between atoms: C7_9  and  C8_10 
REMARK    4  A    between atoms: C11_14  and  O2_15 
REMARK    5  A    between atoms: C16_25  and  O4_26 
REMARK    6  A    between atoms: C18_28  and  O5_29 
ROOT
HETATM    1  N1  UNL     1      20.921  -0.658   5.799  1.00  0.00    -0.285 N 
HETATM    2  C5  UNL     1      22.015   0.274   5.820  1.00  0.00     0.193 C 
HETATM    3  C6  UNL     1      23.258  -0.600   5.813  1.00  0.00     0.032 C 
HETATM    4  C7  UNL     1      24.454  -0.144   5.531  1.00  0.00     0.026 C 
HETATM    5  C14 UNL     1      22.817  -1.941   6.122  1.00  0.00     0.268 C 
HETATM    6  O3  UNL     1      23.525  -2.944   6.362  1.00  0.00    -0.266 OA
HETATM    7  N2  UNL     1      21.373  -1.939   6.104  1.00  0.00    -0.263 N 
ATOM      8  H2  UNL     1      20.779  -2.747   6.287  1.00  0.00     0.190 HD
ENDROOT
BRANCH   1   9
HETATM    9  C4  UNL     1      19.576  -0.300   5.500  1.00  0.00     0.056 A 
HETATM   10  C3  UNL     1      18.707  -1.192   4.898  1.00  0.00     0.071 A 
HETATM   11  C2  UNL     1      17.401  -0.857   4.607  1.00  0.00     0.106 A 
HETATM   12  C18 UNL     1      16.992   0.428   4.949  1.00  0.00     0.135 A 
HETATM   13  C16 UNL     1      17.823   1.346   5.549  1.00  0.00     0.106 A 
HETATM   14  C15 UNL     1      19.121   0.979   5.825  1.00  0.00     0.071 A 
BRANCH  11  15
HETATM   15  O1  UNL     1      16.511  -1.735   4.003  1.00  0.00    -0.353 OA
HETATM   16  C1  UNL     1      16.855  -3.108   3.988  1.00  0.00     0.210 C 
ENDBRANCH  11  15
BRANCH  12  17
HETATM   17  O5  UNL     1      15.698   0.770   4.665  1.00  0.00    -0.351 OA
HETATM   18  C19 UNL     1      15.419   1.786   3.715  1.00  0.00     0.210 C 
ENDBRANCH  12  17
BRANCH  13  19
HETATM   19  O4  UNL     1      17.331   2.607   5.856  1.00  0.00    -0.353 OA
HETATM   20  C17 UNL     1      18.217   3.508   6.493  1.00  0.00     0.210 C 
ENDBRANCH  13  19
ENDBRANCH   1   9
BRANCH   4  21
HETATM   21  C8  UNL     1      25.701  -0.853   5.495  1.00  0.00    -0.033 A 
HETATM   22  C9  UNL     1      26.185  -1.645   4.499  1.00  0.00     0.033 A 
HETATM   23  C10 UNL     1      27.431  -2.262   4.555  1.00  0.00     0.046 A 
HETATM   24 BR1  UNL     1      28.013  -3.346   3.113  1.00  0.00    -0.048 Br
HETATM   25  C11 UNL     1      28.241  -2.085   5.658  1.00  0.00     0.100 A 
HETATM   26  C12 UNL     1      27.783  -1.293   6.680  1.00  0.00     0.046 A 
HETATM   27 BR2  UNL     1      28.919  -1.060   8.196  1.00  0.00    -0.048 Br
HETATM   28  C13 UNL     1      26.549  -0.695   6.600  1.00  0.00     0.033 A 
BRANCH  25  29
HETATM   29  O2  UNL     1      29.497  -2.693   5.739  1.00  0.00    -0.358 OA
ATOM     30  H2  UNL     1      29.997  -2.686   6.547  1.00  0.00     0.217 HD
ENDBRANCH  25  29
ENDBRANCH   4  21
TORSDOF 6
ENDMDL
MODEL 2
REMARK VINA RESULT: -7.347474861      4.361      5.813
REMARK  6 active torsions:
REMARK  status: ('A' for Active; 'I' for Inactive)
REMARK    1  A    between atoms: O1_2  and  C2_3 
REMARK    2  A    between atoms: C4_5  and  N1_6 
REMARK    3  A    between atoms: C7_9  and  C8_10 
REMARK    4  A    between atoms: C11_14  and  O2_15 
REMARK    5  A    between atoms: C16_25  and  O4_26 
REMARK    6  A    between atoms: C18_28  and  O5_29 
ROOT
HETATM    1  N1  UNL     1      20.804  -2.848   6.648  1.00  0.00    -0.285 N 
HETATM    2  C5  UNL     1      20.416  -4.055   7.326  1.00  0.00     0.193 C 
HETATM    3  C6  UNL     1      21.667  -4.491   8.070  1.00  0.00     0.032 C 
HETATM    4  C7  UNL     1      21.654  -5.375   9.038  1.00  0.00     0.026 C 
HETATM    5  C14 UNL     1      22.759  -3.721   7.522  1.00  0.00     0.268 C 
HETATM    6  O3  UNL     1      23.983  -3.863   7.740  1.00  0.00    -0.266 OA
HETATM    7  N2  UNL     1      22.191  -2.719   6.651  1.00  0.00    -0.263 N 
ATOM      8  H2  UNL     1      22.721  -2.027   6.121  1.00  0.00     0.190 HD
ENDROOT
BRANCH   1   9
HETATM    9  C4  UNL     1      19.885  -1.929   6.068  1.00  0.00     0.056 A 
HETATM   10  C3  UNL     1      20.133  -0.569   6.055  1.00  0.00     0.071 A 
HETATM   11  C2  UNL     1      19.251   0.330   5.493  1.00  0.00     0.106 A 
HETATM   12  C18 UNL     1      18.090  -0.195   4.935  1.00  0.00     0.135 A 
HETATM   13  C16 UNL     1      17.804  -1.542   4.927  1.00  0.00     0.106 A 
HETATM   14  C15 UNL     1      18.706  -2.411   5.496  1.00  0.00     0.071 A 
BRANCH  11  15
HETATM   15  O1  UNL     1      19.479   1.700   5.468  1.00  0.00    -0.353 OA
HETATM   16  C1  UNL     1      19.184   2.434   6.643  1.00  0.00     0.210 C 
ENDBRANCH  11  15
BRANCH  12  17
HETATM   17  O5  UNL     1      17.208   0.688   4.375  1.00  0.00    -0.351 OA
HETATM   18  C19 UNL     1      16.083   1.140   5.112  1.00  0.00     0.210 C 
ENDBRANCH  12  17
BRANCH  13  19
HETATM   19  O4  UNL     1      16.621  -1.979   4.348  1.00  0.00    -0.353 OA
HETATM   20  C17 UNL     1      16.667  -3.197   3.627  1.00  0.00     0.210 C 
ENDBRANCH  13  19
ENDBRANCH   1   9
BRANCH   4  21
HETATM   21  C8  UNL     1      22.753  -5.876   9.813  1.00  0.00    -0.033 A 
HETATM   22  C9  UNL     1      23.274  -5.358  10.958  1.00  0.00     0.033 A 
HETATM   23  C10 UNL     1      24.327  -5.949  11.650  1.00  0.00     0.046 A 
HETATM   24 BR1  UNL     1      24.980  -5.146  13.240  1.00  0.00    -0.048 Br
HETATM   25  C11 UNL     1      24.895  -7.115  11.181  1.00  0.00     0.100 A 
HETATM   26  C12 UNL     1      24.394  -7.664  10.028  1.00  0.00     0.046 A 
HETATM   27 BR2  UNL     1      25.192  -9.278   9.395  1.00  0.00    -0.048 Br
HETATM   28  C13 UNL     1      23.353  -7.061   9.363  1.00  0.00     0.033 A 
BRANCH  25  29
HETATM   29  O2  UNL     1      25.954  -7.729  11.858  1.00  0.00    -0.358 OA
ATOM     30  H2  UNL     1      26.294  -8.571  11.579  1.00  0.00     0.217 HD
ENDBRANCH  25  29
ENDBRANCH   4  21
TORSDOF 6
ENDMDL
MODEL 3
REMARK VINA RESULT: -7.315457907      2.053      2.474
REMARK  6 active torsions:
REMARK  status: ('A' for Active; 'I' for Inactive)
REMARK    1  A    between atoms: O1_2  and  C2_3 
REMARK    2  A    between atoms: C4_5  and  N1_6 
REMARK    3  A    between atoms: C7_9  and  C8_10 
REMARK    4  A    between atoms: C11_14  and  O2_15 
REMARK    5  A    between atoms: C16_25  and  O4_26 
REMARK    6  A    between atoms: C18_28  and  O5_29 
ROOT
HETATM    1  N1  UNL     1      20.974  -0.322   5.826  1.00  0.00    -0.285 N 
HETATM    2  C5  UNL     1      21.563  -1.631   5.754  1.00  0.00     0.193 C 
HETATM    3  C6  UNL     1      22.880  -1.495   6.498  1.00  0.00     0.032 C 
HETATM    4  C7  UNL     1      23.578  -2.525   6.915  1.00  0.00     0.026 C 
HETATM    5  C14 UNL     1      23.119  -0.079   6.655  1.00  0.00     0.268 C 
HETATM    6  O3  UNL     1      24.154   0.481   7.078  1.00  0.00    -0.266 OA
HETATM    7  N2  UNL     1      21.924   0.612   6.231  1.00  0.00    -0.263 N 
ATOM      8  H2  UNL     1      21.797   1.624   6.229  1.00  0.00     0.190 HD
ENDROOT
BRANCH   1   9
HETATM    9  C4  UNL     1      19.610  -0.044   5.527  1.00  0.00     0.056 A 
HETATM   10  C3  UNL     1      18.791  -0.990   4.941  1.00  0.00     0.071 A 
HETATM   11  C2  UNL     1      17.467  -0.732   4.650  1.00  0.00     0.106 A 
HETATM   12  C18 UNL     1      16.988   0.532   4.974  1.00  0.00     0.135 A 
HETATM   13  C16 UNL     1      17.770   1.504   5.559  1.00  0.00     0.106 A 
HETATM   14  C15 UNL     1      19.086   1.214   5.836  1.00  0.00     0.071 A 
BRANCH  11  15
HETATM   15  O1  UNL     1      16.625  -1.667   4.061  1.00  0.00    -0.353 OA
HETATM   16  C1  UNL     1      16.984  -3.032   4.173  1.00  0.00     0.210 C 
ENDBRANCH  11  15
BRANCH  12  17
HETATM   17  O5  UNL     1      15.677   0.798   4.690  1.00  0.00    -0.351 OA
HETATM   18  C19 UNL     1      15.340   1.773   3.716  1.00  0.00     0.210 C 
ENDBRANCH  12  17
BRANCH  13  19
HETATM   19  O4  UNL     1      17.209   2.740   5.849  1.00  0.00    -0.353 OA
HETATM   20  C17 UNL     1      18.036   3.686   6.499  1.00  0.00     0.210 C 
ENDBRANCH  13  19
ENDBRANCH   1   9
BRANCH   4  21
HETATM   21  C8  UNL     1      24.829  -2.538   7.617  1.00  0.00    -0.033 A 
HETATM   22  C9  UNL     1      26.075  -2.335   7.109  1.00  0.00     0.033 A 
HETATM   23  C10 UNL     1      27.226  -2.338   7.893  1.00  0.00     0.046 A 
HETATM   24 BR1  UNL     1      28.917  -2.044   7.088  1.00  0.00    -0.048 Br
HETATM   25  C11 UNL     1      27.135  -2.553   9.253  1.00  0.00     0.100 A 
HETATM   26  C12 UNL     1      25.893  -2.761   9.797  1.00  0.00     0.046 A 
HETATM   27 BR2  UNL     1      25.789  -3.056  11.679  1.00  0.00    -0.048 Br
HETATM   28  C13 UNL     1      24.773  -2.754   9.001  1.00  0.00     0.033 A 
BRANCH  25  29
HETATM   29  O2  UNL     1      28.275  -2.559  10.062  1.00  0.00    -0.358 OA
ATOM     30  H2  UNL     1      28.398  -1.909  10.745  1.00  0.00     0.217 HD
ENDBRANCH  25  29
ENDBRANCH   4  21
TORSDOF 6
ENDMDL
MODEL 4
REMARK VINA RESULT: -7.308030209      0.055      2.486
REMARK  6 active torsions:
REMARK  status: ('A' for Active; 'I' for Inactive)
REMARK    1  A    between atoms: O1_2  and  C2_3 
REMARK    2  A    between atoms: C4_5  and  N1_6 
REMARK    3  A    between atoms: C7_9  and  C8_10 
REMARK    4  A    between atoms: C11_14  and  O2_15 
REMARK    5  A    between atoms: C16_25  and  O4_26 
REMARK    6  A    between atoms: C18_28  and  O5_29 
ROOT
HETATM    1  N1  UNL     1      20.898  -0.626   5.806  1.00  0.00    -0.285 N 
HETATM    2  C5  UNL     1      22.003   0.293   5.837  1.00  0.00     0.193 C 
HETATM    3  C6  UNL     1      23.235  -0.596   5.822  1.00  0.00     0.032 C 
HETATM    4  C7  UNL     1      24.437  -0.151   5.544  1.00  0.00     0.026 C 
HETATM    5  C14 UNL     1      22.779  -1.935   6.116  1.00  0.00     0.268 C 
HETATM    6  O3  UNL     1      23.474  -2.949   6.345  1.00  0.00    -0.266 OA
HETATM    7  N2  UNL     1      21.335  -1.916   6.099  1.00  0.00    -0.263 N 
ATOM      8  H2  UNL     1      20.731  -2.719   6.273  1.00  0.00     0.190 HD
ENDROOT
BRANCH   1   9
HETATM    9  C4  UNL     1      19.557  -0.249   5.512  1.00  0.00     0.056 A 
HETATM   10  C3  UNL     1      19.077   1.011   5.814  1.00  0.00     0.071 A 
HETATM   11  C2  UNL     1      17.780   1.387   5.529  1.00  0.00     0.106 A 
HETATM   12  C18 UNL     1      16.970   0.435   4.920  1.00  0.00     0.135 A 
HETATM   13  C16 UNL     1      17.408  -0.831   4.602  1.00  0.00     0.106 A 
HETATM   14  C15 UNL     1      18.707  -1.174   4.900  1.00  0.00     0.071 A 
BRANCH  11  15
HETATM   15  O1  UNL     1      17.276   2.648   5.823  1.00  0.00    -0.353 OA
HETATM   16  C1  UNL     1      18.130   3.554   6.496  1.00  0.00     0.210 C 
ENDBRANCH  11  15
BRANCH  12  17
HETATM   17  O5  UNL     1      15.682   0.798   4.633  1.00  0.00    -0.351 OA
HETATM   18  C19 UNL     1      15.422   1.796   3.658  1.00  0.00     0.210 C 
ENDBRANCH  12  17
BRANCH  13  19
HETATM   19  O4  UNL     1      16.530  -1.718   3.995  1.00  0.00    -0.353 OA
HETATM   20  C17 UNL     1      16.880  -3.090   4.022  1.00  0.00     0.210 C 
ENDBRANCH  13  19
ENDBRANCH   1   9
BRANCH   4  21
HETATM   21  C8  UNL     1      25.675  -0.875   5.500  1.00  0.00    -0.033 A 
HETATM   22  C9  UNL     1      26.150  -1.660   4.495  1.00  0.00     0.033 A 
HETATM   23  C10 UNL     1      27.389  -2.293   4.545  1.00  0.00     0.046 A 
HETATM   24 BR1  UNL     1      27.959  -3.367   3.090  1.00  0.00    -0.048 Br
HETATM   25  C11 UNL     1      28.200  -2.139   5.650  1.00  0.00     0.100 A 
HETATM   26  C12 UNL     1      27.751  -1.354   6.682  1.00  0.00     0.046 A 
HETATM   27 BR2  UNL     1      28.888  -1.153   8.201  1.00  0.00    -0.048 Br
HETATM   28  C13 UNL     1      26.524  -0.740   6.608  1.00  0.00     0.033 A 
BRANCH  25  29
HETATM   29  O2  UNL     1      29.449  -2.764   5.725  1.00  0.00    -0.358 OA
ATOM     30  H2  UNL     1      30.184  -2.344   6.156  1.00  0.00     0.217 HD
ENDBRANCH  25  29
ENDBRANCH   4  21
TORSDOF 6
ENDMDL
MODEL 5
REMARK VINA RESULT: -7.302790412      2.040      3.483
REMARK  6 active torsions:
REMARK  status: ('A' for Active; 'I' for Inactive)
REMARK    1  A    between atoms: O1_2  and  C2_3 
REMARK    2  A    between atoms: C4_5  and  N1_6 
REMARK    3  A    between atoms: C7_9  and  C8_10 
REMARK    4  A    between atoms: C11_14  and  O2_15 
REMARK    5  A    between atoms: C16_25  and  O4_26 
REMARK    6  A    between atoms: C18_28  and  O5_29 
ROOT
HETATM    1  N1  UNL     1      20.960  -0.283   5.828  1.00  0.00    -0.285 N 
HETATM    2  C5  UNL     1      21.528  -1.602   5.744  1.00  0.00     0.193 C 
HETATM    3  C6  UNL     1      22.856  -1.489   6.473  1.00  0.00     0.032 C 
HETATM    4  C7  UNL     1      23.542  -2.532   6.877  1.00  0.00     0.026 C 
HETATM    5  C14 UNL     1      23.119  -0.078   6.633  1.00  0.00     0.268 C 
HETATM    6  O3  UNL     1      24.167   0.465   7.047  1.00  0.00    -0.266 OA
HETATM    7  N2  UNL     1      21.930   0.634   6.226  1.00  0.00    -0.263 N 
ATOM      8  H2  UNL     1      21.818   1.648   6.229  1.00  0.00     0.190 HD
ENDROOT
BRANCH   1   9
HETATM    9  C4  UNL     1      19.598   0.017   5.546  1.00  0.00     0.056 A 
HETATM   10  C3  UNL     1      19.053   1.252   5.844  1.00  0.00     0.071 A 
HETATM   11  C2  UNL     1      17.735   1.554   5.572  1.00  0.00     0.106 A 
HETATM   12  C18 UNL     1      16.971   0.555   4.978  1.00  0.00     0.135 A 
HETATM   13  C16 UNL     1      17.474  -0.688   4.665  1.00  0.00     0.106 A 
HETATM   14  C15 UNL     1      18.793  -0.957   4.950  1.00  0.00     0.071 A 
BRANCH  11  15
HETATM   15  O1  UNL     1      17.165   2.787   5.862  1.00  0.00    -0.353 OA
HETATM   16  C1  UNL     1      17.981   3.749   6.506  1.00  0.00     0.210 C 
ENDBRANCH  11  15
BRANCH  12  17
HETATM   17  O5  UNL     1      15.663   0.845   4.704  1.00  0.00    -0.351 OA
HETATM   18  C19 UNL     1      15.336   1.785   3.692  1.00  0.00     0.210 C 
ENDBRANCH  12  17
BRANCH  13  19
HETATM   19  O4  UNL     1      16.640  -1.626   4.074  1.00  0.00    -0.353 OA
HETATM   20  C17 UNL     1      17.004  -2.988   4.209  1.00  0.00     0.210 C 
ENDBRANCH  13  19
ENDBRANCH   1   9
BRANCH   4  21
HETATM   21  C8  UNL     1      24.801  -2.567   7.565  1.00  0.00    -0.033 A 
HETATM   22  C9  UNL     1      26.046  -2.409   7.039  1.00  0.00     0.033 A 
HETATM   23  C10 UNL     1      27.206  -2.429   7.809  1.00  0.00     0.046 A 
HETATM   24 BR1  UNL     1      28.895  -2.198   6.978  1.00  0.00    -0.048 Br
HETATM   25  C11 UNL     1      27.126  -2.617   9.173  1.00  0.00     0.100 A 
HETATM   26  C12 UNL     1      25.885  -2.780   9.736  1.00  0.00     0.046 A 
HETATM   27 BR2  UNL     1      25.796  -3.038  11.624  1.00  0.00    -0.048 Br
HETATM   28  C13 UNL     1      24.756  -2.756   8.953  1.00  0.00     0.033 A 
BRANCH  25  29
HETATM   29  O2  UNL     1      28.275  -2.641   9.969  1.00  0.00    -0.358 OA
ATOM     30  H2  UNL     1      28.465  -1.939  10.581  1.00  0.00     0.217 HD
ENDBRANCH  25  29
ENDBRANCH   4  21
TORSDOF 6
ENDMDL
