MODEL 1
REMARK VINA RESULT: -8.307501530      0.000      0.000
REMARK  2 active torsions:
REMARK  status: ('A' for Active; 'I' for Inactive)
REMARK    1  A    between atoms: C4_4  and  N1_5 
REMARK    2  A    between atoms: N1_5  and  C5_7 
ROOT
HETATM    1  C5  UNL     1      -1.788   1.793   3.830  1.00  0.00     0.399 C 
HETATM    2  N2  UNL     1      -1.542   0.440   4.267  1.00  0.00    -0.075 NA
HETATM    3  N3  UNL     1      -2.297  -0.478   3.564  1.00  0.00    -0.034 NA
HETATM    4  N4  UNL     1      -1.998  -0.356   2.226  1.00  0.00    -0.090 NA
HETATM    5  C6  UNL     1      -2.559   0.911   1.721  1.00  0.00     0.215 C 
HETATM    6  C7  UNL     1      -3.989   0.885   2.103  1.00  0.00     0.058 C 
HETATM    7  C8  UNL     1      -4.859   1.987   1.748  1.00  0.00     0.004 C 
HETATM    8  C9  UNL     1      -4.443   2.947   0.694  1.00  0.00     0.000 C 
HETATM    9  C10 UNL     1      -4.437   2.430  -0.698  1.00  0.00     0.000 C 
HETATM   10  C11 UNL     1      -4.524   0.944  -0.832  1.00  0.00     0.000 C 
HETATM   11  C12 UNL     1      -3.286   0.195  -0.514  1.00  0.00     0.004 C 
HETATM   12  C13 UNL     1      -2.257   0.945   0.266  1.00  0.00     0.058 C 
HETATM   13  N5  UNL     1      -1.837   1.958   2.421  1.00  0.00    -0.014 N 
ATOM     14  H51 UNL     1      -0.896   2.056   2.040  1.00  0.00     0.283 HD
ATOM     15  H52 UNL     1      -2.219   2.874   2.182  1.00  0.00     0.283 HD
ENDROOT
BRANCH   1  16
HETATM   16  N1  UNL     1      -0.751   2.632   4.387  1.00  0.00    -0.349 N 
ATOM     17  H1  UNL     1       0.208   2.490   4.071  1.00  0.00     0.163 HD
BRANCH  16  18
HETATM   18  C4  UNL     1      -1.001   3.643   5.350  1.00  0.00     0.030 A 
HETATM   19  C3  UNL     1      -0.230   3.871   6.465  1.00  0.00     0.029 A 
HETATM   20  C2  UNL     1      -0.489   4.854   7.379  1.00  0.00     0.002 A 
HETATM   21  C1  UNL     1      -1.571   5.675   7.202  1.00  0.00     0.000 A 
HETATM   22  C15 UNL     1      -2.389   5.490   6.086  1.00  0.00     0.002 A 
HETATM   23  C14 UNL     1      -2.086   4.475   5.181  1.00  0.00     0.029 A 
ENDBRANCH  16  18
ENDBRANCH   1  16
TORSDOF 2
ENDMDL
MODEL 2
REMARK VINA RESULT: -8.207528099      0.067      1.057
REMARK  2 active torsions:
REMARK  status: ('A' for Active; 'I' for Inactive)
REMARK    1  A    between atoms: C4_4  and  N1_5 
REMARK    2  A    between atoms: N1_5  and  C5_7 
ROOT
HETATM    1  C5  UNL     1      -1.841   1.816   3.803  1.00  0.00     0.399 C 
HETATM    2  N2  UNL     1      -1.588   0.464   4.238  1.00  0.00    -0.075 NA
HETATM    3  N3  UNL     1      -2.328  -0.458   3.524  1.00  0.00    -0.034 NA
HETATM    4  N4  UNL     1      -2.016  -0.328   2.189  1.00  0.00    -0.090 NA
HETATM    5  C6  UNL     1      -2.582   0.935   1.684  1.00  0.00     0.215 C 
HETATM    6  C7  UNL     1      -4.016   0.896   2.050  1.00  0.00     0.058 C 
HETATM    7  C8  UNL     1      -4.891   1.993   1.690  1.00  0.00     0.004 C 
HETATM    8  C9  UNL     1      -4.472   2.959   0.644  1.00  0.00     0.000 C 
HETATM    9  C10 UNL     1      -4.447   2.448  -0.750  1.00  0.00     0.000 C 
HETATM   10  C11 UNL     1      -4.520   0.962  -0.890  1.00  0.00     0.000 C 
HETATM   11  C12 UNL     1      -3.280   0.222  -0.562  1.00  0.00     0.004 C 
HETATM   12  C13 UNL     1      -2.265   0.978   0.232  1.00  0.00     0.058 C 
HETATM   13  N5  UNL     1      -1.877   1.986   2.394  1.00  0.00    -0.014 N 
ATOM     14  H51 UNL     1      -0.932   2.093   2.024  1.00  0.00     0.283 HD
ATOM     15  H52 UNL     1      -2.263   2.899   2.155  1.00  0.00     0.283 HD
ENDROOT
BRANCH   1  16
HETATM   16  N1  UNL     1      -0.817   2.662   4.374  1.00  0.00    -0.349 N 
ATOM     17  H1  UNL     1       0.150   2.512   4.088  1.00  0.00     0.163 HD
BRANCH  16  18
HETATM   18  C4  UNL     1      -1.090   3.690   5.313  1.00  0.00     0.030 A 
HETATM   19  C3  UNL     1      -2.144   4.568   5.229  1.00  0.00     0.029 A 
HETATM   20  C2  UNL     1      -2.388   5.551   6.148  1.00  0.00     0.002 A 
HETATM   21  C1  UNL     1      -1.553   5.693   7.225  1.00  0.00     0.000 A 
HETATM   22  C15 UNL     1      -0.467   4.827   7.361  1.00  0.00     0.002 A 
HETATM   23  C14 UNL     1      -0.257   3.841   6.400  1.00  0.00     0.029 A 
ENDBRANCH  16  18
ENDBRANCH   1  16
TORSDOF 2
ENDMDL
MODEL 3
REMARK VINA RESULT: -5.294320891      1.547      2.834
REMARK  2 active torsions:
REMARK  status: ('A' for Active; 'I' for Inactive)
REMARK    1  A    between atoms: C4_4  and  N1_5 
REMARK    2  A    between atoms: N1_5  and  C5_7 
ROOT
HETATM    1  C5  UNL     1      -1.142   3.013   3.904  1.00  0.00     0.399 C 
HETATM    2  N2  UNL     1      -0.700   4.286   3.386  1.00  0.00    -0.075 NA
HETATM    3  N3  UNL     1      -0.972   4.421   2.039  1.00  0.00    -0.034 NA
HETATM    4  N4  UNL     1      -2.329   4.286   1.852  1.00  0.00    -0.090 NA
HETATM    5  C6  UNL     1      -2.706   2.878   2.073  1.00  0.00     0.215 C 
HETATM    6  C7  UNL     1      -1.813   2.090   1.193  1.00  0.00     0.058 C 
HETATM    7  C8  UNL     1      -1.921   0.646   1.148  1.00  0.00     0.004 C 
HETATM    8  C9  UNL     1      -3.142  -0.020   1.666  1.00  0.00     0.000 C 
HETATM    9  C10 UNL     1      -4.375   0.153   0.857  1.00  0.00     0.000 C 
HETATM   10  C11 UNL     1      -4.320   1.230  -0.177  1.00  0.00     0.000 C 
HETATM   11  C12 UNL     1      -4.420   2.618   0.331  1.00  0.00     0.004 C 
HETATM   12  C13 UNL     1      -4.164   2.793   1.792  1.00  0.00     0.058 C 
HETATM   13  N5  UNL     1      -2.437   2.621   3.475  1.00  0.00    -0.014 N 
ATOM     14  H51 UNL     1      -3.153   3.055   4.060  1.00  0.00     0.283 HD
ATOM     15  H52 UNL     1      -2.604   1.639   3.696  1.00  0.00     0.283 HD
ENDROOT
BRANCH   1  16
HETATM   16  N1  UNL     1      -1.103   3.087   5.347  1.00  0.00    -0.349 N 
ATOM     17  H1  UNL     1      -0.626   2.343   5.856  1.00  0.00     0.163 HD
BRANCH  16  18
HETATM   18  C4  UNL     1      -1.693   4.141   6.090  1.00  0.00     0.030 A 
HETATM   19  C3  UNL     1      -2.509   5.112   5.560  1.00  0.00     0.029 A 
HETATM   20  C2  UNL     1      -3.069   6.118   6.296  1.00  0.00     0.002 A 
HETATM   21  C1  UNL     1      -2.823   6.189   7.642  1.00  0.00     0.000 A 
HETATM   22  C15 UNL     1      -2.002   5.228   8.234  1.00  0.00     0.002 A 
HETATM   23  C14 UNL     1      -1.452   4.222   7.444  1.00  0.00     0.029 A 
ENDBRANCH  16  18
ENDBRANCH   1  16
TORSDOF 2
ENDMDL
MODEL 4
REMARK VINA RESULT: -5.237654142      1.532      2.644
REMARK  2 active torsions:
REMARK  status: ('A' for Active; 'I' for Inactive)
REMARK    1  A    between atoms: C4_4  and  N1_5 
REMARK    2  A    between atoms: N1_5  and  C5_7 
ROOT
HETATM    1  C5  UNL     1      -1.102   2.978   3.913  1.00  0.00     0.399 C 
HETATM    2  N2  UNL     1      -0.660   4.261   3.420  1.00  0.00    -0.075 NA
HETATM    3  N3  UNL     1      -0.941   4.426   2.078  1.00  0.00    -0.034 NA
HETATM    4  N4  UNL     1      -2.300   4.297   1.898  1.00  0.00    -0.090 NA
HETATM    5  C6  UNL     1      -2.679   2.885   2.090  1.00  0.00     0.215 C 
HETATM    6  C7  UNL     1      -1.793   2.115   1.188  1.00  0.00     0.058 C 
HETATM    7  C8  UNL     1      -1.904   0.673   1.112  1.00  0.00     0.004 C 
HETATM    8  C9  UNL     1      -3.123  -0.002   1.624  1.00  0.00     0.000 C 
HETATM    9  C10 UNL     1      -4.361   0.190   0.828  1.00  0.00     0.000 C 
HETATM   10  C11 UNL     1      -4.311   1.289  -0.183  1.00  0.00     0.000 C 
HETATM   11  C12 UNL     1      -4.405   2.666   0.355  1.00  0.00     0.004 C 
HETATM   12  C13 UNL     1      -4.138   2.809   1.818  1.00  0.00     0.058 C 
HETATM   13  N5  UNL     1      -2.400   2.598   3.485  1.00  0.00    -0.014 N 
ATOM     14  H51 UNL     1      -3.111   3.021   4.084  1.00  0.00     0.283 HD
ATOM     15  H52 UNL     1      -2.567   1.611   3.686  1.00  0.00     0.283 HD
ENDROOT
BRANCH   1  16
HETATM   16  N1  UNL     1      -1.052   3.021   5.357  1.00  0.00    -0.349 N 
ATOM     17  H1  UNL     1      -0.579   2.261   5.847  1.00  0.00     0.163 HD
BRANCH  16  18
HETATM   18  C4  UNL     1      -1.627   4.064   6.126  1.00  0.00     0.030 A 
HETATM   19  C3  UNL     1      -1.445   4.232   7.478  1.00  0.00     0.029 A 
HETATM   20  C2  UNL     1      -2.008   5.248   8.199  1.00  0.00     0.002 A 
HETATM   21  C1  UNL     1      -2.804   6.167   7.567  1.00  0.00     0.000 A 
HETATM   22  C15 UNL     1      -3.022   6.046   6.193  1.00  0.00     0.002 A 
HETATM   23  C14 UNL     1      -2.428   4.994   5.500  1.00  0.00     0.029 A 
ENDBRANCH  16  18
ENDBRANCH   1  16
TORSDOF 2
ENDMDL
MODEL 5
REMARK VINA RESULT: -4.965770226      1.459      6.802
REMARK  2 active torsions:
REMARK  status: ('A' for Active; 'I' for Inactive)
REMARK    1  A    between atoms: C4_4  and  N1_5 
REMARK    2  A    between atoms: N1_5  and  C5_7 
ROOT
HETATM    1  C5  UNL     1      -2.690   3.207   3.145  1.00  0.00     0.399 C 
HETATM    2  N2  UNL     1      -1.682   3.497   2.154  1.00  0.00    -0.075 NA
HETATM    3  N3  UNL     1      -0.738   4.390   2.620  1.00  0.00    -0.034 NA
HETATM    4  N4  UNL     1      -0.150   3.855   3.744  1.00  0.00    -0.090 NA
HETATM    5  C6  UNL     1      -1.123   3.875   4.852  1.00  0.00     0.215 C 
HETATM    6  C7  UNL     1      -1.599   5.274   4.929  1.00  0.00     0.058 C 
HETATM    7  C8  UNL     1      -2.571   5.660   5.932  1.00  0.00     0.004 C 
HETATM    8  C9  UNL     1      -2.806   4.784   7.108  1.00  0.00     0.000 C 
HETATM    9  C10 UNL     1      -1.712   4.725   8.110  1.00  0.00     0.000 C 
HETATM   10  C11 UNL     1      -0.398   5.277   7.661  1.00  0.00     0.000 C 
HETATM   11  C12 UNL     1       0.371   4.427   6.723  1.00  0.00     0.004 C 
HETATM   12  C13 UNL     1      -0.404   3.347   6.041  1.00  0.00     0.058 C 
HETATM   13  N5  UNL     1      -2.184   2.970   4.449  1.00  0.00    -0.014 N 
ATOM     14  H51 UNL     1      -1.879   2.001   4.543  1.00  0.00     0.283 HD
ATOM     15  H52 UNL     1      -2.941   2.982   5.133  1.00  0.00     0.283 HD
ENDROOT
BRANCH   1  16
HETATM   16  N1  UNL     1      -3.436   2.055   2.690  1.00  0.00    -0.349 N 
ATOM     17  H1  UNL     1      -3.758   1.382   3.385  1.00  0.00     0.163 HD
BRANCH  16  18
HETATM   18  C4  UNL     1      -3.744   1.815   1.327  1.00  0.00     0.030 A 
HETATM   19  C3  UNL     1      -4.318   2.732   0.480  1.00  0.00     0.029 A 
HETATM   20  C2  UNL     1      -4.604   2.478  -0.833  1.00  0.00     0.002 A 
HETATM   21  C1  UNL     1      -4.313   1.249  -1.364  1.00  0.00     0.000 A 
HETATM   22  C15 UNL     1      -3.729   0.278  -0.549  1.00  0.00     0.002 A 
HETATM   23  C14 UNL     1      -3.456   0.582   0.783  1.00  0.00     0.029 A 
ENDBRANCH  16  18
ENDBRANCH   1  16
TORSDOF 2
ENDMDL
