MODEL 1
REMARK VINA RESULT: -5.719776160      0.000      0.000
REMARK  3 active torsions:
REMARK  status: ('A' for Active; 'I' for Inactive)
REMARK    1  A    between atoms: C4_4  and  C5_5 
REMARK    2  A    between atoms: C11_18  and  N4_19 
REMARK    3  A    between atoms: C12_24  and  N6_25 
ROOT
HETATM    1  C5  UNL     1      -3.888  -4.841   5.029  1.00  0.00     0.031 C 
HETATM    2  C6  UNL     1      -4.831  -5.203   5.869  1.00  0.00     0.052 A 
HETATM    3  N1  UNL     1      -6.176  -5.311   5.423  1.00  0.00    -0.351 N 
ATOM      4  H1  UNL     1      -6.452  -5.117   4.460  1.00  0.00     0.166 HD
HETATM    5  C7  UNL     1      -7.029  -5.676   6.334  1.00  0.00     0.181 A 
HETATM    6  N2  UNL     1      -6.735  -5.962   7.672  1.00  0.00    -0.350 N 
ATOM      7  H2  UNL     1      -7.492  -6.240   8.295  1.00  0.00     0.166 HD
HETATM    8  C8  UNL     1      -5.382  -5.874   8.204  1.00  0.00     0.069 A 
HETATM    9  C9  UNL     1      -4.465  -5.492   7.267  1.00  0.00     0.061 A 
HETATM   10  S1  UNL     1      -2.998  -5.467   8.126  1.00  0.00    -0.066 SA
HETATM   11  C10 UNL     1      -3.575  -5.942   9.659  1.00  0.00     0.107 A 
HETATM   12  N3  UNL     1      -2.978  -6.146  10.867  1.00  0.00    -0.185 N 
ATOM     13  H3  UNL     1      -1.971  -6.003  10.955  1.00  0.00     0.185 HD
HETATM   14  C11 UNL     1      -3.678  -6.528  11.945  1.00  0.00     0.678 A 
HETATM   15  N5  UNL     1      -4.981  -6.696  11.769  1.00  0.00    -0.176 N 
ATOM     16  H5  UNL     1      -5.531  -6.988  12.577  1.00  0.00     0.186 HD
HETATM   17  C12 UNL     1      -5.633  -6.513  10.610  1.00  0.00     0.130 A 
HETATM   18  C13 UNL     1      -4.916  -6.112   9.463  1.00  0.00     0.070 A 
ENDROOT
BRANCH   1  19
HETATM   19  C4  UNL     1      -4.205  -4.552   3.659  1.00  0.00     0.004 C 
HETATM   20  C2  UNL     1      -3.573  -3.635   2.938  1.00  0.00    -0.088 C 
HETATM   21  C1  UNL     1      -2.480  -2.884   3.619  1.00  0.00     0.043 C 
HETATM   22  C3  UNL     1      -3.951  -3.389   1.532  1.00  0.00     0.043 C 
ENDBRANCH   1  19
BRANCH  17  23
HETATM   23  N6  UNL     1      -6.906  -6.715  10.588  1.00  0.00    -0.384 N 
ATOM     24  H62 UNL     1      -7.502  -6.513  11.390  1.00  0.00     0.157 HD
ATOM     25  H61 UNL     1      -7.321  -7.088   9.734  1.00  0.00     0.157 HD
ENDBRANCH  17  23
BRANCH  14  26
HETATM   26  N4  UNL     1      -3.092  -6.714  13.077  1.00  0.00    -0.234 N 
ATOM     27  H42 UNL     1      -3.065  -7.619  13.546  1.00  0.00     0.174 HD
ATOM     28  H41 UNL     1      -2.625  -5.943  13.553  1.00  0.00     0.174 HD
ENDBRANCH  14  26
TORSDOF 3
ENDMDL
MODEL 2
REMARK VINA RESULT: -5.361060920      1.962      3.854
REMARK  3 active torsions:
REMARK  status: ('A' for Active; 'I' for Inactive)
REMARK    1  A    between atoms: C4_4  and  C5_5 
REMARK    2  A    between atoms: C11_18  and  N4_19 
REMARK    3  A    between atoms: C12_24  and  N6_25 
ROOT
HETATM    1  C5  UNL     1      -7.332  -5.804   6.081  1.00  0.00     0.031 C 
HETATM    2  C6  UNL     1      -6.050  -5.550   6.218  1.00  0.00     0.052 A 
HETATM    3  N1  UNL     1      -5.264  -5.224   5.079  1.00  0.00    -0.351 N 
ATOM      4  H1  UNL     1      -5.657  -5.176   4.139  1.00  0.00     0.166 HD
HETATM    5  C7  UNL     1      -4.009  -4.992   5.326  1.00  0.00     0.181 A 
HETATM    6  N2  UNL     1      -3.394  -5.035   6.583  1.00  0.00    -0.350 N 
ATOM      7  H2  UNL     1      -2.397  -4.832   6.651  1.00  0.00     0.166 HD
HETATM    8  C8  UNL     1      -4.132  -5.362   7.796  1.00  0.00     0.069 A 
HETATM    9  C9  UNL     1      -5.453  -5.610   7.565  1.00  0.00     0.061 A 
HETATM   10  S1  UNL     1      -6.074  -5.958   9.108  1.00  0.00    -0.066 SA
HETATM   11  C10 UNL     1      -4.643  -5.780  10.020  1.00  0.00     0.107 A 
HETATM   12  N3  UNL     1      -4.351  -5.903  11.346  1.00  0.00    -0.185 N 
ATOM     13  H3  UNL     1      -5.095  -6.153  11.998  1.00  0.00     0.185 HD
HETATM   14  C11 UNL     1      -3.112  -5.704  11.817  1.00  0.00     0.678 A 
HETATM   15  N5  UNL     1      -2.189  -5.382  10.922  1.00  0.00    -0.176 N 
ATOM     16  H5  UNL     1      -1.239  -5.226  11.261  1.00  0.00     0.186 HD
HETATM   17  C12 UNL     1      -2.406  -5.245   9.604  1.00  0.00     0.130 A 
HETATM   18  C13 UNL     1      -3.703  -5.450   9.087  1.00  0.00     0.070 A 
ENDROOT
BRANCH   1  19
HETATM   19  C4  UNL     1      -7.949  -5.755   4.786  1.00  0.00     0.004 C 
HETATM   20  C2  UNL     1      -9.185  -6.172   4.547  1.00  0.00    -0.088 C 
HETATM   21  C1  UNL     1      -9.946  -6.714   5.709  1.00  0.00     0.043 C 
HETATM   22  C3  UNL     1      -9.759  -6.093   3.188  1.00  0.00     0.043 C 
ENDBRANCH   1  19
BRANCH  17  23
HETATM   23  N6  UNL     1      -1.409  -4.928   8.851  1.00  0.00    -0.384 N 
ATOM     24  H62 UNL     1      -1.482  -4.904   7.834  1.00  0.00     0.157 HD
ATOM     25  H61 UNL     1      -0.522  -4.696   9.297  1.00  0.00     0.157 HD
ENDBRANCH  17  23
BRANCH  14  26
HETATM   26  N4  UNL     1      -2.859  -5.825  13.074  1.00  0.00    -0.234 N 
ATOM     27  H42 UNL     1      -3.413  -6.411  13.698  1.00  0.00     0.174 HD
ATOM     28  H41 UNL     1      -2.077  -5.326  13.497  1.00  0.00     0.174 HD
ENDBRANCH  14  26
TORSDOF 3
ENDMDL
MODEL 3
REMARK VINA RESULT: -5.287145224      8.909     11.465
REMARK  3 active torsions:
REMARK  status: ('A' for Active; 'I' for Inactive)
REMARK    1  A    between atoms: C4_4  and  C5_5 
REMARK    2  A    between atoms: C11_18  and  N4_19 
REMARK    3  A    between atoms: C12_24  and  N6_25 
ROOT
HETATM    1  C5  UNL     1      -2.093   4.668   4.999  1.00  0.00     0.031 C 
HETATM    2  C6  UNL     1      -1.785   3.432   4.676  1.00  0.00     0.052 A 
HETATM    3  N1  UNL     1      -1.005   2.640   5.562  1.00  0.00    -0.351 N 
ATOM      4  H1  UNL     1      -0.666   2.992   6.457  1.00  0.00     0.166 HD
HETATM    5  C7  UNL     1      -0.758   1.433   5.145  1.00  0.00     0.181 A 
HETATM    6  N2  UNL     1      -1.186   0.874   3.936  1.00  0.00    -0.350 N 
ATOM      7  H2  UNL     1      -0.928  -0.088   3.719  1.00  0.00     0.166 HD
HETATM    8  C8  UNL     1      -1.987   1.622   2.977  1.00  0.00     0.069 A 
HETATM    9  C9  UNL     1      -2.262   2.894   3.389  1.00  0.00     0.061 A 
HETATM   10  S1  UNL     1      -3.189   3.539   2.119  1.00  0.00    -0.066 SA
HETATM   11  C10 UNL     1      -3.212   2.181   1.086  1.00  0.00     0.107 A 
HETATM   12  N3  UNL     1      -3.767   1.937  -0.134  1.00  0.00    -0.185 N 
ATOM     13  H3  UNL     1      -4.299   2.675  -0.595  1.00  0.00     0.185 HD
HETATM   14  C11 UNL     1      -3.633   0.751  -0.746  1.00  0.00     0.678 A 
HETATM   15  N5  UNL     1      -2.931  -0.167  -0.098  1.00  0.00    -0.176 N 
ATOM     16  H5  UNL     1      -2.818  -1.076  -0.547  1.00  0.00     0.186 HD
HETATM   17  C12 UNL     1      -2.357   0.005   1.104  1.00  0.00     0.130 A 
HETATM   18  C13 UNL     1      -2.486   1.245   1.765  1.00  0.00     0.070 A 
ENDROOT
BRANCH   1  19
HETATM   19  C4  UNL     1      -1.648   5.228   6.243  1.00  0.00     0.004 C 
HETATM   20  C2  UNL     1      -2.384   6.044   6.986  1.00  0.00    -0.088 C 
HETATM   21  C1  UNL     1      -3.743   6.376   6.469  1.00  0.00     0.043 C 
HETATM   22  C3  UNL     1      -1.863   6.585   8.257  1.00  0.00     0.043 C 
ENDBRANCH   1  19
BRANCH  17  23
HETATM   23  N6  UNL     1      -1.702  -0.980   1.614  1.00  0.00    -0.384 N 
ATOM     24  H62 UNL     1      -0.827  -1.317   1.213  1.00  0.00     0.157 HD
ATOM     25  H61 UNL     1      -2.080  -1.432   2.447  1.00  0.00     0.157 HD
ENDBRANCH  17  23
BRANCH  14  26
HETATM   26  N4  UNL     1      -4.167   0.543  -1.899  1.00  0.00    -0.234 N 
ATOM     27  H42 UNL     1      -4.970   1.069  -2.243  1.00  0.00     0.174 HD
ATOM     28  H41 UNL     1      -3.795  -0.173  -2.523  1.00  0.00     0.174 HD
ENDBRANCH  14  26
TORSDOF 3
ENDMDL
MODEL 4
REMARK VINA RESULT: -5.234104061      2.481      7.259
REMARK  3 active torsions:
REMARK  status: ('A' for Active; 'I' for Inactive)
REMARK    1  A    between atoms: C4_4  and  C5_5 
REMARK    2  A    between atoms: C11_18  and  N4_19 
REMARK    3  A    between atoms: C12_24  and  N6_25 
ROOT
HETATM    1  C5  UNL     1      -5.744  -6.099   9.405  1.00  0.00     0.031 C 
HETATM    2  C6  UNL     1      -4.577  -5.746   8.916  1.00  0.00     0.052 A 
HETATM    3  N1  UNL     1      -3.439  -5.687   9.764  1.00  0.00    -0.351 N 
ATOM      4  H1  UNL     1      -3.484  -5.912  10.759  1.00  0.00     0.166 HD
HETATM    5  C7  UNL     1      -2.335  -5.327   9.179  1.00  0.00     0.181 A 
HETATM    6  N2  UNL     1      -2.187  -5.004   7.825  1.00  0.00    -0.350 N 
ATOM      7  H2  UNL     1      -1.266  -4.735   7.480  1.00  0.00     0.166 HD
HETATM    8  C8  UNL     1      -3.306  -5.040   6.893  1.00  0.00     0.069 A 
HETATM    9  C9  UNL     1      -4.478  -5.416   7.482  1.00  0.00     0.061 A 
HETATM   10  S1  UNL     1      -5.601  -5.379   6.206  1.00  0.00    -0.066 SA
HETATM   11  C10 UNL     1      -4.561  -4.887   4.947  1.00  0.00     0.107 A 
HETATM   12  N3  UNL     1      -4.743  -4.640   3.619  1.00  0.00    -0.185 N 
ATOM     13  H3  UNL     1      -5.674  -4.750   3.216  1.00  0.00     0.185 HD
HETATM   14  C11 UNL     1      -3.732  -4.255   2.828  1.00  0.00     0.678 A 
HETATM   15  N5  UNL     1      -2.547  -4.130   3.408  1.00  0.00    -0.176 N 
ATOM     16  H5  UNL     1      -1.764  -3.838   2.822  1.00  0.00     0.186 HD
HETATM   17  C12 UNL     1      -2.297  -4.356   4.708  1.00  0.00     0.130 A 
HETATM   18  C13 UNL     1      -3.347  -4.762   5.559  1.00  0.00     0.070 A 
ENDROOT
BRANCH   1  19
HETATM   19  C4  UNL     1      -5.881  -6.427  10.796  1.00  0.00     0.004 C 
HETATM   20  C2  UNL     1      -7.031  -6.369  11.454  1.00  0.00    -0.088 C 
HETATM   21  C1  UNL     1      -8.227  -5.936  10.675  1.00  0.00     0.043 C 
HETATM   22  C3  UNL     1      -7.100  -6.722  12.886  1.00  0.00     0.043 C 
ENDBRANCH   1  19
BRANCH  17  23
HETATM   23  N6  UNL     1      -1.092  -4.192   5.135  1.00  0.00    -0.384 N 
ATOM     24  H62 UNL     1      -0.768  -4.591   6.016  1.00  0.00     0.157 HD
ATOM     25  H61 UNL     1      -0.448  -3.644   4.564  1.00  0.00     0.157 HD
ENDBRANCH  17  23
BRANCH  14  26
HETATM   26  N4  UNL     1      -3.927  -4.027   1.575  1.00  0.00    -0.234 N 
ATOM     27  H42 UNL     1      -4.652  -4.495   1.031  1.00  0.00     0.174 HD
ATOM     28  H41 UNL     1      -3.349  -3.354   1.073  1.00  0.00     0.174 HD
ENDBRANCH  14  26
TORSDOF 3
ENDMDL
MODEL 5
REMARK VINA RESULT: -4.489596207      2.774      5.758
REMARK  3 active torsions:
REMARK  status: ('A' for Active; 'I' for Inactive)
REMARK    1  A    between atoms: C4_4  and  C5_5 
REMARK    2  A    between atoms: C11_18  and  N4_19 
REMARK    3  A    between atoms: C12_24  and  N6_25 
ROOT
HETATM    1  C5  UNL     1      -2.553  -5.480   8.693  1.00  0.00     0.031 C 
HETATM    2  C6  UNL     1      -3.761  -5.743   9.137  1.00  0.00     0.052 A 
HETATM    3  N1  UNL     1      -3.982  -5.928  10.529  1.00  0.00    -0.351 N 
ATOM      4  H1  UNL     1      -3.231  -5.864  11.216  1.00  0.00     0.166 HD
HETATM    5  C7  UNL     1      -5.213  -6.184  10.860  1.00  0.00     0.181 A 
HETATM    6  N2  UNL     1      -6.299  -6.286   9.983  1.00  0.00    -0.350 N 
ATOM      7  H2  UNL     1      -7.223  -6.491  10.363  1.00  0.00     0.166 HD
HETATM    8  C8  UNL     1      -6.153  -6.110   8.544  1.00  0.00     0.069 A 
HETATM    9  C9  UNL     1      -4.869  -5.840   8.169  1.00  0.00     0.061 A 
HETATM   10  S1  UNL     1      -4.968  -5.682   6.479  1.00  0.00    -0.066 SA
HETATM   11  C10 UNL     1      -6.639  -5.961   6.280  1.00  0.00     0.107 A 
HETATM   12  N3  UNL     1      -7.464  -5.996   5.196  1.00  0.00    -0.185 N 
ATOM     13  H3  UNL     1      -7.073  -5.830   4.268  1.00  0.00     0.185 HD
HETATM   14  C11 UNL     1      -8.776  -6.244   5.315  1.00  0.00     0.678 A 
HETATM   15  N5  UNL     1      -9.224  -6.452   6.545  1.00  0.00    -0.176 N 
ATOM     16  H5  UNL     1     -10.220  -6.641   6.657  1.00  0.00     0.186 HD
HETATM   17  C12 UNL     1      -8.469  -6.433   7.656  1.00  0.00     0.130 A 
HETATM   18  C13 UNL     1      -7.086  -6.174   7.552  1.00  0.00     0.070 A 
ENDROOT
BRANCH   1  19
HETATM   19  C4  UNL     1      -1.449  -5.377   9.605  1.00  0.00     0.004 C 
HETATM   20  C2  UNL     1      -0.212  -5.079   9.229  1.00  0.00    -0.088 C 
HETATM   21  C1  UNL     1       0.006  -4.845   7.772  1.00  0.00     0.043 C 
HETATM   22  C3  UNL     1       0.878  -4.990  10.221  1.00  0.00     0.043 C 
ENDBRANCH   1  19
BRANCH  17  23
HETATM   23  N6  UNL     1      -9.044  -6.654   8.788  1.00  0.00    -0.384 N 
ATOM     24  H62 UNL     1     -10.024  -6.927   8.855  1.00  0.00     0.157 HD
ATOM     25  H61 UNL     1      -8.491  -6.550   9.639  1.00  0.00     0.157 HD
ENDBRANCH  17  23
BRANCH  14  26
HETATM   26  N4  UNL     1      -9.537  -6.272   4.277  1.00  0.00    -0.234 N 
ATOM     27  H42 UNL     1      -9.723  -5.451   3.702  1.00  0.00     0.174 HD
ATOM     28  H41 UNL     1      -9.989  -7.139   3.987  1.00  0.00     0.174 HD
ENDBRANCH  14  26
TORSDOF 3
ENDMDL
