MODEL 1
REMARK VINA RESULT: -5.959362976      0.000      0.000
REMARK  4 active torsions:
REMARK  status: ('A' for Active; 'I' for Inactive)
REMARK    1  A    between atoms: C6_6  and  O1_8 
REMARK    2  A    between atoms: C10_12  and  O2_13 
REMARK    3  A    between atoms: O2_13  and  O3_14 
REMARK    4  A    between atoms: C13_21  and  O4_22 
ROOT
HETATM    1  C1  UNL     1      -5.250  -4.616  11.499  1.00  0.00     0.014 C 
HETATM    2  C2  UNL     1      -5.477  -5.789  10.927  1.00  0.00    -0.089 C 
HETATM    3  C3  UNL     1      -6.450  -6.722  11.505  1.00  0.00     0.033 C 
HETATM    4  C4  UNL     1      -7.629  -6.049  12.154  1.00  0.00     0.007 C 
HETATM    5  C5  UNL     1      -8.324  -5.075  11.244  1.00  0.00     0.038 C 
HETATM    6  C6  UNL     1      -9.642  -5.543  10.731  1.00  0.00     0.054 C 
HETATM    7  C7  UNL     1     -10.419  -6.360  11.737  1.00  0.00     0.045 C 
HETATM    8  C8  UNL     1      -9.532  -6.282   9.393  1.00  0.00     0.040 C 
HETATM    9  C9  UNL     1      -9.272  -5.274   8.338  1.00  0.00     0.038 C 
HETATM   10  C10 UNL     1      -8.554  -5.753   7.130  1.00  0.00     0.165 C 
HETATM   11  C11 UNL     1      -7.433  -6.711   7.384  1.00  0.00     0.089 C 
HETATM   12  C12 UNL     1      -6.232  -6.457   6.551  1.00  0.00     0.011 C 
HETATM   13  N1  UNL     1      -6.244  -6.572   5.278  1.00  0.00    -0.403 N 
ATOM     14  H11 UNL     1      -5.419  -6.396   4.706  1.00  0.00     0.155 HD
ATOM     15  H12 UNL     1      -7.124  -6.848   4.842  1.00  0.00     0.155 HD
HETATM   16  C13 UNL     1      -4.948  -6.053   7.188  1.00  0.00     0.163 C 
HETATM   17  C14 UNL     1      -5.140  -5.351   8.498  1.00  0.00     0.042 C 
HETATM   18  C15 UNL     1      -4.754  -6.190   9.693  1.00  0.00     0.036 C 
ENDROOT
BRANCH   6  19
HETATM   19  O1  UNL     1     -10.421  -4.395  10.461  1.00  0.00    -0.390 OA
ATOM     20  H1  UNL     1     -11.327  -4.621  10.634  1.00  0.00     0.210 HD
ENDBRANCH   6  19
BRANCH  10  21
HETATM   21  O2  UNL     1      -8.084  -4.620   6.438  1.00  0.00    -0.238 OA
BRANCH  21  22
HETATM   22  O3  UNL     1      -8.561  -4.539   5.229  1.00  0.00    -0.250 OA
ATOM     23  H3  UNL     1      -7.978  -4.081   4.636  1.00  0.00     0.253 HD
ENDBRANCH  21  22
ENDBRANCH  10  21
BRANCH  16  24
HETATM   24  O4  UNL     1      -4.149  -5.302   6.296  1.00  0.00    -0.390 OA
ATOM     25  H4  UNL     1      -3.290  -5.693   6.193  1.00  0.00     0.210 HD
ENDBRANCH  16  24
TORSDOF 4
ENDMDL
MODEL 2
REMARK VINA RESULT: -5.712641920      2.283      4.641
REMARK  4 active torsions:
REMARK  status: ('A' for Active; 'I' for Inactive)
REMARK    1  A    between atoms: C6_6  and  O1_8 
REMARK    2  A    between atoms: C10_12  and  O2_13 
REMARK    3  A    between atoms: O2_13  and  O3_14 
REMARK    4  A    between atoms: C13_21  and  O4_22 
ROOT
HETATM    1  C1  UNL     1      -8.946  -4.468  10.511  1.00  0.00     0.014 C 
HETATM    2  C2  UNL     1      -8.351  -5.651  10.475  1.00  0.00    -0.089 C 
HETATM    3  C3  UNL     1      -8.804  -6.683   9.537  1.00  0.00     0.033 C 
HETATM    4  C4  UNL     1      -9.301  -6.139   8.226  1.00  0.00     0.007 C 
HETATM    5  C5  UNL     1      -8.312  -5.229   7.554  1.00  0.00     0.038 C 
HETATM    6  C6  UNL     1      -7.640  -5.820   6.363  1.00  0.00     0.054 C 
HETATM    7  C7  UNL     1      -8.542  -6.722   5.554  1.00  0.00     0.045 C 
HETATM    8  C8  UNL     1      -6.326  -6.529   6.711  1.00  0.00     0.040 C 
HETATM    9  C9  UNL     1      -5.311  -5.487   6.997  1.00  0.00     0.038 C 
HETATM   10  C10 UNL     1      -4.202  -5.878   7.903  1.00  0.00     0.165 C 
HETATM   11  C11 UNL     1      -4.594  -6.722   9.074  1.00  0.00     0.089 C 
HETATM   12  C12 UNL     1      -3.916  -6.339  10.337  1.00  0.00     0.011 C 
HETATM   13  N1  UNL     1      -2.651  -6.440  10.494  1.00  0.00    -0.403 N 
ATOM     14  H11 UNL     1      -2.185  -6.176  11.362  1.00  0.00     0.155 HD
ATOM     15  H12 UNL     1      -2.110  -6.798   9.708  1.00  0.00     0.155 HD
HETATM   16  C13 UNL     1      -4.707  -5.816  11.486  1.00  0.00     0.163 C 
HETATM   17  C14 UNL     1      -5.982  -5.153  11.064  1.00  0.00     0.042 C 
HETATM   18  C15 UNL     1      -7.216  -5.963  11.382  1.00  0.00     0.036 C 
ENDROOT
BRANCH   6  19
HETATM   19  O1  UNL     1      -7.274  -4.752   5.512  1.00  0.00    -0.390 OA
ATOM     20  H1  UNL     1      -6.358  -4.868   5.289  1.00  0.00     0.210 HD
ENDBRANCH   6  19
BRANCH  10  21
HETATM   21  O2  UNL     1      -3.572  -4.696   8.339  1.00  0.00    -0.238 OA
BRANCH  21  22
HETATM   22  O3  UNL     1      -2.330  -4.620   7.957  1.00  0.00    -0.250 OA
ATOM     23  H3  UNL     1      -1.761  -4.269   8.631  1.00  0.00     0.253 HD
ENDBRANCH  21  22
ENDBRANCH  10  21
BRANCH  16  24
HETATM   24  O4  UNL     1      -3.920  -4.980  12.309  1.00  0.00    -0.390 OA
ATOM     25  H4  UNL     1      -4.265  -4.095  12.329  1.00  0.00     0.210 HD
ENDBRANCH  16  24
TORSDOF 4
ENDMDL
MODEL 3
REMARK VINA RESULT: -5.407515571      2.239      4.348
REMARK  4 active torsions:
REMARK  status: ('A' for Active; 'I' for Inactive)
REMARK    1  A    between atoms: C6_6  and  O1_8 
REMARK    2  A    between atoms: C10_12  and  O2_13 
REMARK    3  A    between atoms: O2_13  and  O3_14 
REMARK    4  A    between atoms: C13_21  and  O4_22 
ROOT
HETATM    1  C1  UNL     1      -3.398  -4.757   7.749  1.00  0.00     0.014 C 
HETATM    2  C2  UNL     1      -3.969  -5.910   8.065  1.00  0.00    -0.089 C 
HETATM    3  C3  UNL     1      -3.445  -6.722   9.168  1.00  0.00     0.033 C 
HETATM    4  C4  UNL     1      -2.883  -5.914  10.306  1.00  0.00     0.007 C 
HETATM    5  C5  UNL     1      -3.848  -4.890  10.832  1.00  0.00     0.038 C 
HETATM    6  C6  UNL     1      -4.440  -5.224  12.158  1.00  0.00     0.054 C 
HETATM    7  C7  UNL     1      -3.477  -5.933  13.081  1.00  0.00     0.045 C 
HETATM    8  C8  UNL     1      -5.759  -5.997  12.043  1.00  0.00     0.040 C 
HETATM    9  C9  UNL     1      -6.808  -5.043  11.610  1.00  0.00     0.038 C 
HETATM   10  C10 UNL     1      -7.959  -5.620  10.871  1.00  0.00     0.165 C 
HETATM   11  C11 UNL     1      -7.621  -6.686   9.879  1.00  0.00     0.089 C 
HETATM   12  C12 UNL     1      -8.376  -6.578   8.607  1.00  0.00     0.011 C 
HETATM   13  N1  UNL     1      -9.646  -6.716   8.551  1.00  0.00    -0.403 N 
ATOM     14  H11 UNL     1     -10.165  -6.641   7.676  1.00  0.00     0.155 HD
ATOM     15  H12 UNL     1     -10.135  -6.905   9.425  1.00  0.00     0.155 HD
HETATM   16  C13 UNL     1      -7.662  -6.301   7.330  1.00  0.00     0.163 C 
HETATM   17  C14 UNL     1      -6.376  -5.558   7.528  1.00  0.00     0.042 C 
HETATM   18  C15 UNL     1      -5.149  -6.409   7.312  1.00  0.00     0.036 C 
ENDROOT
BRANCH   6  19
HETATM   19  O1  UNL     1      -4.775  -4.004  12.790  1.00  0.00    -0.390 OA
ATOM     20  H1  UNL     1      -5.374  -4.208  13.499  1.00  0.00     0.210 HD
ENDBRANCH   6  19
BRANCH  10  21
HETATM   21  O2  UNL     1      -8.634  -4.557  10.239  1.00  0.00    -0.238 OA
BRANCH  21  22
HETATM   22  O3  UNL     1      -9.749  -4.247  10.835  1.00  0.00    -0.250 OA
ATOM     23  H3  UNL     1      -9.961  -3.324  10.756  1.00  0.00     0.253 HD
ENDBRANCH  21  22
ENDBRANCH  10  21
BRANCH  16  24
HETATM   24  O4  UNL     1      -8.509  -5.658   6.400  1.00  0.00    -0.390 OA
ATOM     25  H4  UNL     1      -8.076  -4.916   5.997  1.00  0.00     0.210 HD
ENDBRANCH  16  24
TORSDOF 4
ENDMDL
MODEL 4
REMARK VINA RESULT: -5.294314260      2.442      4.072
REMARK  4 active torsions:
REMARK  status: ('A' for Active; 'I' for Inactive)
REMARK    1  A    between atoms: C6_6  and  O1_8 
REMARK    2  A    between atoms: C10_12  and  O2_13 
REMARK    3  A    between atoms: O2_13  and  O3_14 
REMARK    4  A    between atoms: C13_21  and  O4_22 
ROOT
HETATM    1  C1  UNL     1      -8.171  -3.345  12.378  1.00  0.00     0.014 C 
HETATM    2  C2  UNL     1      -7.766  -4.602  12.487  1.00  0.00    -0.089 C 
HETATM    3  C3  UNL     1      -8.653  -5.705  12.103  1.00  0.00     0.033 C 
HETATM    4  C4  UNL     1      -9.554  -5.385  10.941  1.00  0.00     0.007 C 
HETATM    5  C5  UNL     1      -8.807  -4.880   9.739  1.00  0.00     0.038 C 
HETATM    6  C6  UNL     1      -8.711  -5.856   8.617  1.00  0.00     0.054 C 
HETATM    7  C7  UNL     1      -9.946  -6.712   8.463  1.00  0.00     0.045 C 
HETATM    8  C8  UNL     1      -7.448  -6.722   8.687  1.00  0.00     0.040 C 
HETATM    9  C9  UNL     1      -6.296  -5.877   8.294  1.00  0.00     0.038 C 
HETATM   10  C10 UNL     1      -4.973  -6.270   8.841  1.00  0.00     0.165 C 
HETATM   11  C11 UNL     1      -4.973  -6.722  10.267  1.00  0.00     0.089 C 
HETATM   12  C12 UNL     1      -3.826  -6.209  11.054  1.00  0.00     0.011 C 
HETATM   13  N1  UNL     1      -2.616  -6.531  10.793  1.00  0.00    -0.403 N 
ATOM     14  H11 UNL     1      -1.827  -6.177  11.334  1.00  0.00     0.155 HD
ATOM     15  H12 UNL     1      -2.460  -7.164  10.009  1.00  0.00     0.155 HD
HETATM   16  C13 UNL     1      -4.053  -5.283  12.198  1.00  0.00     0.163 C 
HETATM   17  C14 UNL     1      -5.314  -4.485  12.063  1.00  0.00     0.042 C 
HETATM   18  C15 UNL     1      -6.410  -4.925  13.002  1.00  0.00     0.036 C 
ENDROOT
BRANCH   6  19
HETATM   19  O1  UNL     1      -8.588  -5.112   7.421  1.00  0.00    -0.390 OA
ATOM     20  H1  UNL     1      -8.516  -5.734   6.707  1.00  0.00     0.210 HD
ENDBRANCH   6  19
BRANCH  10  21
HETATM   21  O2  UNL     1      -4.101  -5.177   8.672  1.00  0.00    -0.238 OA
BRANCH  21  22
HETATM   22  O3  UNL     1      -3.134  -5.432   7.839  1.00  0.00    -0.250 OA
ATOM     23  H3  UNL     1      -3.145  -6.330   7.531  1.00  0.00     0.253 HD
ENDBRANCH  21  22
ENDBRANCH  10  21
BRANCH  16  24
HETATM   24  O4  UNL     1      -2.926  -4.461  12.423  1.00  0.00    -0.390 OA
ATOM     25  H4  UNL     1      -3.171  -3.655  12.860  1.00  0.00     0.210 HD
ENDBRANCH  16  24
TORSDOF 4
ENDMDL
MODEL 5
REMARK VINA RESULT: -4.834496531      1.746      3.163
REMARK  4 active torsions:
REMARK  status: ('A' for Active; 'I' for Inactive)
REMARK    1  A    between atoms: C6_6  and  O1_8 
REMARK    2  A    between atoms: C10_12  and  O2_13 
REMARK    3  A    between atoms: O2_13  and  O3_14 
REMARK    4  A    between atoms: C13_21  and  O4_22 
ROOT
HETATM    1  C1  UNL     1      -3.311  -4.670   8.187  1.00  0.00     0.014 C 
HETATM    2  C2  UNL     1      -3.933  -5.840   8.194  1.00  0.00    -0.089 C 
HETATM    3  C3  UNL     1      -3.886  -6.700   9.381  1.00  0.00     0.033 C 
HETATM    4  C4  UNL     1      -3.858  -5.943  10.681  1.00  0.00     0.007 C 
HETATM    5  C5  UNL     1      -4.979  -4.950  10.807  1.00  0.00     0.038 C 
HETATM    6  C6  UNL     1      -6.053  -5.350  11.758  1.00  0.00     0.054 C 
HETATM    7  C7  UNL     1      -5.535  -6.097  12.966  1.00  0.00     0.045 C 
HETATM    8  C8  UNL     1      -7.191  -6.124  11.082  1.00  0.00     0.040 C 
HETATM    9  C9  UNL     1      -7.993  -5.156  10.297  1.00  0.00     0.038 C 
HETATM   10  C10 UNL     1      -8.727  -5.703   9.129  1.00  0.00     0.165 C 
HETATM   11  C11 UNL     1      -7.987  -6.720   8.320  1.00  0.00     0.089 C 
HETATM   12  C12 UNL     1      -8.159  -6.556   6.855  1.00  0.00     0.011 C 
HETATM   13  N1  UNL     1      -9.291  -6.698   6.278  1.00  0.00    -0.403 N 
ATOM     14  H11 UNL     1      -9.408  -6.585   5.271  1.00  0.00     0.155 HD
ATOM     15  H12 UNL     1     -10.090  -6.931   6.867  1.00  0.00     0.155 HD
HETATM   16  C13 UNL     1      -6.992  -6.216   5.995  1.00  0.00     0.163 C 
HETATM   17  C14 UNL     1      -5.917  -5.476   6.733  1.00  0.00     0.042 C 
HETATM   18  C15 UNL     1      -4.689  -6.309   7.004  1.00  0.00     0.036 C 
ENDROOT
BRANCH   6  19
HETATM   19  O1  UNL     1      -6.647  -4.163  12.247  1.00  0.00    -0.390 OA
ATOM     20  H1  UNL     1      -7.416  -3.992  11.716  1.00  0.00     0.210 HD
ENDBRANCH   6  19
BRANCH  10  21
HETATM   21  O2  UNL     1      -9.110  -4.616   8.319  1.00  0.00    -0.238 OA
BRANCH  21  22
HETATM   22  O3  UNL     1     -10.401  -4.459   8.269  1.00  0.00    -0.250 OA
ATOM     23  H3  UNL     1     -10.658  -3.545   8.239  1.00  0.00     0.253 HD
ENDBRANCH  21  22
ENDBRANCH  10  21
BRANCH  16  24
HETATM   24  O4  UNL     1      -7.399  -5.534   4.827  1.00  0.00    -0.390 OA
ATOM     25  H4  UNL     1      -6.750  -4.896   4.557  1.00  0.00     0.210 HD
ENDBRANCH  16  24
TORSDOF 4
ENDMDL
