MODEL 1
REMARK VINA RESULT: -7.883269953      0.000      0.000
REMARK  5 active torsions:
REMARK  status: ('A' for Active; 'I' for Inactive)
REMARK    1  A    between atoms: O1_1  and  N1_3 
REMARK    2  A    between atoms: C1_5  and  O2_6 
REMARK    3  A    between atoms: C1_5  and  N2_8 
REMARK    4  A    between atoms: N2_8  and  C2_10 
REMARK    5  A    between atoms: C11_24  and  O3_25 
ROOT
HETATM    1  C2  UNL     1      -0.679   3.490   5.114  1.00  0.00     0.079 A 
HETATM    2  C3  UNL     1      -1.365   4.080   4.083  1.00  0.00     0.050 A 
HETATM    3  C4  UNL     1      -1.997   3.261   3.217  1.00  0.00     0.008 A 
HETATM    4  C5  UNL     1      -1.902   1.922   3.436  1.00  0.00     0.099 A 
HETATM    5  S1  UNL     1      -0.939   1.825   4.841  1.00  0.00    -0.053 SA
HETATM    6  N3  UNL     1      -2.463   0.820   2.694  1.00  0.00    -0.297 N 
ATOM      7  H3  UNL     1      -2.549  -0.039   3.237  1.00  0.00     0.187 HD
HETATM    8  N4  UNL     1      -2.900   0.701   1.408  1.00  0.00    -0.325 N 
ATOM      9  H4  UNL     1      -2.835  -0.192   0.918  1.00  0.00     0.181 HD
HETATM   10  C6  UNL     1      -3.442   1.830   0.767  1.00  0.00     0.048 C 
HETATM   11  C7  UNL     1      -4.909   2.008   1.050  1.00  0.00     0.033 C 
HETATM   12  C8  UNL     1      -5.166   1.048  -0.120  1.00  0.00     0.005 C 
HETATM   13  C9  UNL     1      -3.814   1.514  -0.670  1.00  0.00     0.033 C 
HETATM   14  C10 UNL     1      -2.607   3.071   0.818  1.00  0.00     0.069 C 
HETATM   15  C11 UNL     1      -2.770   3.868   2.062  1.00  0.00     0.156 C 
ENDROOT
BRANCH   1  16
HETATM   16  N2  UNL     1       0.075   4.130   6.168  1.00  0.00    -0.315 N 
ATOM     17  H2  UNL     1       0.920   4.664   5.967  1.00  0.00     0.170 HD
BRANCH  16  18
HETATM   18  C1  UNL     1      -0.409   3.986   7.493  1.00  0.00     0.242 C 
HETATM   19  N1  UNL     1      -1.205   4.845   8.021  1.00  0.00    -0.233 N 
ATOM     20  H1  UNL     1      -1.540   4.718   8.976  1.00  0.00     0.198 HD
BRANCH  19  21
HETATM   21  O1  UNL     1      -1.602   5.943   7.284  1.00  0.00    -0.287 OA
ATOM     22  H1  UNL     1      -2.433   6.359   7.478  1.00  0.00     0.244 HD
ENDBRANCH  19  21
BRANCH  18  23
HETATM   23  O2  UNL     1      -0.006   2.884   8.223  1.00  0.00    -0.331 OA
ATOM     24  H2  UNL     1       0.864   2.863   8.604  1.00  0.00     0.221 HD
ENDBRANCH  18  23
ENDBRANCH  16  18
ENDBRANCH   1  16
BRANCH  15  25
HETATM   25  O3  UNL     1      -2.353   5.169   1.807  1.00  0.00    -0.391 OA
ATOM     26  H3  UNL     1      -2.855   5.558   1.100  1.00  0.00     0.210 HD
ENDBRANCH  15  25
TORSDOF 5
ENDMDL
MODEL 2
REMARK VINA RESULT: -7.548711606      0.402      1.206
REMARK  5 active torsions:
REMARK  status: ('A' for Active; 'I' for Inactive)
REMARK    1  A    between atoms: O1_1  and  N1_3 
REMARK    2  A    between atoms: C1_5  and  O2_6 
REMARK    3  A    between atoms: C1_5  and  N2_8 
REMARK    4  A    between atoms: N2_8  and  C2_10 
REMARK    5  A    between atoms: C11_24  and  O3_25 
ROOT
HETATM    1  C2  UNL     1      -0.696   3.346   5.244  1.00  0.00     0.079 A 
HETATM    2  C3  UNL     1      -1.368   3.962   4.219  1.00  0.00     0.050 A 
HETATM    3  C4  UNL     1      -1.977   3.164   3.316  1.00  0.00     0.008 A 
HETATM    4  C5  UNL     1      -1.874   1.820   3.496  1.00  0.00     0.099 A 
HETATM    5  S1  UNL     1      -0.936   1.689   4.915  1.00  0.00    -0.053 SA
HETATM    6  N3  UNL     1      -2.410   0.737   2.710  1.00  0.00    -0.297 N 
ATOM      7  H3  UNL     1      -2.498  -0.139   3.225  1.00  0.00     0.187 HD
HETATM    8  N4  UNL     1      -2.823   0.654   1.413  1.00  0.00    -0.325 N 
ATOM      9  H4  UNL     1      -2.740  -0.223   0.897  1.00  0.00     0.181 HD
HETATM   10  C6  UNL     1      -3.363   1.797   0.797  1.00  0.00     0.048 C 
HETATM   11  C7  UNL     1      -4.836   1.954   1.058  1.00  0.00     0.033 C 
HETATM   12  C8  UNL     1      -5.062   1.028  -0.146  1.00  0.00     0.005 C 
HETATM   13  C9  UNL     1      -3.704   1.522  -0.656  1.00  0.00     0.033 C 
HETATM   14  C10 UNL     1      -2.540   3.043   0.902  1.00  0.00     0.069 C 
HETATM   15  C11 UNL     1      -2.733   3.800   2.166  1.00  0.00     0.156 C 
ENDROOT
BRANCH   1  16
HETATM   16  N2  UNL     1       0.032   3.960   6.332  1.00  0.00    -0.315 N 
ATOM     17  H2  UNL     1       1.046   4.058   6.302  1.00  0.00     0.170 HD
BRANCH  16  18
HETATM   18  C1  UNL     1      -0.722   4.421   7.440  1.00  0.00     0.242 C 
HETATM   19  N1  UNL     1      -0.986   3.661   8.442  1.00  0.00    -0.233 N 
ATOM     20  H1  UNL     1      -1.530   4.018   9.229  1.00  0.00     0.198 HD
BRANCH  19  21
HETATM   21  O1  UNL     1      -0.529   2.359   8.445  1.00  0.00    -0.287 OA
ATOM     22  H1  UNL     1      -0.409   1.906   7.619  1.00  0.00     0.244 HD
ENDBRANCH  19  21
BRANCH  18  23
HETATM   23  O2  UNL     1      -1.176   5.725   7.429  1.00  0.00    -0.331 OA
ATOM     24  H2  UNL     1      -2.093   5.905   7.260  1.00  0.00     0.221 HD
ENDBRANCH  18  23
ENDBRANCH  16  18
ENDBRANCH   1  16
BRANCH  15  25
HETATM   25  O3  UNL     1      -2.323   5.112   1.960  1.00  0.00    -0.391 OA
ATOM     26  H3  UNL     1      -3.067   5.683   1.803  1.00  0.00     0.210 HD
ENDBRANCH  15  25
TORSDOF 5
ENDMDL
MODEL 3
REMARK VINA RESULT: -7.192603736      1.864      2.245
REMARK  5 active torsions:
REMARK  status: ('A' for Active; 'I' for Inactive)
REMARK    1  A    between atoms: O1_1  and  N1_3 
REMARK    2  A    between atoms: C1_5  and  O2_6 
REMARK    3  A    between atoms: C1_5  and  N2_8 
REMARK    4  A    between atoms: N2_8  and  C2_10 
REMARK    5  A    between atoms: C11_24  and  O3_25 
ROOT
HETATM    1  C2  UNL     1      -0.827   3.579   5.141  1.00  0.00     0.079 A 
HETATM    2  C3  UNL     1      -1.042   2.310   4.665  1.00  0.00     0.050 A 
HETATM    3  C4  UNL     1      -1.800   2.191   3.555  1.00  0.00     0.008 A 
HETATM    4  C5  UNL     1      -2.288   3.334   3.002  1.00  0.00     0.099 A 
HETATM    5  S1  UNL     1      -1.684   4.552   4.032  1.00  0.00    -0.053 SA
HETATM    6  N3  UNL     1      -3.113   3.519   1.834  1.00  0.00    -0.297 N 
ATOM      7  H3  UNL     1      -3.051   4.454   1.432  1.00  0.00     0.187 HD
HETATM    8  N4  UNL     1      -3.960   2.688   1.161  1.00  0.00    -0.325 N 
ATOM      9  H4  UNL     1      -4.774   3.061   0.674  1.00  0.00     0.181 HD
HETATM   10  C6  UNL     1      -3.692   1.307   1.152  1.00  0.00     0.048 C 
HETATM   11  C7  UNL     1      -2.737   0.910   0.059  1.00  0.00     0.033 C 
HETATM   12  C8  UNL     1      -3.961   0.820  -0.863  1.00  0.00     0.005 C 
HETATM   13  C9  UNL     1      -4.775   0.548   0.407  1.00  0.00     0.033 C 
HETATM   14  C10 UNL     1      -3.457   0.680   2.491  1.00  0.00     0.069 C 
HETATM   15  C11 UNL     1      -2.064   0.809   2.991  1.00  0.00     0.156 C 
ENDROOT
BRANCH   1  16
HETATM   16  N2  UNL     1      -0.061   3.981   6.299  1.00  0.00    -0.315 N 
ATOM     17  H2  UNL     1       0.877   4.371   6.205  1.00  0.00     0.170 HD
BRANCH  16  18
HETATM   18  C1  UNL     1      -0.665   3.810   7.570  1.00  0.00     0.242 C 
HETATM   19  N1  UNL     1      -1.416   4.713   8.090  1.00  0.00    -0.233 N 
ATOM     20  H1  UNL     1      -1.841   4.566   9.006  1.00  0.00     0.198 HD
BRANCH  19  21
HETATM   21  O1  UNL     1      -1.643   5.886   7.398  1.00  0.00    -0.287 OA
ATOM     22  H1  UNL     1      -1.044   6.142   6.707  1.00  0.00     0.244 HD
ENDBRANCH  19  21
BRANCH  18  23
HETATM   23  O2  UNL     1      -0.432   2.633   8.255  1.00  0.00    -0.331 OA
ATOM     24  H2  UNL     1      -0.069   2.661   9.133  1.00  0.00     0.221 HD
ENDBRANCH  18  23
ENDBRANCH  16  18
ENDBRANCH   1  16
BRANCH  15  25
HETATM   25  O3  UNL     1      -1.849  -0.175   3.949  1.00  0.00    -0.391 OA
ATOM     26  H3  UNL     1      -0.923  -0.371   4.038  1.00  0.00     0.210 HD
ENDBRANCH  15  25
TORSDOF 5
ENDMDL
MODEL 4
REMARK VINA RESULT: -6.872992966      2.293      6.635
REMARK  5 active torsions:
REMARK  status: ('A' for Active; 'I' for Inactive)
REMARK    1  A    between atoms: O1_1  and  N1_3 
REMARK    2  A    between atoms: C1_5  and  O2_6 
REMARK    3  A    between atoms: C1_5  and  N2_8 
REMARK    4  A    between atoms: N2_8  and  C2_10 
REMARK    5  A    between atoms: C11_24  and  O3_25 
ROOT
HETATM    1  C2  UNL     1      -2.481   1.381   1.675  1.00  0.00     0.079 A 
HETATM    2  C3  UNL     1      -2.293   2.683   2.061  1.00  0.00     0.050 A 
HETATM    3  C4  UNL     1      -1.790   2.892   3.297  1.00  0.00     0.008 A 
HETATM    4  C5  UNL     1      -1.514   1.796   4.054  1.00  0.00     0.099 A 
HETATM    5  S1  UNL     1      -1.955   0.499   3.038  1.00  0.00    -0.053 SA
HETATM    6  N3  UNL     1      -0.977   1.706   5.390  1.00  0.00    -0.297 N 
ATOM      7  H3  UNL     1      -0.541   0.807   5.596  1.00  0.00     0.187 HD
HETATM    8  N4  UNL     1      -0.939   2.586   6.431  1.00  0.00    -0.325 N 
ATOM      9  H4  UNL     1      -0.951   2.251   7.394  1.00  0.00     0.181 HD
HETATM   10  C6  UNL     1      -0.884   3.963   6.154  1.00  0.00     0.048 C 
HETATM   11  C7  UNL     1       0.521   4.455   5.934  1.00  0.00     0.033 C 
HETATM   12  C8  UNL     1       0.614   4.615   7.458  1.00  0.00     0.005 C 
HETATM   13  C9  UNL     1      -0.910   4.777   7.435  1.00  0.00     0.033 C 
HETATM   14  C10 UNL     1      -1.918   4.478   5.201  1.00  0.00     0.069 C 
HETATM   15  C11 UNL     1      -1.563   4.315   3.768  1.00  0.00     0.156 C 
ENDROOT
BRANCH   1  16
HETATM   16  N2  UNL     1      -2.999   0.887   0.418  1.00  0.00    -0.315 N 
ATOM     17  H2  UNL     1      -2.509   0.166  -0.110  1.00  0.00     0.170 HD
BRANCH  16  18
HETATM   18  C1  UNL     1      -4.215   1.447  -0.048  1.00  0.00     0.242 C 
HETATM   19  N1  UNL     1      -4.657   1.216  -1.232  1.00  0.00    -0.233 N 
ATOM     20  H1  UNL     1      -5.536   1.630  -1.544  1.00  0.00     0.198 HD
BRANCH  19  21
HETATM   21  O1  UNL     1      -3.931   0.403  -2.079  1.00  0.00    -0.287 OA
ATOM     22  H1  UNL     1      -4.388  -0.214  -2.638  1.00  0.00     0.244 HD
ENDBRANCH  19  21
BRANCH  18  23
HETATM   23  O2  UNL     1      -4.934   2.260   0.806  1.00  0.00    -0.331 OA
ATOM     24  H2  UNL     1      -4.793   2.202   1.744  1.00  0.00     0.221 HD
ENDBRANCH  18  23
ENDBRANCH  16  18
ENDBRANCH   1  16
BRANCH  15  25
HETATM   25  O3  UNL     1      -2.316   5.216   3.024  1.00  0.00    -0.391 OA
ATOM     26  H3  UNL     1      -1.953   5.329   2.153  1.00  0.00     0.210 HD
ENDBRANCH  15  25
TORSDOF 5
ENDMDL
MODEL 5
REMARK VINA RESULT: -6.850868086      1.900      2.540
REMARK  5 active torsions:
REMARK  status: ('A' for Active; 'I' for Inactive)
REMARK    1  A    between atoms: O1_1  and  N1_3 
REMARK    2  A    between atoms: C1_5  and  O2_6 
REMARK    3  A    between atoms: C1_5  and  N2_8 
REMARK    4  A    between atoms: N2_8  and  C2_10 
REMARK    5  A    between atoms: C11_24  and  O3_25 
ROOT
HETATM    1  C2  UNL     1      -0.872   3.608   5.055  1.00  0.00     0.079 A 
HETATM    2  C3  UNL     1      -1.088   2.334   4.595  1.00  0.00     0.050 A 
HETATM    3  C4  UNL     1      -1.838   2.202   3.480  1.00  0.00     0.008 A 
HETATM    4  C5  UNL     1      -2.315   3.340   2.907  1.00  0.00     0.099 A 
HETATM    5  S1  UNL     1      -1.714   4.570   3.925  1.00  0.00    -0.053 SA
HETATM    6  N3  UNL     1      -3.129   3.512   1.729  1.00  0.00    -0.297 N 
ATOM      7  H3  UNL     1      -3.059   4.442   1.315  1.00  0.00     0.187 HD
HETATM    8  N4  UNL     1      -3.973   2.676   1.061  1.00  0.00    -0.325 N 
ATOM      9  H4  UNL     1      -4.782   3.047   0.561  1.00  0.00     0.181 HD
HETATM   10  C6  UNL     1      -3.712   1.295   1.073  1.00  0.00     0.048 C 
HETATM   11  C7  UNL     1      -2.750   0.877  -0.006  1.00  0.00     0.033 C 
HETATM   12  C8  UNL     1      -3.966   0.781  -0.937  1.00  0.00     0.005 C 
HETATM   13  C9  UNL     1      -4.792   0.530   0.329  1.00  0.00     0.033 C 
HETATM   14  C10 UNL     1      -3.492   0.685   2.422  1.00  0.00     0.069 C 
HETATM   15  C11 UNL     1      -2.103   0.814   2.933  1.00  0.00     0.156 C 
ENDROOT
BRANCH   1  16
HETATM   16  N2  UNL     1      -0.113   4.022   6.215  1.00  0.00    -0.315 N 
ATOM     17  H2  UNL     1       0.906   4.014   6.212  1.00  0.00     0.170 HD
BRANCH  16  18
HETATM   18  C1  UNL     1      -0.845   4.441   7.354  1.00  0.00     0.242 C 
HETATM   19  N1  UNL     1      -1.047   3.660   8.354  1.00  0.00    -0.233 N 
ATOM     20  H1  UNL     1      -1.576   3.986   9.164  1.00  0.00     0.198 HD
BRANCH  19  21
HETATM   21  O1  UNL     1      -0.543   2.375   8.323  1.00  0.00    -0.287 OA
ATOM     22  H1  UNL     1      -0.446   1.893   9.135  1.00  0.00     0.244 HD
ENDBRANCH  19  21
BRANCH  18  23
HETATM   23  O2  UNL     1      -1.347   5.728   7.376  1.00  0.00    -0.331 OA
ATOM     24  H2  UNL     1      -2.279   5.874   7.269  1.00  0.00     0.221 HD
ENDBRANCH  18  23
ENDBRANCH  16  18
ENDBRANCH   1  16
BRANCH  15  25
HETATM   25  O3  UNL     1      -1.901  -0.157   3.907  1.00  0.00    -0.391 OA
ATOM     26  H3  UNL     1      -2.212   0.138   4.755  1.00  0.00     0.210 HD
ENDBRANCH  15  25
TORSDOF 5
ENDMDL
