MODEL 1
REMARK VINA RESULT: -7.801204431      0.000      0.000
REMARK  3 active torsions:
REMARK  status: ('A' for Active; 'I' for Inactive)
REMARK    1  A    between atoms: C3_5  and  O1_6 
REMARK    2  A    between atoms: C4_8  and  C5_9 
REMARK    3  A    between atoms: C8_16  and  N4_17 
ROOT
HETATM    1  C5  UNL     1      -2.060   3.262   3.121  1.00  0.00     0.035 A 
HETATM    2  C6  UNL     1      -2.194   4.378   2.302  1.00  0.00     0.121 A 
HETATM    3  N2  UNL     1      -2.728   4.254   1.065  1.00  0.00    -0.199 N 
ATOM      4  H2  UNL     1      -2.822   5.076   0.469  1.00  0.00     0.183 HD
HETATM    5  C7  UNL     1      -3.138   3.042   0.611  1.00  0.00     0.719 A 
HETATM    6  N3  UNL     1      -3.689   2.633  -0.542  1.00  0.00    -0.019 N 
ATOM      7  H3  UNL     1      -3.905   3.239  -1.334  1.00  0.00     0.203 HD
HETATM    8  C8  UNL     1      -3.918   1.295  -0.501  1.00  0.00     0.706 A 
HETATM    9  N5  UNL     1      -3.495   0.890   0.703  1.00  0.00    -0.110 N 
ATOM     10  H5  UNL     1      -3.528  -0.069   1.048  1.00  0.00     0.207 HD
HETATM   11  N6  UNL     1      -3.025   1.936   1.378  1.00  0.00    -0.059 N 
HETATM   12  C9  UNL     1      -2.500   2.060   2.594  1.00  0.00     0.154 A 
HETATM   13  S1  UNL     1      -2.352   0.742   3.536  1.00  0.00    -0.057 SA
ENDROOT
BRANCH   1  14
HETATM   14  C4  UNL     1      -1.492   3.365   4.451  1.00  0.00     0.037 A 
HETATM   15  C3  UNL     1      -0.517   2.513   4.957  1.00  0.00     0.152 A 
HETATM   16  N1  UNL     1      -0.211   2.883   6.216  1.00  0.00    -0.340 N 
HETATM   17  C2  UNL     1      -0.964   3.952   6.532  1.00  0.00     0.014 A 
ATOM     18  H1  UNL     1       0.473   2.432   6.823  1.00  0.00     0.167 HD
HETATM   19  C1  UNL     1      -0.942   4.674   7.822  1.00  0.00     0.068 C 
HETATM   20  C10 UNL     1      -1.771   4.273   5.450  1.00  0.00    -0.024 A 
HETATM   21  C11 UNL     1      -2.767   5.370   5.327  1.00  0.00     0.051 C 
BRANCH  15  22
HETATM   22  O1  UNL     1       0.050   1.448   4.265  1.00  0.00    -0.345 OA
ATOM     23  H1  UNL     1       0.676   1.519   3.554  1.00  0.00     0.219 HD
ENDBRANCH  15  22
ENDBRANCH   1  14
BRANCH   8  24
HETATM   24  N4  UNL     1      -4.444   0.563  -1.449  1.00  0.00    -0.233 N 
ATOM     25  H42 UNL     1      -5.021   0.878  -2.230  1.00  0.00     0.174 HD
ATOM     26  H41 UNL     1      -4.359  -0.448  -1.556  1.00  0.00     0.174 HD
ENDBRANCH   8  24
TORSDOF 3
ENDMDL
MODEL 2
REMARK VINA RESULT: -6.388557162      1.412      1.905
REMARK  3 active torsions:
REMARK  status: ('A' for Active; 'I' for Inactive)
REMARK    1  A    between atoms: C3_5  and  O1_6 
REMARK    2  A    between atoms: C4_8  and  C5_9 
REMARK    3  A    between atoms: C8_16  and  N4_17 
ROOT
HETATM    1  C5  UNL     1      -2.154   3.449   3.250  1.00  0.00     0.035 A 
HETATM    2  C6  UNL     1      -2.259   4.529   2.381  1.00  0.00     0.121 A 
HETATM    3  N2  UNL     1      -2.724   4.347   1.123  1.00  0.00    -0.199 N 
ATOM      4  H2  UNL     1      -2.798   5.144   0.490  1.00  0.00     0.183 HD
HETATM    5  C7  UNL     1      -3.092   3.112   0.697  1.00  0.00     0.719 A 
HETATM    6  N3  UNL     1      -3.575   2.649  -0.466  1.00  0.00    -0.019 N 
ATOM      7  H3  UNL     1      -3.757   3.219  -1.292  1.00  0.00     0.203 HD
HETATM    8  C8  UNL     1      -3.787   1.310  -0.383  1.00  0.00     0.706 A 
HETATM    9  N5  UNL     1      -3.423   0.960   0.857  1.00  0.00    -0.110 N 
ATOM     10  H5  UNL     1      -3.461   0.015   1.238  1.00  0.00     0.207 HD
HETATM   11  N6  UNL     1      -3.004   2.039   1.513  1.00  0.00    -0.059 N 
HETATM   12  C9  UNL     1      -2.547   2.220   2.749  1.00  0.00     0.154 A 
HETATM   13  S1  UNL     1      -2.431   0.943   3.750  1.00  0.00    -0.057 SA
ENDROOT
BRANCH   1  14
HETATM   14  C4  UNL     1      -1.659   3.613   4.603  1.00  0.00     0.037 A 
HETATM   15  C3  UNL     1      -2.059   4.625   5.468  1.00  0.00     0.152 A 
HETATM   16  N1  UNL     1      -1.411   4.490   6.642  1.00  0.00    -0.340 N 
HETATM   17  C2  UNL     1      -0.606   3.416   6.554  1.00  0.00     0.014 A 
ATOM     18  H1  UNL     1      -1.514   5.096   7.456  1.00  0.00     0.167 HD
HETATM   19  C1  UNL     1       0.284   2.913   7.622  1.00  0.00     0.068 C 
HETATM   20  C10 UNL     1      -0.741   2.851   5.293  1.00  0.00    -0.024 A 
HETATM   21  C11 UNL     1      -0.056   1.656   4.732  1.00  0.00     0.051 C 
BRANCH  15  22
HETATM   22  O1  UNL     1      -2.984   5.618   5.162  1.00  0.00    -0.345 OA
ATOM     23  H1  UNL     1      -3.743   5.514   4.601  1.00  0.00     0.219 HD
ENDBRANCH  15  22
ENDBRANCH   1  14
BRANCH   8  24
HETATM   24  N4  UNL     1      -4.251   0.533  -1.328  1.00  0.00    -0.233 N 
ATOM     25  H42 UNL     1      -3.846  -0.338  -1.672  1.00  0.00     0.174 HD
ATOM     26  H41 UNL     1      -5.100   0.680  -1.874  1.00  0.00     0.174 HD
ENDBRANCH   8  24
TORSDOF 3
ENDMDL
MODEL 3
REMARK VINA RESULT: -5.978691441      2.102      6.086
REMARK  3 active torsions:
REMARK  status: ('A' for Active; 'I' for Inactive)
REMARK    1  A    between atoms: C3_5  and  O1_6 
REMARK    2  A    between atoms: C4_8  and  C5_9 
REMARK    3  A    between atoms: C8_16  and  N4_17 
ROOT
HETATM    1  C5  UNL     1      -2.382   3.785   3.658  1.00  0.00     0.035 A 
HETATM    2  C6  UNL     1      -2.679   4.938   4.377  1.00  0.00     0.121 A 
HETATM    3  N2  UNL     1      -2.259   5.068   5.656  1.00  0.00    -0.199 N 
ATOM      4  H2  UNL     1      -2.480   5.916   6.178  1.00  0.00     0.183 HD
HETATM    5  C7  UNL     1      -1.545   4.078   6.251  1.00  0.00     0.719 A 
HETATM    6  N3  UNL     1      -1.013   3.939   7.475  1.00  0.00    -0.019 N 
ATOM      7  H3  UNL     1      -1.073   4.632   8.220  1.00  0.00     0.203 HD
HETATM    8  C8  UNL     1      -0.383   2.739   7.575  1.00  0.00     0.706 A 
HETATM    9  N5  UNL     1      -0.540   2.145   6.387  1.00  0.00    -0.110 N 
ATOM     10  H5  UNL     1      -0.181   1.223   6.136  1.00  0.00     0.207 HD
HETATM   11  N6  UNL     1      -1.238   2.944   5.584  1.00  0.00    -0.059 N 
HETATM   12  C9  UNL     1      -1.651   2.818   4.326  1.00  0.00     0.154 A 
HETATM   13  S1  UNL     1      -1.295   1.460   3.502  1.00  0.00    -0.057 SA
ENDROOT
BRANCH   1  14
HETATM   14  C4  UNL     1      -2.819   3.617   2.285  1.00  0.00     0.037 A 
HETATM   15  C3  UNL     1      -2.693   4.586   1.297  1.00  0.00     0.152 A 
HETATM   16  N1  UNL     1      -3.195   4.111   0.140  1.00  0.00    -0.340 N 
HETATM   17  C2  UNL     1      -3.640   2.860   0.360  1.00  0.00     0.014 A 
ATOM     18  H1  UNL     1      -3.232   4.612  -0.748  1.00  0.00     0.167 HD
HETATM   19  C1  UNL     1      -4.266   1.976  -0.647  1.00  0.00     0.068 C 
HETATM   20  C10 UNL     1      -3.417   2.528   1.689  1.00  0.00    -0.024 A 
HETATM   21  C11 UNL     1      -3.739   1.260   2.396  1.00  0.00     0.051 C 
BRANCH  15  22
HETATM   22  O1  UNL     1      -2.135   5.847   1.481  1.00  0.00    -0.345 OA
ATOM     23  H1  UNL     1      -1.274   6.024   1.840  1.00  0.00     0.219 HD
ENDBRANCH  15  22
ENDBRANCH   1  14
BRANCH   8  24
HETATM   24  N4  UNL     1       0.244   2.273   8.625  1.00  0.00    -0.233 N 
ATOM     25  H42 UNL     1       0.932   2.756   9.203  1.00  0.00     0.174 HD
ATOM     26  H41 UNL     1       0.142   1.343   9.031  1.00  0.00     0.174 HD
ENDBRANCH   8  24
TORSDOF 3
ENDMDL
MODEL 4
REMARK VINA RESULT: -5.936245486      1.805      5.957
REMARK  3 active torsions:
REMARK  status: ('A' for Active; 'I' for Inactive)
REMARK    1  A    between atoms: C3_5  and  O1_6 
REMARK    2  A    between atoms: C4_8  and  C5_9 
REMARK    3  A    between atoms: C8_16  and  N4_17 
ROOT
HETATM    1  C5  UNL     1      -2.585   2.805   3.231  1.00  0.00     0.035 A 
HETATM    2  C6  UNL     1      -3.163   4.048   3.467  1.00  0.00     0.121 A 
HETATM    3  N2  UNL     1      -2.706   4.829   4.473  1.00  0.00    -0.199 N 
ATOM      4  H2  UNL     1      -3.135   5.739   4.642  1.00  0.00     0.183 HD
HETATM    5  C7  UNL     1      -1.681   4.410   5.259  1.00  0.00     0.719 A 
HETATM    6  N3  UNL     1      -1.040   4.962   6.301  1.00  0.00    -0.019 N 
ATOM      7  H3  UNL     1      -1.251   5.877   6.700  1.00  0.00     0.203 HD
HETATM    8  C8  UNL     1      -0.070   4.123   6.748  1.00  0.00     0.706 A 
HETATM    9  N5  UNL     1      -0.128   3.045   5.958  1.00  0.00    -0.110 N 
ATOM     10  H5  UNL     1       0.474   2.225   6.033  1.00  0.00     0.207 HD
HETATM   11  N6  UNL     1      -1.095   3.210   5.059  1.00  0.00    -0.059 N 
HETATM   12  C9  UNL     1      -1.546   2.443   4.071  1.00  0.00     0.154 A 
HETATM   13  S1  UNL     1      -0.857   0.992   3.810  1.00  0.00    -0.057 SA
ENDROOT
BRANCH   1  14
HETATM   14  C4  UNL     1      -3.053   1.946   2.161  1.00  0.00     0.037 A 
HETATM   15  C3  UNL     1      -3.316   0.587   2.302  1.00  0.00     0.152 A 
HETATM   16  N1  UNL     1      -3.734   0.090   1.121  1.00  0.00    -0.340 N 
HETATM   17  C2  UNL     1      -3.748   1.093   0.225  1.00  0.00     0.014 A 
ATOM     18  H1  UNL     1      -3.995  -0.879   0.938  1.00  0.00     0.167 HD
HETATM   19  C1  UNL     1      -4.144   0.979  -1.195  1.00  0.00     0.068 C 
HETATM   20  C10 UNL     1      -3.328   2.261   0.848  1.00  0.00    -0.024 A 
HETATM   21  C11 UNL     1      -3.179   3.622   0.266  1.00  0.00     0.051 C 
BRANCH  15  22
HETATM   22  O1  UNL     1      -3.169  -0.136   3.480  1.00  0.00    -0.345 OA
ATOM     23  H1  UNL     1      -3.283   0.206   4.358  1.00  0.00     0.219 HD
ENDBRANCH  15  22
ENDBRANCH   1  14
BRANCH   8  24
HETATM   24  N4  UNL     1       0.748   4.338   7.747  1.00  0.00    -0.233 N 
ATOM     25  H42 UNL     1       1.766   4.279   7.740  1.00  0.00     0.174 HD
ATOM     26  H41 UNL     1       0.490   4.600   8.698  1.00  0.00     0.174 HD
ENDBRANCH   8  24
TORSDOF 3
ENDMDL
MODEL 5
REMARK VINA RESULT: -5.902734424      1.322      1.953
REMARK  3 active torsions:
REMARK  status: ('A' for Active; 'I' for Inactive)
REMARK    1  A    between atoms: C3_5  and  O1_6 
REMARK    2  A    between atoms: C4_8  and  C5_9 
REMARK    3  A    between atoms: C8_16  and  N4_17 
ROOT
HETATM    1  C5  UNL     1      -2.062   1.899   3.510  1.00  0.00     0.035 A 
HETATM    2  C6  UNL     1      -2.373   0.544   3.518  1.00  0.00     0.121 A 
HETATM    3  N2  UNL     1      -3.004  -0.015   2.459  1.00  0.00    -0.199 N 
ATOM      4  H2  UNL     1      -3.231  -1.010   2.472  1.00  0.00     0.183 HD
HETATM    5  C7  UNL     1      -3.338   0.739   1.380  1.00  0.00     0.719 A 
HETATM    6  N3  UNL     1      -3.951   0.458   0.220  1.00  0.00    -0.019 N 
ATOM      7  H3  UNL     1      -4.295  -0.463  -0.052  1.00  0.00     0.203 HD
HETATM    8  C8  UNL     1      -4.048   1.581  -0.539  1.00  0.00     0.706 A 
HETATM    9  N5  UNL     1      -3.481   2.557   0.180  1.00  0.00    -0.110 N 
ATOM     10  H5  UNL     1      -3.393   3.530  -0.112  1.00  0.00     0.207 HD
HETATM   11  N6  UNL     1      -3.051   2.058   1.336  1.00  0.00    -0.059 N 
HETATM   12  C9  UNL     1      -2.431   2.605   2.377  1.00  0.00     0.154 A 
HETATM   13  S1  UNL     1      -2.075   4.193   2.349  1.00  0.00    -0.057 SA
ENDROOT
BRANCH   1  14
HETATM   14  C4  UNL     1      -1.386   2.525   4.629  1.00  0.00     0.037 A 
HETATM   15  C3  UNL     1      -0.320   1.960   5.320  1.00  0.00     0.152 A 
HETATM   16  N1  UNL     1       0.072   2.800   6.299  1.00  0.00    -0.340 N 
HETATM   17  C2  UNL     1      -0.714   3.890   6.254  1.00  0.00     0.014 A 
ATOM     18  H1  UNL     1       0.833   2.637   6.958  1.00  0.00     0.167 HD
HETATM   19  C1  UNL     1      -0.623   5.059   7.155  1.00  0.00     0.068 C 
HETATM   20  C10 UNL     1      -1.631   3.745   5.222  1.00  0.00    -0.024 A 
HETATM   21  C11 UNL     1      -2.699   4.686   4.789  1.00  0.00     0.051 C 
BRANCH  15  22
HETATM   22  O1  UNL     1       0.247   0.722   5.039  1.00  0.00    -0.345 OA
ATOM     23  H1  UNL     1      -0.230  -0.089   4.912  1.00  0.00     0.219 HD
ENDBRANCH  15  22
ENDBRANCH   1  14
BRANCH   8  24
HETATM   24  N4  UNL     1      -4.588   1.675  -1.727  1.00  0.00    -0.233 N 
ATOM     25  H42 UNL     1      -5.111   0.959  -2.231  1.00  0.00     0.174 HD
ATOM     26  H41 UNL     1      -4.568   2.489  -2.341  1.00  0.00     0.174 HD
ENDBRANCH   8  24
TORSDOF 3
ENDMDL
