MODEL 1
REMARK VINA RESULT: -7.944293283      0.000      0.000
REMARK  19 active torsions:
REMARK  status: ('A' for Active; 'I' for Inactive)
REMARK       I    between atoms: C2_2  and  N1_4 
REMARK    1  A    between atoms: C3_6  and  C4_7 
REMARK    2  A    between atoms: C3_6  and  C15_37 
REMARK    3  A    between atoms: C4_7  and  O2_8 
REMARK    4  A    between atoms: C4_7  and  N2_10 
REMARK    5  A    between atoms: N2_10  and  C5_12 
REMARK    6  A    between atoms: C5_12  and  C6_13 
REMARK    7  A    between atoms: C6_13  and  C7_15 
REMARK    8  A    between atoms: C7_15  and  N3_16 
REMARK    9  A    between atoms: C7_15  and  C14_34 
REMARK   10  A    between atoms: N3_16  and  C8_18 
REMARK   11  A    between atoms: C8_18  and  C9_19 
REMARK   12  A    between atoms: C8_18  and  N4_21 
REMARK   13  A    between atoms: N4_21  and  C10_23 
REMARK   14  A    between atoms: C10_23  and  O5_24 
REMARK   15  A    between atoms: C10_23  and  C11_26 
REMARK   16  A    between atoms: C11_26  and  C12_27 
REMARK   17  A    between atoms: C11_26  and  N5_29 
REMARK       I    between atoms: N5_29  and  C13_31 
REMARK   18  A    between atoms: C17_39  and  N8_40 
REMARK   19  A    between atoms: C19_45  and  N9_46 
ROOT
HETATM    1  C5  UNL     1      -3.490   7.882 121.902  1.00  0.00     0.143 C 
ENDROOT
BRANCH   1   2
HETATM    2  N2  UNL     1      -3.920   7.013 120.883  1.00  0.00    -0.365 N 
ATOM      3  H2  UNL     1      -4.762   6.461 121.045  1.00  0.00     0.162 HD
BRANCH   2   4
HETATM    4  C4  UNL     1      -3.266   6.864 119.671  1.00  0.00     0.265 C 
BRANCH   4   5
HETATM    5  C3  UNL     1      -2.505   5.601 119.446  1.00  0.00     0.044 C 
HETATM    6  N1  UNL     1      -3.045   4.591 118.934  1.00  0.00    -0.330 N 
HETATM    7  C2  UNL     1      -2.543   3.320 118.638  1.00  0.00     0.217 C 
ATOM      8  H1  UNL     1      -4.027   4.719 118.690  1.00  0.00     0.168 HD
HETATM    9  C1  UNL     1      -1.501   2.989 117.639  1.00  0.00     0.117 C 
HETATM   10  O1  UNL     1      -3.032   2.344 119.294  1.00  0.00    -0.274 OA
BRANCH   5  11
HETATM   11  C15 UNL     1      -1.032   5.549 119.764  1.00  0.00     0.068 C 
HETATM   12  C16 UNL     1      -0.363   6.845 119.426  1.00  0.00     0.045 C 
HETATM   13  C17 UNL     1       0.064   7.518 120.690  1.00  0.00     0.186 C 
HETATM   14  C18 UNL     1      -0.192   6.569 121.810  1.00  0.00     0.066 C 
HETATM   15  C19 UNL     1      -0.777   5.310 121.233  1.00  0.00     0.195 C 
BRANCH  13  16
HETATM   16  N8  UNL     1       1.484   7.862 120.665  1.00  0.00    -0.075 N 
ATOM     17  H83 UNL     1       1.933   7.653 121.557  1.00  0.00     0.274 HD
ATOM     18  H82 UNL     1       2.011   7.224 120.068  1.00  0.00     0.274 HD
ATOM     19  H81 UNL     1       1.631   8.834 120.392  1.00  0.00     0.274 HD
ENDBRANCH  13  16
BRANCH  15  20
HETATM   20  N9  UNL     1       0.134   4.187 121.403  1.00  0.00    -0.074 N 
ATOM     21  H93 UNL     1       1.039   4.359 120.964  1.00  0.00     0.274 HD
ATOM     22  H92 UNL     1       0.453   4.096 122.368  1.00  0.00     0.274 HD
ATOM     23  H91 UNL     1      -0.301   3.330 121.061  1.00  0.00     0.274 HD
ENDBRANCH  15  20
ENDBRANCH   5  11
ENDBRANCH   4   5
BRANCH   4  24
HETATM   24  O2  UNL     1      -4.072   7.139 118.581  1.00  0.00    -0.371 OA
ATOM     25  H2  UNL     1      -4.833   7.639 118.852  1.00  0.00     0.212 HD
ENDBRANCH   4  24
ENDBRANCH   2   4
ENDBRANCH   1   2
BRANCH   1  26
HETATM   26  C6  UNL     1      -4.718   8.440 122.589  1.00  0.00     0.218 C 
HETATM   27  O3  UNL     1      -5.521   7.509 122.856  1.00  0.00    -0.284 OA
BRANCH  26  28
HETATM   28  C7  UNL     1      -5.022   9.801 122.925  1.00  0.00     0.147 C 
BRANCH  28  29
HETATM   29  N3  UNL     1      -4.696  10.892 122.120  1.00  0.00    -0.356 N 
ATOM     30  H3  UNL     1      -3.871  11.442 122.362  1.00  0.00     0.162 HD
BRANCH  29  31
HETATM   31  C8  UNL     1      -5.420  11.264 121.026  1.00  0.00     0.242 C 
BRANCH  31  32
HETATM   32  C9  UNL     1      -4.930  10.730 119.733  1.00  0.00     0.277 C 
HETATM   33  O4  UNL     1      -5.320   9.630 119.345  1.00  0.00    -0.303 OA
ENDBRANCH  31  32
BRANCH  31  34
HETATM   34  N4  UNL     1      -5.642  12.684 120.840  1.00  0.00    -0.369 N 
ATOM     35  H4  UNL     1      -5.352  13.173 119.994  1.00  0.00     0.158 HD
BRANCH  34  36
HETATM   36  C10 UNL     1      -6.287  13.349 121.907  1.00  0.00     0.245 C 
BRANCH  36  37
HETATM   37  O5  UNL     1      -7.647  13.577 121.665  1.00  0.00    -0.375 OA
ATOM     38  H5  UNL     1      -8.172  12.788 121.728  1.00  0.00     0.212 HD
ENDBRANCH  36  37
BRANCH  36  39
HETATM   39  C11 UNL     1      -5.642  14.652 122.305  1.00  0.00     0.195 C 
BRANCH  39  40
HETATM   40  C12 UNL     1      -4.369  14.293 123.037  1.00  0.00     0.260 C 
HETATM   41  O6  UNL     1      -3.422  13.814 122.456  1.00  0.00    -0.304 OA
ENDBRANCH  39  40
BRANCH  39  42
HETATM   42  N5  UNL     1      -5.256  15.471 121.188  1.00  0.00    -0.330 N 
HETATM   43  C13 UNL     1      -5.817  16.752 121.022  1.00  0.00     0.329 C 
HETATM   44  N6  UNL     1      -5.446  17.571 119.932  1.00  0.00    -0.040 NA
HETATM   45  O7  UNL     1      -6.662  17.162 121.866  1.00  0.00    -0.251 OA
ATOM     46  H5  UNL     1      -4.574  15.124 120.513  1.00  0.00     0.164 HD
ENDBRANCH  39  42
ENDBRANCH  36  39
ENDBRANCH  34  36
ENDBRANCH  31  34
ENDBRANCH  29  31
ENDBRANCH  28  29
BRANCH  28  47
HETATM   47  C14 UNL     1      -4.848  10.102 124.392  1.00  0.00     0.285 C 
HETATM   48  N7  UNL     1      -5.174  11.336 124.976  1.00  0.00    -0.056 NA
HETATM   49  O8  UNL     1      -4.377   9.174 125.093  1.00  0.00    -0.269 OA
ENDBRANCH  28  47
ENDBRANCH  26  28
ENDBRANCH   1  26
TORSDOF 19
ENDMDL
MODEL 2
REMARK VINA RESULT: -7.916577169      1.997      3.477
REMARK  19 active torsions:
REMARK  status: ('A' for Active; 'I' for Inactive)
REMARK       I    between atoms: C2_2  and  N1_4 
REMARK    1  A    between atoms: C3_6  and  C4_7 
REMARK    2  A    between atoms: C3_6  and  C15_37 
REMARK    3  A    between atoms: C4_7  and  O2_8 
REMARK    4  A    between atoms: C4_7  and  N2_10 
REMARK    5  A    between atoms: N2_10  and  C5_12 
REMARK    6  A    between atoms: C5_12  and  C6_13 
REMARK    7  A    between atoms: C6_13  and  C7_15 
REMARK    8  A    between atoms: C7_15  and  N3_16 
REMARK    9  A    between atoms: C7_15  and  C14_34 
REMARK   10  A    between atoms: N3_16  and  C8_18 
REMARK   11  A    between atoms: C8_18  and  C9_19 
REMARK   12  A    between atoms: C8_18  and  N4_21 
REMARK   13  A    between atoms: N4_21  and  C10_23 
REMARK   14  A    between atoms: C10_23  and  O5_24 
REMARK   15  A    between atoms: C10_23  and  C11_26 
REMARK   16  A    between atoms: C11_26  and  C12_27 
REMARK   17  A    between atoms: C11_26  and  N5_29 
REMARK       I    between atoms: N5_29  and  C13_31 
REMARK   18  A    between atoms: C17_39  and  N8_40 
REMARK   19  A    between atoms: C19_45  and  N9_46 
ROOT
HETATM    1  C5  UNL     1      -4.145   8.411 121.477  1.00  0.00     0.143 C 
ENDROOT
BRANCH   1   2
HETATM    2  N2  UNL     1      -3.779   7.244 122.172  1.00  0.00    -0.365 N 
ATOM      3  H2  UNL     1      -4.496   6.537 122.336  1.00  0.00     0.162 HD
BRANCH   2   4
HETATM    4  C4  UNL     1      -2.501   7.000 122.648  1.00  0.00     0.265 C 
BRANCH   4   5
HETATM    5  C3  UNL     1      -1.367   7.699 121.979  1.00  0.00     0.044 C 
HETATM    6  N1  UNL     1      -0.957   8.816 122.376  1.00  0.00    -0.330 N 
HETATM    7  C2  UNL     1       0.066   9.648 121.912  1.00  0.00     0.217 C 
ATOM      8  H1  UNL     1      -1.460   9.183 123.184  1.00  0.00     0.168 HD
HETATM    9  C1  UNL     1       1.519   9.361 121.929  1.00  0.00     0.117 C 
HETATM   10  O1  UNL     1      -0.286  10.770 121.423  1.00  0.00    -0.274 OA
BRANCH   5  11
HETATM   11  C15 UNL     1      -0.637   7.024 120.846  1.00  0.00     0.068 C 
HETATM   12  C16 UNL     1      -0.538   5.547 121.074  1.00  0.00     0.045 C 
HETATM   13  C17 UNL     1      -1.388   4.840 120.069  1.00  0.00     0.186 C 
HETATM   14  C18 UNL     1      -1.892   5.863 119.110  1.00  0.00     0.066 C 
HETATM   15  C19 UNL     1      -1.350   7.202 119.525  1.00  0.00     0.195 C 
BRANCH  13  16
HETATM   16  N8  UNL     1      -0.630   3.827 119.339  1.00  0.00    -0.075 N 
ATOM     17  H83 UNL     1      -0.754   3.924 118.331  1.00  0.00     0.274 HD
ATOM     18  H82 UNL     1       0.374   4.002 119.393  1.00  0.00     0.274 HD
ATOM     19  H81 UNL     1      -0.860   2.884 119.653  1.00  0.00     0.274 HD
ENDBRANCH  13  16
BRANCH  15  20
HETATM   20  N9  UNL     1      -0.425   7.721 118.528  1.00  0.00    -0.074 N 
ATOM     21  H93 UNL     1       0.526   7.794 118.888  1.00  0.00     0.274 HD
ATOM     22  H92 UNL     1      -0.251   7.048 117.781  1.00  0.00     0.274 HD
ATOM     23  H91 UNL     1      -0.767   8.613 118.167  1.00  0.00     0.274 HD
ENDBRANCH  15  20
ENDBRANCH   5  11
ENDBRANCH   4   5
BRANCH   4  24
HETATM   24  O2  UNL     1      -2.400   7.128 124.022  1.00  0.00    -0.371 OA
ATOM     25  H2  UNL     1      -2.727   6.346 124.451  1.00  0.00     0.212 HD
ENDBRANCH   4  24
ENDBRANCH   2   4
ENDBRANCH   1   2
BRANCH   1  26
HETATM   26  C6  UNL     1      -5.235   9.104 122.267  1.00  0.00     0.218 C 
HETATM   27  O3  UNL     1      -6.358   8.634 121.951  1.00  0.00    -0.284 OA
BRANCH  26  28
HETATM   28  C7  UNL     1      -5.114  10.150 123.241  1.00  0.00     0.147 C 
BRANCH  28  29
HETATM   29  N3  UNL     1      -4.717  11.452 122.939  1.00  0.00    -0.356 N 
ATOM     30  H3  UNL     1      -4.530  12.092 123.712  1.00  0.00     0.162 HD
BRANCH  29  31
HETATM   31  C8  UNL     1      -4.565  11.918 121.666  1.00  0.00     0.242 C 
BRANCH  31  32
HETATM   32  C9  UNL     1      -3.251  12.537 121.373  1.00  0.00     0.277 C 
HETATM   33  O4  UNL     1      -3.204  13.585 120.733  1.00  0.00    -0.303 OA
ENDBRANCH  31  32
BRANCH  31  34
HETATM   34  N4  UNL     1      -5.581  12.828 121.177  1.00  0.00    -0.369 N 
ATOM     35  H4  UNL     1      -5.677  13.053 120.187  1.00  0.00     0.158 HD
BRANCH  34  36
HETATM   36  C10 UNL     1      -6.431  13.384 122.159  1.00  0.00     0.245 C 
BRANCH  36  37
HETATM   37  O5  UNL     1      -7.780  13.071 121.954  1.00  0.00    -0.375 OA
ATOM     38  H5  UNL     1      -7.983  12.163 122.146  1.00  0.00     0.212 HD
ENDBRANCH  36  37
BRANCH  36  39
HETATM   39  C11 UNL     1      -6.301  14.877 122.316  1.00  0.00     0.195 C 
BRANCH  39  40
HETATM   40  C12 UNL     1      -5.443  15.105 123.541  1.00  0.00     0.260 C 
HETATM   41  O6  UNL     1      -4.955  14.180 124.149  1.00  0.00    -0.304 OA
ENDBRANCH  39  40
BRANCH  39  42
HETATM   42  N5  UNL     1      -5.627  15.519 121.220  1.00  0.00    -0.330 N 
HETATM   43  C13 UNL     1      -5.915  16.860 120.899  1.00  0.00     0.329 C 
HETATM   44  N6  UNL     1      -5.260  17.505 119.826  1.00  0.00    -0.040 NA
HETATM   45  O7  UNL     1      -6.772  17.480 121.587  1.00  0.00    -0.251 OA
ATOM     46  H5  UNL     1      -4.939  15.002 120.672  1.00  0.00     0.164 HD
ENDBRANCH  39  42
ENDBRANCH  36  39
ENDBRANCH  34  36
ENDBRANCH  31  34
ENDBRANCH  29  31
ENDBRANCH  28  29
BRANCH  28  47
HETATM   47  C14 UNL     1      -4.551   9.672 124.556  1.00  0.00     0.285 C 
HETATM   48  N7  UNL     1      -4.802   8.399 125.090  1.00  0.00    -0.056 NA
HETATM   49  O8  UNL     1      -3.829  10.488 125.177  1.00  0.00    -0.269 OA
ENDBRANCH  28  47
ENDBRANCH  26  28
ENDBRANCH   1  26
TORSDOF 19
ENDMDL
MODEL 3
REMARK VINA RESULT: -7.818292787      1.818      3.369
REMARK  19 active torsions:
REMARK  status: ('A' for Active; 'I' for Inactive)
REMARK       I    between atoms: C2_2  and  N1_4 
REMARK    1  A    between atoms: C3_6  and  C4_7 
REMARK    2  A    between atoms: C3_6  and  C15_37 
REMARK    3  A    between atoms: C4_7  and  O2_8 
REMARK    4  A    between atoms: C4_7  and  N2_10 
REMARK    5  A    between atoms: N2_10  and  C5_12 
REMARK    6  A    between atoms: C5_12  and  C6_13 
REMARK    7  A    between atoms: C6_13  and  C7_15 
REMARK    8  A    between atoms: C7_15  and  N3_16 
REMARK    9  A    between atoms: C7_15  and  C14_34 
REMARK   10  A    between atoms: N3_16  and  C8_18 
REMARK   11  A    between atoms: C8_18  and  C9_19 
REMARK   12  A    between atoms: C8_18  and  N4_21 
REMARK   13  A    between atoms: N4_21  and  C10_23 
REMARK   14  A    between atoms: C10_23  and  O5_24 
REMARK   15  A    between atoms: C10_23  and  C11_26 
REMARK   16  A    between atoms: C11_26  and  C12_27 
REMARK   17  A    between atoms: C11_26  and  N5_29 
REMARK       I    between atoms: N5_29  and  C13_31 
REMARK   18  A    between atoms: C17_39  and  N8_40 
REMARK   19  A    between atoms: C19_45  and  N9_46 
ROOT
HETATM    1  C5  UNL     1      -4.701   7.438 123.409  1.00  0.00     0.143 C 
ENDROOT
BRANCH   1   2
HETATM    2  N2  UNL     1      -3.659   7.367 122.467  1.00  0.00    -0.365 N 
ATOM      3  H2  UNL     1      -3.891   7.497 121.482  1.00  0.00     0.162 HD
BRANCH   2   4
HETATM    4  C4  UNL     1      -2.335   7.131 122.799  1.00  0.00     0.265 C 
BRANCH   4   5
HETATM    5  C3  UNL     1      -1.290   7.919 122.084  1.00  0.00     0.044 C 
HETATM    6  N1  UNL     1      -0.960   9.069 122.461  1.00  0.00    -0.330 N 
HETATM    7  C2  UNL     1      -0.029   9.981 121.954  1.00  0.00     0.217 C 
ATOM      8  H1  UNL     1      -1.461   9.398 123.286  1.00  0.00     0.168 HD
HETATM    9  C1  UNL     1       1.442   9.816 121.916  1.00  0.00     0.117 C 
HETATM   10  O1  UNL     1      -0.493  11.066 121.475  1.00  0.00    -0.274 OA
BRANCH   5  11
HETATM   11  C15 UNL     1      -0.550   7.299 120.926  1.00  0.00     0.068 C 
HETATM   12  C16 UNL     1      -0.227   5.863 121.200  1.00  0.00     0.045 C 
HETATM   13  C17 UNL     1      -1.035   4.998 120.287  1.00  0.00     0.186 C 
HETATM   14  C18 UNL     1      -1.742   5.896 119.330  1.00  0.00     0.066 C 
HETATM   15  C19 UNL     1      -1.368   7.315 119.656  1.00  0.00     0.195 C 
BRANCH  13  16
HETATM   16  N8  UNL     1      -0.191   4.067 119.540  1.00  0.00    -0.075 N 
ATOM     17  H83 UNL     1       0.529   4.560 119.012  1.00  0.00     0.274 HD
ATOM     18  H82 UNL     1       0.410   3.527 120.164  1.00  0.00     0.274 HD
ATOM     19  H81 UNL     1      -0.745   3.458 118.938  1.00  0.00     0.274 HD
ENDBRANCH  13  16
BRANCH  15  20
HETATM   20  N9  UNL     1      -0.596   7.910 118.574  1.00  0.00    -0.074 N 
ATOM     21  H93 UNL     1      -1.154   8.559 118.017  1.00  0.00     0.274 HD
ATOM     22  H92 UNL     1       0.099   8.572 118.920  1.00  0.00     0.274 HD
ATOM     23  H91 UNL     1      -0.176   7.178 118.002  1.00  0.00     0.274 HD
ENDBRANCH  15  20
ENDBRANCH   5  11
ENDBRANCH   4   5
BRANCH   4  24
HETATM   24  O2  UNL     1      -2.105   7.157 124.163  1.00  0.00    -0.371 OA
ATOM     25  H2  UNL     1      -1.453   6.507 124.399  1.00  0.00     0.212 HD
ENDBRANCH   4  24
ENDBRANCH   2   4
ENDBRANCH   1   2
BRANCH   1  26
HETATM   26  C6  UNL     1      -5.535   8.662 123.092  1.00  0.00     0.218 C 
HETATM   27  O3  UNL     1      -6.701   8.316 122.773  1.00  0.00    -0.284 OA
BRANCH  26  28
HETATM   28  C7  UNL     1      -5.150  10.044 123.115  1.00  0.00     0.147 C 
BRANCH  28  29
HETATM   29  N3  UNL     1      -4.806  10.775 121.979  1.00  0.00    -0.356 N 
ATOM     30  H3  UNL     1      -3.818  10.963 121.806  1.00  0.00     0.162 HD
BRANCH  29  31
HETATM   31  C8  UNL     1      -5.719  11.252 121.085  1.00  0.00     0.242 C 
BRANCH  31  32
HETATM   32  C9  UNL     1      -5.672  10.628 119.741  1.00  0.00     0.277 C 
HETATM   33  O4  UNL     1      -5.332   9.452 119.630  1.00  0.00    -0.303 OA
ENDBRANCH  31  32
BRANCH  31  34
HETATM   34  N4  UNL     1      -5.751  12.687 120.886  1.00  0.00    -0.369 N 
ATOM     35  H4  UNL     1      -5.227  13.143 120.139  1.00  0.00     0.158 HD
BRANCH  34  36
HETATM   36  C10 UNL     1      -6.554  13.415 121.791  1.00  0.00     0.245 C 
BRANCH  36  37
HETATM   37  O5  UNL     1      -7.782  13.803 121.242  1.00  0.00    -0.375 OA
ATOM     38  H5  UNL     1      -8.156  14.563 121.671  1.00  0.00     0.212 HD
ENDBRANCH  36  37
BRANCH  36  39
HETATM   39  C11 UNL     1      -5.882  14.630 122.376  1.00  0.00     0.195 C 
BRANCH  39  40
HETATM   40  C12 UNL     1      -4.738  14.119 123.224  1.00  0.00     0.260 C 
HETATM   41  O6  UNL     1      -3.740  13.656 122.721  1.00  0.00    -0.304 OA
ENDBRANCH  39  40
BRANCH  39  42
HETATM   42  N5  UNL     1      -5.304  15.503 121.390  1.00  0.00    -0.330 N 
HETATM   43  C13 UNL     1      -5.996  16.656 120.973  1.00  0.00     0.329 C 
HETATM   44  N6  UNL     1      -5.440  17.525 120.007  1.00  0.00    -0.040 NA
HETATM   45  O7  UNL     1      -7.127  16.904 121.476  1.00  0.00    -0.251 OA
ATOM     46  H5  UNL     1      -4.390  15.286 120.992  1.00  0.00     0.164 HD
ENDBRANCH  39  42
ENDBRANCH  36  39
ENDBRANCH  34  36
ENDBRANCH  31  34
ENDBRANCH  29  31
ENDBRANCH  28  29
BRANCH  28  47
HETATM   47  C14 UNL     1      -4.292  10.400 124.304  1.00  0.00     0.285 C 
HETATM   48  N7  UNL     1      -4.802  10.943 125.494  1.00  0.00    -0.056 NA
HETATM   49  O8  UNL     1      -3.062  10.188 124.180  1.00  0.00    -0.269 OA
ENDBRANCH  28  47
ENDBRANCH  26  28
ENDBRANCH   1  26
TORSDOF 19
ENDMDL
MODEL 4
REMARK VINA RESULT: -7.775929337      1.099      2.128
REMARK  19 active torsions:
REMARK  status: ('A' for Active; 'I' for Inactive)
REMARK       I    between atoms: C2_2  and  N1_4 
REMARK    1  A    between atoms: C3_6  and  C4_7 
REMARK    2  A    between atoms: C3_6  and  C15_37 
REMARK    3  A    between atoms: C4_7  and  O2_8 
REMARK    4  A    between atoms: C4_7  and  N2_10 
REMARK    5  A    between atoms: N2_10  and  C5_12 
REMARK    6  A    between atoms: C5_12  and  C6_13 
REMARK    7  A    between atoms: C6_13  and  C7_15 
REMARK    8  A    between atoms: C7_15  and  N3_16 
REMARK    9  A    between atoms: C7_15  and  C14_34 
REMARK   10  A    between atoms: N3_16  and  C8_18 
REMARK   11  A    between atoms: C8_18  and  C9_19 
REMARK   12  A    between atoms: C8_18  and  N4_21 
REMARK   13  A    between atoms: N4_21  and  C10_23 
REMARK   14  A    between atoms: C10_23  and  O5_24 
REMARK   15  A    between atoms: C10_23  and  C11_26 
REMARK   16  A    between atoms: C11_26  and  C12_27 
REMARK   17  A    between atoms: C11_26  and  N5_29 
REMARK       I    between atoms: N5_29  and  C13_31 
REMARK   18  A    between atoms: C17_39  and  N8_40 
REMARK   19  A    between atoms: C19_45  and  N9_46 
ROOT
HETATM    1  C5  UNL     1      -3.421   7.468 122.233  1.00  0.00     0.143 C 
ENDROOT
BRANCH   1   2
HETATM    2  N2  UNL     1      -3.672   6.558 121.190  1.00  0.00    -0.365 N 
ATOM      3  H2  UNL     1      -4.421   5.878 121.315  1.00  0.00     0.162 HD
BRANCH   2   4
HETATM    4  C4  UNL     1      -2.959   6.532 120.002  1.00  0.00     0.265 C 
BRANCH   4   5
HETATM    5  C3  UNL     1      -2.308   5.248 119.613  1.00  0.00     0.044 C 
HETATM    6  N1  UNL     1      -2.955   4.322 119.067  1.00  0.00    -0.330 N 
HETATM    7  C2  UNL     1      -2.566   3.052 118.628  1.00  0.00     0.217 C 
ATOM      8  H1  UNL     1      -3.941   4.532 118.916  1.00  0.00     0.168 HD
HETATM    9  C1  UNL     1      -1.629   2.745 117.523  1.00  0.00     0.117 C 
HETATM   10  O1  UNL     1      -3.070   2.056 119.241  1.00  0.00    -0.274 OA
BRANCH   5  11
HETATM   11  C15 UNL     1      -0.822   5.077 119.803  1.00  0.00     0.068 C 
HETATM   12  C16 UNL     1      -0.062   6.169 119.117  1.00  0.00     0.045 C 
HETATM   13  C17 UNL     1       0.577   7.042 120.148  1.00  0.00     0.186 C 
HETATM   14  C18 UNL     1       0.352   6.403 121.476  1.00  0.00     0.066 C 
HETATM   15  C19 UNL     1      -0.426   5.134 121.260  1.00  0.00     0.195 C 
BRANCH  13  16
HETATM   16  N8  UNL     1       2.012   7.185 119.919  1.00  0.00    -0.075 N 
ATOM     17  H83 UNL     1       2.489   6.285 119.973  1.00  0.00     0.274 HD
ATOM     18  H82 UNL     1       2.213   7.413 118.944  1.00  0.00     0.274 HD
ATOM     19  H81 UNL     1       2.429   7.866 120.553  1.00  0.00     0.274 HD
ENDBRANCH  13  16
BRANCH  15  20
HETATM   20  N9  UNL     1       0.374   3.968 121.604  1.00  0.00    -0.074 N 
ATOM     21  H93 UNL     1       0.903   3.617 120.804  1.00  0.00     0.274 HD
ATOM     22  H92 UNL     1       1.161   4.209 122.207  1.00  0.00     0.274 HD
ATOM     23  H91 UNL     1      -0.219   3.248 122.017  1.00  0.00     0.274 HD
ENDBRANCH  15  20
ENDBRANCH   5  11
ENDBRANCH   4   5
BRANCH   4  24
HETATM   24  O2  UNL     1      -3.666   7.054 118.934  1.00  0.00    -0.371 OA
ATOM     25  H2  UNL     1      -4.052   7.889 119.171  1.00  0.00     0.212 HD
ENDBRANCH   4  24
ENDBRANCH   2   4
ENDBRANCH   1   2
BRANCH   1  26
HETATM   26  C6  UNL     1      -4.673   8.292 122.445  1.00  0.00     0.218 C 
HETATM   27  O3  UNL     1      -5.571   7.582 122.968  1.00  0.00    -0.284 OA
BRANCH  26  28
HETATM   28  C7  UNL     1      -4.907   9.671 122.129  1.00  0.00     0.147 C 
BRANCH  28  29
HETATM   29  N3  UNL     1      -5.296  10.629 123.065  1.00  0.00    -0.356 N 
ATOM     30  H3  UNL     1      -6.182  10.496 123.552  1.00  0.00     0.162 HD
BRANCH  29  31
HETATM   31  C8  UNL     1      -4.556  11.735 123.364  1.00  0.00     0.242 C 
BRANCH  31  32
HETATM   32  C9  UNL     1      -4.516  12.098 124.800  1.00  0.00     0.277 C 
HETATM   33  O4  UNL     1      -5.058  11.367 125.626  1.00  0.00    -0.303 OA
ENDBRANCH  31  32
BRANCH  31  34
HETATM   34  N4  UNL     1      -4.862  12.945 122.629  1.00  0.00    -0.369 N 
ATOM     35  H4  UNL     1      -4.244  13.312 121.905  1.00  0.00     0.158 HD
BRANCH  34  36
HETATM   36  C10 UNL     1      -6.072  13.586 122.977  1.00  0.00     0.245 C 
BRANCH  36  37
HETATM   37  O5  UNL     1      -7.178  13.077 122.285  1.00  0.00    -0.375 OA
ATOM     38  H5  UNL     1      -7.879  12.799 122.861  1.00  0.00     0.212 HD
ENDBRANCH  36  37
BRANCH  36  39
HETATM   39  C11 UNL     1      -6.048  15.084 122.816  1.00  0.00     0.195 C 
BRANCH  39  40
HETATM   40  C12 UNL     1      -5.203  15.623 123.948  1.00  0.00     0.260 C 
HETATM   41  O6  UNL     1      -4.001  15.492 123.955  1.00  0.00    -0.304 OA
ENDBRANCH  39  40
BRANCH  39  42
HETATM   42  N5  UNL     1      -5.427  15.525 121.596  1.00  0.00    -0.330 N 
HETATM   43  C13 UNL     1      -5.742  16.789 121.059  1.00  0.00     0.329 C 
HETATM   44  N6  UNL     1      -5.138  17.238 119.862  1.00  0.00    -0.040 NA
HETATM   45  O7  UNL     1      -6.575  17.518 121.663  1.00  0.00    -0.251 OA
ATOM     46  H5  UNL     1      -4.758  14.922 121.118  1.00  0.00     0.164 HD
ENDBRANCH  39  42
ENDBRANCH  36  39
ENDBRANCH  34  36
ENDBRANCH  31  34
ENDBRANCH  29  31
ENDBRANCH  28  29
BRANCH  28  47
HETATM   47  C14 UNL     1      -5.586   9.866 120.797  1.00  0.00     0.285 C 
HETATM   48  N7  UNL     1      -6.358  10.994 120.476  1.00  0.00    -0.056 NA
HETATM   49  O8  UNL     1      -5.433   8.945 119.960  1.00  0.00    -0.269 OA
ENDBRANCH  28  47
ENDBRANCH  26  28
ENDBRANCH   1  26
TORSDOF 19
ENDMDL
MODEL 5
REMARK VINA RESULT: -7.759744057      1.479      2.270
REMARK  19 active torsions:
REMARK  status: ('A' for Active; 'I' for Inactive)
REMARK       I    between atoms: C2_2  and  N1_4 
REMARK    1  A    between atoms: C3_6  and  C4_7 
REMARK    2  A    between atoms: C3_6  and  C15_37 
REMARK    3  A    between atoms: C4_7  and  O2_8 
REMARK    4  A    between atoms: C4_7  and  N2_10 
REMARK    5  A    between atoms: N2_10  and  C5_12 
REMARK    6  A    between atoms: C5_12  and  C6_13 
REMARK    7  A    between atoms: C6_13  and  C7_15 
REMARK    8  A    between atoms: C7_15  and  N3_16 
REMARK    9  A    between atoms: C7_15  and  C14_34 
REMARK   10  A    between atoms: N3_16  and  C8_18 
REMARK   11  A    between atoms: C8_18  and  C9_19 
REMARK   12  A    between atoms: C8_18  and  N4_21 
REMARK   13  A    between atoms: N4_21  and  C10_23 
REMARK   14  A    between atoms: C10_23  and  O5_24 
REMARK   15  A    between atoms: C10_23  and  C11_26 
REMARK   16  A    between atoms: C11_26  and  C12_27 
REMARK   17  A    between atoms: C11_26  and  N5_29 
REMARK       I    between atoms: N5_29  and  C13_31 
REMARK   18  A    between atoms: C17_39  and  N8_40 
REMARK   19  A    between atoms: C19_45  and  N9_46 
ROOT
HETATM    1  C5  UNL     1      -4.893   9.192 120.828  1.00  0.00     0.143 C 
ENDROOT
BRANCH   1   2
HETATM    2  N2  UNL     1      -4.396   7.887 120.655  1.00  0.00    -0.365 N 
ATOM      3  H2  UNL     1      -4.554   7.210 121.402  1.00  0.00     0.162 HD
BRANCH   2   4
HETATM    4  C4  UNL     1      -3.705   7.469 119.530  1.00  0.00     0.265 C 
BRANCH   4   5
HETATM    5  C3  UNL     1      -2.952   6.185 119.618  1.00  0.00     0.044 C 
HETATM    6  N1  UNL     1      -3.379   5.135 119.082  1.00  0.00    -0.330 N 
HETATM    7  C2  UNL     1      -2.859   3.838 119.038  1.00  0.00     0.217 C 
ATOM      8  H1  UNL     1      -4.266   5.246 118.591  1.00  0.00     0.168 HD
HETATM    9  C1  UNL     1      -1.613   3.405 118.364  1.00  0.00     0.117 C 
HETATM   10  O1  UNL     1      -3.525   2.933 119.637  1.00  0.00    -0.274 OA
BRANCH   5  11
HETATM   11  C15 UNL     1      -1.606   6.154 120.295  1.00  0.00     0.068 C 
HETATM   12  C16 UNL     1      -0.857   7.431 120.066  1.00  0.00     0.045 C 
HETATM   13  C17 UNL     1      -0.751   8.173 121.359  1.00  0.00     0.186 C 
HETATM   14  C18 UNL     1      -1.290   7.286 122.429  1.00  0.00     0.066 C 
HETATM   15  C19 UNL     1      -1.728   5.996 121.793  1.00  0.00     0.195 C 
BRANCH  13  16
HETATM   16  N8  UNL     1       0.634   8.517 121.671  1.00  0.00    -0.075 N 
ATOM     17  H83 UNL     1       1.285   7.842 121.269  1.00  0.00     0.274 HD
ATOM     18  H82 UNL     1       0.934   9.350 121.162  1.00  0.00     0.274 HD
ATOM     19  H81 UNL     1       0.779   8.622 122.675  1.00  0.00     0.274 HD
ENDBRANCH  13  16
BRANCH  15  20
HETATM   20  N9  UNL     1      -0.901   4.887 122.245  1.00  0.00    -0.074 N 
ATOM     21  H93 UNL     1      -1.453   4.155 122.693  1.00  0.00     0.274 HD
ATOM     22  H92 UNL     1      -0.535   4.340 121.466  1.00  0.00     0.274 HD
ATOM     23  H91 UNL     1      -0.158   5.231 122.853  1.00  0.00     0.274 HD
ENDBRANCH  15  20
ENDBRANCH   5  11
ENDBRANCH   4   5
BRANCH   4  24
HETATM   24  O2  UNL     1      -4.473   7.497 118.380  1.00  0.00    -0.371 OA
ATOM     25  H2  UNL     1      -5.396   7.454 118.599  1.00  0.00     0.212 HD
ENDBRANCH   4  24
ENDBRANCH   2   4
ENDBRANCH   1   2
BRANCH   1  26
HETATM   26  C6  UNL     1      -4.511   9.657 122.218  1.00  0.00     0.218 C 
HETATM   27  O3  UNL     1      -3.366  10.178 122.197  1.00  0.00    -0.284 OA
BRANCH  26  28
HETATM   28  C7  UNL     1      -5.261   9.561 123.437  1.00  0.00     0.147 C 
BRANCH  28  29
HETATM   29  N3  UNL     1      -5.548  10.648 124.262  1.00  0.00    -0.356 N 
ATOM     30  H3  UNL     1      -6.350  10.581 124.889  1.00  0.00     0.162 HD
BRANCH  29  31
HETATM   31  C8  UNL     1      -4.813  11.797 124.277  1.00  0.00     0.242 C 
BRANCH  31  32
HETATM   32  C9  UNL     1      -3.880  11.936 125.420  1.00  0.00     0.277 C 
HETATM   33  O4  UNL     1      -2.884  11.218 125.481  1.00  0.00    -0.303 OA
ENDBRANCH  31  32
BRANCH  31  34
HETATM   34  N4  UNL     1      -5.545  13.043 124.173  1.00  0.00    -0.369 N 
ATOM     35  H4  UNL     1      -5.937  13.512 124.990  1.00  0.00     0.158 HD
BRANCH  34  36
HETATM   36  C10 UNL     1      -5.683  13.568 122.869  1.00  0.00     0.245 C 
BRANCH  36  37
HETATM   37  O5  UNL     1      -4.769  13.020 121.961  1.00  0.00    -0.375 OA
ATOM     38  H5  UNL     1      -4.324  13.679 121.441  1.00  0.00     0.212 HD
ENDBRANCH  36  37
BRANCH  36  39
HETATM   39  C11 UNL     1      -5.598  15.071 122.794  1.00  0.00     0.195 C 
BRANCH  39  40
HETATM   40  C12 UNL     1      -4.568  15.492 123.818  1.00  0.00     0.260 C 
HETATM   41  O6  UNL     1      -3.414  15.138 123.733  1.00  0.00    -0.304 OA
ENDBRANCH  39  40
BRANCH  39  42
HETATM   42  N5  UNL     1      -5.137  15.561 121.523  1.00  0.00    -0.330 N 
HETATM   43  C13 UNL     1      -5.583  16.807 121.041  1.00  0.00     0.329 C 
HETATM   44  N6  UNL     1      -5.137  17.304 119.796  1.00  0.00    -0.040 NA
HETATM   45  O7  UNL     1      -6.392  17.477 121.741  1.00  0.00    -0.251 OA
ATOM     46  H5  UNL     1      -4.485  15.005 120.969  1.00  0.00     0.164 HD
ENDBRANCH  39  42
ENDBRANCH  36  39
ENDBRANCH  34  36
ENDBRANCH  31  34
ENDBRANCH  29  31
ENDBRANCH  28  29
BRANCH  28  47
HETATM   47  C14 UNL     1      -4.953   8.312 124.224  1.00  0.00     0.285 C 
HETATM   48  N7  UNL     1      -4.845   7.037 123.647  1.00  0.00    -0.056 NA
HETATM   49  O8  UNL     1      -4.797   8.463 125.460  1.00  0.00    -0.269 OA
ENDBRANCH  28  47
ENDBRANCH  26  28
ENDBRANCH   1  26
TORSDOF 19
ENDMDL
