MODEL 1
REMARK VINA RESULT: -7.336352336      0.000      0.000
REMARK  20 active torsions:
REMARK  status: ('A' for Active; 'I' for Inactive)
REMARK    1  A    between atoms: O1_2  and  C2_3 
REMARK    2  A    between atoms: C2_3  and  O2_4 
REMARK    3  A    between atoms: C2_3  and  C3_6 
REMARK    4  A    between atoms: C3_6  and  N1_7 
REMARK    5  A    between atoms: C3_6  and  C7_17 
REMARK       I    between atoms: N1_7  and  C4_9 
REMARK    6  A    between atoms: C4_9  and  C5_11 
REMARK    7  A    between atoms: C5_11  and  N2_13 
REMARK       I    between atoms: C7_17  and  N3_19 
REMARK       I    between atoms: N3_19  and  C8_21 
REMARK    8  A    between atoms: C8_21  and  C9_23 
REMARK    9  A    between atoms: C9_23  and  N4_25 
REMARK   10  A    between atoms: N4_25  and  C11_27 
REMARK   11  A    between atoms: C11_27  and  O6_28 
REMARK   12  A    between atoms: C11_27  and  N5_30 
REMARK   13  A    between atoms: N5_30  and  C12_32 
REMARK   14  A    between atoms: C12_32  and  C13_33 
REMARK   15  A    between atoms: C12_32  and  C15_37 
REMARK   16  A    between atoms: C13_33  and  C14_34 
REMARK   17  A    between atoms: C15_37  and  O8_38 
REMARK   18  A    between atoms: C15_37  and  N7_40 
REMARK   19  A    between atoms: N7_40  and  C16_42 
REMARK   20  A    between atoms: C16_42  and  C18_44 
ROOT
HETATM    1  C9  UNL     1      -4.290  11.618 125.078  1.00  0.00     0.169 C 
HETATM    2  C10 UNL     1      -4.079  11.057 126.498  1.00  0.00     0.042 C 
ENDROOT
BRANCH   1   3
HETATM    3  C8  UNL     1      -4.383  13.072 125.241  1.00  0.00     0.246 C 
HETATM    4  N3  UNL     1      -4.466  13.865 124.061  1.00  0.00    -0.294 N 
HETATM    5  C7  UNL     1      -4.555  15.296 124.162  1.00  0.00     0.252 C 
ATOM      6  H3  UNL     1      -4.464  13.417 123.145  1.00  0.00     0.171 HD
HETATM    7  O4  UNL     1      -4.561  15.824 125.296  1.00  0.00    -0.271 OA
HETATM    8  O5  UNL     1      -4.392  13.631 126.348  1.00  0.00    -0.271 OA
BRANCH   5   9
HETATM    9  C3  UNL     1      -4.636  16.138 122.939  1.00  0.00     0.232 C 
BRANCH   9  10
HETATM   10  C2  UNL     1      -6.068  16.287 122.506  1.00  0.00     0.288 C 
BRANCH  10  11
HETATM   11  O1  UNL     1      -6.195  15.943 121.167  1.00  0.00    -0.364 OA
HETATM   12  C1  UNL     1      -7.266  16.651 120.581  1.00  0.00     0.204 C 
ENDBRANCH  10  11
BRANCH  10  13
HETATM   13  O2  UNL     1      -6.905  15.543 123.338  1.00  0.00    -0.369 OA
ATOM     14  H2  UNL     1      -6.666  14.624 123.375  1.00  0.00     0.212 HD
ENDBRANCH  10  13
ENDBRANCH   9  10
BRANCH   9  15
HETATM   15  N1  UNL     1      -3.793  15.553 121.928  1.00  0.00    -0.342 N 
HETATM   16  C4  UNL     1      -2.914  16.374 121.197  1.00  0.00     0.248 C 
HETATM   17  O3  UNL     1      -2.860  17.596 121.417  1.00  0.00    -0.271 OA
ATOM     18  H1  UNL     1      -3.833  14.551 121.744  1.00  0.00     0.163 HD
BRANCH  16  19
HETATM   19  C5  UNL     1      -2.023  15.828 120.145  1.00  0.00     0.270 C 
HETATM   20  C6  UNL     1      -2.160  16.646 118.879  1.00  0.00     0.050 C 
BRANCH  19  21
HETATM   21  N2  UNL     1      -2.258  14.445 119.870  1.00  0.00    -0.067 N 
ATOM     22  H23 UNL     1      -3.170  14.154 120.222  1.00  0.00     0.275 HD
ATOM     23  H22 UNL     1      -2.407  14.293 118.872  1.00  0.00     0.275 HD
ATOM     24  H21 UNL     1      -1.522  13.834 120.225  1.00  0.00     0.275 HD
ENDBRANCH  19  21
ENDBRANCH  16  19
ENDBRANCH   9  15
ENDBRANCH   5   9
ENDBRANCH   1   3
BRANCH   1  25
HETATM   25  N4  UNL     1      -5.406  10.944 124.544  1.00  0.00    -0.368 N 
ATOM     26  H4  UNL     1      -6.352  11.234 124.796  1.00  0.00     0.158 HD
BRANCH  25  27
HETATM   27  C11 UNL     1      -5.203   9.863 123.656  1.00  0.00     0.319 C 
BRANCH  27  28
HETATM   28  O6  UNL     1      -6.387   9.133 123.416  1.00  0.00    -0.360 OA
ATOM     29  H6  UNL     1      -6.806   8.846 124.219  1.00  0.00     0.214 HD
ENDBRANCH  27  28
BRANCH  27  30
HETATM   30  N5  UNL     1      -4.517  10.122 122.440  1.00  0.00    -0.369 N 
ATOM     31  H5  UNL     1      -3.586  10.539 122.442  1.00  0.00     0.158 HD
BRANCH  30  32
HETATM   32  C12 UNL     1      -5.172   9.779 121.205  1.00  0.00     0.163 C 
BRANCH  32  33
HETATM   33  C13 UNL     1      -5.701  10.913 120.462  1.00  0.00     0.132 C 
BRANCH  33  34
HETATM   34  C14 UNL     1      -5.642  12.247 121.109  1.00  0.00     0.233 C 
HETATM   35  N6  UNL     1      -6.679  12.654 121.992  1.00  0.00    -0.062 NA
HETATM   36  O7  UNL     1      -4.698  13.051 120.912  1.00  0.00    -0.277 OA
ENDBRANCH  33  34
ENDBRANCH  32  33
BRANCH  32  37
HETATM   37  C15 UNL     1      -4.378   8.758 120.484  1.00  0.00     0.135 C 
BRANCH  37  38
HETATM   38  O8  UNL     1      -3.764   9.177 119.412  1.00  0.00    -0.348 OA
ATOM     39  H8  UNL     1      -2.901   9.547 119.552  1.00  0.00     0.219 HD
ENDBRANCH  37  38
BRANCH  37  40
HETATM   40  N7  UNL     1      -4.167   7.414 120.738  1.00  0.00    -0.359 N 
ATOM     41  H7  UNL     1      -4.830   6.744 120.348  1.00  0.00     0.162 HD
BRANCH  40  42
HETATM   42  C16 UNL     1      -3.050   6.894 121.534  1.00  0.00     0.180 C 
HETATM   43  C17 UNL     1      -2.660   5.506 121.076  1.00  0.00     0.043 C 
BRANCH  42  44
HETATM   44  C18 UNL     1      -3.411   6.866 122.969  1.00  0.00     0.196 C 
HETATM   45  O9  UNL     1      -2.567   7.247 123.838  1.00  0.00    -0.646 OA
HETATM   46  O10 UNL     1      -4.631   6.444 123.435  1.00  0.00    -0.646 OA
ENDBRANCH  42  44
ENDBRANCH  40  42
ENDBRANCH  37  40
ENDBRANCH  32  37
ENDBRANCH  30  32
ENDBRANCH  27  30
ENDBRANCH  25  27
ENDBRANCH   1  25
TORSDOF 20
ENDMDL
MODEL 2
REMARK VINA RESULT: -7.023933902      2.335      8.009
REMARK  20 active torsions:
REMARK  status: ('A' for Active; 'I' for Inactive)
REMARK    1  A    between atoms: O1_2  and  C2_3 
REMARK    2  A    between atoms: C2_3  and  O2_4 
REMARK    3  A    between atoms: C2_3  and  C3_6 
REMARK    4  A    between atoms: C3_6  and  N1_7 
REMARK    5  A    between atoms: C3_6  and  C7_17 
REMARK       I    between atoms: N1_7  and  C4_9 
REMARK    6  A    between atoms: C4_9  and  C5_11 
REMARK    7  A    between atoms: C5_11  and  N2_13 
REMARK       I    between atoms: C7_17  and  N3_19 
REMARK       I    between atoms: N3_19  and  C8_21 
REMARK    8  A    between atoms: C8_21  and  C9_23 
REMARK    9  A    between atoms: C9_23  and  N4_25 
REMARK   10  A    between atoms: N4_25  and  C11_27 
REMARK   11  A    between atoms: C11_27  and  O6_28 
REMARK   12  A    between atoms: C11_27  and  N5_30 
REMARK   13  A    between atoms: N5_30  and  C12_32 
REMARK   14  A    between atoms: C12_32  and  C13_33 
REMARK   15  A    between atoms: C12_32  and  C15_37 
REMARK   16  A    between atoms: C13_33  and  C14_34 
REMARK   17  A    between atoms: C15_37  and  O8_38 
REMARK   18  A    between atoms: C15_37  and  N7_40 
REMARK   19  A    between atoms: N7_40  and  C16_42 
REMARK   20  A    between atoms: C16_42  and  C18_44 
ROOT
HETATM    1  C9  UNL     1      -5.034  11.336 121.176  1.00  0.00     0.169 C 
HETATM    2  C10 UNL     1      -4.768  10.621 119.837  1.00  0.00     0.042 C 
ENDROOT
BRANCH   1   3
HETATM    3  C8  UNL     1      -4.840  10.316 122.211  1.00  0.00     0.246 C 
HETATM    4  N3  UNL     1      -3.855   9.316 121.976  1.00  0.00    -0.294 N 
HETATM    5  C7  UNL     1      -3.627   8.288 122.955  1.00  0.00     0.252 C 
ATOM      6  H3  UNL     1      -3.311   9.328 121.113  1.00  0.00     0.171 HD
HETATM    7  O4  UNL     1      -4.301   8.295 124.008  1.00  0.00    -0.271 OA
HETATM    8  O5  UNL     1      -5.490  10.291 123.267  1.00  0.00    -0.271 OA
BRANCH   5   9
HETATM    9  C3  UNL     1      -2.606   7.233 122.722  1.00  0.00     0.232 C 
BRANCH   9  10
HETATM   10  C2  UNL     1      -1.276   7.666 123.272  1.00  0.00     0.288 C 
BRANCH  10  11
HETATM   11  O1  UNL     1      -1.244   9.048 123.399  1.00  0.00    -0.364 OA
HETATM   12  C1  UNL     1       0.091   9.507 123.404  1.00  0.00     0.204 C 
ENDBRANCH  10  11
BRANCH  10  13
HETATM   13  O2  UNL     1      -1.010   7.006 124.471  1.00  0.00    -0.369 OA
ATOM     14  H2  UNL     1      -1.186   6.073 124.425  1.00  0.00     0.212 HD
ENDBRANCH  10  13
ENDBRANCH   9  10
BRANCH   9  15
HETATM   15  N1  UNL     1      -2.571   6.938 121.312  1.00  0.00    -0.342 N 
HETATM   16  C4  UNL     1      -2.960   5.664 120.859  1.00  0.00     0.248 C 
HETATM   17  O3  UNL     1      -3.333   4.793 121.664  1.00  0.00    -0.271 OA
ATOM     18  H1  UNL     1      -2.266   7.649 120.647  1.00  0.00     0.163 HD
BRANCH  16  19
HETATM   19  C5  UNL     1      -2.944   5.305 119.420  1.00  0.00     0.270 C 
HETATM   20  C6  UNL     1      -1.516   5.143 118.945  1.00  0.00     0.050 C 
BRANCH  19  21
HETATM   21  N2  UNL     1      -3.639   6.244 118.597  1.00  0.00    -0.067 N 
ATOM     22  H23 UNL     1      -3.499   7.196 118.935  1.00  0.00     0.275 HD
ATOM     23  H22 UNL     1      -3.193   6.325 117.682  1.00  0.00     0.275 HD
ATOM     24  H21 UNL     1      -4.632   6.037 118.500  1.00  0.00     0.275 HD
ENDBRANCH  19  21
ENDBRANCH  16  19
ENDBRANCH   9  15
ENDBRANCH   5   9
ENDBRANCH   1   3
BRANCH   1  25
HETATM   25  N4  UNL     1      -6.308  11.928 121.067  1.00  0.00    -0.368 N 
ATOM     26  H4  UNL     1      -6.977  11.587 120.376  1.00  0.00     0.158 HD
BRANCH  25  27
HETATM   27  C11 UNL     1      -6.650  12.998 121.925  1.00  0.00     0.319 C 
BRANCH  27  28
HETATM   28  O6  UNL     1      -7.531  12.602 122.955  1.00  0.00    -0.360 OA
ATOM     29  H6  UNL     1      -7.307  12.990 123.793  1.00  0.00     0.214 HD
ENDBRANCH  27  28
BRANCH  27  30
HETATM   30  N5  UNL     1      -5.598  13.797 122.444  1.00  0.00    -0.369 N 
ATOM     31  H5  UNL     1      -5.113  13.534 123.302  1.00  0.00     0.158 HD
BRANCH  30  32
HETATM   32  C12 UNL     1      -5.233  14.990 121.724  1.00  0.00     0.163 C 
BRANCH  32  33
HETATM   33  C13 UNL     1      -5.930  16.194 122.152  1.00  0.00     0.132 C 
BRANCH  33  34
HETATM   34  C14 UNL     1      -6.493  17.074 121.099  1.00  0.00     0.233 C 
HETATM   35  N6  UNL     1      -5.683  17.480 120.004  1.00  0.00    -0.062 NA
HETATM   36  O7  UNL     1      -7.680  17.484 121.126  1.00  0.00    -0.277 OA
ENDBRANCH  33  34
ENDBRANCH  32  33
BRANCH  32  37
HETATM   37  C15 UNL     1      -3.764  15.038 121.546  1.00  0.00     0.135 C 
BRANCH  37  38
HETATM   38  O8  UNL     1      -3.067  14.413 122.454  1.00  0.00    -0.348 OA
ATOM     39  H8  UNL     1      -2.284  13.976 122.140  1.00  0.00     0.219 HD
ENDBRANCH  37  38
BRANCH  37  40
HETATM   40  N7  UNL     1      -2.978  15.640 120.579  1.00  0.00    -0.359 N 
ATOM     41  H7  UNL     1      -3.358  15.722 119.637  1.00  0.00     0.162 HD
BRANCH  40  42
HETATM   42  C16 UNL     1      -1.631  16.168 120.827  1.00  0.00     0.180 C 
HETATM   43  C17 UNL     1      -1.503  17.585 120.315  1.00  0.00     0.043 C 
BRANCH  42  44
HETATM   44  C18 UNL     1      -0.616  15.306 120.180  1.00  0.00     0.196 C 
HETATM   45  O9  UNL     1      -0.985  14.390 119.382  1.00  0.00    -0.646 OA
HETATM   46  O10 UNL     1       0.734  15.437 120.391  1.00  0.00    -0.646 OA
ENDBRANCH  42  44
ENDBRANCH  40  42
ENDBRANCH  37  40
ENDBRANCH  32  37
ENDBRANCH  30  32
ENDBRANCH  27  30
ENDBRANCH  25  27
ENDBRANCH   1  25
TORSDOF 20
ENDMDL
MODEL 3
REMARK VINA RESULT: -6.996681979      2.014      8.432
REMARK  20 active torsions:
REMARK  status: ('A' for Active; 'I' for Inactive)
REMARK    1  A    between atoms: O1_2  and  C2_3 
REMARK    2  A    between atoms: C2_3  and  O2_4 
REMARK    3  A    between atoms: C2_3  and  C3_6 
REMARK    4  A    between atoms: C3_6  and  N1_7 
REMARK    5  A    between atoms: C3_6  and  C7_17 
REMARK       I    between atoms: N1_7  and  C4_9 
REMARK    6  A    between atoms: C4_9  and  C5_11 
REMARK    7  A    between atoms: C5_11  and  N2_13 
REMARK       I    between atoms: C7_17  and  N3_19 
REMARK       I    between atoms: N3_19  and  C8_21 
REMARK    8  A    between atoms: C8_21  and  C9_23 
REMARK    9  A    between atoms: C9_23  and  N4_25 
REMARK   10  A    between atoms: N4_25  and  C11_27 
REMARK   11  A    between atoms: C11_27  and  O6_28 
REMARK   12  A    between atoms: C11_27  and  N5_30 
REMARK   13  A    between atoms: N5_30  and  C12_32 
REMARK   14  A    between atoms: C12_32  and  C13_33 
REMARK   15  A    between atoms: C12_32  and  C15_37 
REMARK   16  A    between atoms: C13_33  and  C14_34 
REMARK   17  A    between atoms: C15_37  and  O8_38 
REMARK   18  A    between atoms: C15_37  and  N7_40 
REMARK   19  A    between atoms: N7_40  and  C16_42 
REMARK   20  A    between atoms: C16_42  and  C18_44 
ROOT
HETATM    1  C9  UNL     1      -5.195  10.786 120.760  1.00  0.00     0.169 C 
HETATM    2  C10 UNL     1      -4.917  10.314 119.320  1.00  0.00     0.042 C 
ENDROOT
BRANCH   1   3
HETATM    3  C8  UNL     1      -5.173   9.572 121.582  1.00  0.00     0.246 C 
HETATM    4  N3  UNL     1      -3.970   8.811 121.604  1.00  0.00    -0.294 N 
HETATM    5  C7  UNL     1      -3.894   7.609 122.389  1.00  0.00     0.252 C 
ATOM      6  H3  UNL     1      -3.162   9.118 121.061  1.00  0.00     0.171 HD
HETATM    7  O4  UNL     1      -4.894   7.253 123.049  1.00  0.00    -0.271 OA
HETATM    8  O5  UNL     1      -6.145   9.187 122.250  1.00  0.00    -0.271 OA
BRANCH   5   9
HETATM    9  C3  UNL     1      -2.646   6.800 122.416  1.00  0.00     0.232 C 
BRANCH   9  10
HETATM   10  C2  UNL     1      -1.561   7.545 123.142  1.00  0.00     0.288 C 
BRANCH  10  11
HETATM   11  O1  UNL     1      -1.921   8.876 123.296  1.00  0.00    -0.364 OA
HETATM   12  C1  UNL     1      -0.807   9.713 123.069  1.00  0.00     0.204 C 
ENDBRANCH  10  11
BRANCH  10  13
HETATM   13  O2  UNL     1      -1.273   6.919 124.355  1.00  0.00    -0.369 OA
ATOM     14  H2  UNL     1      -1.906   6.248 124.583  1.00  0.00     0.212 HD
ENDBRANCH  10  13
ENDBRANCH   9  10
BRANCH   9  15
HETATM   15  N1  UNL     1      -2.296   6.460 121.062  1.00  0.00    -0.342 N 
HETATM   16  C4  UNL     1      -2.698   5.220 120.531  1.00  0.00     0.248 C 
HETATM   17  O3  UNL     1      -3.352   4.419 121.220  1.00  0.00    -0.271 OA
ATOM     18  H1  UNL     1      -1.760   7.113 120.491  1.00  0.00     0.163 HD
BRANCH  16  19
HETATM   19  C5  UNL     1      -2.365   4.816 119.143  1.00  0.00     0.270 C 
HETATM   20  C6  UNL     1      -0.928   4.345 119.074  1.00  0.00     0.050 C 
BRANCH  19  21
HETATM   21  N2  UNL     1      -2.596   5.850 118.184  1.00  0.00    -0.067 N 
ATOM     22  H23 UNL     1      -2.338   6.761 118.563  1.00  0.00     0.275 HD
ATOM     23  H22 UNL     1      -1.925   5.791 117.418  1.00  0.00     0.275 HD
ATOM     24  H21 UNL     1      -3.552   5.863 117.829  1.00  0.00     0.275 HD
ENDBRANCH  19  21
ENDBRANCH  16  19
ENDBRANCH   9  15
ENDBRANCH   5   9
ENDBRANCH   1   3
BRANCH   1  25
HETATM   25  N4  UNL     1      -6.394  11.525 120.714  1.00  0.00    -0.368 N 
ATOM     26  H4  UNL     1      -7.172  11.209 120.135  1.00  0.00     0.158 HD
BRANCH  25  27
HETATM   27  C11 UNL     1      -6.507  12.709 121.478  1.00  0.00     0.319 C 
BRANCH  27  28
HETATM   28  O6  UNL     1      -7.531  12.629 122.446  1.00  0.00    -0.360 OA
ATOM     29  H6  UNL     1      -7.920  13.476 122.634  1.00  0.00     0.214 HD
ENDBRANCH  27  28
BRANCH  27  30
HETATM   30  N5  UNL     1      -5.323  13.252 122.042  1.00  0.00    -0.369 N 
ATOM     31  H5  UNL     1      -4.453  13.279 121.510  1.00  0.00     0.158 HD
BRANCH  30  32
HETATM   32  C12 UNL     1      -5.384  13.763 123.387  1.00  0.00     0.163 C 
BRANCH  32  33
HETATM   33  C13 UNL     1      -4.399  13.199 124.297  1.00  0.00     0.132 C 
BRANCH  33  34
HETATM   34  C14 UNL     1      -4.589  11.794 124.731  1.00  0.00     0.233 C 
HETATM   35  N6  UNL     1      -3.508  11.078 125.314  1.00  0.00    -0.062 NA
HETATM   36  O7  UNL     1      -5.685  11.192 124.609  1.00  0.00    -0.277 OA
ENDBRANCH  33  34
ENDBRANCH  32  33
BRANCH  32  37
HETATM   37  C15 UNL     1      -5.572  15.232 123.356  1.00  0.00     0.135 C 
BRANCH  37  38
HETATM   38  O8  UNL     1      -6.798  15.646 123.512  1.00  0.00    -0.348 OA
ATOM     39  H8  UNL     1      -7.081  16.327 122.913  1.00  0.00     0.219 HD
ENDBRANCH  37  38
BRANCH  37  40
HETATM   40  N7  UNL     1      -4.669  16.267 123.182  1.00  0.00    -0.359 N 
ATOM     41  H7  UNL     1      -4.417  16.823 123.999  1.00  0.00     0.162 HD
BRANCH  40  42
HETATM   42  C16 UNL     1      -4.054  16.613 121.896  1.00  0.00     0.180 C 
HETATM   43  C17 UNL     1      -2.868  17.531 122.094  1.00  0.00     0.043 C 
BRANCH  42  44
HETATM   44  C18 UNL     1      -5.047  17.260 121.009  1.00  0.00     0.196 C 
HETATM   45  O9  UNL     1      -6.049  17.853 121.515  1.00  0.00    -0.646 OA
HETATM   46  O10 UNL     1      -4.953  17.261 119.640  1.00  0.00    -0.646 OA
ENDBRANCH  42  44
ENDBRANCH  40  42
ENDBRANCH  37  40
ENDBRANCH  32  37
ENDBRANCH  30  32
ENDBRANCH  27  30
ENDBRANCH  25  27
ENDBRANCH   1  25
TORSDOF 20
ENDMDL
MODEL 4
REMARK VINA RESULT: -6.796561669      2.161      8.277
REMARK  20 active torsions:
REMARK  status: ('A' for Active; 'I' for Inactive)
REMARK    1  A    between atoms: O1_2  and  C2_3 
REMARK    2  A    between atoms: C2_3  and  O2_4 
REMARK    3  A    between atoms: C2_3  and  C3_6 
REMARK    4  A    between atoms: C3_6  and  N1_7 
REMARK    5  A    between atoms: C3_6  and  C7_17 
REMARK       I    between atoms: N1_7  and  C4_9 
REMARK    6  A    between atoms: C4_9  and  C5_11 
REMARK    7  A    between atoms: C5_11  and  N2_13 
REMARK       I    between atoms: C7_17  and  N3_19 
REMARK       I    between atoms: N3_19  and  C8_21 
REMARK    8  A    between atoms: C8_21  and  C9_23 
REMARK    9  A    between atoms: C9_23  and  N4_25 
REMARK   10  A    between atoms: N4_25  and  C11_27 
REMARK   11  A    between atoms: C11_27  and  O6_28 
REMARK   12  A    between atoms: C11_27  and  N5_30 
REMARK   13  A    between atoms: N5_30  and  C12_32 
REMARK   14  A    between atoms: C12_32  and  C13_33 
REMARK   15  A    between atoms: C12_32  and  C15_37 
REMARK   16  A    between atoms: C13_33  and  C14_34 
REMARK   17  A    between atoms: C15_37  and  O8_38 
REMARK   18  A    between atoms: C15_37  and  N7_40 
REMARK   19  A    between atoms: N7_40  and  C16_42 
REMARK   20  A    between atoms: C16_42  and  C18_44 
ROOT
HETATM    1  C9  UNL     1      -5.196  11.342 123.200  1.00  0.00     0.169 C 
HETATM    2  C10 UNL     1      -3.889  11.711 123.928  1.00  0.00     0.042 C 
ENDROOT
BRANCH   1   3
HETATM    3  C8  UNL     1      -5.186   9.881 123.090  1.00  0.00     0.246 C 
HETATM    4  N3  UNL     1      -3.961   9.254 122.723  1.00  0.00    -0.294 N 
HETATM    5  C7  UNL     1      -3.896   7.824 122.596  1.00  0.00     0.252 C 
ATOM      6  H3  UNL     1      -3.131   9.821 122.549  1.00  0.00     0.171 HD
HETATM    7  O4  UNL     1      -4.924   7.149 122.818  1.00  0.00    -0.271 OA
HETATM    8  O5  UNL     1      -6.186   9.178 123.302  1.00  0.00    -0.271 OA
BRANCH   5   9
HETATM    9  C3  UNL     1      -2.626   7.155 122.207  1.00  0.00     0.232 C 
BRANCH   9  10
HETATM   10  C2  UNL     1      -1.459   8.067 122.464  1.00  0.00     0.288 C 
BRANCH  10  11
HETATM   11  O1  UNL     1      -1.169   8.093 123.822  1.00  0.00    -0.364 OA
HETATM   12  C1  UNL     1       0.025   7.385 124.079  1.00  0.00     0.204 C 
ENDBRANCH  10  11
BRANCH  10  13
HETATM   13  O2  UNL     1      -0.367   7.687 121.684  1.00  0.00    -0.369 OA
ATOM     14  H2  UNL     1      -0.607   7.484 120.788  1.00  0.00     0.212 HD
ENDBRANCH  10  13
ENDBRANCH   9  10
BRANCH   9  15
HETATM   15  N1  UNL     1      -2.733   6.742 120.832  1.00  0.00    -0.342 N 
HETATM   16  C4  UNL     1      -2.768   5.370 120.519  1.00  0.00     0.248 C 
HETATM   17  O3  UNL     1      -2.709   4.515 121.420  1.00  0.00    -0.271 OA
ATOM     18  H1  UNL     1      -2.783   7.439 120.089  1.00  0.00     0.163 HD
BRANCH  16  19
HETATM   19  C5  UNL     1      -2.878   4.886 119.122  1.00  0.00     0.270 C 
HETATM   20  C6  UNL     1      -1.784   3.878 118.839  1.00  0.00     0.050 C 
BRANCH  19  21
HETATM   21  N2  UNL     1      -2.845   5.939 118.156  1.00  0.00    -0.067 N 
ATOM     22  H23 UNL     1      -2.967   5.572 117.213  1.00  0.00     0.275 HD
ATOM     23  H22 UNL     1      -3.684   6.517 118.220  1.00  0.00     0.275 HD
ATOM     24  H21 UNL     1      -2.004   6.514 118.216  1.00  0.00     0.275 HD
ENDBRANCH  19  21
ENDBRANCH  16  19
ENDBRANCH   9  15
ENDBRANCH   5   9
ENDBRANCH   1   3
BRANCH   1  25
HETATM   25  N4  UNL     1      -5.213  12.091 122.006  1.00  0.00    -0.368 N 
ATOM     26  H4  UNL     1      -4.425  12.045 121.358  1.00  0.00     0.158 HD
BRANCH  25  27
HETATM   27  C11 UNL     1      -6.331  12.904 121.714  1.00  0.00     0.319 C 
BRANCH  27  28
HETATM   28  O6  UNL     1      -7.403  12.686 122.606  1.00  0.00    -0.360 OA
ATOM     29  H6  UNL     1      -8.223  12.519 122.154  1.00  0.00     0.214 HD
ENDBRANCH  27  28
BRANCH  27  30
HETATM   30  N5  UNL     1      -6.110  14.294 121.524  1.00  0.00    -0.369 N 
ATOM     31  H5  UNL     1      -6.666  14.826 120.854  1.00  0.00     0.158 HD
BRANCH  30  32
HETATM   32  C12 UNL     1      -5.081  14.931 122.304  1.00  0.00     0.163 C 
BRANCH  32  33
HETATM   33  C13 UNL     1      -4.366  15.995 121.614  1.00  0.00     0.132 C 
BRANCH  33  34
HETATM   34  C14 UNL     1      -5.169  16.977 120.846  1.00  0.00     0.233 C 
HETATM   35  N6  UNL     1      -6.250  17.655 121.471  1.00  0.00    -0.062 NA
HETATM   36  O7  UNL     1      -4.933  17.247 119.642  1.00  0.00    -0.277 OA
ENDBRANCH  33  34
ENDBRANCH  32  33
BRANCH  32  37
HETATM   37  C15 UNL     1      -5.573  15.174 123.679  1.00  0.00     0.135 C 
BRANCH  37  38
HETATM   38  O8  UNL     1      -6.764  15.697 123.766  1.00  0.00    -0.348 OA
ATOM     39  H8  UNL     1      -6.791  16.619 123.995  1.00  0.00     0.219 HD
ENDBRANCH  37  38
BRANCH  37  40
HETATM   40  N7  UNL     1      -4.988  14.949 124.914  1.00  0.00    -0.359 N 
ATOM     41  H7  UNL     1      -5.266  14.115 125.430  1.00  0.00     0.162 HD
BRANCH  40  42
HETATM   42  C16 UNL     1      -3.993  15.838 125.525  1.00  0.00     0.180 C 
HETATM   43  C17 UNL     1      -2.622  15.199 125.519  1.00  0.00     0.043 C 
BRANCH  42  44
HETATM   44  C18 UNL     1      -4.386  16.170 126.913  1.00  0.00     0.196 C 
HETATM   45  O9  UNL     1      -5.605  16.084 127.259  1.00  0.00    -0.646 OA
HETATM   46  O10 UNL     1      -3.496  16.576 127.876  1.00  0.00    -0.646 OA
ENDBRANCH  42  44
ENDBRANCH  40  42
ENDBRANCH  37  40
ENDBRANCH  32  37
ENDBRANCH  30  32
ENDBRANCH  27  30
ENDBRANCH  25  27
ENDBRANCH   1  25
TORSDOF 20
ENDMDL
MODEL 5
REMARK VINA RESULT: -6.785477229      1.783      2.193
REMARK  20 active torsions:
REMARK  status: ('A' for Active; 'I' for Inactive)
REMARK    1  A    between atoms: O1_2  and  C2_3 
REMARK    2  A    between atoms: C2_3  and  O2_4 
REMARK    3  A    between atoms: C2_3  and  C3_6 
REMARK    4  A    between atoms: C3_6  and  N1_7 
REMARK    5  A    between atoms: C3_6  and  C7_17 
REMARK       I    between atoms: N1_7  and  C4_9 
REMARK    6  A    between atoms: C4_9  and  C5_11 
REMARK    7  A    between atoms: C5_11  and  N2_13 
REMARK       I    between atoms: C7_17  and  N3_19 
REMARK       I    between atoms: N3_19  and  C8_21 
REMARK    8  A    between atoms: C8_21  and  C9_23 
REMARK    9  A    between atoms: C9_23  and  N4_25 
REMARK   10  A    between atoms: N4_25  and  C11_27 
REMARK   11  A    between atoms: C11_27  and  O6_28 
REMARK   12  A    between atoms: C11_27  and  N5_30 
REMARK   13  A    between atoms: N5_30  and  C12_32 
REMARK   14  A    between atoms: C12_32  and  C13_33 
REMARK   15  A    between atoms: C12_32  and  C15_37 
REMARK   16  A    between atoms: C13_33  and  C14_34 
REMARK   17  A    between atoms: C15_37  and  O8_38 
REMARK   18  A    between atoms: C15_37  and  N7_40 
REMARK   19  A    between atoms: N7_40  and  C16_42 
REMARK   20  A    between atoms: C16_42  and  C18_44 
ROOT
HETATM    1  C9  UNL     1      -4.780  11.028 123.846  1.00  0.00     0.169 C 
HETATM    2  C10 UNL     1      -5.166  11.576 125.233  1.00  0.00     0.042 C 
ENDROOT
BRANCH   1   3
HETATM    3  C8  UNL     1      -5.358  11.967 122.879  1.00  0.00     0.246 C 
HETATM    4  N3  UNL     1      -4.878  13.307 122.891  1.00  0.00    -0.294 N 
HETATM    5  C7  UNL     1      -5.413  14.270 121.967  1.00  0.00     0.252 C 
ATOM      6  H3  UNL     1      -4.154  13.583 123.554  1.00  0.00     0.171 HD
HETATM    7  O4  UNL     1      -6.296  13.909 121.159  1.00  0.00    -0.271 OA
HETATM    8  O5  UNL     1      -6.235  11.645 122.063  1.00  0.00    -0.271 OA
BRANCH   5   9
HETATM    9  C3  UNL     1      -4.926  15.675 121.972  1.00  0.00     0.232 C 
BRANCH   9  10
HETATM   10  C2  UNL     1      -6.088  16.627 122.027  1.00  0.00     0.288 C 
BRANCH  10  11
HETATM   11  O1  UNL     1      -6.413  17.052 120.746  1.00  0.00    -0.364 OA
HETATM   12  C1  UNL     1      -7.779  16.816 120.485  1.00  0.00     0.204 C 
ENDBRANCH  10  11
BRANCH  10  13
HETATM   13  O2  UNL     1      -7.164  16.039 122.691  1.00  0.00    -0.369 OA
ATOM     14  H2  UNL     1      -7.157  16.206 123.626  1.00  0.00     0.212 HD
ENDBRANCH  10  13
ENDBRANCH   9  10
BRANCH   9  15
HETATM   15  N1  UNL     1      -4.085  15.868 120.818  1.00  0.00    -0.342 N 
HETATM   16  C4  UNL     1      -2.686  15.860 120.969  1.00  0.00     0.248 C 
HETATM   17  O3  UNL     1      -2.172  15.688 122.088  1.00  0.00    -0.271 OA
ATOM     18  H1  UNL     1      -4.502  16.009 119.898  1.00  0.00     0.163 HD
BRANCH  16  19
HETATM   19  C5  UNL     1      -1.772  16.054 119.818  1.00  0.00     0.270 C 
HETATM   20  C6  UNL     1      -1.852  17.486 119.332  1.00  0.00     0.050 C 
BRANCH  19  21
HETATM   21  N2  UNL     1      -2.022  15.149 118.741  1.00  0.00    -0.067 N 
ATOM     22  H23 UNL     1      -2.935  14.705 118.844  1.00  0.00     0.275 HD
ATOM     23  H22 UNL     1      -2.181  15.656 117.869  1.00  0.00     0.275 HD
ATOM     24  H21 UNL     1      -1.290  14.449 118.625  1.00  0.00     0.275 HD
ENDBRANCH  19  21
ENDBRANCH  16  19
ENDBRANCH   9  15
ENDBRANCH   5   9
ENDBRANCH   1   3
BRANCH   1  25
HETATM   25  N4  UNL     1      -5.222   9.691 123.807  1.00  0.00    -0.368 N 
ATOM     26  H4  UNL     1      -5.974   9.379 124.422  1.00  0.00     0.158 HD
BRANCH  25  27
HETATM   27  C11 UNL     1      -4.612   8.786 122.909  1.00  0.00     0.319 C 
BRANCH  27  28
HETATM   28  O6  UNL     1      -5.542   7.896 122.327  1.00  0.00    -0.360 OA
ATOM     29  H6  UNL     1      -5.658   7.105 122.841  1.00  0.00     0.214 HD
ENDBRANCH  27  28
BRANCH  27  30
HETATM   30  N5  UNL     1      -3.738   9.314 121.923  1.00  0.00    -0.369 N 
ATOM     31  H5  UNL     1      -2.898   9.828 122.188  1.00  0.00     0.158 HD
BRANCH  30  32
HETATM   32  C12 UNL     1      -4.072   9.106 120.538  1.00  0.00     0.163 C 
BRANCH  32  33
HETATM   33  C13 UNL     1      -4.069  10.312 119.724  1.00  0.00     0.132 C 
BRANCH  33  34
HETATM   34  C14 UNL     1      -3.107  11.382 120.083  1.00  0.00     0.233 C 
HETATM   35  N6  UNL     1      -1.791  11.044 120.500  1.00  0.00    -0.062 NA
HETATM   36  O7  UNL     1      -3.404  12.601 120.032  1.00  0.00    -0.277 OA
ENDBRANCH  33  34
ENDBRANCH  32  33
BRANCH  32  37
HETATM   37  C15 UNL     1      -3.378   7.899 120.033  1.00  0.00     0.135 C 
BRANCH  37  38
HETATM   38  O8  UNL     1      -2.257   8.117 119.405  1.00  0.00    -0.348 OA
ATOM     39  H8  UNL     1      -2.286   8.004 118.462  1.00  0.00     0.219 HD
ENDBRANCH  37  38
BRANCH  37  40
HETATM   40  N7  UNL     1      -3.710   6.557 120.099  1.00  0.00    -0.359 N 
ATOM     41  H7  UNL     1      -4.679   6.294 119.918  1.00  0.00     0.162 HD
BRANCH  40  42
HETATM   42  C16 UNL     1      -2.754   5.489 120.413  1.00  0.00     0.180 C 
HETATM   43  C17 UNL     1      -3.113   4.212 119.688  1.00  0.00     0.043 C 
BRANCH  42  44
HETATM   44  C18 UNL     1      -2.719   5.245 121.873  1.00  0.00     0.196 C 
HETATM   45  O9  UNL     1      -1.696   4.702 122.395  1.00  0.00    -0.646 OA
HETATM   46  O10 UNL     1      -3.745   5.575 122.721  1.00  0.00    -0.646 OA
ENDBRANCH  42  44
ENDBRANCH  40  42
ENDBRANCH  37  40
ENDBRANCH  32  37
ENDBRANCH  30  32
ENDBRANCH  27  30
ENDBRANCH  25  27
ENDBRANCH   1  25
TORSDOF 20
ENDMDL
