MODEL 1
REMARK VINA RESULT: -7.285059895      0.000      0.000
REMARK  20 active torsions:
REMARK  status: ('A' for Active; 'I' for Inactive)
REMARK    1  A    between atoms: O1_2  and  C2_3 
REMARK    2  A    between atoms: C2_3  and  C3_5 
REMARK    3  A    between atoms: C3_5  and  C4_6 
REMARK    4  A    between atoms: C3_5  and  N3_15 
REMARK    5  A    between atoms: C4_6  and  C5_7 
REMARK    6  A    between atoms: C5_7  and  N1_8 
REMARK    7  A    between atoms: C5_7  and  C6_12 
REMARK       I    between atoms: N3_15  and  C7_17 
REMARK    8  A    between atoms: C7_17  and  C8_19 
REMARK    9  A    between atoms: C8_19  and  C9_20 
REMARK   10  A    between atoms: C9_20  and  C10_21 
REMARK   11  A    between atoms: C9_20  and  C11_28 
REMARK   12  A    between atoms: C10_21  and  N4_22 
REMARK   13  A    between atoms: C10_21  and  O5_26 
REMARK   14  A    between atoms: C11_28  and  N5_29 
REMARK   15  A    between atoms: C11_28  and  O8_48 
REMARK   16  A    between atoms: N5_29  and  C12_31 
REMARK   17  A    between atoms: C13_32  and  N6_33 
REMARK       I    between atoms: N6_33  and  C14_35 
REMARK   18  A    between atoms: C16_41  and  O6_42 
REMARK   19  A    between atoms: C17_44  and  C18_45 
REMARK   20  A    between atoms: C18_45  and  O7_46 
ROOT
HETATM    1  C9  UNL     1      -4.306  11.766 122.427  1.00  0.00     0.099 C 
ENDROOT
BRANCH   1   2
HETATM    2  C8  UNL     1      -5.553  12.617 122.458  1.00  0.00     0.116 C 
BRANCH   2   3
HETATM    3  C7  UNL     1      -5.410  14.053 122.681  1.00  0.00     0.218 C 
HETATM    4  N3  UNL     1      -5.041  14.865 121.578  1.00  0.00    -0.347 N 
ATOM      5  H3  UNL     1      -4.884  14.416 120.676  1.00  0.00     0.163 HD
HETATM    6  O4  UNL     1      -5.592  14.609 123.777  1.00  0.00    -0.274 OA
BRANCH   4   7
HETATM    7  C3  UNL     1      -4.881  16.262 121.668  1.00  0.00     0.186 C 
BRANCH   7   8
HETATM    8  C2  UNL     1      -5.802  17.068 120.815  1.00  0.00     0.281 C 
HETATM    9  O2  UNL     1      -5.429  17.574 119.737  1.00  0.00    -0.263 OA
BRANCH   8  10
HETATM   10  O1  UNL     1      -7.092  17.247 121.243  1.00  0.00    -0.325 OA
HETATM   11  C1  UNL     1      -8.212  16.608 120.670  1.00  0.00     0.213 C 
ENDBRANCH   8  10
ENDBRANCH   7   8
BRANCH   7  12
HETATM   12  C4  UNL     1      -3.466  16.676 121.392  1.00  0.00     0.077 C 
BRANCH  12  13
HETATM   13  C5  UNL     1      -2.729  15.675 120.528  1.00  0.00     0.274 C 
BRANCH  13  14
HETATM   14  N1  UNL     1      -2.725  16.240 119.154  1.00  0.00    -0.067 N 
ATOM     15  H13 UNL     1      -3.184  15.642 118.467  1.00  0.00     0.275 HD
ATOM     16  H12 UNL     1      -3.338  17.048 119.046  1.00  0.00     0.275 HD
ATOM     17  H11 UNL     1      -1.749  16.438 118.932  1.00  0.00     0.275 HD
ENDBRANCH  13  14
BRANCH  13  18
HETATM   18  C6  UNL     1      -1.330  15.595 120.939  1.00  0.00     0.261 C 
HETATM   19  N2  UNL     1      -0.262  15.040 120.176  1.00  0.00    -0.060 NA
HETATM   20  O3  UNL     1      -1.001  16.062 122.088  1.00  0.00    -0.275 OA
ENDBRANCH  13  18
ENDBRANCH  12  13
ENDBRANCH   7  12
ENDBRANCH   4   7
ENDBRANCH   2   3
ENDBRANCH   1   2
BRANCH   1  21
HETATM   21  C10 UNL     1      -4.480  10.759 121.340  1.00  0.00     0.324 C 
BRANCH  21  22
HETATM   22  N4  UNL     1      -3.564   9.621 121.509  1.00  0.00    -0.053 N 
ATOM     23  H43 UNL     1      -3.702   9.160 122.408  1.00  0.00     0.277 HD
ATOM     24  H42 UNL     1      -3.814   8.846 120.894  1.00  0.00     0.277 HD
ATOM     25  H41 UNL     1      -2.592   9.903 121.379  1.00  0.00     0.277 HD
ENDBRANCH  21  22
BRANCH  21  26
HETATM   26  O5  UNL     1      -5.737  10.218 121.333  1.00  0.00    -0.369 OA
ATOM     27  H5  UNL     1      -5.869   9.625 120.602  1.00  0.00     0.212 HD
ENDBRANCH  21  26
ENDBRANCH   1  21
BRANCH   1  28
HETATM   28  C11 UNL     1      -4.120  11.199 123.791  1.00  0.00     0.224 C 
BRANCH  28  29
HETATM   29  N5  UNL     1      -3.994  12.011 124.908  1.00  0.00    -0.390 N 
ATOM     30  H5  UNL     1      -4.836  12.540 125.133  1.00  0.00     0.156 HD
BRANCH  29  31
HETATM   31  C12 UNL     1      -2.957  12.234 125.760  1.00  0.00     0.110 C 
HETATM   32  C13 UNL     1      -3.432  13.250 126.838  1.00  0.00     0.109 C 
HETATM   33  C15 UNL     1      -4.162  12.378 127.786  1.00  0.00     0.059 C 
HETATM   34  C16 UNL     1      -3.142  11.260 127.999  1.00  0.00     0.128 C 
HETATM   35  C17 UNL     1      -2.497  11.126 126.652  1.00  0.00     0.062 C 
BRANCH  32  36
HETATM   36  N6  UNL     1      -4.068  14.388 126.331  1.00  0.00    -0.358 N 
HETATM   37  C14 UNL     1      -4.164  15.701 126.860  1.00  0.00     0.182 C 
HETATM   38  N7  UNL     1      -3.193  16.542 126.832  1.00  0.00    -0.374 N 
HETATM   39  N8  UNL     1      -5.391  16.135 127.444  1.00  0.00    -0.064 NA
ATOM     40  H72 UNL     1      -2.316  16.231 126.414  1.00  0.00     0.158 HD
ATOM     41  H71 UNL     1      -3.262  17.486 127.213  1.00  0.00     0.158 HD
ATOM     42  H6  UNL     1      -4.538  14.252 125.436  1.00  0.00     0.162 HD
ENDBRANCH  32  36
BRANCH  34  43
HETATM   43  O6  UNL     1      -3.830  10.118 128.385  1.00  0.00    -0.395 OA
ATOM     44  H6  UNL     1      -3.442   9.798 129.191  1.00  0.00     0.210 HD
ENDBRANCH  34  43
BRANCH  35  45
HETATM   45  C18 UNL     1      -0.996  11.148 126.801  1.00  0.00     0.173 C 
BRANCH  45  46
HETATM   46  O7  UNL     1      -0.442  10.000 127.304  1.00  0.00    -0.400 OA
ATOM     47  H7  UNL     1       0.354  10.122 127.808  1.00  0.00     0.209 HD
ENDBRANCH  45  46
ENDBRANCH  35  45
ENDBRANCH  29  31
ENDBRANCH  28  29
BRANCH  28  48
HETATM   48  O8  UNL     1      -5.239  10.370 124.042  1.00  0.00    -0.371 OA
HETATM   49  C19 UNL     1      -4.893   9.197 124.708  1.00  0.00     0.204 C 
ENDBRANCH  28  48
ENDBRANCH   1  28
TORSDOF 20
ENDMDL
MODEL 2
REMARK VINA RESULT: -7.135112002      2.472      5.264
REMARK  20 active torsions:
REMARK  status: ('A' for Active; 'I' for Inactive)
REMARK    1  A    between atoms: O1_2  and  C2_3 
REMARK    2  A    between atoms: C2_3  and  C3_5 
REMARK    3  A    between atoms: C3_5  and  C4_6 
REMARK    4  A    between atoms: C3_5  and  N3_15 
REMARK    5  A    between atoms: C4_6  and  C5_7 
REMARK    6  A    between atoms: C5_7  and  N1_8 
REMARK    7  A    between atoms: C5_7  and  C6_12 
REMARK       I    between atoms: N3_15  and  C7_17 
REMARK    8  A    between atoms: C7_17  and  C8_19 
REMARK    9  A    between atoms: C8_19  and  C9_20 
REMARK   10  A    between atoms: C9_20  and  C10_21 
REMARK   11  A    between atoms: C9_20  and  C11_28 
REMARK   12  A    between atoms: C10_21  and  N4_22 
REMARK   13  A    between atoms: C10_21  and  O5_26 
REMARK   14  A    between atoms: C11_28  and  N5_29 
REMARK   15  A    between atoms: C11_28  and  O8_48 
REMARK   16  A    between atoms: N5_29  and  C12_31 
REMARK   17  A    between atoms: C13_32  and  N6_33 
REMARK       I    between atoms: N6_33  and  C14_35 
REMARK   18  A    between atoms: C16_41  and  O6_42 
REMARK   19  A    between atoms: C17_44  and  C18_45 
REMARK   20  A    between atoms: C18_45  and  O7_46 
ROOT
HETATM    1  C9  UNL     1      -4.654  12.947 123.580  1.00  0.00     0.099 C 
ENDROOT
BRANCH   1   2
HETATM    2  C8  UNL     1      -4.366  14.106 124.503  1.00  0.00     0.116 C 
BRANCH   2   3
HETATM    3  C7  UNL     1      -4.113  15.419 123.914  1.00  0.00     0.218 C 
HETATM    4  N3  UNL     1      -4.409  15.600 122.539  1.00  0.00    -0.347 N 
ATOM      5  H3  UNL     1      -4.779  14.808 122.014  1.00  0.00     0.163 HD
HETATM    6  O4  UNL     1      -3.657  16.388 124.543  1.00  0.00    -0.274 OA
BRANCH   4   7
HETATM    7  C3  UNL     1      -4.216  16.821 121.863  1.00  0.00     0.186 C 
BRANCH   7   8
HETATM    8  C2  UNL     1      -5.294  17.198 120.902  1.00  0.00     0.281 C 
HETATM    9  O2  UNL     1      -5.069  17.353 119.685  1.00  0.00    -0.263 OA
BRANCH   8  10
HETATM   10  O1  UNL     1      -6.564  17.374 121.390  1.00  0.00    -0.325 OA
HETATM   11  C1  UNL     1      -7.711  16.756 120.850  1.00  0.00     0.213 C 
ENDBRANCH   8  10
ENDBRANCH   7   8
BRANCH   7  12
HETATM   12  C4  UNL     1      -2.893  16.860 121.157  1.00  0.00     0.077 C 
BRANCH  12  13
HETATM   13  C5  UNL     1      -2.508  15.516 120.576  1.00  0.00     0.274 C 
BRANCH  13  14
HETATM   14  N1  UNL     1      -2.452  15.704 119.103  1.00  0.00    -0.067 N 
ATOM     15  H13 UNL     1      -3.045  16.463 118.767  1.00  0.00     0.275 HD
ATOM     16  H12 UNL     1      -1.564  16.085 118.777  1.00  0.00     0.275 HD
ATOM     17  H11 UNL     1      -2.682  14.798 118.693  1.00  0.00     0.275 HD
ENDBRANCH  13  14
BRANCH  13  18
HETATM   18  C6  UNL     1      -1.155  15.161 120.993  1.00  0.00     0.261 C 
HETATM   19  N2  UNL     1      -0.700  15.023 122.337  1.00  0.00    -0.060 NA
HETATM   20  O3  UNL     1      -0.272  14.945 120.088  1.00  0.00    -0.275 OA
ENDBRANCH  13  18
ENDBRANCH  12  13
ENDBRANCH   7  12
ENDBRANCH   4   7
ENDBRANCH   2   3
ENDBRANCH   1   2
BRANCH   1  21
HETATM   21  C10 UNL     1      -6.100  12.608 123.728  1.00  0.00     0.324 C 
BRANCH  21  22
HETATM   22  N4  UNL     1      -6.898  13.159 122.623  1.00  0.00    -0.053 N 
ATOM     23  H43 UNL     1      -6.309  13.627 121.934  1.00  0.00     0.277 HD
ATOM     24  H42 UNL     1      -7.277  12.419 122.031  1.00  0.00     0.277 HD
ATOM     25  H41 UNL     1      -7.634  13.777 122.966  1.00  0.00     0.277 HD
ENDBRANCH  21  22
BRANCH  21  26
HETATM   26  O5  UNL     1      -6.319  11.258 123.700  1.00  0.00    -0.369 OA
ATOM     27  H5  UNL     1      -7.231  11.039 123.857  1.00  0.00     0.212 HD
ENDBRANCH  21  26
ENDBRANCH   1  21
BRANCH   1  28
HETATM   28  C11 UNL     1      -3.709  11.852 123.930  1.00  0.00     0.224 C 
BRANCH  28  29
HETATM   29  N5  UNL     1      -3.535  10.748 123.109  1.00  0.00    -0.390 N 
ATOM     30  H5  UNL     1      -3.602   9.855 123.596  1.00  0.00     0.156 HD
BRANCH  29  31
HETATM   31  C12 UNL     1      -3.293  10.632 121.776  1.00  0.00     0.110 C 
HETATM   32  C13 UNL     1      -3.713   9.202 121.334  1.00  0.00     0.109 C 
HETATM   33  C15 UNL     1      -5.176   9.346 121.162  1.00  0.00     0.059 C 
HETATM   34  C16 UNL     1      -5.245  10.606 120.298  1.00  0.00     0.128 C 
HETATM   35  C17 UNL     1      -4.109  11.437 120.816  1.00  0.00     0.062 C 
BRANCH  32  36
HETATM   36  N6  UNL     1      -3.220   8.171 122.140  1.00  0.00    -0.358 N 
HETATM   37  C14 UNL     1      -3.629   6.817 122.256  1.00  0.00     0.182 C 
HETATM   38  N7  UNL     1      -3.349   5.922 121.378  1.00  0.00    -0.374 N 
HETATM   39  N8  UNL     1      -4.378   6.405 123.398  1.00  0.00    -0.064 NA
ATOM     40  H72 UNL     1      -2.814   6.217 120.562  1.00  0.00     0.158 HD
ATOM     41  H71 UNL     1      -3.644   4.948 121.462  1.00  0.00     0.158 HD
ATOM     42  H6  UNL     1      -2.440   8.435 122.742  1.00  0.00     0.162 HD
ENDBRANCH  32  36
BRANCH  34  43
HETATM   43  O6  UNL     1      -6.484  11.200 120.501  1.00  0.00    -0.395 OA
ATOM     44  H6  UNL     1      -6.894  11.323 119.654  1.00  0.00     0.210 HD
ENDBRANCH  34  43
BRANCH  35  45
HETATM   45  C18 UNL     1      -3.261  11.914 119.663  1.00  0.00     0.173 C 
BRANCH  45  46
HETATM   46  O7  UNL     1      -3.779  11.673 118.417  1.00  0.00    -0.400 OA
ATOM     47  H7  UNL     1      -4.098  12.439 117.956  1.00  0.00     0.209 HD
ENDBRANCH  45  46
ENDBRANCH  35  45
ENDBRANCH  29  31
ENDBRANCH  28  29
BRANCH  28  48
HETATM   48  O8  UNL     1      -2.430  12.444 124.055  1.00  0.00    -0.371 OA
HETATM   49  C19 UNL     1      -1.590  11.723 124.899  1.00  0.00     0.204 C 
ENDBRANCH  28  48
ENDBRANCH   1  28
TORSDOF 20
ENDMDL
MODEL 3
REMARK VINA RESULT: -7.116535801      3.420      7.497
REMARK  20 active torsions:
REMARK  status: ('A' for Active; 'I' for Inactive)
REMARK    1  A    between atoms: O1_2  and  C2_3 
REMARK    2  A    between atoms: C2_3  and  C3_5 
REMARK    3  A    between atoms: C3_5  and  C4_6 
REMARK    4  A    between atoms: C3_5  and  N3_15 
REMARK    5  A    between atoms: C4_6  and  C5_7 
REMARK    6  A    between atoms: C5_7  and  N1_8 
REMARK    7  A    between atoms: C5_7  and  C6_12 
REMARK       I    between atoms: N3_15  and  C7_17 
REMARK    8  A    between atoms: C7_17  and  C8_19 
REMARK    9  A    between atoms: C8_19  and  C9_20 
REMARK   10  A    between atoms: C9_20  and  C10_21 
REMARK   11  A    between atoms: C9_20  and  C11_28 
REMARK   12  A    between atoms: C10_21  and  N4_22 
REMARK   13  A    between atoms: C10_21  and  O5_26 
REMARK   14  A    between atoms: C11_28  and  N5_29 
REMARK   15  A    between atoms: C11_28  and  O8_48 
REMARK   16  A    between atoms: N5_29  and  C12_31 
REMARK   17  A    between atoms: C13_32  and  N6_33 
REMARK       I    between atoms: N6_33  and  C14_35 
REMARK   18  A    between atoms: C16_41  and  O6_42 
REMARK   19  A    between atoms: C17_44  and  C18_45 
REMARK   20  A    between atoms: C18_45  and  O7_46 
ROOT
HETATM    1  C9  UNL     1      -3.213  11.862 120.378  1.00  0.00     0.099 C 
ENDROOT
BRANCH   1   2
HETATM    2  C8  UNL     1      -1.985  11.253 121.010  1.00  0.00     0.116 C 
BRANCH   2   3
HETATM    3  C7  UNL     1      -2.163  10.334 122.133  1.00  0.00     0.218 C 
HETATM    4  N3  UNL     1      -2.335   8.957 121.845  1.00  0.00    -0.347 N 
ATOM      5  H3  UNL     1      -2.335   8.661 120.869  1.00  0.00     0.163 HD
HETATM    6  O4  UNL     1      -2.171  10.685 123.324  1.00  0.00    -0.274 OA
BRANCH   4   7
HETATM    7  C3  UNL     1      -2.507   7.976 122.842  1.00  0.00     0.186 C 
BRANCH   7   8
HETATM    8  C2  UNL     1      -1.318   7.114 123.103  1.00  0.00     0.281 C 
HETATM    9  O2  UNL     1      -0.795   7.034 124.233  1.00  0.00    -0.263 OA
BRANCH   8  10
HETATM   10  O1  UNL     1      -0.798   6.393 122.058  1.00  0.00    -0.325 OA
HETATM   11  C1  UNL     1       0.542   6.483 121.625  1.00  0.00     0.213 C 
ENDBRANCH   8  10
ENDBRANCH   7   8
BRANCH   7  12
HETATM   12  C4  UNL     1      -3.695   7.104 122.561  1.00  0.00     0.077 C 
BRANCH  12  13
HETATM   13  C5  UNL     1      -4.930   7.549 123.314  1.00  0.00     0.274 C 
BRANCH  13  14
HETATM   14  N1  UNL     1      -4.460   8.509 124.347  1.00  0.00    -0.067 N 
ATOM     15  H13 UNL     1      -3.587   8.230 124.793  1.00  0.00     0.275 HD
ATOM     16  H12 UNL     1      -4.125   9.391 123.958  1.00  0.00     0.275 HD
ATOM     17  H11 UNL     1      -5.233   8.621 125.002  1.00  0.00     0.275 HD
ENDBRANCH  13  14
BRANCH  13  18
HETATM   18  C6  UNL     1      -5.810   8.305 122.427  1.00  0.00     0.261 C 
HETATM   19  N2  UNL     1      -5.422   8.966 121.226  1.00  0.00    -0.060 NA
HETATM   20  O3  UNL     1      -7.052   8.397 122.730  1.00  0.00    -0.275 OA
ENDBRANCH  13  18
ENDBRANCH  12  13
ENDBRANCH   7  12
ENDBRANCH   4   7
ENDBRANCH   2   3
ENDBRANCH   1   2
BRANCH   1  21
HETATM   21  C10 UNL     1      -3.332  11.298 119.002  1.00  0.00     0.324 C 
BRANCH  21  22
HETATM   22  N4  UNL     1      -3.076  12.321 117.977  1.00  0.00    -0.053 N 
ATOM     23  H43 UNL     1      -3.444  12.039 117.067  1.00  0.00     0.277 HD
ATOM     24  H42 UNL     1      -3.649  13.152 118.128  1.00  0.00     0.277 HD
ATOM     25  H41 UNL     1      -2.085  12.555 117.922  1.00  0.00     0.277 HD
ENDBRANCH  21  22
BRANCH  21  26
HETATM   26  O5  UNL     1      -2.416  10.309 118.767  1.00  0.00    -0.369 OA
ATOM     27  H5  UNL     1      -2.830   9.474 118.580  1.00  0.00     0.212 HD
ENDBRANCH  21  26
ENDBRANCH   1  21
BRANCH   1  28
HETATM   28  C11 UNL     1      -3.062  13.341 120.444  1.00  0.00     0.224 C 
BRANCH  28  29
HETATM   29  N5  UNL     1      -3.835  14.116 121.295  1.00  0.00    -0.390 N 
ATOM     30  H5  UNL     1      -3.817  15.113 121.079  1.00  0.00     0.156 HD
BRANCH  29  31
HETATM   31  C12 UNL     1      -4.614  13.797 122.364  1.00  0.00     0.110 C 
HETATM   32  C13 UNL     1      -5.921  14.634 122.272  1.00  0.00     0.109 C 
HETATM   33  C15 UNL     1      -6.729  13.845 121.315  1.00  0.00     0.059 C 
HETATM   34  C16 UNL     1      -6.604  12.444 121.914  1.00  0.00     0.128 C 
HETATM   35  C17 UNL     1      -5.204  12.427 122.451  1.00  0.00     0.062 C 
BRANCH  32  36
HETATM   36  N6  UNL     1      -5.728  15.999 122.037  1.00  0.00    -0.358 N 
HETATM   37  C14 UNL     1      -6.163  16.820 120.964  1.00  0.00     0.182 C 
HETATM   38  N7  UNL     1      -7.375  17.229 120.840  1.00  0.00    -0.374 N 
HETATM   39  N8  UNL     1      -5.226  17.232 119.971  1.00  0.00    -0.064 NA
ATOM     40  H72 UNL     1      -8.044  16.934 121.551  1.00  0.00     0.158 HD
ATOM     41  H71 UNL     1      -7.687  17.818 120.068  1.00  0.00     0.158 HD
ATOM     42  H6  UNL     1      -5.188  16.483 122.754  1.00  0.00     0.162 HD
ENDBRANCH  32  36
BRANCH  34  43
HETATM   43  O6  UNL     1      -6.802  11.521 120.895  1.00  0.00    -0.395 OA
ATOM     44  H6  UNL     1      -7.673  11.155 120.995  1.00  0.00     0.210 HD
ENDBRANCH  34  43
BRANCH  35  45
HETATM   45  C18 UNL     1      -5.212  11.937 123.878  1.00  0.00     0.173 C 
BRANCH  45  46
HETATM   46  O7  UNL     1      -6.229  11.076 124.194  1.00  0.00    -0.400 OA
ATOM     47  H7  UNL     1      -6.901  11.434 124.763  1.00  0.00     0.209 HD
ENDBRANCH  45  46
ENDBRANCH  35  45
ENDBRANCH  29  31
ENDBRANCH  28  29
BRANCH  28  48
HETATM   48  O8  UNL     1      -1.718  13.596 120.806  1.00  0.00    -0.371 OA
HETATM   49  C19 UNL     1      -1.285  14.853 120.393  1.00  0.00     0.204 C 
ENDBRANCH  28  48
ENDBRANCH   1  28
TORSDOF 20
ENDMDL
MODEL 4
REMARK VINA RESULT: -7.099991285      2.971      5.771
REMARK  20 active torsions:
REMARK  status: ('A' for Active; 'I' for Inactive)
REMARK    1  A    between atoms: O1_2  and  C2_3 
REMARK    2  A    between atoms: C2_3  and  C3_5 
REMARK    3  A    between atoms: C3_5  and  C4_6 
REMARK    4  A    between atoms: C3_5  and  N3_15 
REMARK    5  A    between atoms: C4_6  and  C5_7 
REMARK    6  A    between atoms: C5_7  and  N1_8 
REMARK    7  A    between atoms: C5_7  and  C6_12 
REMARK       I    between atoms: N3_15  and  C7_17 
REMARK    8  A    between atoms: C7_17  and  C8_19 
REMARK    9  A    between atoms: C8_19  and  C9_20 
REMARK   10  A    between atoms: C9_20  and  C10_21 
REMARK   11  A    between atoms: C9_20  and  C11_28 
REMARK   12  A    between atoms: C10_21  and  N4_22 
REMARK   13  A    between atoms: C10_21  and  O5_26 
REMARK   14  A    between atoms: C11_28  and  N5_29 
REMARK   15  A    between atoms: C11_28  and  O8_48 
REMARK   16  A    between atoms: N5_29  and  C12_31 
REMARK   17  A    between atoms: C13_32  and  N6_33 
REMARK       I    between atoms: N6_33  and  C14_35 
REMARK   18  A    between atoms: C16_41  and  O6_42 
REMARK   19  A    between atoms: C17_44  and  C18_45 
REMARK   20  A    between atoms: C18_45  and  O7_46 
ROOT
HETATM    1  C9  UNL     1      -3.953  11.969 120.474  1.00  0.00     0.099 C 
ENDROOT
BRANCH   1   2
HETATM    2  C8  UNL     1      -5.462  11.970 120.510  1.00  0.00     0.116 C 
BRANCH   2   3
HETATM    3  C7  UNL     1      -6.138  12.957 121.349  1.00  0.00     0.218 C 
HETATM    4  N3  UNL     1      -5.713  14.307 121.262  1.00  0.00    -0.347 N 
ATOM      5  H3  UNL     1      -4.951  14.536 120.624  1.00  0.00     0.163 HD
HETATM    6  O4  UNL     1      -7.062  12.687 122.133  1.00  0.00    -0.274 OA
BRANCH   4   7
HETATM    7  C3  UNL     1      -6.293  15.348 122.014  1.00  0.00     0.186 C 
BRANCH   7   8
HETATM    8  C2  UNL     1      -6.455  16.644 121.294  1.00  0.00     0.281 C 
HETATM    9  O2  UNL     1      -5.898  17.690 121.682  1.00  0.00    -0.263 OA
BRANCH   8  10
HETATM   10  O1  UNL     1      -7.245  16.667 120.172  1.00  0.00    -0.325 OA
HETATM   11  C1  UNL     1      -8.645  16.502 120.187  1.00  0.00     0.213 C 
ENDBRANCH   8  10
ENDBRANCH   7   8
BRANCH   7  12
HETATM   12  C4  UNL     1      -5.549  15.587 123.294  1.00  0.00     0.077 C 
BRANCH  12  13
HETATM   13  C5  UNL     1      -4.060  15.355 123.149  1.00  0.00     0.274 C 
BRANCH  13  14
HETATM   14  N1  UNL     1      -3.406  16.640 123.507  1.00  0.00    -0.067 N 
ATOM     15  H13 UNL     1      -3.432  16.846 124.506  1.00  0.00     0.275 HD
ATOM     16  H12 UNL     1      -2.390  16.619 123.411  1.00  0.00     0.275 HD
ATOM     17  H11 UNL     1      -3.853  17.356 122.934  1.00  0.00     0.275 HD
ENDBRANCH  13  14
BRANCH  13  18
HETATM   18  C6  UNL     1      -3.608  14.380 124.137  1.00  0.00     0.261 C 
HETATM   19  N2  UNL     1      -2.353  14.391 124.814  1.00  0.00    -0.060 NA
HETATM   20  O3  UNL     1      -4.391  13.413 124.447  1.00  0.00    -0.275 OA
ENDBRANCH  13  18
ENDBRANCH  12  13
ENDBRANCH   7  12
ENDBRANCH   4   7
ENDBRANCH   2   3
ENDBRANCH   1   2
BRANCH   1  21
HETATM   21  C10 UNL     1      -3.538  11.308 119.202  1.00  0.00     0.324 C 
BRANCH  21  22
HETATM   22  N4  UNL     1      -3.294  12.294 118.139  1.00  0.00    -0.053 N 
ATOM     23  H43 UNL     1      -2.414  12.790 118.283  1.00  0.00     0.277 HD
ATOM     24  H42 UNL     1      -3.076  11.839 117.251  1.00  0.00     0.277 HD
ATOM     25  H41 UNL     1      -4.076  12.942 118.044  1.00  0.00     0.277 HD
ENDBRANCH  21  22
BRANCH  21  26
HETATM   26  O5  UNL     1      -2.364  10.618 119.337  1.00  0.00    -0.369 OA
ATOM     27  H5  UNL     1      -1.717  10.881 118.692  1.00  0.00     0.212 HD
ENDBRANCH  21  26
ENDBRANCH   1  21
BRANCH   1  28
HETATM   28  C11 UNL     1      -3.478  11.301 121.717  1.00  0.00     0.224 C 
BRANCH  28  29
HETATM   29  N5  UNL     1      -3.404   9.920 121.821  1.00  0.00    -0.390 N 
ATOM     30  H5  UNL     1      -2.459   9.566 121.968  1.00  0.00     0.156 HD
BRANCH  29  31
HETATM   31  C12 UNL     1      -4.355   8.949 121.763  1.00  0.00     0.110 C 
HETATM   32  C13 UNL     1      -3.645   7.602 121.446  1.00  0.00     0.109 C 
HETATM   33  C15 UNL     1      -3.155   7.188 122.780  1.00  0.00     0.059 C 
HETATM   34  C16 UNL     1      -4.419   7.357 123.622  1.00  0.00     0.128 C 
HETATM   35  C17 UNL     1      -5.075   8.561 123.014  1.00  0.00     0.062 C 
BRANCH  32  36
HETATM   36  N6  UNL     1      -2.749   7.649 120.374  1.00  0.00    -0.358 N 
HETATM   37  C14 UNL     1      -2.291   6.620 119.510  1.00  0.00     0.182 C 
HETATM   38  N7  UNL     1      -3.006   6.133 118.561  1.00  0.00    -0.374 N 
HETATM   39  N8  UNL     1      -0.976   6.096 119.676  1.00  0.00    -0.064 NA
ATOM     40  H72 UNL     1      -3.947   6.508 118.441  1.00  0.00     0.158 HD
ATOM     41  H71 UNL     1      -2.678   5.393 117.939  1.00  0.00     0.158 HD
ATOM     42  H6  UNL     1      -2.361   8.573 120.182  1.00  0.00     0.162 HD
ENDBRANCH  32  36
BRANCH  34  43
HETATM   43  O6  UNL     1      -4.034   7.560 124.940  1.00  0.00    -0.395 OA
ATOM     44  H6  UNL     1      -3.404   6.888 125.170  1.00  0.00     0.210 HD
ENDBRANCH  34  43
BRANCH  35  45
HETATM   45  C18 UNL     1      -6.524   8.259 122.725  1.00  0.00     0.173 C 
BRANCH  45  46
HETATM   46  O7  UNL     1      -6.938   8.545 121.451  1.00  0.00    -0.400 OA
ATOM     47  H7  UNL     1      -7.879   8.602 121.334  1.00  0.00     0.209 HD
ENDBRANCH  45  46
ENDBRANCH  35  45
ENDBRANCH  29  31
ENDBRANCH  28  29
BRANCH  28  48
HETATM   48  O8  UNL     1      -2.167  11.777 121.957  1.00  0.00    -0.371 OA
HETATM   49  C19 UNL     1      -1.577  11.173 123.065  1.00  0.00     0.204 C 
ENDBRANCH  28  48
ENDBRANCH   1  28
TORSDOF 20
ENDMDL
MODEL 5
REMARK VINA RESULT: -7.075276734      2.956      5.767
REMARK  20 active torsions:
REMARK  status: ('A' for Active; 'I' for Inactive)
REMARK    1  A    between atoms: O1_2  and  C2_3 
REMARK    2  A    between atoms: C2_3  and  C3_5 
REMARK    3  A    between atoms: C3_5  and  C4_6 
REMARK    4  A    between atoms: C3_5  and  N3_15 
REMARK    5  A    between atoms: C4_6  and  C5_7 
REMARK    6  A    between atoms: C5_7  and  N1_8 
REMARK    7  A    between atoms: C5_7  and  C6_12 
REMARK       I    between atoms: N3_15  and  C7_17 
REMARK    8  A    between atoms: C7_17  and  C8_19 
REMARK    9  A    between atoms: C8_19  and  C9_20 
REMARK   10  A    between atoms: C9_20  and  C10_21 
REMARK   11  A    between atoms: C9_20  and  C11_28 
REMARK   12  A    between atoms: C10_21  and  N4_22 
REMARK   13  A    between atoms: C10_21  and  O5_26 
REMARK   14  A    between atoms: C11_28  and  N5_29 
REMARK   15  A    between atoms: C11_28  and  O8_48 
REMARK   16  A    between atoms: N5_29  and  C12_31 
REMARK   17  A    between atoms: C13_32  and  N6_33 
REMARK       I    between atoms: N6_33  and  C14_35 
REMARK   18  A    between atoms: C16_41  and  O6_42 
REMARK   19  A    between atoms: C17_44  and  C18_45 
REMARK   20  A    between atoms: C18_45  and  O7_46 
ROOT
HETATM    1  C9  UNL     1      -3.377  12.009 120.369  1.00  0.00     0.099 C 
ENDROOT
BRANCH   1   2
HETATM    2  C8  UNL     1      -4.822  12.061 120.801  1.00  0.00     0.116 C 
BRANCH   2   3
HETATM    3  C7  UNL     1      -5.280  13.221 121.562  1.00  0.00     0.218 C 
HETATM    4  N3  UNL     1      -4.790  14.498 121.189  1.00  0.00    -0.347 N 
ATOM      5  H3  UNL     1      -4.134  14.557 120.410  1.00  0.00     0.163 HD
HETATM    6  O4  UNL     1      -6.074  13.158 122.515  1.00  0.00    -0.274 OA
BRANCH   4   7
HETATM    7  C3  UNL     1      -5.165  15.689 121.841  1.00  0.00     0.186 C 
BRANCH   7   8
HETATM    8  C2  UNL     1      -5.775  16.733 120.967  1.00  0.00     0.281 C 
HETATM    9  O2  UNL     1      -5.147  17.251 120.021  1.00  0.00    -0.263 OA
BRANCH   8  10
HETATM   10  O1  UNL     1      -7.065  17.122 121.224  1.00  0.00    -0.325 OA
HETATM   11  C1  UNL     1      -8.196  16.595 120.567  1.00  0.00     0.213 C 
ENDBRANCH   8  10
ENDBRANCH   7   8
BRANCH   7  12
HETATM   12  C4  UNL     1      -4.018  16.290 122.598  1.00  0.00     0.077 C 
BRANCH  12  13
HETATM   13  C5  UNL     1      -3.999  15.866 124.051  1.00  0.00     0.274 C 
BRANCH  13  14
HETATM   14  N1  UNL     1      -5.392  15.465 124.382  1.00  0.00    -0.067 N 
ATOM     15  H13 UNL     1      -5.614  15.550 125.373  1.00  0.00     0.275 HD
ATOM     16  H12 UNL     1      -6.094  16.120 124.040  1.00  0.00     0.275 HD
ATOM     17  H11 UNL     1      -5.508  14.518 124.020  1.00  0.00     0.275 HD
ENDBRANCH  13  14
BRANCH  13  18
HETATM   18  C6  UNL     1      -3.183  14.666 124.209  1.00  0.00     0.261 C 
HETATM   19  N2  UNL     1      -2.225  14.173 123.276  1.00  0.00    -0.060 NA
HETATM   20  O3  UNL     1      -3.315  13.971 125.280  1.00  0.00    -0.275 OA
ENDBRANCH  13  18
ENDBRANCH  12  13
ENDBRANCH   7  12
ENDBRANCH   4   7
ENDBRANCH   2   3
ENDBRANCH   1   2
BRANCH   1  21
HETATM   21  C10 UNL     1      -3.354  11.581 118.940  1.00  0.00     0.324 C 
BRANCH  21  22
HETATM   22  N4  UNL     1      -2.992  12.694 118.050  1.00  0.00    -0.053 N 
ATOM     23  H43 UNL     1      -3.503  12.650 117.168  1.00  0.00     0.277 HD
ATOM     24  H42 UNL     1      -3.354  13.583 118.398  1.00  0.00     0.277 HD
ATOM     25  H41 UNL     1      -1.984  12.736 117.895  1.00  0.00     0.277 HD
ENDBRANCH  21  22
BRANCH  21  26
HETATM   26  O5  UNL     1      -2.420  10.609 118.706  1.00  0.00    -0.369 OA
ATOM     27  H5  UNL     1      -2.447  10.293 117.810  1.00  0.00     0.212 HD
ENDBRANCH  21  26
ENDBRANCH   1  21
BRANCH   1  28
HETATM   28  C11 UNL     1      -2.662  11.105 121.311  1.00  0.00     0.224 C 
BRANCH  28  29
HETATM   29  N5  UNL     1      -2.746   9.725 121.204  1.00  0.00    -0.390 N 
ATOM     30  H5  UNL     1      -1.845   9.262 121.093  1.00  0.00     0.156 HD
BRANCH  29  31
HETATM   31  C12 UNL     1      -3.806   8.873 121.218  1.00  0.00     0.110 C 
HETATM   32  C13 UNL     1      -3.306   7.477 120.749  1.00  0.00     0.109 C 
HETATM   33  C15 UNL     1      -2.712   6.926 121.988  1.00  0.00     0.059 C 
HETATM   34  C16 UNL     1      -3.838   7.182 122.990  1.00  0.00     0.128 C 
HETATM   35  C17 UNL     1      -4.413   8.489 122.529  1.00  0.00     0.062 C 
BRANCH  32  36
HETATM   36  N6  UNL     1      -2.544   7.491 119.576  1.00  0.00    -0.358 N 
HETATM   37  C14 UNL     1      -1.142   7.376 119.387  1.00  0.00     0.182 C 
HETATM   38  N7  UNL     1      -0.511   6.262 119.482  1.00  0.00    -0.374 N 
HETATM   39  N8  UNL     1      -0.380   8.537 119.063  1.00  0.00    -0.064 NA
ATOM     40  H72 UNL     1      -1.057   5.431 119.713  1.00  0.00     0.158 HD
ATOM     41  H71 UNL     1       0.497   6.179 119.346  1.00  0.00     0.158 HD
ATOM     42  H6  UNL     1      -3.084   7.602 118.718  1.00  0.00     0.162 HD
ENDBRANCH  32  36
BRANCH  34  43
HETATM   43  O6  UNL     1      -3.278   7.257 124.258  1.00  0.00    -0.395 OA
ATOM     44  H6  UNL     1      -3.687   6.594 124.800  1.00  0.00     0.210 HD
ENDBRANCH  34  43
BRANCH  35  45
HETATM   45  C18 UNL     1      -5.913   8.371 122.410  1.00  0.00     0.173 C 
BRANCH  45  46
HETATM   46  O7  UNL     1      -6.617   8.710 123.535  1.00  0.00    -0.400 OA
ATOM     47  H7  UNL     1      -6.418   8.195 124.308  1.00  0.00     0.209 HD
ENDBRANCH  45  46
ENDBRANCH  35  45
ENDBRANCH  29  31
ENDBRANCH  28  29
BRANCH  28  48
HETATM   48  O8  UNL     1      -1.286  11.416 121.207  1.00  0.00    -0.371 OA
HETATM   49  C19 UNL     1      -0.500  10.645 122.059  1.00  0.00     0.204 C 
ENDBRANCH  28  48
ENDBRANCH   1  28
TORSDOF 20
ENDMDL
