MODEL 1
REMARK VINA RESULT: -7.652946356      0.000      0.000
REMARK  18 active torsions:
REMARK  status: ('A' for Active; 'I' for Inactive)
REMARK       I    between atoms: C2_2  and  N1_4 
REMARK    1  A    between atoms: N1_4  and  C3_6 
REMARK    2  A    between atoms: C3_6  and  C4_7 
REMARK    3  A    between atoms: C3_6  and  C17_43 
REMARK       I    between atoms: C4_7  and  N2_9 
REMARK    4  A    between atoms: N2_9  and  C5_11 
REMARK    5  A    between atoms: C5_11  and  C6_12 
REMARK    6  A    between atoms: C5_11  and  C13_31 
REMARK    7  A    between atoms: C6_12  and  C7_14 
REMARK    8  A    between atoms: C7_14  and  C8_15 
REMARK    9  A    between atoms: C8_15  and  N3_16 
REMARK   10  A    between atoms: C8_15  and  C11_25 
REMARK       I    between atoms: N3_16  and  C9_18 
REMARK   11  A    between atoms: C9_18  and  C10_20 
REMARK   12  A    between atoms: C10_20  and  N4_21 
REMARK   13  A    between atoms: C11_25  and  O5_26 
REMARK   14  A    between atoms: C11_25  and  C12_28 
REMARK   15  A    between atoms: N6_33  and  N7_35 
REMARK       I    between atoms: N7_35  and  C15_37 
REMARK       I    between atoms: C15_37  and  N8_39 
REMARK   16  A    between atoms: C17_43  and  O8_44 
REMARK   17  A    between atoms: C17_43  and  C18_46 
REMARK   18  A    between atoms: C18_46  and  O9_47 
ROOT
HETATM    1  N7  UNL     1      -4.179   8.030 120.469  1.00  0.00    -0.251 N 
ATOM      2  H7  UNL     1      -5.138   7.738 120.281  1.00  0.00     0.191 HD
HETATM    3  C15 UNL     1      -3.138   7.070 120.358  1.00  0.00     0.347 C 
HETATM    4  O7  UNL     1      -1.963   7.428 120.589  1.00  0.00    -0.245 OA
HETATM    5  N8  UNL     1      -3.429   5.748 119.997  1.00  0.00    -0.244 N 
ATOM      6  H8  UNL     1      -4.401   5.494 119.817  1.00  0.00     0.183 HD
HETATM    7  C16 UNL     1      -2.442   4.756 119.872  1.00  0.00     0.186 C 
HETATM    8  N9  UNL     1      -1.640   3.947 119.753  1.00  0.00    -0.172 NA
ENDROOT
BRANCH   1   9
HETATM    9  N6  UNL     1      -3.939   9.348 120.824  1.00  0.00    -0.303 N 
HETATM   10  C13 UNL     1      -4.573   9.871 121.808  1.00  0.00     0.030 C 
HETATM   11  C14 UNL     1      -5.552   9.034 122.543  1.00  0.00     0.068 C 
ATOM     12  H6  UNL     1      -3.259   9.902 120.303  1.00  0.00     0.186 HD
BRANCH  10  13
HETATM   13  C5  UNL     1      -4.329  11.271 122.194  1.00  0.00     0.201 C 
BRANCH  13  14
HETATM   14  N2  UNL     1      -4.747  11.550 123.548  1.00  0.00    -0.343 N 
HETATM   15  C4  UNL     1      -3.858  11.640 124.637  1.00  0.00     0.244 C 
HETATM   16  O2  UNL     1      -2.636  11.467 124.413  1.00  0.00    -0.271 OA
ATOM     17  H2  UNL     1      -5.741  11.690 123.726  1.00  0.00     0.163 HD
BRANCH  15  18
HETATM   18  C3  UNL     1      -4.301  11.926 126.020  1.00  0.00     0.207 C 
BRANCH  18  19
HETATM   19  N1  UNL     1      -3.456  12.939 126.636  1.00  0.00    -0.346 N 
HETATM   20  C2  UNL     1      -3.641  14.302 126.416  1.00  0.00     0.214 C 
HETATM   21  C1  UNL     1      -2.750  15.292 127.066  1.00  0.00     0.117 C 
HETATM   22  O1  UNL     1      -4.556  14.742 125.671  1.00  0.00    -0.274 OA
ATOM     23  H1  UNL     1      -2.699  12.639 127.250  1.00  0.00     0.163 HD
ENDBRANCH  18  19
BRANCH  18  24
HETATM   24  C17 UNL     1      -4.269  10.708 126.898  1.00  0.00     0.173 C 
BRANCH  24  25
HETATM   25  O8  UNL     1      -4.255   9.525 126.189  1.00  0.00    -0.391 OA
ATOM     26  H8  UNL     1      -3.393   9.126 126.140  1.00  0.00     0.210 HD
ENDBRANCH  24  25
BRANCH  24  27
HETATM   27  C18 UNL     1      -3.172  10.775 127.935  1.00  0.00     0.198 C 
BRANCH  27  28
HETATM   28  O9  UNL     1      -1.933  10.449 127.407  1.00  0.00    -0.398 OA
ATOM     29  H9  UNL     1      -1.231  10.579 128.035  1.00  0.00     0.209 HD
ENDBRANCH  27  28
ENDBRANCH  24  27
ENDBRANCH  18  24
ENDBRANCH  15  18
ENDBRANCH  13  14
BRANCH  13  30
HETATM   30  C6  UNL     1      -4.998  12.191 121.201  1.00  0.00     0.157 C 
HETATM   31  O3  UNL     1      -4.742  11.977 120.054  1.00  0.00    -0.295 OA
BRANCH  30  32
HETATM   32  C7  UNL     1      -5.887  13.253 121.625  1.00  0.00     0.109 C 
BRANCH  32  33
HETATM   33  C8  UNL     1      -5.256  14.536 122.039  1.00  0.00     0.129 C 
BRANCH  33  34
HETATM   34  N3  UNL     1      -4.145  14.831 121.095  1.00  0.00    -0.352 N 
HETATM   35  C9  UNL     1      -2.828  14.805 121.566  1.00  0.00     0.243 C 
HETATM   36  O4  UNL     1      -2.606  14.534 122.771  1.00  0.00    -0.272 OA
ATOM     37  H3  UNL     1      -4.340  15.050 120.118  1.00  0.00     0.163 HD
BRANCH  35  38
HETATM   38  C10 UNL     1      -1.676  15.089 120.688  1.00  0.00     0.332 C 
BRANCH  38  39
HETATM   39  N4  UNL     1      -2.174  15.299 119.346  1.00  0.00    -0.071 N 
ATOM     40  H43 UNL     1      -3.193  15.274 119.296  1.00  0.00     0.274 HD
ATOM     41  H42 UNL     1      -2.044  16.258 119.023  1.00  0.00     0.274 HD
ATOM     42  H41 UNL     1      -1.733  14.614 118.733  1.00  0.00     0.274 HD
ENDBRANCH  38  39
ENDBRANCH  35  38
ENDBRANCH  33  34
BRANCH  33  43
HETATM   43  C11 UNL     1      -6.134  15.764 122.063  1.00  0.00     0.230 C 
BRANCH  43  44
HETATM   44  O5  UNL     1      -7.391  15.486 121.595  1.00  0.00    -0.384 OA
ATOM     45  H5  UNL     1      -7.579  15.970 120.799  1.00  0.00     0.210 HD
ENDBRANCH  43  44
BRANCH  43  46
HETATM   46  C12 UNL     1      -5.624  16.939 121.365  1.00  0.00     0.262 C 
HETATM   47  N5  UNL     1      -5.852  17.335 120.036  1.00  0.00    -0.060 NA
HETATM   48  O6  UNL     1      -4.861  17.733 122.026  1.00  0.00    -0.274 OA
ENDBRANCH  43  46
ENDBRANCH  33  43
ENDBRANCH  32  33
ENDBRANCH  30  32
ENDBRANCH  13  30
ENDBRANCH  10  13
ENDBRANCH   1   9
TORSDOF 18
ENDMDL
MODEL 2
REMARK VINA RESULT: -7.549068783      2.644      7.183
REMARK  18 active torsions:
REMARK  status: ('A' for Active; 'I' for Inactive)
REMARK       I    between atoms: C2_2  and  N1_4 
REMARK    1  A    between atoms: N1_4  and  C3_6 
REMARK    2  A    between atoms: C3_6  and  C4_7 
REMARK    3  A    between atoms: C3_6  and  C17_43 
REMARK       I    between atoms: C4_7  and  N2_9 
REMARK    4  A    between atoms: N2_9  and  C5_11 
REMARK    5  A    between atoms: C5_11  and  C6_12 
REMARK    6  A    between atoms: C5_11  and  C13_31 
REMARK    7  A    between atoms: C6_12  and  C7_14 
REMARK    8  A    between atoms: C7_14  and  C8_15 
REMARK    9  A    between atoms: C8_15  and  N3_16 
REMARK   10  A    between atoms: C8_15  and  C11_25 
REMARK       I    between atoms: N3_16  and  C9_18 
REMARK   11  A    between atoms: C9_18  and  C10_20 
REMARK   12  A    between atoms: C10_20  and  N4_21 
REMARK   13  A    between atoms: C11_25  and  O5_26 
REMARK   14  A    between atoms: C11_25  and  C12_28 
REMARK   15  A    between atoms: N6_33  and  N7_35 
REMARK       I    between atoms: N7_35  and  C15_37 
REMARK       I    between atoms: C15_37  and  N8_39 
REMARK   16  A    between atoms: C17_43  and  O8_44 
REMARK   17  A    between atoms: C17_43  and  C18_46 
REMARK   18  A    between atoms: C18_46  and  O9_47 
ROOT
HETATM    1  N7  UNL     1      -1.452  11.823 126.073  1.00  0.00    -0.251 N 
ATOM      2  H7  UNL     1      -1.699  12.485 126.809  1.00  0.00     0.191 HD
HETATM    3  C15 UNL     1      -0.374  10.925 126.294  1.00  0.00     0.347 C 
HETATM    4  O7  UNL     1      -0.072  10.115 125.391  1.00  0.00    -0.245 OA
HETATM    5  N8  UNL     1       0.335  10.951 127.502  1.00  0.00    -0.244 N 
ATOM      6  H8  UNL     1       0.058  11.628 128.214  1.00  0.00     0.183 HD
HETATM    7  C16 UNL     1       1.409  10.089 127.776  1.00  0.00     0.186 C 
HETATM    8  N9  UNL     1       2.275   9.377 128.010  1.00  0.00    -0.172 NA
ENDROOT
BRANCH   1   9
HETATM    9  N6  UNL     1      -2.181  11.834 124.894  1.00  0.00    -0.303 N 
HETATM   10  C13 UNL     1      -3.306  12.448 124.843  1.00  0.00     0.030 C 
HETATM   11  C14 UNL     1      -3.792  13.135 126.064  1.00  0.00     0.068 C 
ATOM     12  H6  UNL     1      -1.823  11.354 124.068  1.00  0.00     0.186 HD
BRANCH  10  13
HETATM   13  C5  UNL     1      -4.091  12.465 123.597  1.00  0.00     0.201 C 
BRANCH  13  14
HETATM   14  N2  UNL     1      -4.545  13.792 123.251  1.00  0.00    -0.343 N 
HETATM   15  C4  UNL     1      -4.374  14.368 121.977  1.00  0.00     0.244 C 
HETATM   16  O2  UNL     1      -3.796  13.686 121.097  1.00  0.00    -0.271 OA
ATOM     17  H2  UNL     1      -5.015  14.343 123.969  1.00  0.00     0.163 HD
BRANCH  15  18
HETATM   18  C3  UNL     1      -4.844  15.730 121.636  1.00  0.00     0.207 C 
BRANCH  18  19
HETATM   19  N1  UNL     1      -4.281  16.716 122.546  1.00  0.00    -0.346 N 
HETATM   20  C2  UNL     1      -3.241  17.566 122.177  1.00  0.00     0.214 C 
HETATM   21  C1  UNL     1      -2.703  18.551 123.145  1.00  0.00     0.117 C 
HETATM   22  O1  UNL     1      -2.726  17.534 121.030  1.00  0.00    -0.274 OA
ATOM     23  H1  UNL     1      -4.662  16.787 123.490  1.00  0.00     0.163 HD
ENDBRANCH  18  19
BRANCH  18  24
HETATM   24  C17 UNL     1      -6.339  15.853 121.696  1.00  0.00     0.173 C 
BRANCH  24  25
HETATM   25  O8  UNL     1      -6.828  15.954 122.981  1.00  0.00    -0.391 OA
ATOM     26  H8  UNL     1      -7.126  15.125 123.337  1.00  0.00     0.210 HD
ENDBRANCH  24  25
BRANCH  24  27
HETATM   27  C18 UNL     1      -6.864  16.942 120.789  1.00  0.00     0.198 C 
BRANCH  27  28
HETATM   28  O9  UNL     1      -5.856  17.530 120.041  1.00  0.00    -0.398 OA
ATOM     29  H9  UNL     1      -5.877  18.479 120.095  1.00  0.00     0.209 HD
ENDBRANCH  27  28
ENDBRANCH  24  27
ENDBRANCH  18  24
ENDBRANCH  15  18
ENDBRANCH  13  14
BRANCH  13  30
HETATM   30  C6  UNL     1      -5.240  11.493 123.713  1.00  0.00     0.157 C 
HETATM   31  O3  UNL     1      -6.276  11.870 123.251  1.00  0.00    -0.295 OA
BRANCH  30  32
HETATM   32  C7  UNL     1      -5.082  10.197 124.339  1.00  0.00     0.109 C 
BRANCH  32  33
HETATM   33  C8  UNL     1      -5.311   9.001 123.482  1.00  0.00     0.129 C 
BRANCH  33  34
HETATM   34  N3  UNL     1      -4.752   9.285 122.133  1.00  0.00    -0.352 N 
HETATM   35  C9  UNL     1      -5.600   9.233 121.022  1.00  0.00     0.243 C 
HETATM   36  O4  UNL     1      -6.812   8.950 121.179  1.00  0.00    -0.272 OA
ATOM     37  H3  UNL     1      -3.764   9.515 122.020  1.00  0.00     0.163 HD
BRANCH  35  38
HETATM   38  C10 UNL     1      -5.115   9.503 119.654  1.00  0.00     0.332 C 
BRANCH  38  39
HETATM   39  N4  UNL     1      -4.536   8.284 119.133  1.00  0.00    -0.071 N 
ATOM     40  H43 UNL     1      -4.445   7.557 119.843  1.00  0.00     0.274 HD
ATOM     41  H42 UNL     1      -5.167   7.785 118.506  1.00  0.00     0.274 HD
ATOM     42  H41 UNL     1      -3.646   8.518 118.692  1.00  0.00     0.274 HD
ENDBRANCH  38  39
ENDBRANCH  35  38
ENDBRANCH  33  34
BRANCH  33  43
HETATM   43  C11 UNL     1      -4.696   7.698 123.933  1.00  0.00     0.230 C 
BRANCH  43  44
HETATM   44  O5  UNL     1      -4.279   7.769 125.236  1.00  0.00    -0.384 OA
ATOM     45  H5  UNL     1      -3.448   8.223 125.309  1.00  0.00     0.210 HD
ENDBRANCH  43  44
BRANCH  43  46
HETATM   46  C12 UNL     1      -3.601   7.182 123.119  1.00  0.00     0.262 C 
HETATM   47  N5  UNL     1      -3.670   6.470 121.909  1.00  0.00    -0.060 NA
HETATM   48  O6  UNL     1      -2.405   7.387 123.540  1.00  0.00    -0.274 OA
ENDBRANCH  43  46
ENDBRANCH  33  43
ENDBRANCH  32  33
ENDBRANCH  30  32
ENDBRANCH  13  30
ENDBRANCH  10  13
ENDBRANCH   1   9
TORSDOF 18
ENDMDL
MODEL 3
REMARK VINA RESULT: -7.362068973      2.707      6.997
REMARK  18 active torsions:
REMARK  status: ('A' for Active; 'I' for Inactive)
REMARK       I    between atoms: C2_2  and  N1_4 
REMARK    1  A    between atoms: N1_4  and  C3_6 
REMARK    2  A    between atoms: C3_6  and  C4_7 
REMARK    3  A    between atoms: C3_6  and  C17_43 
REMARK       I    between atoms: C4_7  and  N2_9 
REMARK    4  A    between atoms: N2_9  and  C5_11 
REMARK    5  A    between atoms: C5_11  and  C6_12 
REMARK    6  A    between atoms: C5_11  and  C13_31 
REMARK    7  A    between atoms: C6_12  and  C7_14 
REMARK    8  A    between atoms: C7_14  and  C8_15 
REMARK    9  A    between atoms: C8_15  and  N3_16 
REMARK   10  A    between atoms: C8_15  and  C11_25 
REMARK       I    between atoms: N3_16  and  C9_18 
REMARK   11  A    between atoms: C9_18  and  C10_20 
REMARK   12  A    between atoms: C10_20  and  N4_21 
REMARK   13  A    between atoms: C11_25  and  O5_26 
REMARK   14  A    between atoms: C11_25  and  C12_28 
REMARK   15  A    between atoms: N6_33  and  N7_35 
REMARK       I    between atoms: N7_35  and  C15_37 
REMARK       I    between atoms: C15_37  and  N8_39 
REMARK   16  A    between atoms: C17_43  and  O8_44 
REMARK   17  A    between atoms: C17_43  and  C18_46 
REMARK   18  A    between atoms: C18_46  and  O9_47 
ROOT
HETATM    1  N7  UNL     1      -3.678  11.116 126.901  1.00  0.00    -0.251 N 
ATOM      2  H7  UNL     1      -3.071  10.470 127.406  1.00  0.00     0.191 HD
HETATM    3  C15 UNL     1      -4.179  12.257 127.582  1.00  0.00     0.347 C 
HETATM    4  O7  UNL     1      -4.923  13.048 126.963  1.00  0.00    -0.245 OA
HETATM    5  N8  UNL     1      -3.844  12.487 128.922  1.00  0.00    -0.244 N 
ATOM      6  H8  UNL     1      -3.234  11.819 129.394  1.00  0.00     0.183 HD
HETATM    7  C16 UNL     1      -4.309  13.597 129.647  1.00  0.00     0.186 C 
HETATM    8  N9  UNL     1      -4.673  14.509 130.237  1.00  0.00    -0.172 NA
ENDROOT
BRANCH   1   9
HETATM    9  N6  UNL     1      -3.984  10.848 125.576  1.00  0.00    -0.303 N 
HETATM   10  C13 UNL     1      -4.656   9.798 125.275  1.00  0.00     0.030 C 
HETATM   11  C14 UNL     1      -5.090   8.898 126.371  1.00  0.00     0.068 C 
ATOM     12  H6  UNL     1      -3.674  11.484 124.841  1.00  0.00     0.186 HD
BRANCH  10  13
HETATM   13  C5  UNL     1      -4.986   9.500 123.871  1.00  0.00     0.201 C 
BRANCH  13  14
HETATM   14  N2  UNL     1      -3.899   8.850 123.176  1.00  0.00    -0.343 N 
HETATM   15  C4  UNL     1      -3.762   7.451 123.076  1.00  0.00     0.244 C 
HETATM   16  O2  UNL     1      -4.636   6.735 123.621  1.00  0.00    -0.271 OA
ATOM     17  H2  UNL     1      -3.191   9.436 122.734  1.00  0.00     0.163 HD
BRANCH  15  18
HETATM   18  C3  UNL     1      -2.643   6.798 122.361  1.00  0.00     0.207 C 
BRANCH  18  19
HETATM   19  N1  UNL     1      -1.454   7.637 122.383  1.00  0.00    -0.346 N 
HETATM   20  C2  UNL     1      -0.529   7.595 123.423  1.00  0.00     0.214 C 
HETATM   21  C1  UNL     1       0.665   8.473 123.397  1.00  0.00     0.117 C 
HETATM   22  O1  UNL     1      -0.664   6.826 124.410  1.00  0.00    -0.274 OA
ATOM     23  H1  UNL     1      -1.292   8.279 121.608  1.00  0.00     0.163 HD
ENDBRANCH  18  19
BRANCH  18  24
HETATM   24  C17 UNL     1      -2.971   6.506 120.925  1.00  0.00     0.173 C 
BRANCH  24  25
HETATM   25  O8  UNL     1      -4.040   7.236 120.450  1.00  0.00    -0.391 OA
ATOM     26  H8  UNL     1      -4.206   7.100 119.524  1.00  0.00     0.210 HD
ENDBRANCH  24  25
BRANCH  24  27
HETATM   27  C18 UNL     1      -1.759   6.602 120.027  1.00  0.00     0.198 C 
BRANCH  27  28
HETATM   28  O9  UNL     1      -1.746   7.775 119.290  1.00  0.00    -0.398 OA
ATOM     29  H9  UNL     1      -1.534   8.532 119.824  1.00  0.00     0.209 HD
ENDBRANCH  27  28
ENDBRANCH  24  27
ENDBRANCH  18  24
ENDBRANCH  15  18
ENDBRANCH  13  14
BRANCH  13  30
HETATM   30  C6  UNL     1      -5.415  10.769 123.175  1.00  0.00     0.157 C 
HETATM   31  O3  UNL     1      -5.966  11.571 123.869  1.00  0.00    -0.295 OA
BRANCH  30  32
HETATM   32  C7  UNL     1      -5.166  10.987 121.765  1.00  0.00     0.109 C 
BRANCH  32  33
HETATM   33  C8  UNL     1      -4.072  11.934 121.411  1.00  0.00     0.129 C 
BRANCH  33  34
HETATM   34  N3  UNL     1      -3.884  12.870 122.551  1.00  0.00    -0.352 N 
HETATM   35  C9  UNL     1      -4.276  14.204 122.406  1.00  0.00     0.243 C 
HETATM   36  O4  UNL     1      -4.777  14.589 121.322  1.00  0.00    -0.272 OA
ATOM     37  H3  UNL     1      -3.475  12.543 123.427  1.00  0.00     0.163 HD
BRANCH  35  38
HETATM   38  C10 UNL     1      -4.118  15.190 123.493  1.00  0.00     0.332 C 
BRANCH  38  39
HETATM   39  N4  UNL     1      -4.805  14.685 124.662  1.00  0.00    -0.071 N 
ATOM     40  H43 UNL     1      -4.168  14.287 125.352  1.00  0.00     0.274 HD
ATOM     41  H42 UNL     1      -5.192  15.428 125.244  1.00  0.00     0.274 HD
ATOM     42  H41 UNL     1      -5.514  14.020 124.351  1.00  0.00     0.274 HD
ENDBRANCH  38  39
ENDBRANCH  35  38
ENDBRANCH  33  34
BRANCH  33  43
HETATM   43  C11 UNL     1      -2.715  11.342 121.115  1.00  0.00     0.230 C 
BRANCH  43  44
HETATM   44  O5  UNL     1      -2.808  10.012 120.801  1.00  0.00    -0.384 OA
ATOM     45  H5  UNL     1      -2.468   9.468 121.501  1.00  0.00     0.210 HD
ENDBRANCH  43  44
BRANCH  43  46
HETATM   46  C12 UNL     1      -1.696  11.510 122.145  1.00  0.00     0.262 C 
HETATM   47  N5  UNL     1      -1.653  10.949 123.433  1.00  0.00    -0.060 NA
HETATM   48  O6  UNL     1      -0.696  12.267 121.869  1.00  0.00    -0.274 OA
ENDBRANCH  43  46
ENDBRANCH  33  43
ENDBRANCH  32  33
ENDBRANCH  30  32
ENDBRANCH  13  30
ENDBRANCH  10  13
ENDBRANCH   1   9
TORSDOF 18
ENDMDL
MODEL 4
REMARK VINA RESULT: -7.337848465      2.083      7.904
REMARK  18 active torsions:
REMARK  status: ('A' for Active; 'I' for Inactive)
REMARK       I    between atoms: C2_2  and  N1_4 
REMARK    1  A    between atoms: N1_4  and  C3_6 
REMARK    2  A    between atoms: C3_6  and  C4_7 
REMARK    3  A    between atoms: C3_6  and  C17_43 
REMARK       I    between atoms: C4_7  and  N2_9 
REMARK    4  A    between atoms: N2_9  and  C5_11 
REMARK    5  A    between atoms: C5_11  and  C6_12 
REMARK    6  A    between atoms: C5_11  and  C13_31 
REMARK    7  A    between atoms: C6_12  and  C7_14 
REMARK    8  A    between atoms: C7_14  and  C8_15 
REMARK    9  A    between atoms: C8_15  and  N3_16 
REMARK   10  A    between atoms: C8_15  and  C11_25 
REMARK       I    between atoms: N3_16  and  C9_18 
REMARK   11  A    between atoms: C9_18  and  C10_20 
REMARK   12  A    between atoms: C10_20  and  N4_21 
REMARK   13  A    between atoms: C11_25  and  O5_26 
REMARK   14  A    between atoms: C11_25  and  C12_28 
REMARK   15  A    between atoms: N6_33  and  N7_35 
REMARK       I    between atoms: N7_35  and  C15_37 
REMARK       I    between atoms: C15_37  and  N8_39 
REMARK   16  A    between atoms: C17_43  and  O8_44 
REMARK   17  A    between atoms: C17_43  and  C18_46 
REMARK   18  A    between atoms: C18_46  and  O9_47 
ROOT
HETATM    1  N7  UNL     1      -4.487  11.835 126.272  1.00  0.00    -0.251 N 
ATOM      2  H7  UNL     1      -4.406  10.890 126.648  1.00  0.00     0.191 HD
HETATM    3  C15 UNL     1      -4.497  12.931 127.175  1.00  0.00     0.347 C 
HETATM    4  O7  UNL     1      -4.597  14.088 126.714  1.00  0.00    -0.245 OA
HETATM    5  N8  UNL     1      -4.398  12.714 128.556  1.00  0.00    -0.244 N 
ATOM      6  H8  UNL     1      -4.319  11.754 128.893  1.00  0.00     0.183 HD
HETATM    7  C16 UNL     1      -4.403  13.758 129.495  1.00  0.00     0.186 C 
HETATM    8  N9  UNL     1      -4.391  14.606 130.265  1.00  0.00    -0.172 NA
ENDROOT
BRANCH   1   9
HETATM    9  N6  UNL     1      -4.583  12.002 124.900  1.00  0.00    -0.303 N 
HETATM   10  C13 UNL     1      -3.529  11.935 124.172  1.00  0.00     0.030 C 
HETATM   11  C14 UNL     1      -2.228  11.676 124.835  1.00  0.00     0.068 C 
ATOM     12  H6  UNL     1      -5.491  12.178 124.469  1.00  0.00     0.186 HD
BRANCH  10  13
HETATM   13  C5  UNL     1      -3.618  12.112 122.713  1.00  0.00     0.201 C 
BRANCH  13  14
HETATM   14  N2  UNL     1      -4.177  13.393 122.347  1.00  0.00    -0.343 N 
HETATM   15  C4  UNL     1      -3.398  14.526 122.041  1.00  0.00     0.244 C 
HETATM   16  O2  UNL     1      -2.149  14.410 122.089  1.00  0.00    -0.271 OA
ATOM     17  H2  UNL     1      -5.192  13.482 122.308  1.00  0.00     0.163 HD
BRANCH  15  18
HETATM   18  C3  UNL     1      -3.984  15.833 121.667  1.00  0.00     0.207 C 
BRANCH  18  19
HETATM   19  N1  UNL     1      -5.334  15.667 121.152  1.00  0.00    -0.346 N 
HETATM   20  C2  UNL     1      -6.272  16.697 121.166  1.00  0.00     0.214 C 
HETATM   21  C1  UNL     1      -7.636  16.474 120.630  1.00  0.00     0.117 C 
HETATM   22  O1  UNL     1      -6.006  17.838 121.626  1.00  0.00    -0.274 OA
ATOM     23  H1  UNL     1      -5.605  14.763 120.765  1.00  0.00     0.163 HD
ENDBRANCH  18  19
BRANCH  18  24
HETATM   24  C17 UNL     1      -3.178  16.545 120.620  1.00  0.00     0.173 C 
BRANCH  24  25
HETATM   25  O8  UNL     1      -3.939  17.010 119.568  1.00  0.00    -0.391 OA
ATOM     26  H8  UNL     1      -4.707  17.496 119.845  1.00  0.00     0.210 HD
ENDBRANCH  24  25
BRANCH  24  27
HETATM   27  C18 UNL     1      -2.287  17.615 121.207  1.00  0.00     0.198 C 
BRANCH  27  28
HETATM   28  O9  UNL     1      -1.060  17.112 121.608  1.00  0.00    -0.398 OA
ATOM     29  H9  UNL     1      -0.545  17.757 122.079  1.00  0.00     0.209 HD
ENDBRANCH  27  28
ENDBRANCH  24  27
ENDBRANCH  18  24
ENDBRANCH  15  18
ENDBRANCH  13  14
BRANCH  13  30
HETATM   30  C6  UNL     1      -4.401  10.968 122.114  1.00  0.00     0.157 C 
HETATM   31  O3  UNL     1      -5.545  11.208 121.865  1.00  0.00    -0.295 OA
BRANCH  30  32
HETATM   32  C7  UNL     1      -3.793   9.678 121.861  1.00  0.00     0.109 C 
BRANCH  32  33
HETATM   33  C8  UNL     1      -4.714   8.519 121.701  1.00  0.00     0.129 C 
BRANCH  33  34
HETATM   34  N3  UNL     1      -3.935   7.384 121.137  1.00  0.00    -0.352 N 
HETATM   35  C9  UNL     1      -3.787   7.286 119.750  1.00  0.00     0.243 C 
HETATM   36  O4  UNL     1      -4.309   8.152 119.007  1.00  0.00    -0.272 OA
ATOM     37  H3  UNL     1      -3.516   6.687 121.753  1.00  0.00     0.163 HD
BRANCH  35  38
HETATM   38  C10 UNL     1      -3.029   6.187 119.119  1.00  0.00     0.332 C 
BRANCH  38  39
HETATM   39  N4  UNL     1      -3.399   4.952 119.773  1.00  0.00    -0.071 N 
ATOM     40  H43 UNL     1      -2.645   4.567 120.344  1.00  0.00     0.274 HD
ATOM     41  H42 UNL     1      -4.080   5.090 120.520  1.00  0.00     0.274 HD
ATOM     42  H41 UNL     1      -3.724   4.299 119.060  1.00  0.00     0.274 HD
ENDBRANCH  38  39
ENDBRANCH  35  38
ENDBRANCH  33  34
BRANCH  33  43
HETATM   43  C11 UNL     1      -5.391   7.996 122.945  1.00  0.00     0.230 C 
BRANCH  43  44
HETATM   44  O5  UNL     1      -6.578   8.639 123.175  1.00  0.00    -0.384 OA
ATOM     45  H5  UNL     1      -6.996   8.895 122.361  1.00  0.00     0.210 HD
ENDBRANCH  43  44
BRANCH  43  46
HETATM   46  C12 UNL     1      -4.601   8.020 124.171  1.00  0.00     0.262 C 
HETATM   47  N5  UNL     1      -4.790   8.808 125.320  1.00  0.00    -0.060 NA
HETATM   48  O6  UNL     1      -3.590   7.229 124.238  1.00  0.00    -0.274 OA
ENDBRANCH  43  46
ENDBRANCH  33  43
ENDBRANCH  32  33
ENDBRANCH  30  32
ENDBRANCH  13  30
ENDBRANCH  10  13
ENDBRANCH   1   9
TORSDOF 18
ENDMDL
MODEL 5
REMARK VINA RESULT: -7.336217623      2.309      6.721
REMARK  18 active torsions:
REMARK  status: ('A' for Active; 'I' for Inactive)
REMARK       I    between atoms: C2_2  and  N1_4 
REMARK    1  A    between atoms: N1_4  and  C3_6 
REMARK    2  A    between atoms: C3_6  and  C4_7 
REMARK    3  A    between atoms: C3_6  and  C17_43 
REMARK       I    between atoms: C4_7  and  N2_9 
REMARK    4  A    between atoms: N2_9  and  C5_11 
REMARK    5  A    between atoms: C5_11  and  C6_12 
REMARK    6  A    between atoms: C5_11  and  C13_31 
REMARK    7  A    between atoms: C6_12  and  C7_14 
REMARK    8  A    between atoms: C7_14  and  C8_15 
REMARK    9  A    between atoms: C8_15  and  N3_16 
REMARK   10  A    between atoms: C8_15  and  C11_25 
REMARK       I    between atoms: N3_16  and  C9_18 
REMARK   11  A    between atoms: C9_18  and  C10_20 
REMARK   12  A    between atoms: C10_20  and  N4_21 
REMARK   13  A    between atoms: C11_25  and  O5_26 
REMARK   14  A    between atoms: C11_25  and  C12_28 
REMARK   15  A    between atoms: N6_33  and  N7_35 
REMARK       I    between atoms: N7_35  and  C15_37 
REMARK       I    between atoms: C15_37  and  N8_39 
REMARK   16  A    between atoms: C17_43  and  O8_44 
REMARK   17  A    between atoms: C17_43  and  C18_46 
REMARK   18  A    between atoms: C18_46  and  O9_47 
ROOT
HETATM    1  N7  UNL     1      -3.658  15.384 120.811  1.00  0.00    -0.251 N 
ATOM      2  H7  UNL     1      -4.519  15.730 120.385  1.00  0.00     0.191 HD
HETATM    3  C15 UNL     1      -2.494  16.197 120.758  1.00  0.00     0.347 C 
HETATM    4  O7  UNL     1      -1.441  15.772 121.280  1.00  0.00    -0.245 OA
HETATM    5  N8  UNL     1      -2.531  17.449 120.131  1.00  0.00    -0.244 N 
ATOM      6  H8  UNL     1      -3.410  17.760 119.716  1.00  0.00     0.183 HD
HETATM    7  C16 UNL     1      -1.413  18.295 120.047  1.00  0.00     0.186 C 
HETATM    8  N9  UNL     1      -0.509  18.994 119.990  1.00  0.00    -0.172 NA
ENDROOT
BRANCH   1   9
HETATM    9  N6  UNL     1      -3.668  14.139 121.420  1.00  0.00    -0.303 N 
HETATM   10  C13 UNL     1      -4.713  13.743 122.049  1.00  0.00     0.030 C 
HETATM   11  C14 UNL     1      -5.891  14.644 122.101  1.00  0.00     0.068 C 
ATOM     12  H6  UNL     1      -2.845  13.539 121.368  1.00  0.00     0.186 HD
BRANCH  10  13
HETATM   13  C5  UNL     1      -4.736  12.423 122.702  1.00  0.00     0.201 C 
BRANCH  13  14
HETATM   14  N2  UNL     1      -3.871  12.366 123.858  1.00  0.00    -0.343 N 
HETATM   15  C4  UNL     1      -4.272  11.856 125.108  1.00  0.00     0.244 C 
HETATM   16  O2  UNL     1      -5.447  11.428 125.218  1.00  0.00    -0.271 OA
ATOM     17  H2  UNL     1      -2.918  12.714 123.763  1.00  0.00     0.163 HD
BRANCH  15  18
HETATM   18  C3  UNL     1      -3.376  11.803 126.284  1.00  0.00     0.207 C 
BRANCH  18  19
HETATM   19  N1  UNL     1      -3.784  12.771 127.291  1.00  0.00    -0.346 N 
HETATM   20  C2  UNL     1      -3.973  12.425 128.627  1.00  0.00     0.214 C 
HETATM   21  C1  UNL     1      -4.392  13.451 129.612  1.00  0.00     0.117 C 
HETATM   22  O1  UNL     1      -3.799  11.252 129.047  1.00  0.00    -0.274 OA
ATOM     23  H1  UNL     1      -3.938  13.738 127.008  1.00  0.00     0.163 HD
ENDBRANCH  18  19
BRANCH  18  24
HETATM   24  C17 UNL     1      -1.945  12.087 125.930  1.00  0.00     0.173 C 
BRANCH  24  25
HETATM   25  O8  UNL     1      -1.648  13.433 125.893  1.00  0.00    -0.391 OA
ATOM     26  H8  UNL     1      -1.285  13.716 125.062  1.00  0.00     0.210 HD
ENDBRANCH  24  25
BRANCH  24  27
HETATM   27  C18 UNL     1      -0.973  11.303 126.782  1.00  0.00     0.198 C 
BRANCH  27  28
HETATM   28  O9  UNL     1      -1.594  10.268 127.464  1.00  0.00    -0.398 OA
ATOM     29  H9  UNL     1      -2.528  10.412 127.560  1.00  0.00     0.209 HD
ENDBRANCH  27  28
ENDBRANCH  24  27
ENDBRANCH  18  24
ENDBRANCH  15  18
ENDBRANCH  13  14
BRANCH  13  30
HETATM   30  C6  UNL     1      -4.391  11.356 121.691  1.00  0.00     0.157 C 
HETATM   31  O3  UNL     1      -3.236  11.295 121.388  1.00  0.00    -0.295 OA
BRANCH  30  32
HETATM   32  C7  UNL     1      -5.398  10.475 121.139  1.00  0.00     0.109 C 
BRANCH  32  33
HETATM   33  C8  UNL     1      -5.223   9.015 121.380  1.00  0.00     0.129 C 
BRANCH  33  34
HETATM   34  N3  UNL     1      -3.768   8.710 121.333  1.00  0.00    -0.352 N 
HETATM   35  C9  UNL     1      -3.247   8.061 120.209  1.00  0.00     0.243 C 
HETATM   36  O4  UNL     1      -4.010   7.747 119.264  1.00  0.00    -0.272 OA
ATOM     37  H3  UNL     1      -3.159   8.971 122.109  1.00  0.00     0.163 HD
BRANCH  35  38
HETATM   38  C10 UNL     1      -1.814   7.725 120.093  1.00  0.00     0.332 C 
BRANCH  38  39
HETATM   39  N4  UNL     1      -1.216   8.630 119.136  1.00  0.00    -0.071 N 
ATOM     40  H43 UNL     1      -1.904   9.225 118.673  1.00  0.00     0.274 HD
ATOM     41  H42 UNL     1      -0.672   9.370 119.580  1.00  0.00     0.274 HD
ATOM     42  H41 UNL     1      -0.666   8.078 118.478  1.00  0.00     0.274 HD
ENDBRANCH  38  39
ENDBRANCH  35  38
ENDBRANCH  33  34
BRANCH  33  43
HETATM   43  C11 UNL     1      -5.732   8.465 122.691  1.00  0.00     0.230 C 
BRANCH  43  44
HETATM   44  O5  UNL     1      -6.320   9.443 123.448  1.00  0.00    -0.384 OA
ATOM     45  H5  UNL     1      -6.137   9.322 124.372  1.00  0.00     0.210 HD
ENDBRANCH  43  44
BRANCH  43  46
HETATM   46  C12 UNL     1      -4.762   7.754 123.516  1.00  0.00     0.262 C 
HETATM   47  N5  UNL     1      -4.413   6.393 123.481  1.00  0.00    -0.060 NA
HETATM   48  O6  UNL     1      -4.129   8.436 124.402  1.00  0.00    -0.274 OA
ENDBRANCH  43  46
ENDBRANCH  33  43
ENDBRANCH  32  33
ENDBRANCH  30  32
ENDBRANCH  13  30
ENDBRANCH  10  13
ENDBRANCH   1   9
TORSDOF 18
ENDMDL
