MODEL 1
REMARK VINA RESULT: -7.451747293      0.000      0.000
REMARK  6 active torsions:
REMARK  status: ('A' for Active; 'I' for Inactive)
REMARK    1  A    between atoms: N2_3  and  C2_5 
REMARK    2  A    between atoms: C2_5  and  C3_6 
REMARK    3  A    between atoms: C2_5  and  C8_21 
REMARK    4  A    between atoms: C10_27  and  S2_28 
REMARK    5  A    between atoms: S2_28  and  C11_29 
REMARK    6  A    between atoms: C11_29  and  C12_30 
ROOT
HETATM    1  N1  UNL     1       5.514   4.157  79.550  1.00  0.00    -0.172 NA
HETATM    2  C1  UNL     1       5.196   4.753  80.495  1.00  0.00     0.182 C 
HETATM    3  N2  UNL     1       4.808   5.456  81.656  1.00  0.00    -0.293 N 
ATOM      4  H2  UNL     1       5.482   5.509  82.420  1.00  0.00     0.178 HD
ENDROOT
BRANCH   3   5
HETATM    5  C2  UNL     1       3.559   6.091  81.843  1.00  0.00     0.076 C 
BRANCH   5   6
HETATM    6  C3  UNL     1       2.877   6.767  80.733  1.00  0.00     0.090 A 
HETATM    7  N3  UNL     1       3.252   7.984  80.313  1.00  0.00    -0.333 N 
HETATM    8  C4  UNL     1       2.694   8.846  79.504  1.00  0.00     0.144 A 
ATOM      9  H3  UNL     1       4.143   8.297  80.698  1.00  0.00     0.168 HD
HETATM   10  N4  UNL     1       3.139  10.044  79.219  1.00  0.00    -0.380 N 
HETATM   11  S1  UNL     1       1.190   8.354  78.825  1.00  0.00    -0.034 SA
ATOM     12  H42 UNL     1       4.029  10.335  79.621  1.00  0.00     0.158 HD
ATOM     13  H41 UNL     1       2.703  10.717  78.588  1.00  0.00     0.158 HD
HETATM   14  C5  UNL     1       0.743   6.798  79.377  1.00  0.00     0.107 A 
HETATM   15  N5  UNL     1      -0.268   5.921  79.148  1.00  0.00    -0.345 N 
HETATM   16  C7  UNL     1       1.668   6.180  80.287  1.00  0.00     0.096 A 
HETATM   17  C6  UNL     1      -0.004   4.797  79.869  1.00  0.00     0.182 A 
ATOM     18  H5  UNL     1      -1.076   6.075  78.546  1.00  0.00     0.167 HD
HETATM   19  N6  UNL     1       1.101   4.948  80.520  1.00  0.00    -0.348 N 
ATOM     20  H6  UNL     1       1.505   4.239  81.132  1.00  0.00     0.167 HD
ENDBRANCH   5   6
BRANCH   5  21
HETATM   21  C8  UNL     1       3.083   6.312  83.231  1.00  0.00     0.184 A 
HETATM   22  N7  UNL     1       2.468   5.022  83.652  1.00  0.00    -0.360 N 
HETATM   23  C9  UNL     1       1.288   5.289  84.065  1.00  0.00     0.121 A 
ATOM     24  H7  UNL     1       2.904   4.101  83.617  1.00  0.00     0.162 HD
HETATM   25  N8  UNL     1       0.335   4.423  84.548  1.00  0.00    -0.322 N 
HETATM   26  C14 UNL     1       1.018   6.627  84.012  1.00  0.00     0.098 A 
HETATM   27  C10 UNL     1      -0.849   4.799  84.978  1.00  0.00     0.149 A 
ATOM     28  H8  UNL     1       0.560   3.429  84.574  1.00  0.00     0.169 HD
HETATM   29  N9  UNL     1      -1.124   6.146  84.935  1.00  0.00    -0.303 N 
HETATM   30  C13 UNL     1      -0.230   7.036  84.469  1.00  0.00     0.263 A 
ATOM     31  H9  UNL     1      -2.031   6.478  85.264  1.00  0.00     0.171 HD
HETATM   32  O3  UNL     1      -0.543   8.261  84.459  1.00  0.00    -0.267 OA
HETATM   33  C15 UNL     1       2.051   7.292  83.525  1.00  0.00     0.072 A 
HETATM   34  N10 UNL     1       2.155   8.712  83.342  1.00  0.00    -0.103 NA
BRANCH  27  35
HETATM   35  S2  UNL     1      -2.155   3.662  85.463  1.00  0.00    -0.083 SA
BRANCH  35  36
HETATM   36  C11 UNL     1      -1.598   2.603  86.820  1.00  0.00     0.195 C 
BRANCH  36  37
HETATM   37  C12 UNL     1      -0.946   1.368  86.414  1.00  0.00     0.182 C 
HETATM   38  O1  UNL     1      -1.563   0.258  86.570  1.00  0.00    -0.647 OA
HETATM   39  O2  UNL     1       0.294   1.341  85.871  1.00  0.00    -0.647 OA
ENDBRANCH  36  37
ENDBRANCH  35  36
ENDBRANCH  27  35
ENDBRANCH   5  21
ENDBRANCH   3   5
TORSDOF 6
ENDMDL
MODEL 2
REMARK VINA RESULT: -7.366648135      2.198      3.289
REMARK  6 active torsions:
REMARK  status: ('A' for Active; 'I' for Inactive)
REMARK    1  A    between atoms: N2_3  and  C2_5 
REMARK    2  A    between atoms: C2_5  and  C3_6 
REMARK    3  A    between atoms: C2_5  and  C8_21 
REMARK    4  A    between atoms: C10_27  and  S2_28 
REMARK    5  A    between atoms: S2_28  and  C11_29 
REMARK    6  A    between atoms: C11_29  and  C12_30 
ROOT
HETATM    1  N1  UNL     1      -1.201   2.252  80.628  1.00  0.00    -0.172 NA
HETATM    2  C1  UNL     1      -0.789   3.317  80.410  1.00  0.00     0.182 C 
HETATM    3  N2  UNL     1      -0.284   4.603  80.123  1.00  0.00    -0.293 N 
ATOM      4  H2  UNL     1      -0.837   5.197  79.505  1.00  0.00     0.178 HD
ENDROOT
BRANCH   3   5
HETATM    5  C2  UNL     1       0.928   5.131  80.624  1.00  0.00     0.076 C 
BRANCH   5   6
HETATM    6  C3  UNL     1       2.164   5.080  79.834  1.00  0.00     0.090 A 
HETATM    7  N3  UNL     1       3.363   4.912  80.411  1.00  0.00    -0.333 N 
HETATM    8  C4  UNL     1       4.582   5.028  79.956  1.00  0.00     0.144 A 
ATOM      9  H3  UNL     1       3.313   4.642  81.393  1.00  0.00     0.168 HD
HETATM   10  N4  UNL     1       5.685   4.895  80.648  1.00  0.00    -0.380 N 
HETATM   11  S1  UNL     1       4.710   5.476  78.298  1.00  0.00    -0.034 SA
ATOM     12  H42 UNL     1       5.609   4.629  81.629  1.00  0.00     0.158 HD
ATOM     13  H41 UNL     1       6.637   4.985  80.292  1.00  0.00     0.158 HD
HETATM   14  C5  UNL     1       3.167   5.679  77.592  1.00  0.00     0.107 A 
HETATM   15  N5  UNL     1       2.673   5.965  76.359  1.00  0.00    -0.345 N 
HETATM   16  C7  UNL     1       2.053   5.448  78.472  1.00  0.00     0.096 A 
HETATM   17  C6  UNL     1       1.316   5.916  76.441  1.00  0.00     0.182 A 
ATOM     18  H5  UNL     1       3.220   6.177  75.524  1.00  0.00     0.167 HD
HETATM   19  N6  UNL     1       0.964   5.622  77.648  1.00  0.00    -0.348 N 
ATOM     20  H6  UNL     1      -0.005   5.530  77.955  1.00  0.00     0.167 HD
ENDBRANCH   5   6
BRANCH   5  21
HETATM   21  C8  UNL     1       1.001   5.479  82.065  1.00  0.00     0.184 A 
HETATM   22  N7  UNL     1       0.744   4.207  82.796  1.00  0.00    -0.360 N 
HETATM   23  C9  UNL     1      -0.207   4.434  83.617  1.00  0.00     0.121 A 
ATOM     24  H7  UNL     1       1.235   3.322  82.666  1.00  0.00     0.162 HD
HETATM   25  N8  UNL     1      -0.798   3.565  84.505  1.00  0.00    -0.322 N 
HETATM   26  C14 UNL     1      -0.627   5.734  83.568  1.00  0.00     0.098 A 
HETATM   27  C10 UNL     1      -1.760   3.903  85.335  1.00  0.00     0.149 A 
ATOM     28  H8  UNL     1      -0.470   2.600  84.520  1.00  0.00     0.169 HD
HETATM   29  N9  UNL     1      -2.181   5.211  85.295  1.00  0.00    -0.303 N 
HETATM   30  C13 UNL     1      -1.641   6.103  84.445  1.00  0.00     0.263 A 
ATOM     31  H9  UNL     1      -2.922   5.513  85.927  1.00  0.00     0.171 HD
HETATM   32  O3  UNL     1      -2.069   7.292  84.460  1.00  0.00    -0.267 OA
HETATM   33  C15 UNL     1       0.058   6.410  82.662  1.00  0.00     0.072 A 
HETATM   34  N10 UNL     1      -0.078   7.802  82.339  1.00  0.00    -0.103 NA
BRANCH  27  35
HETATM   35  S2  UNL     1      -2.642   2.739  86.385  1.00  0.00    -0.083 SA
BRANCH  35  36
HETATM   36  C11 UNL     1      -1.591   1.319  86.775  1.00  0.00     0.195 C 
BRANCH  36  37
HETATM   37  C12 UNL     1      -0.500   1.082  85.844  1.00  0.00     0.182 C 
HETATM   38  O1  UNL     1       0.641   1.613  86.074  1.00  0.00    -0.647 OA
HETATM   39  O2  UNL     1      -0.638   0.314  84.737  1.00  0.00    -0.647 OA
ENDBRANCH  36  37
ENDBRANCH  35  36
ENDBRANCH  27  35
ENDBRANCH   5  21
ENDBRANCH   3   5
TORSDOF 6
ENDMDL
MODEL 3
REMARK VINA RESULT: -7.246663738      1.158      2.524
REMARK  6 active torsions:
REMARK  status: ('A' for Active; 'I' for Inactive)
REMARK    1  A    between atoms: N2_3  and  C2_5 
REMARK    2  A    between atoms: C2_5  and  C3_6 
REMARK    3  A    between atoms: C2_5  and  C8_21 
REMARK    4  A    between atoms: C10_27  and  S2_28 
REMARK    5  A    between atoms: S2_28  and  C11_29 
REMARK    6  A    between atoms: C11_29  and  C12_30 
ROOT
HETATM    1  N1  UNL     1       6.315   4.117  79.160  1.00  0.00    -0.172 NA
HETATM    2  C1  UNL     1       5.931   4.721  80.075  1.00  0.00     0.182 C 
HETATM    3  N2  UNL     1       5.468   5.435  81.202  1.00  0.00    -0.293 N 
ATOM      4  H2  UNL     1       6.146   5.655  81.930  1.00  0.00     0.178 HD
ENDROOT
BRANCH   3   5
HETATM    5  C2  UNL     1       4.136   5.869  81.398  1.00  0.00     0.076 C 
BRANCH   5   6
HETATM    6  C3  UNL     1       3.333   6.383  80.283  1.00  0.00     0.090 A 
HETATM    7  N3  UNL     1       2.434   5.616  79.649  1.00  0.00    -0.333 N 
HETATM    8  C4  UNL     1       1.764   5.780  78.539  1.00  0.00     0.144 A 
ATOM      9  H3  UNL     1       2.235   4.735  80.124  1.00  0.00     0.168 HD
HETATM   10  N4  UNL     1       0.950   4.916  77.988  1.00  0.00    -0.380 N 
HETATM   11  S1  UNL     1       2.064   7.258  77.708  1.00  0.00    -0.034 SA
ATOM     12  H42 UNL     1       0.772   4.041  78.481  1.00  0.00     0.158 HD
ATOM     13  H41 UNL     1       0.426   5.044  77.122  1.00  0.00     0.158 HD
HETATM   14  C5  UNL     1       3.211   8.214  78.543  1.00  0.00     0.107 A 
HETATM   15  N5  UNL     1       3.769   9.443  78.395  1.00  0.00    -0.345 N 
HETATM   16  C7  UNL     1       3.716   7.642  79.761  1.00  0.00     0.096 A 
HETATM   17  C6  UNL     1       4.586   9.652  79.462  1.00  0.00     0.182 A 
ATOM     18  H5  UNL     1       3.605  10.091  77.624  1.00  0.00     0.167 HD
HETATM   19  N6  UNL     1       4.555   8.622  80.241  1.00  0.00    -0.348 N 
ATOM     20  H6  UNL     1       5.089   8.545  81.107  1.00  0.00     0.167 HD
ENDBRANCH   5   6
BRANCH   5  21
HETATM   21  C8  UNL     1       3.658   6.063  82.789  1.00  0.00     0.184 A 
HETATM   22  N7  UNL     1       2.885   4.833  83.121  1.00  0.00    -0.360 N 
HETATM   23  C9  UNL     1       1.737   5.214  83.531  1.00  0.00     0.121 A 
ATOM     24  H7  UNL     1       3.211   3.870  83.037  1.00  0.00     0.162 HD
HETATM   25  N8  UNL     1       0.677   4.442  83.945  1.00  0.00    -0.322 N 
HETATM   26  C14 UNL     1       1.627   6.576  83.555  1.00  0.00     0.098 A 
HETATM   27  C10 UNL     1      -0.464   4.930  84.379  1.00  0.00     0.149 A 
ATOM     28  H8  UNL     1       0.782   3.428  83.915  1.00  0.00     0.169 HD
HETATM   29  N9  UNL     1      -0.578   6.300  84.413  1.00  0.00    -0.303 N 
HETATM   30  C13 UNL     1       0.426   7.103  84.016  1.00  0.00     0.263 A 
ATOM     31  H9  UNL     1      -1.446   6.718  84.748  1.00  0.00     0.171 HD
HETATM   32  O3  UNL     1       0.261   8.356  84.075  1.00  0.00    -0.267 OA
HETATM   33  C15 UNL     1       2.742   7.140  83.126  1.00  0.00     0.072 A 
HETATM   34  N10 UNL     1       3.017   8.546  83.030  1.00  0.00    -0.103 NA
BRANCH  27  35
HETATM   35  S2  UNL     1      -1.906   3.930  84.773  1.00  0.00    -0.083 SA
BRANCH  35  36
HETATM   36  C11 UNL     1      -1.560   2.852  86.184  1.00  0.00     0.195 C 
BRANCH  36  37
HETATM   37  C12 UNL     1      -0.603   1.786  85.928  1.00  0.00     0.182 C 
HETATM   38  O1  UNL     1       0.648   2.040  86.011  1.00  0.00    -0.647 OA
HETATM   39  O2  UNL     1      -0.982   0.526  85.608  1.00  0.00    -0.647 OA
ENDBRANCH  36  37
ENDBRANCH  35  36
ENDBRANCH  27  35
ENDBRANCH   5  21
ENDBRANCH   3   5
TORSDOF 6
ENDMDL
MODEL 4
REMARK VINA RESULT: -7.195588780      2.103      3.396
REMARK  6 active torsions:
REMARK  status: ('A' for Active; 'I' for Inactive)
REMARK    1  A    between atoms: N2_3  and  C2_5 
REMARK    2  A    between atoms: C2_5  and  C3_6 
REMARK    3  A    between atoms: C2_5  and  C8_21 
REMARK    4  A    between atoms: C10_27  and  S2_28 
REMARK    5  A    between atoms: S2_28  and  C11_29 
REMARK    6  A    between atoms: C11_29  and  C12_30 
ROOT
HETATM    1  N1  UNL     1      -1.913   2.443  79.937  1.00  0.00    -0.172 NA
HETATM    2  C1  UNL     1      -0.864   2.788  80.296  1.00  0.00     0.182 C 
HETATM    3  N2  UNL     1       0.405   3.202  80.755  1.00  0.00    -0.293 N 
ATOM      4  H2  UNL     1       1.045   2.478  81.084  1.00  0.00     0.178 HD
ENDROOT
BRANCH   3   5
HETATM    5  C2  UNL     1       0.859   4.540  80.795  1.00  0.00     0.076 C 
BRANCH   5   6
HETATM    6  C3  UNL     1       1.539   5.147  79.645  1.00  0.00     0.090 A 
HETATM    7  N3  UNL     1       0.896   5.384  78.492  1.00  0.00    -0.333 N 
HETATM    8  C4  UNL     1       1.319   5.720  77.302  1.00  0.00     0.144 A 
ATOM      9  H3  UNL     1      -0.117   5.284  78.556  1.00  0.00     0.168 HD
HETATM   10  N4  UNL     1       0.584   5.865  76.229  1.00  0.00    -0.380 N 
HETATM   11  S1  UNL     1       3.024   5.908  77.152  1.00  0.00    -0.034 SA
ATOM     12  H42 UNL     1      -0.426   5.754  76.318  1.00  0.00     0.158 HD
ATOM     13  H41 UNL     1       0.914   6.127  75.300  1.00  0.00     0.158 HD
HETATM   14  C5  UNL     1       3.813   5.602  78.638  1.00  0.00     0.107 A 
HETATM   15  N5  UNL     1       5.086   5.647  79.109  1.00  0.00    -0.345 N 
HETATM   16  C7  UNL     1       2.948   5.250  79.731  1.00  0.00     0.096 A 
HETATM   17  C6  UNL     1       5.041   5.344  80.435  1.00  0.00     0.182 A 
ATOM     18  H5  UNL     1       5.922   5.867  78.568  1.00  0.00     0.167 HD
HETATM   19  N6  UNL     1       3.819   5.117  80.788  1.00  0.00    -0.348 N 
ATOM     20  H6  UNL     1       3.535   4.869  81.736  1.00  0.00     0.167 HD
ENDBRANCH   5   6
BRANCH   5  21
HETATM   21  C8  UNL     1       0.894   5.231  82.108  1.00  0.00     0.184 A 
HETATM   22  N7  UNL     1       0.623   4.175  83.123  1.00  0.00    -0.360 N 
HETATM   23  C9  UNL     1      -0.350   4.589  83.840  1.00  0.00     0.121 A 
ATOM     24  H7  UNL     1       1.119   3.290  83.225  1.00  0.00     0.162 HD
HETATM   25  N8  UNL     1      -0.961   3.959  84.900  1.00  0.00    -0.322 N 
HETATM   26  C14 UNL     1      -0.771   5.833  83.464  1.00  0.00     0.098 A 
HETATM   27  C10 UNL     1      -1.943   4.481  85.598  1.00  0.00     0.149 A 
ATOM     28  H8  UNL     1      -0.630   3.029  85.158  1.00  0.00     0.169 HD
HETATM   29  N9  UNL     1      -2.367   5.736  85.229  1.00  0.00    -0.303 N 
HETATM   30  C13 UNL     1      -1.807   6.397  84.200  1.00  0.00     0.263 A 
ATOM     31  H9  UNL     1      -3.124   6.178  85.750  1.00  0.00     0.171 HD
HETATM   32  O3  UNL     1      -2.239   7.550  83.912  1.00  0.00    -0.267 OA
HETATM   33  C15 UNL     1      -0.066   6.272  82.436  1.00  0.00     0.072 A 
HETATM   34  N10 UNL     1      -0.196   7.541  81.779  1.00  0.00    -0.103 NA
BRANCH  27  35
HETATM   35  S2  UNL     1      -2.849   3.602  86.881  1.00  0.00    -0.083 SA
BRANCH  35  36
HETATM   36  C11 UNL     1      -1.756   2.453  87.750  1.00  0.00     0.195 C 
BRANCH  36  37
HETATM   37  C12 UNL     1      -1.296   1.320  86.962  1.00  0.00     0.182 C 
HETATM   38  O1  UNL     1      -1.987   0.243  86.960  1.00  0.00    -0.647 OA
HETATM   39  O2  UNL     1      -0.163   1.356  86.222  1.00  0.00    -0.647 OA
ENDBRANCH  36  37
ENDBRANCH  35  36
ENDBRANCH  27  35
ENDBRANCH   5  21
ENDBRANCH   3   5
TORSDOF 6
ENDMDL
MODEL 5
REMARK VINA RESULT: -7.068144930      2.009      3.409
REMARK  6 active torsions:
REMARK  status: ('A' for Active; 'I' for Inactive)
REMARK    1  A    between atoms: N2_3  and  C2_5 
REMARK    2  A    between atoms: C2_5  and  C3_6 
REMARK    3  A    between atoms: C2_5  and  C8_21 
REMARK    4  A    between atoms: C10_27  and  S2_28 
REMARK    5  A    between atoms: S2_28  and  C11_29 
REMARK    6  A    between atoms: C11_29  and  C12_30 
ROOT
HETATM    1  N1  UNL     1       3.819   5.097  77.326  1.00  0.00    -0.172 NA
HETATM    2  C1  UNL     1       2.693   5.190  77.598  1.00  0.00     0.182 C 
HETATM    3  N2  UNL     1       1.325   5.324  77.917  1.00  0.00    -0.293 N 
ATOM      4  H2  UNL     1       0.658   5.310  77.145  1.00  0.00     0.178 HD
ENDROOT
BRANCH   3   5
HETATM    5  C2  UNL     1       0.806   5.476  79.224  1.00  0.00     0.076 C 
BRANCH   5   6
HETATM    6  C3  UNL     1       0.189   6.736  79.655  1.00  0.00     0.090 A 
HETATM    7  N3  UNL     1      -1.140   6.912  79.637  1.00  0.00    -0.333 N 
HETATM    8  C4  UNL     1      -1.889   7.973  79.778  1.00  0.00     0.144 A 
ATOM      9  H3  UNL     1      -1.668   6.052  79.483  1.00  0.00     0.168 HD
HETATM   10  N4  UNL     1      -3.194   8.022  79.677  1.00  0.00    -0.380 N 
HETATM   11  S1  UNL     1      -1.038   9.445  80.046  1.00  0.00    -0.034 SA
ATOM     12  H42 UNL     1      -3.697   7.150  79.518  1.00  0.00     0.158 HD
ATOM     13  H41 UNL     1      -3.778   8.851  79.787  1.00  0.00     0.158 HD
HETATM   14  C5  UNL     1       0.652   9.187  80.067  1.00  0.00     0.107 A 
HETATM   15  N5  UNL     1       1.764   9.937  80.281  1.00  0.00    -0.345 N 
HETATM   16  C7  UNL     1       1.068   7.826  79.865  1.00  0.00     0.096 A 
HETATM   17  C6  UNL     1       2.837   9.102  80.222  1.00  0.00     0.182 A 
ATOM     18  H5  UNL     1       1.791  10.941  80.454  1.00  0.00     0.167 HD
HETATM   19  N6  UNL     1       2.437   7.897  79.983  1.00  0.00    -0.348 N 
ATOM     20  H6  UNL     1       3.061   7.095  79.893  1.00  0.00     0.167 HD
ENDBRANCH   5   6
BRANCH   5  21
HETATM   21  C8  UNL     1       1.148   4.449  80.240  1.00  0.00     0.184 A 
HETATM   22  N7  UNL     1      -0.153   4.016  80.822  1.00  0.00    -0.360 N 
HETATM   23  C9  UNL     1      -0.054   4.140  82.090  1.00  0.00     0.121 A 
ATOM     24  H7  UNL     1      -0.968   3.683  80.307  1.00  0.00     0.162 HD
HETATM   25  N8  UNL     1      -0.998   3.870  83.053  1.00  0.00    -0.322 N 
HETATM   26  C14 UNL     1       1.184   4.581  82.466  1.00  0.00     0.098 A 
HETATM   27  C10 UNL     1      -0.791   4.004  84.344  1.00  0.00     0.149 A 
ATOM     28  H8  UNL     1      -1.915   3.545  82.746  1.00  0.00     0.169 HD
HETATM   29  N9  UNL     1       0.455   4.441  84.729  1.00  0.00    -0.303 N 
HETATM   30  C13 UNL     1       1.415   4.723  83.829  1.00  0.00     0.263 A 
ATOM     31  H9  UNL     1       0.657   4.553  85.722  1.00  0.00     0.171 HD
HETATM   32  O3  UNL     1       2.541   5.117  84.247  1.00  0.00    -0.267 OA
HETATM   33  C15 UNL     1       1.948   4.782  81.406  1.00  0.00     0.072 A 
HETATM   34  N10 UNL     1       3.315   5.220  81.398  1.00  0.00    -0.103 NA
BRANCH  27  35
HETATM   35  S2  UNL     1      -2.065   3.803  85.597  1.00  0.00    -0.083 SA
BRANCH  35  36
HETATM   36  C11 UNL     1      -1.499   2.682  86.898  1.00  0.00     0.195 C 
BRANCH  36  37
HETATM   37  C12 UNL     1      -0.904   1.439  86.430  1.00  0.00     0.182 C 
HETATM   38  O1  UNL     1      -1.582   0.357  86.507  1.00  0.00    -0.647 OA
HETATM   39  O2  UNL     1       0.344   1.378  85.908  1.00  0.00    -0.647 OA
ENDBRANCH  36  37
ENDBRANCH  35  36
ENDBRANCH  27  35
ENDBRANCH   5  21
ENDBRANCH   3   5
TORSDOF 6
ENDMDL
