MODEL 1
REMARK VINA RESULT: -8.221364983      0.000      0.000
REMARK  7 active torsions:
REMARK  status: ('A' for Active; 'I' for Inactive)
REMARK    1  A    between atoms: C2_2  and  O1_4 
REMARK    2  A    between atoms: O1_4  and  N1_5 
REMARK       I    between atoms: N1_5  and  C4_7 
REMARK       I    between atoms: C4_7  and  N2_9 
REMARK    3  A    between atoms: N2_9  and  N3_11 
REMARK       I    between atoms: N3_11  and  C5_13 
REMARK    4  A    between atoms: C5_13  and  C6_15 
REMARK    5  A    between atoms: C6_15  and  C7_17 
REMARK    6  A    between atoms: C7_17  and  C8_18 
REMARK    7  A    between atoms: N6_24  and  C10_26 
ROOT
HETATM    1  C8  UNL     1      -1.950   7.838  82.501  1.00  0.00     0.149 A 
HETATM    2  N4  UNL     1      -2.312   8.523  83.590  1.00  0.00    -0.280 N 
ATOM      3  H4  UNL     1      -2.656   9.484  83.598  1.00  0.00     0.189 HD
HETATM    4  N5  UNL     1      -2.155   7.763  84.648  1.00  0.00    -0.263 N 
ATOM      5  H5  UNL     1      -2.352   8.027  85.613  1.00  0.00     0.190 HD
HETATM    6  C9  UNL     1      -1.673   6.542  84.217  1.00  0.00     0.242 A 
HETATM    7  N6  UNL     1      -1.425   5.623  84.970  1.00  0.00    -0.328 N 
ATOM      8  H6  UNL     1      -1.658   5.986  85.894  1.00  0.00     0.165 HD
HETATM    9  O9  UNL     1      -1.574   6.659  82.904  1.00  0.00    -0.263 OA
ENDROOT
BRANCH   1  10
HETATM   10  C7  UNL     1      -1.978   8.351  81.078  1.00  0.00     0.175 C 
BRANCH  10  11
HETATM   11  C6  UNL     1      -1.101   7.415  80.337  1.00  0.00     0.225 C 
HETATM   12  O4  UNL     1      -1.695   6.607  79.553  1.00  0.00    -0.287 OA
BRANCH  11  13
HETATM   13  C5  UNL     1       0.323   7.359  80.443  1.00  0.00     0.306 C 
HETATM   14  N3  UNL     1       0.959   6.397  81.257  1.00  0.00    -0.259 N 
ATOM     15  H3  UNL     1       0.389   5.720  81.764  1.00  0.00     0.190 HD
HETATM   16  O3  UNL     1       1.037   8.181  79.804  1.00  0.00    -0.263 OA
BRANCH  14  17
HETATM   17  N2  UNL     1       2.366   6.346  81.389  1.00  0.00    -0.247 N 
HETATM   18  C4  UNL     1       3.093   5.406  80.587  1.00  0.00     0.359 C 
HETATM   19  N1  UNL     1       4.493   5.255  80.621  1.00  0.00    -0.209 N 
HETATM   20  O2  UNL     1       2.445   4.648  79.782  1.00  0.00    -0.243 OA
ATOM     21  H1  UNL     1       5.048   5.838  81.247  1.00  0.00     0.200 HD
ATOM     22  H2  UNL     1       2.852   6.963  82.039  1.00  0.00     0.192 HD
BRANCH  19  23
HETATM   23  O1  UNL     1       5.111   4.342  79.830  1.00  0.00    -0.240 OA
BRANCH  23  24
HETATM   24  C2  UNL     1       5.899   4.632  78.740  1.00  0.00     0.063 C 
HETATM   25  C1  UNL     1       6.538   3.650  78.139  1.00  0.00     0.048 C 
HETATM   26  C3  UNL     1       6.025   6.026  78.244  1.00  0.00     0.078 C 
ENDBRANCH  23  24
ENDBRANCH  19  23
ENDBRANCH  14  17
ENDBRANCH  11  13
ENDBRANCH  10  11
ENDBRANCH   1  10
BRANCH   7  27
HETATM   27  C10 UNL     1      -0.992   4.351  85.209  1.00  0.00     0.229 A 
HETATM   28  C11 UNL     1      -1.827   3.266  84.534  1.00  0.00     0.112 A 
HETATM   29  C12 UNL     1      -0.522   2.815  83.932  1.00  0.00     0.228 A 
HETATM   30  O5  UNL     1       0.121   3.865  84.557  1.00  0.00    -0.336 OA
HETATM   31  C13 UNL     1      -0.095   1.467  84.400  1.00  0.00     0.270 C 
HETATM   32  C15 UNL     1      -0.461   2.893  82.447  1.00  0.00     0.270 C 
HETATM   33  O6  UNL     1       0.173   1.304  85.618  1.00  0.00    -0.269 OA
HETATM   34  N7  UNL     1       0.029   0.341  83.548  1.00  0.00    -0.276 N 
HETATM   35  C14 UNL     1      -0.091   0.511  82.158  1.00  0.00     0.329 C 
ATOM     36  H7  UNL     1       0.205  -0.584  83.940  1.00  0.00     0.173 HD
HETATM   37  O7  UNL     1       0.023  -0.506  81.402  1.00  0.00    -0.247 OA
HETATM   38  N8  UNL     1      -0.337   1.788  81.598  1.00  0.00    -0.276 N 
ATOM     39  H8  UNL     1      -0.423   1.901  80.588  1.00  0.00     0.173 HD
HETATM   40  O8  UNL     1      -0.524   4.048  81.935  1.00  0.00    -0.269 OA
ENDBRANCH   7  27
TORSDOF 7
ENDMDL
MODEL 2
REMARK VINA RESULT: -8.070508633      1.963      3.108
REMARK  7 active torsions:
REMARK  status: ('A' for Active; 'I' for Inactive)
REMARK    1  A    between atoms: C2_2  and  O1_4 
REMARK    2  A    between atoms: O1_4  and  N1_5 
REMARK       I    between atoms: N1_5  and  C4_7 
REMARK       I    between atoms: C4_7  and  N2_9 
REMARK    3  A    between atoms: N2_9  and  N3_11 
REMARK       I    between atoms: N3_11  and  C5_13 
REMARK    4  A    between atoms: C5_13  and  C6_15 
REMARK    5  A    between atoms: C6_15  and  C7_17 
REMARK    6  A    between atoms: C7_17  and  C8_18 
REMARK    7  A    between atoms: N6_24  and  C10_26 
ROOT
HETATM    1  C8  UNL     1      -0.300   7.871  80.867  1.00  0.00     0.149 A 
HETATM    2  N4  UNL     1      -0.664   7.913  79.582  1.00  0.00    -0.280 N 
ATOM      3  H4  UNL     1      -0.847   8.761  79.045  1.00  0.00     0.189 HD
HETATM    4  N5  UNL     1      -0.749   6.688  79.120  1.00  0.00    -0.263 N 
ATOM      5  H5  UNL     1      -1.008   6.419  78.170  1.00  0.00     0.190 HD
HETATM    6  C9  UNL     1      -0.425   5.828  80.152  1.00  0.00     0.242 A 
HETATM    7  N6  UNL     1      -0.415   4.621  80.032  1.00  0.00    -0.328 N 
ATOM      8  H6  UNL     1      -0.680   4.463  79.059  1.00  0.00     0.165 HD
HETATM    9  O9  UNL     1      -0.163   6.615  81.181  1.00  0.00    -0.263 OA
ENDROOT
BRANCH   1  10
HETATM   10  C7  UNL     1      -0.091   9.067  81.771  1.00  0.00     0.175 C 
BRANCH  10  11
HETATM   11  C6  UNL     1       0.828   8.571  82.822  1.00  0.00     0.225 C 
HETATM   12  O4  UNL     1       0.424   8.718  84.020  1.00  0.00    -0.287 OA
BRANCH  11  13
HETATM   13  C5  UNL     1       2.097   7.959  82.587  1.00  0.00     0.306 C 
HETATM   14  N3  UNL     1       2.301   6.582  82.825  1.00  0.00    -0.259 N 
ATOM     15  H3  UNL     1       1.520   6.015  83.155  1.00  0.00     0.190 HD
HETATM   16  O3  UNL     1       3.064   8.650  82.161  1.00  0.00    -0.263 OA
BRANCH  14  17
HETATM   17  N2  UNL     1       3.558   5.969  82.619  1.00  0.00    -0.247 N 
HETATM   18  C4  UNL     1       3.813   5.339  81.357  1.00  0.00     0.359 C 
HETATM   19  N1  UNL     1       5.020   4.696  81.024  1.00  0.00    -0.209 N 
HETATM   20  O2  UNL     1       2.895   5.354  80.462  1.00  0.00    -0.243 OA
ATOM     21  H1  UNL     1       5.777   4.660  81.706  1.00  0.00     0.200 HD
ATOM     22  H2  UNL     1       4.268   5.974  83.353  1.00  0.00     0.192 HD
BRANCH  19  23
HETATM   23  O1  UNL     1       5.186   4.122  79.805  1.00  0.00    -0.240 OA
BRANCH  23  24
HETATM   24  C2  UNL     1       6.037   4.570  78.821  1.00  0.00     0.063 C 
HETATM   25  C1  UNL     1       6.526   3.701  77.960  1.00  0.00     0.048 C 
HETATM   26  C3  UNL     1       6.395   6.007  78.724  1.00  0.00     0.078 C 
ENDBRANCH  23  24
ENDBRANCH  19  23
ENDBRANCH  14  17
ENDBRANCH  11  13
ENDBRANCH  10  11
ENDBRANCH   1  10
BRANCH   7  27
HETATM   27  C10 UNL     1      -0.230   3.366  80.536  1.00  0.00     0.229 A 
HETATM   28  C11 UNL     1       0.694   3.307  81.750  1.00  0.00     0.112 A 
HETATM   29  C12 UNL     1      -0.458   2.619  82.434  1.00  0.00     0.228 A 
HETATM   30  O5  UNL     1      -1.219   2.772  81.292  1.00  0.00    -0.336 OA
HETATM   31  C13 UNL     1      -0.166   1.204  82.794  1.00  0.00     0.270 C 
HETATM   32  C15 UNL     1      -1.012   3.350  83.607  1.00  0.00     0.270 C 
HETATM   33  O6  UNL     1       0.049   0.375  81.873  1.00  0.00    -0.269 OA
HETATM   34  N7  UNL     1      -0.115   0.725  84.127  1.00  0.00    -0.276 N 
HETATM   35  C14 UNL     1      -0.516   1.568  85.179  1.00  0.00     0.329 C 
ATOM     36  H7  UNL     1       0.209  -0.222  84.322  1.00  0.00     0.173 HD
HETATM   37  O7  UNL     1      -0.467   1.128  86.372  1.00  0.00    -0.247 OA
HETATM   38  N8  UNL     1      -0.967   2.886  84.926  1.00  0.00    -0.276 N 
ATOM     39  H8  UNL     1      -1.256   3.490  85.695  1.00  0.00     0.173 HD
HETATM   40  O8  UNL     1      -1.559   4.466  83.374  1.00  0.00    -0.269 OA
ENDBRANCH   7  27
TORSDOF 7
ENDMDL
MODEL 3
REMARK VINA RESULT: -7.981580332      1.452      1.551
REMARK  7 active torsions:
REMARK  status: ('A' for Active; 'I' for Inactive)
REMARK    1  A    between atoms: C2_2  and  O1_4 
REMARK    2  A    between atoms: O1_4  and  N1_5 
REMARK       I    between atoms: N1_5  and  C4_7 
REMARK       I    between atoms: C4_7  and  N2_9 
REMARK    3  A    between atoms: N2_9  and  N3_11 
REMARK       I    between atoms: N3_11  and  C5_13 
REMARK    4  A    between atoms: C5_13  and  C6_15 
REMARK    5  A    between atoms: C6_15  and  C7_17 
REMARK    6  A    between atoms: C7_17  and  C8_18 
REMARK    7  A    between atoms: N6_24  and  C10_26 
ROOT
HETATM    1  C8  UNL     1      -1.364   8.186  82.149  1.00  0.00     0.149 A 
HETATM    2  N4  UNL     1      -2.005   8.821  83.135  1.00  0.00    -0.280 N 
ATOM      3  H4  UNL     1      -2.387   9.766  83.080  1.00  0.00     0.189 HD
HETATM    4  N5  UNL     1      -2.065   8.036  84.184  1.00  0.00    -0.263 N 
ATOM      5  H5  UNL     1      -2.497   8.260  85.080  1.00  0.00     0.190 HD
HETATM    6  C9  UNL     1      -1.437   6.850  83.855  1.00  0.00     0.242 A 
HETATM    7  N6  UNL     1      -1.329   5.919  84.626  1.00  0.00    -0.328 N 
ATOM      8  H6  UNL     1      -1.792   6.243  85.476  1.00  0.00     0.165 HD
HETATM    9  O9  UNL     1      -1.037   7.012  82.606  1.00  0.00    -0.263 OA
ENDROOT
BRANCH   1  10
HETATM   10  C7  UNL     1      -1.079   8.742  80.771  1.00  0.00     0.175 C 
BRANCH  10  11
HETATM   11  C6  UNL     1      -1.555   7.685  79.848  1.00  0.00     0.225 C 
HETATM   12  O4  UNL     1      -2.779   7.356  79.972  1.00  0.00    -0.287 OA
BRANCH  11  13
HETATM   13  C5  UNL     1      -0.756   7.029  78.862  1.00  0.00     0.306 C 
HETATM   14  N3  UNL     1       0.078   5.940  79.201  1.00  0.00    -0.259 N 
ATOM     15  H3  UNL     1       0.093   5.608  80.166  1.00  0.00     0.190 HD
HETATM   16  O3  UNL     1      -0.782   7.421  77.663  1.00  0.00    -0.263 OA
BRANCH  14  17
HETATM   17  N2  UNL     1       0.891   5.297  78.240  1.00  0.00    -0.247 N 
HETATM   18  C4  UNL     1       2.285   5.625  78.196  1.00  0.00     0.359 C 
HETATM   19  N1  UNL     1       3.202   5.057  77.291  1.00  0.00    -0.209 N 
HETATM   20  O2  UNL     1       2.745   6.486  79.027  1.00  0.00    -0.243 OA
ATOM     21  H1  UNL     1       2.880   4.367  76.612  1.00  0.00     0.200 HD
ATOM     22  H2  UNL     1       0.494   4.616  77.592  1.00  0.00     0.192 HD
BRANCH  19  23
HETATM   23  O1  UNL     1       4.511   5.418  77.311  1.00  0.00    -0.240 OA
BRANCH  23  24
HETATM   24  C2  UNL     1       5.575   4.556  77.443  1.00  0.00     0.063 C 
HETATM   25  C1  UNL     1       6.053   3.968  76.366  1.00  0.00     0.048 C 
HETATM   26  C3  UNL     1       6.181   4.296  78.774  1.00  0.00     0.078 C 
ENDBRANCH  23  24
ENDBRANCH  19  23
ENDBRANCH  14  17
ENDBRANCH  11  13
ENDBRANCH  10  11
ENDBRANCH   1  10
BRANCH   7  27
HETATM   27  C10 UNL     1      -0.904   4.660  84.935  1.00  0.00     0.229 A 
HETATM   28  C11 UNL     1      -1.770   3.544  84.355  1.00  0.00     0.112 A 
HETATM   29  C12 UNL     1      -0.488   3.038  83.747  1.00  0.00     0.228 A 
HETATM   30  O5  UNL     1       0.185   4.118  84.285  1.00  0.00    -0.336 OA
HETATM   31  C13 UNL     1      -0.063   1.718  84.290  1.00  0.00     0.270 C 
HETATM   32  C15 UNL     1      -0.468   3.019  82.259  1.00  0.00     0.270 C 
HETATM   33  O6  UNL     1       0.238   1.630  85.508  1.00  0.00    -0.269 OA
HETATM   34  N7  UNL     1       0.024   0.538  83.510  1.00  0.00    -0.276 N 
HETATM   35  C14 UNL     1      -0.134   0.619  82.115  1.00  0.00     0.329 C 
ATOM     36  H7  UNL     1       0.201  -0.362  83.956  1.00  0.00     0.173 HD
HETATM   37  O7  UNL     1      -0.053  -0.446  81.423  1.00  0.00    -0.247 OA
HETATM   38  N8  UNL     1      -0.382   1.861  81.481  1.00  0.00    -0.276 N 
ATOM     39  H8  UNL     1      -0.495   1.910  80.468  1.00  0.00     0.173 HD
HETATM   40  O8  UNL     1      -0.533   4.140  81.676  1.00  0.00    -0.269 OA
ENDBRANCH   7  27
TORSDOF 7
ENDMDL
MODEL 4
REMARK VINA RESULT: -7.922307233      4.146      8.974
REMARK  7 active torsions:
REMARK  status: ('A' for Active; 'I' for Inactive)
REMARK    1  A    between atoms: C2_2  and  O1_4 
REMARK    2  A    between atoms: O1_4  and  N1_5 
REMARK       I    between atoms: N1_5  and  C4_7 
REMARK       I    between atoms: C4_7  and  N2_9 
REMARK    3  A    between atoms: N2_9  and  N3_11 
REMARK       I    between atoms: N3_11  and  C5_13 
REMARK    4  A    between atoms: C5_13  and  C6_15 
REMARK    5  A    between atoms: C6_15  and  C7_17 
REMARK    6  A    between atoms: C7_17  and  C8_18 
REMARK    7  A    between atoms: N6_24  and  C10_26 
ROOT
HETATM    1  C8  UNL     1      -0.488   6.127  79.924  1.00  0.00     0.149 A 
HETATM    2  N4  UNL     1      -0.130   6.880  80.968  1.00  0.00    -0.280 N 
ATOM      3  H4  UNL     1       0.539   6.611  81.691  1.00  0.00     0.189 HD
HETATM    4  N5  UNL     1      -0.776   8.021  80.916  1.00  0.00    -0.263 N 
ATOM      5  H5  UNL     1      -0.699   8.787  81.585  1.00  0.00     0.190 HD
HETATM    6  C9  UNL     1      -1.578   7.996  79.792  1.00  0.00     0.242 A 
HETATM    7  N6  UNL     1      -2.302   8.916  79.473  1.00  0.00    -0.328 N 
ATOM      8  H6  UNL     1      -2.147   9.620  80.195  1.00  0.00     0.165 HD
HETATM    9  O9  UNL     1      -1.352   6.818  79.238  1.00  0.00    -0.263 OA
ENDROOT
BRANCH   1  10
HETATM   10  C7  UNL     1       0.025   4.737  79.613  1.00  0.00     0.175 C 
BRANCH  10  11
HETATM   11  C6  UNL     1       0.558   4.250  80.907  1.00  0.00     0.225 C 
HETATM   12  O4  UNL     1       1.667   4.757  81.271  1.00  0.00    -0.287 OA
BRANCH  11  13
HETATM   13  C5  UNL     1      -0.070   3.278  81.744  1.00  0.00     0.306 C 
HETATM   14  N3  UNL     1       0.691   2.431  82.581  1.00  0.00    -0.259 N 
ATOM     15  H3  UNL     1       1.706   2.531  82.596  1.00  0.00     0.190 HD
HETATM   16  O3  UNL     1      -1.327   3.160  81.746  1.00  0.00    -0.263 OA
BRANCH  14  17
HETATM   17  N2  UNL     1       0.085   1.450  83.397  1.00  0.00    -0.247 N 
HETATM   18  C4  UNL     1      -0.171   1.766  84.771  1.00  0.00     0.359 C 
HETATM   19  N1  UNL     1      -0.769   0.881  85.689  1.00  0.00    -0.209 N 
HETATM   20  O2  UNL     1       0.159   2.925  85.211  1.00  0.00    -0.243 OA
ATOM     21  H1  UNL     1      -1.047  -0.051  85.382  1.00  0.00     0.200 HD
ATOM     22  H2  UNL     1      -0.166   0.536  83.017  1.00  0.00     0.192 HD
BRANCH  19  23
HETATM   23  O1  UNL     1      -0.978   1.255  86.976  1.00  0.00    -0.240 OA
BRANCH  23  24
HETATM   24  C2  UNL     1      -2.069   1.956  87.437  1.00  0.00     0.063 C 
HETATM   25  C1  UNL     1      -1.941   2.684  88.527  1.00  0.00     0.048 C 
HETATM   26  C3  UNL     1      -3.367   1.899  86.718  1.00  0.00     0.078 C 
ENDBRANCH  23  24
ENDBRANCH  19  23
ENDBRANCH  14  17
ENDBRANCH  11  13
ENDBRANCH  10  11
ENDBRANCH   1  10
BRANCH   7  27
HETATM   27  C10 UNL     1      -3.218   9.488  78.638  1.00  0.00     0.229 A 
HETATM   28  C11 UNL     1      -2.611  10.344  77.530  1.00  0.00     0.112 A 
HETATM   29  C12 UNL     1      -3.395   9.462  76.594  1.00  0.00     0.228 A 
HETATM   30  O5  UNL     1      -3.845   8.727  77.673  1.00  0.00    -0.336 OA
HETATM   31  C13 UNL     1      -4.464  10.192  75.858  1.00  0.00     0.270 C 
HETATM   32  C15 UNL     1      -2.566   8.665  75.649  1.00  0.00     0.270 C 
HETATM   33  O6  UNL     1      -5.416  10.695  76.510  1.00  0.00    -0.269 OA
HETATM   34  N7  UNL     1      -4.479  10.358  74.451  1.00  0.00    -0.276 N 
HETATM   35  C14 UNL     1      -3.537   9.672  73.665  1.00  0.00     0.329 C 
ATOM     36  H7  UNL     1      -5.167  10.970  74.012  1.00  0.00     0.173 HD
HETATM   37  O7  UNL     1      -3.559   9.827  72.402  1.00  0.00    -0.247 OA
HETATM   38  N8  UNL     1      -2.574   8.821  74.259  1.00  0.00    -0.276 N 
ATOM     39  H8  UNL     1      -1.894   8.327  73.680  1.00  0.00     0.173 HD
HETATM   40  O8  UNL     1      -1.809   7.788  76.158  1.00  0.00    -0.269 OA
ENDBRANCH   7  27
TORSDOF 7
ENDMDL
MODEL 5
REMARK VINA RESULT: -7.872226464      2.131      2.205
REMARK  7 active torsions:
REMARK  status: ('A' for Active; 'I' for Inactive)
REMARK    1  A    between atoms: C2_2  and  O1_4 
REMARK    2  A    between atoms: O1_4  and  N1_5 
REMARK       I    between atoms: N1_5  and  C4_7 
REMARK       I    between atoms: C4_7  and  N2_9 
REMARK    3  A    between atoms: N2_9  and  N3_11 
REMARK       I    between atoms: N3_11  and  C5_13 
REMARK    4  A    between atoms: C5_13  and  C6_15 
REMARK    5  A    between atoms: C6_15  and  C7_17 
REMARK    6  A    between atoms: C7_17  and  C8_18 
REMARK    7  A    between atoms: N6_24  and  C10_26 
ROOT
HETATM    1  C8  UNL     1      -1.641   8.126  82.402  1.00  0.00     0.149 A 
HETATM    2  N4  UNL     1      -2.190   8.749  83.449  1.00  0.00    -0.280 N 
ATOM      3  H4  UNL     1      -2.569   9.697  83.442  1.00  0.00     0.189 HD
HETATM    4  N5  UNL     1      -2.164   7.949  84.488  1.00  0.00    -0.263 N 
ATOM      5  H5  UNL     1      -2.515   8.162  85.422  1.00  0.00     0.190 HD
HETATM    6  C9  UNL     1      -1.575   6.764  84.088  1.00  0.00     0.242 A 
HETATM    7  N6  UNL     1      -1.407   5.822  84.834  1.00  0.00    -0.328 N 
ATOM      8  H6  UNL     1      -1.792   6.136  85.725  1.00  0.00     0.165 HD
HETATM    9  O9  UNL     1      -1.284   6.943  82.812  1.00  0.00    -0.263 OA
ENDROOT
BRANCH   1  10
HETATM   10  C7  UNL     1      -1.474   8.701  81.012  1.00  0.00     0.175 C 
BRANCH  10  11
HETATM   11  C6  UNL     1      -1.346   7.510  80.140  1.00  0.00     0.225 C 
HETATM   12  O4  UNL     1      -2.440   6.953  79.805  1.00  0.00    -0.287 OA
BRANCH  11  13
HETATM   13  C5  UNL     1      -0.114   6.962  79.668  1.00  0.00     0.306 C 
HETATM   14  N3  UNL     1      -0.081   5.745  78.952  1.00  0.00    -0.259 N 
ATOM     15  H3  UNL     1      -0.958   5.261  78.756  1.00  0.00     0.190 HD
HETATM   16  O3  UNL     1       0.973   7.564  79.889  1.00  0.00    -0.263 OA
BRANCH  14  17
HETATM   17  N2  UNL     1       1.132   5.180  78.498  1.00  0.00    -0.247 N 
HETATM   18  C4  UNL     1       1.605   5.534  77.192  1.00  0.00     0.359 C 
HETATM   19  N1  UNL     1       2.796   5.044  76.624  1.00  0.00    -0.209 N 
HETATM   20  O2  UNL     1       0.913   6.348  76.484  1.00  0.00    -0.243 OA
ATOM     21  H1  UNL     1       3.378   4.394  77.152  1.00  0.00     0.200 HD
ATOM     22  H2  UNL     1       1.660   4.535  79.087  1.00  0.00     0.192 HD
BRANCH  19  23
HETATM   23  O1  UNL     1       3.179   5.427  75.379  1.00  0.00    -0.240 OA
BRANCH  23  24
HETATM   24  C2  UNL     1       4.250   4.919  74.681  1.00  0.00     0.063 C 
HETATM   25  C1  UNL     1       5.380   4.702  75.322  1.00  0.00     0.048 C 
HETATM   26  C3  UNL     1       4.137   4.615  73.232  1.00  0.00     0.078 C 
ENDBRANCH  23  24
ENDBRANCH  19  23
ENDBRANCH  14  17
ENDBRANCH  11  13
ENDBRANCH  10  11
ENDBRANCH   1  10
BRANCH   7  27
HETATM   27  C10 UNL     1      -0.966   4.556  85.086  1.00  0.00     0.229 A 
HETATM   28  C11 UNL     1      -1.813   3.456  84.451  1.00  0.00     0.112 A 
HETATM   29  C12 UNL     1      -0.521   2.997  83.827  1.00  0.00     0.228 A 
HETATM   30  O5  UNL     1       0.134   4.060  84.416  1.00  0.00    -0.336 OA
HETATM   31  C13 UNL     1      -0.080   1.659  84.310  1.00  0.00     0.270 C 
HETATM   32  C15 UNL     1      -0.496   3.047  82.340  1.00  0.00     0.270 C 
HETATM   33  O6  UNL     1       0.218   1.519  85.524  1.00  0.00    -0.269 OA
HETATM   34  N7  UNL     1       0.027   0.517  83.477  1.00  0.00    -0.276 N 
HETATM   35  C14 UNL     1      -0.127   0.661  82.087  1.00  0.00     0.329 C 
ATOM     36  H7  UNL     1       0.215  -0.400  83.882  1.00  0.00     0.173 HD
HETATM   37  O7  UNL     1      -0.028  -0.370  81.347  1.00  0.00    -0.247 OA
HETATM   38  N8  UNL     1      -0.390   1.926  81.509  1.00  0.00    -0.276 N 
ATOM     39  H8  UNL     1      -0.500   2.021  80.499  1.00  0.00     0.173 HD
HETATM   40  O8  UNL     1      -0.574   4.192  81.809  1.00  0.00    -0.269 OA
ENDBRANCH   7  27
TORSDOF 7
ENDMDL
