MODEL 1
REMARK VINA RESULT: -6.194265625      0.000      0.000
REMARK  2 active torsions:
REMARK  status: ('A' for Active; 'I' for Inactive)
REMARK    1  A    between atoms: N2_7  and  C6_8 
REMARK    2  A    between atoms: C6_8  and  O1_12 
ROOT
HETATM    1  C1  UNL     1      -1.686   8.153  84.217  1.00  0.00     0.148 C 
HETATM    2  N1  UNL     1      -1.673   6.740  84.306  1.00  0.00    -0.397 N 
HETATM    3  C2  UNL     1      -0.786   6.047  83.465  1.00  0.00     0.058 C 
HETATM    4  C3  UNL     1       0.129   5.073  84.118  1.00  0.00     0.051 C 
HETATM    5  C4  UNL     1      -0.486   4.272  85.216  1.00  0.00     0.014 C 
HETATM    6  C5  UNL     1      -0.394   2.780  85.004  1.00  0.00     0.131 C 
HETATM    7  N2  UNL     1      -1.014   2.150  86.154  1.00  0.00    -0.347 N 
HETATM    8  C7  UNL     1      -1.607   3.001  87.163  1.00  0.00     0.127 C 
HETATM    9  C8  UNL     1      -2.598   3.965  86.539  1.00  0.00     0.026 C 
HETATM   10  C9  UNL     1      -1.919   4.665  85.411  1.00  0.00     0.011 C 
HETATM   11  C10 UNL     1      -1.913   6.187  85.590  1.00  0.00     0.126 C 
ENDROOT
BRANCH   7  12
HETATM   12  C6  UNL     1      -1.031   0.735  86.276  1.00  0.00     0.212 C 
HETATM   13  N3  UNL     1      -0.184   0.046  85.590  1.00  0.00    -0.365 N 
ATOM     14  H32 UNL     1       0.466   0.549  84.986  1.00  0.00     0.159 HD
ATOM     15  H31 UNL     1      -0.197  -0.970  85.678  1.00  0.00     0.159 HD
BRANCH  12  16
HETATM   16  O1  UNL     1      -1.906   0.056  87.090  1.00  0.00    -0.333 OA
ATOM     17  H1  UNL     1      -1.995  -0.890  87.090  1.00  0.00     0.220 HD
ENDBRANCH  12  16
ENDBRANCH   7  12
TORSDOF 2
ENDMDL
MODEL 2
REMARK VINA RESULT: -5.676267667      1.091      2.167
REMARK  2 active torsions:
REMARK  status: ('A' for Active; 'I' for Inactive)
REMARK    1  A    between atoms: N2_7  and  C6_8 
REMARK    2  A    between atoms: C6_8  and  O1_12 
ROOT
HETATM    1  C1  UNL     1      -0.215   8.514  83.529  1.00  0.00     0.148 C 
HETATM    2  N1  UNL     1      -0.209   7.258  84.181  1.00  0.00    -0.397 N 
HETATM    3  C2  UNL     1      -0.820   7.182  85.444  1.00  0.00     0.058 C 
HETATM    4  C3  UNL     1      -1.846   6.120  85.625  1.00  0.00     0.051 C 
HETATM    5  C4  UNL     1      -1.520   4.815  84.981  1.00  0.00     0.014 C 
HETATM    6  C5  UNL     1      -1.508   3.650  85.941  1.00  0.00     0.131 C 
HETATM    7  N2  UNL     1      -1.196   2.464  85.165  1.00  0.00    -0.347 N 
HETATM    8  C7  UNL     1      -0.917   2.625  83.753  1.00  0.00     0.127 C 
HETATM    9  C8  UNL     1       0.174   3.655  83.535  1.00  0.00     0.026 C 
HETATM   10  C9  UNL     1      -0.203   4.896  84.272  1.00  0.00     0.011 C 
HETATM   11  C10 UNL     1      -0.301   6.115  83.347  1.00  0.00     0.126 C 
ENDROOT
BRANCH   7  12
HETATM   12  C6  UNL     1      -1.169   1.186  85.783  1.00  0.00     0.212 C 
HETATM   13  N3  UNL     1      -0.064   0.520  85.775  1.00  0.00    -0.365 N 
ATOM     14  H32 UNL     1       0.746   0.942  85.322  1.00  0.00     0.159 HD
ATOM     15  H31 UNL     1      -0.045  -0.397  86.220  1.00  0.00     0.159 HD
BRANCH  12  16
HETATM   16  O1  UNL     1      -2.261   0.618  86.394  1.00  0.00    -0.333 OA
ATOM     17  H1  UNL     1      -2.680   0.985  87.164  1.00  0.00     0.220 HD
ENDBRANCH  12  16
ENDBRANCH   7  12
TORSDOF 2
ENDMDL
MODEL 3
REMARK VINA RESULT: -5.635137187      1.245      1.275
REMARK  2 active torsions:
REMARK  status: ('A' for Active; 'I' for Inactive)
REMARK    1  A    between atoms: N2_7  and  C6_8 
REMARK    2  A    between atoms: C6_8  and  O1_12 
ROOT
HETATM    1  C1  UNL     1      -2.293   8.194  84.855  1.00  0.00     0.148 C 
HETATM    2  N1  UNL     1      -2.167   6.816  84.557  1.00  0.00    -0.397 N 
HETATM    3  C2  UNL     1      -1.605   6.472  83.316  1.00  0.00     0.058 C 
HETATM    4  C3  UNL     1      -0.461   5.521  83.343  1.00  0.00     0.051 C 
HETATM    5  C4  UNL     1      -0.591   4.410  84.329  1.00  0.00     0.014 C 
HETATM    6  C5  UNL     1      -0.496   3.035  83.711  1.00  0.00     0.131 C 
HETATM    7  N2  UNL     1      -0.621   2.075  84.792  1.00  0.00    -0.347 N 
HETATM    8  C7  UNL     1      -0.858   2.577  86.128  1.00  0.00     0.127 C 
HETATM    9  C8  UNL     1      -2.062   3.500  86.151  1.00  0.00     0.026 C 
HETATM   10  C9  UNL     1      -1.877   4.531  85.088  1.00  0.00     0.011 C 
HETATM   11  C10 UNL     1      -1.895   5.957  85.652  1.00  0.00     0.126 C 
ENDROOT
BRANCH   7  12
HETATM   12  C6  UNL     1      -0.511   0.683  84.533  1.00  0.00     0.212 C 
HETATM   13  N3  UNL     1      -0.160   0.300  83.352  1.00  0.00    -0.365 N 
ATOM     14  H32 UNL     1       0.025   1.018  82.651  1.00  0.00     0.159 HD
ATOM     15  H31 UNL     1      -0.081  -0.699  83.167  1.00  0.00     0.159 HD
BRANCH  12  16
HETATM   16  O1  UNL     1      -0.760  -0.284  85.477  1.00  0.00    -0.333 OA
ATOM     17  H1  UNL     1      -0.926  -1.195  85.262  1.00  0.00     0.220 HD
ENDBRANCH  12  16
ENDBRANCH   7  12
TORSDOF 2
ENDMDL
MODEL 4
REMARK VINA RESULT: -5.565071658      1.320      2.329
REMARK  2 active torsions:
REMARK  status: ('A' for Active; 'I' for Inactive)
REMARK    1  A    between atoms: N2_7  and  C6_8 
REMARK    2  A    between atoms: C6_8  and  O1_12 
ROOT
HETATM    1  C1  UNL     1       0.491   8.096  83.754  1.00  0.00     0.148 C 
HETATM    2  N1  UNL     1       0.066   7.031  84.583  1.00  0.00    -0.397 N 
HETATM    3  C2  UNL     1      -1.036   7.265  85.423  1.00  0.00     0.058 C 
HETATM    4  C3  UNL     1      -2.157   6.291  85.340  1.00  0.00     0.051 C 
HETATM    5  C4  UNL     1      -1.742   4.866  85.195  1.00  0.00     0.014 C 
HETATM    6  C5  UNL     1      -2.284   3.962  86.275  1.00  0.00     0.131 C 
HETATM    7  N2  UNL     1      -1.810   2.622  85.984  1.00  0.00    -0.347 N 
HETATM    8  C7  UNL     1      -0.932   2.439  84.849  1.00  0.00     0.127 C 
HETATM    9  C8  UNL     1       0.261   3.372  84.936  1.00  0.00     0.026 C 
HETATM   10  C9  UNL     1      -0.248   4.758  85.152  1.00  0.00     0.011 C 
HETATM   11  C10 UNL     1       0.209   5.723  84.052  1.00  0.00     0.126 C 
ENDROOT
BRANCH   7  12
HETATM   12  C6  UNL     1      -2.206   1.527  86.798  1.00  0.00     0.212 C 
HETATM   13  N3  UNL     1      -3.461   1.365  87.047  1.00  0.00    -0.365 N 
ATOM     14  H32 UNL     1      -4.119   2.034  86.648  1.00  0.00     0.159 HD
ATOM     15  H31 UNL     1      -3.744   0.579  87.631  1.00  0.00     0.159 HD
BRANCH  12  16
HETATM   16  O1  UNL     1      -1.319   0.626  87.337  1.00  0.00    -0.333 OA
ATOM     17  H1  UNL     1      -0.463   0.447  86.964  1.00  0.00     0.220 HD
ENDBRANCH  12  16
ENDBRANCH   7  12
TORSDOF 2
ENDMDL
MODEL 5
REMARK VINA RESULT: -5.558628001      1.236      1.390
REMARK  2 active torsions:
REMARK  status: ('A' for Active; 'I' for Inactive)
REMARK    1  A    between atoms: N2_7  and  C6_8 
REMARK    2  A    between atoms: C6_8  and  O1_12 
ROOT
HETATM    1  C1  UNL     1       0.003   7.825  83.575  1.00  0.00     0.148 C 
HETATM    2  N1  UNL     1      -0.498   6.534  83.870  1.00  0.00    -0.397 N 
HETATM    3  C2  UNL     1       0.161   5.437  83.289  1.00  0.00     0.058 C 
HETATM    4  C3  UNL     1       0.600   4.357  84.214  1.00  0.00     0.051 C 
HETATM    5  C4  UNL     1      -0.364   4.034  85.304  1.00  0.00     0.014 C 
HETATM    6  C5  UNL     1      -0.790   2.586  85.329  1.00  0.00     0.131 C 
HETATM    7  N2  UNL     1      -1.703   2.431  86.445  1.00  0.00    -0.347 N 
HETATM    8  C7  UNL     1      -2.050   3.608  87.213  1.00  0.00     0.127 C 
HETATM    9  C8  UNL     1      -2.566   4.709  86.307  1.00  0.00     0.026 C 
HETATM   10  C9  UNL     1      -1.574   4.912  85.211  1.00  0.00     0.011 C 
HETATM   11  C10 UNL     1      -1.043   6.350  85.166  1.00  0.00     0.126 C 
ENDROOT
BRANCH   7  12
HETATM   12  C6  UNL     1      -2.236   1.154  86.767  1.00  0.00     0.212 C 
HETATM   13  N3  UNL     1      -3.429   1.088  87.255  1.00  0.00    -0.365 N 
ATOM     14  H32 UNL     1      -3.940   1.961  87.390  1.00  0.00     0.159 HD
ATOM     15  H31 UNL     1      -3.811   0.172  87.486  1.00  0.00     0.159 HD
BRANCH  12  16
HETATM   16  O1  UNL     1      -1.548  -0.021  86.585  1.00  0.00    -0.333 OA
ATOM     17  H1  UNL     1      -0.766  -0.250  87.074  1.00  0.00     0.220 HD
ENDBRANCH  12  16
ENDBRANCH   7  12
TORSDOF 2
ENDMDL
