MODEL 1
REMARK VINA RESULT: -5.602438944      0.000      0.000
REMARK  2 active torsions:
REMARK  status: ('A' for Active; 'I' for Inactive)
REMARK    1  A    between atoms: C2_3  and  C3_4 
REMARK    2  A    between atoms: C4_5  and  C5_6 
ROOT
HETATM    1  N1  UNL     1      -0.748   5.132  82.078  1.00  0.00    -0.195 NA
HETATM    2  C1  UNL     1      -0.982   5.464  83.173  1.00  0.00     0.084 C 
HETATM    3  C2  UNL     1      -1.273   5.895  84.547  1.00  0.00     0.136 C 
HETATM    4  C8  UNL     1       0.019   6.324  85.173  1.00  0.00     0.041 C 
HETATM    5  C9  UNL     1       0.499   7.667  84.669  1.00  0.00     0.030 C 
HETATM    6  C10 UNL     1      -0.648   8.570  84.277  1.00  0.00     0.232 C 
HETATM    7  N3  UNL     1      -1.784   8.177  85.120  1.00  0.00    -0.073 N 
ATOM      8  H31 UNL     1      -2.478   8.917  85.228  1.00  0.00     0.277 HD
ATOM      9  H32 UNL     1      -1.537   8.084  86.106  1.00  0.00     0.277 HD
HETATM   10  C11 UNL     1      -2.327   6.974  84.561  1.00  0.00     0.269 C 
ENDROOT
BRANCH   3  11
HETATM   11  C3  UNL     1      -1.740   4.708  85.304  1.00  0.00    -0.079 C 
HETATM   12  C4  UNL     1      -2.119   3.735  85.907  1.00  0.00    -0.097 C 
BRANCH  12  13
HETATM   13  C5  UNL     1      -2.580   2.561  86.605  1.00  0.00     0.116 C 
HETATM   14  C6  UNL     1      -2.109   2.411  88.036  1.00  0.00     0.251 C 
HETATM   15  N2  UNL     1      -1.922   0.981  87.745  1.00  0.00    -0.073 N 
HETATM   16  C7  UNL     1      -1.644   1.396  86.361  1.00  0.00     0.251 C 
ATOM     17  H22 UNL     1      -1.264   0.409  88.275  1.00  0.00     0.277 HD
ATOM     18  H21 UNL     1      -2.643   0.293  87.963  1.00  0.00     0.277 HD
ENDBRANCH  12  13
ENDBRANCH   3  11
TORSDOF 2
ENDMDL
MODEL 2
REMARK VINA RESULT: -5.477791220      1.422      1.689
REMARK  2 active torsions:
REMARK  status: ('A' for Active; 'I' for Inactive)
REMARK    1  A    between atoms: C2_3  and  C3_4 
REMARK    2  A    between atoms: C4_5  and  C5_6 
ROOT
HETATM    1  N1  UNL     1       2.239   4.674  84.363  1.00  0.00    -0.195 NA
HETATM    2  C1  UNL     1       1.103   4.937  84.416  1.00  0.00     0.084 C 
HETATM    3  C2  UNL     1      -0.324   5.280  84.475  1.00  0.00     0.136 C 
HETATM    4  C8  UNL     1      -0.467   6.486  85.352  1.00  0.00     0.041 C 
HETATM    5  C9  UNL     1      -0.011   7.761  84.676  1.00  0.00     0.030 C 
HETATM    6  C10 UNL     1      -0.213   7.715  83.179  1.00  0.00     0.232 C 
HETATM    7  N3  UNL     1      -1.361   6.828  82.950  1.00  0.00    -0.073 N 
ATOM      8  H31 UNL     1      -1.826   6.998  82.058  1.00  0.00     0.277 HD
ATOM      9  H32 UNL     1      -2.156   7.039  83.554  1.00  0.00     0.277 HD
HETATM   10  C11 UNL     1      -0.888   5.482  83.090  1.00  0.00     0.269 C 
ENDROOT
BRANCH   3  11
HETATM   11  C3  UNL     1      -1.029   4.170  85.160  1.00  0.00    -0.079 C 
HETATM   12  C4  UNL     1      -1.588   3.263  85.724  1.00  0.00    -0.097 C 
BRANCH  12  13
HETATM   13  C5  UNL     1      -2.235   2.164  86.399  1.00  0.00     0.116 C 
HETATM   14  C6  UNL     1      -1.975   2.053  87.885  1.00  0.00     0.251 C 
HETATM   15  N2  UNL     1      -1.869   0.599  87.682  1.00  0.00    -0.073 N 
HETATM   16  C7  UNL     1      -1.374   0.921  86.334  1.00  0.00     0.251 C 
ATOM     17  H22 UNL     1      -1.338   0.007  88.320  1.00  0.00     0.277 HD
ATOM     18  H21 UNL     1      -2.667  -0.020  87.825  1.00  0.00     0.277 HD
ENDBRANCH  12  13
ENDBRANCH   3  11
TORSDOF 2
ENDMDL
MODEL 3
REMARK VINA RESULT: -5.392308622      1.626      2.036
REMARK  2 active torsions:
REMARK  status: ('A' for Active; 'I' for Inactive)
REMARK    1  A    between atoms: C2_3  and  C3_4 
REMARK    2  A    between atoms: C4_5  and  C5_6 
ROOT
HETATM    1  N1  UNL     1       2.183   6.489  83.867  1.00  0.00    -0.195 NA
HETATM    2  C1  UNL     1       1.079   6.213  84.132  1.00  0.00     0.084 C 
HETATM    3  C2  UNL     1      -0.314   5.879  84.457  1.00  0.00     0.136 C 
HETATM    4  C8  UNL     1      -0.799   6.878  85.463  1.00  0.00     0.041 C 
HETATM    5  C9  UNL     1      -1.084   8.234  84.855  1.00  0.00     0.030 C 
HETATM    6  C10 UNL     1      -1.528   8.129  83.414  1.00  0.00     0.232 C 
HETATM    7  N3  UNL     1      -2.193   6.825  83.286  1.00  0.00    -0.073 N 
ATOM      8  H31 UNL     1      -2.847   6.784  82.504  1.00  0.00     0.277 HD
ATOM      9  H32 UNL     1      -2.868   6.646  84.030  1.00  0.00     0.277 HD
HETATM   10  C11 UNL     1      -1.162   5.832  83.211  1.00  0.00     0.269 C 
ENDROOT
BRANCH   3  11
HETATM   11  C3  UNL     1      -0.316   4.559  85.132  1.00  0.00    -0.079 C 
HETATM   12  C4  UNL     1      -0.316   3.493  85.695  1.00  0.00    -0.097 C 
BRANCH  12  13
HETATM   13  C5  UNL     1      -0.301   2.227  86.386  1.00  0.00     0.116 C 
HETATM   14  C6  UNL     1      -0.854   1.045  85.620  1.00  0.00     0.251 C 
HETATM   15  N2  UNL     1      -1.493   0.625  86.877  1.00  0.00    -0.073 N 
HETATM   16  C7  UNL     1      -1.559   2.057  87.210  1.00  0.00     0.251 C 
ATOM     17  H22 UNL     1      -2.325   0.035  86.883  1.00  0.00     0.277 HD
ATOM     18  H21 UNL     1      -1.052  -0.050  87.502  1.00  0.00     0.277 HD
ENDBRANCH  12  13
ENDBRANCH   3  11
TORSDOF 2
ENDMDL
MODEL 4
REMARK VINA RESULT: -5.380362638      0.903      1.251
REMARK  2 active torsions:
REMARK  status: ('A' for Active; 'I' for Inactive)
REMARK    1  A    between atoms: C2_3  and  C3_4 
REMARK    2  A    between atoms: C4_5  and  C5_6 
ROOT
HETATM    1  N1  UNL     1      -0.780   5.315  81.781  1.00  0.00    -0.195 NA
HETATM    2  C1  UNL     1      -0.766   5.534  82.928  1.00  0.00     0.084 C 
HETATM    3  C2  UNL     1      -0.750   5.824  84.368  1.00  0.00     0.136 C 
HETATM    4  C8  UNL     1       0.497   6.599  84.663  1.00  0.00     0.041 C 
HETATM    5  C9  UNL     1       0.419   8.037  84.198  1.00  0.00     0.030 C 
HETATM    6  C10 UNL     1      -0.994   8.571  84.233  1.00  0.00     0.232 C 
HETATM    7  N3  UNL     1      -1.680   7.838  85.306  1.00  0.00    -0.073 N 
ATOM      8  H31 UNL     1      -2.488   8.337  85.678  1.00  0.00     0.277 HD
ATOM      9  H32 UNL     1      -1.141   7.797  86.171  1.00  0.00     0.277 HD
HETATM   10  C11 UNL     1      -2.010   6.543  84.786  1.00  0.00     0.269 C 
ENDROOT
BRANCH   3  11
HETATM   11  C3  UNL     1      -0.631   4.534  85.089  1.00  0.00    -0.079 C 
HETATM   12  C4  UNL     1      -0.539   3.492  85.688  1.00  0.00    -0.097 C 
BRANCH  12  13
HETATM   13  C5  UNL     1      -0.427   2.258  86.427  1.00  0.00     0.116 C 
HETATM   14  C6  UNL     1      -0.857   1.005  85.696  1.00  0.00     0.251 C 
HETATM   15  N2  UNL     1      -1.484   0.576  86.956  1.00  0.00    -0.073 N 
HETATM   16  C7  UNL     1      -1.684   2.007  87.233  1.00  0.00     0.251 C 
ATOM     17  H22 UNL     1      -2.261  -0.086  86.968  1.00  0.00     0.277 HD
ATOM     18  H21 UNL     1      -0.999  -0.035  87.613  1.00  0.00     0.277 HD
ENDBRANCH  12  13
ENDBRANCH   3  11
TORSDOF 2
ENDMDL
MODEL 5
REMARK VINA RESULT: -5.371424835      2.165      3.289
REMARK  2 active torsions:
REMARK  status: ('A' for Active; 'I' for Inactive)
REMARK    1  A    between atoms: C2_3  and  C3_4 
REMARK    2  A    between atoms: C4_5  and  C5_6 
ROOT
HETATM    1  N1  UNL     1      -1.165   6.439  83.199  1.00  0.00    -0.195 NA
HETATM    2  C1  UNL     1      -0.469   5.547  83.487  1.00  0.00     0.084 C 
HETATM    3  C2  UNL     1       0.416   4.429  83.838  1.00  0.00     0.136 C 
HETATM    4  C8  UNL     1       0.427   3.475  82.683  1.00  0.00     0.041 C 
HETATM    5  C9  UNL     1       1.242   3.980  81.512  1.00  0.00     0.030 C 
HETATM    6  C10 UNL     1       2.387   4.861  81.954  1.00  0.00     0.232 C 
HETATM    7  N3  UNL     1       2.763   4.399  83.297  1.00  0.00    -0.073 N 
ATOM      8  H31 UNL     1       3.722   4.640  83.549  1.00  0.00     0.277 HD
ATOM      9  H32 UNL     1       2.861   3.386  83.358  1.00  0.00     0.277 HD
HETATM   10  C11 UNL     1       1.791   4.927  84.210  1.00  0.00     0.269 C 
ENDROOT
BRANCH   3  11
HETATM   11  C3  UNL     1      -0.196   3.708  84.980  1.00  0.00    -0.079 C 
HETATM   12  C4  UNL     1      -0.700   3.111  85.898  1.00  0.00    -0.097 C 
BRANCH  12  13
HETATM   13  C5  UNL     1      -1.320   2.387  86.981  1.00  0.00     0.116 C 
HETATM   14  C6  UNL     1      -1.634   0.932  86.712  1.00  0.00     0.251 C 
HETATM   15  N2  UNL     1      -2.907   1.155  87.417  1.00  0.00    -0.073 N 
HETATM   16  C7  UNL     1      -2.825   2.540  86.928  1.00  0.00     0.251 C 
ATOM     17  H22 UNL     1      -3.725   0.572  87.240  1.00  0.00     0.277 HD
ATOM     18  H21 UNL     1      -3.013   0.942  88.409  1.00  0.00     0.277 HD
ENDBRANCH  12  13
ENDBRANCH   3  11
TORSDOF 2
ENDMDL
