MODEL 1
REMARK VINA RESULT: -5.432589364      0.000      0.000
REMARK  3 active torsions:
REMARK  status: ('A' for Active; 'I' for Inactive)
REMARK    1  A    between atoms: N2_3  and  C2_5 
REMARK    2  A    between atoms: C2_5  and  N3_7 
REMARK    3  A    between atoms: C6_11  and  N4_12 
ROOT
HETATM    1  N1  UNL     1      -1.475   1.767  80.935  1.00  0.00    -0.172 NA
HETATM    2  C1  UNL     1      -0.975   1.835  81.975  1.00  0.00     0.184 C 
HETATM    3  N2  UNL     1      -0.369   1.940  83.261  1.00  0.00    -0.270 N 
ATOM      4  H2  UNL     1       0.132   1.142  83.652  1.00  0.00     0.180 HD
ENDROOT
BRANCH   3   5
HETATM    5  C2  UNL     1      -0.457   3.133  83.989  1.00  0.00     0.183 C 
HETATM    6  S1  UNL     1      -0.180   4.549  83.222  1.00  0.00    -0.040 SA
BRANCH   5   7
HETATM    7  N3  UNL     1      -0.775   3.149  85.354  1.00  0.00    -0.356 N 
HETATM    8  C3  UNL     1      -1.423   4.236  86.017  1.00  0.00     0.125 C 
HETATM    9  C4  UNL     1      -2.722   3.762  86.694  1.00  0.00     0.022 C 
HETATM   10  C5  UNL     1      -2.253   2.644  87.637  1.00  0.00     0.036 C 
HETATM   11  C6  UNL     1      -1.787   1.523  86.744  1.00  0.00     0.201 C 
HETATM   12  C7  UNL     1      -0.429   1.962  86.183  1.00  0.00     0.158 C 
BRANCH  11  13
HETATM   13  N4  UNL     1      -1.695   0.263  87.429  1.00  0.00    -0.073 N 
ATOM     14  H43 UNL     1      -1.920   0.369  88.418  1.00  0.00     0.274 HD
ATOM     15  H42 UNL     1      -2.455  -0.358  87.151  1.00  0.00     0.274 HD
ATOM     16  H41 UNL     1      -0.790  -0.192  87.308  1.00  0.00     0.274 HD
ENDBRANCH  11  13
ENDBRANCH   5   7
ENDBRANCH   3   5
TORSDOF 3
ENDMDL
MODEL 2
REMARK VINA RESULT: -5.307777649      1.645      1.708
REMARK  3 active torsions:
REMARK  status: ('A' for Active; 'I' for Inactive)
REMARK    1  A    between atoms: N2_3  and  C2_5 
REMARK    2  A    between atoms: C2_5  and  N3_7 
REMARK    3  A    between atoms: C6_11  and  N4_12 
ROOT
HETATM    1  N1  UNL     1      -0.133  -0.873  81.489  1.00  0.00    -0.172 NA
HETATM    2  C1  UNL     1      -0.131  -0.328  82.509  1.00  0.00     0.184 C 
HETATM    3  N2  UNL     1      -0.139   0.363  83.756  1.00  0.00    -0.270 N 
ATOM      4  H2  UNL     1       0.082  -0.139  84.616  1.00  0.00     0.180 HD
ENDROOT
BRANCH   3   5
HETATM    5  C2  UNL     1      -0.449   1.728  83.807  1.00  0.00     0.183 C 
HETATM    6  S1  UNL     1      -0.405   2.599  82.425  1.00  0.00    -0.040 SA
BRANCH   5   7
HETATM    7  N3  UNL     1      -0.796   2.367  85.005  1.00  0.00    -0.356 N 
HETATM    8  C3  UNL     1      -0.748   3.782  85.205  1.00  0.00     0.125 C 
HETATM    9  C4  UNL     1      -2.128   4.315  85.630  1.00  0.00     0.022 C 
HETATM   10  C5  UNL     1      -2.452   3.514  86.900  1.00  0.00     0.036 C 
HETATM   11  C6  UNL     1      -2.651   2.090  86.447  1.00  0.00     0.201 C 
HETATM   12  C7  UNL     1      -1.251   1.537  86.152  1.00  0.00     0.158 C 
BRANCH  11  13
HETATM   13  N4  UNL     1      -3.347   1.287  87.414  1.00  0.00    -0.073 N 
ATOM     14  H43 UNL     1      -2.712   0.625  87.861  1.00  0.00     0.274 HD
ATOM     15  H42 UNL     1      -3.609   1.842  88.228  1.00  0.00     0.274 HD
ATOM     16  H41 UNL     1      -4.158   0.807  87.023  1.00  0.00     0.274 HD
ENDBRANCH  11  13
ENDBRANCH   5   7
ENDBRANCH   3   5
TORSDOF 3
ENDMDL
MODEL 3
REMARK VINA RESULT: -5.295930467      2.372      3.406
REMARK  3 active torsions:
REMARK  status: ('A' for Active; 'I' for Inactive)
REMARK    1  A    between atoms: N2_3  and  C2_5 
REMARK    2  A    between atoms: C2_5  and  N3_7 
REMARK    3  A    between atoms: C6_11  and  N4_12 
ROOT
HETATM    1  N1  UNL     1      -1.135   7.971  84.935  1.00  0.00    -0.172 NA
HETATM    2  C1  UNL     1      -1.620   6.956  85.200  1.00  0.00     0.184 C 
HETATM    3  N2  UNL     1      -2.198   5.693  85.522  1.00  0.00    -0.270 N 
ATOM      4  H2  UNL     1      -3.138   5.651  85.916  1.00  0.00     0.180 HD
ENDROOT
BRANCH   3   5
HETATM    5  C2  UNL     1      -1.483   4.510  85.300  1.00  0.00     0.183 C 
HETATM    6  S1  UNL     1      -0.586   4.373  83.941  1.00  0.00    -0.040 SA
BRANCH   5   7
HETATM    7  N3  UNL     1      -1.512   3.441  86.207  1.00  0.00    -0.356 N 
HETATM    8  C3  UNL     1      -2.565   3.213  87.147  1.00  0.00     0.125 C 
HETATM    9  C4  UNL     1      -3.177   1.815  86.945  1.00  0.00     0.022 C 
HETATM   10  C5  UNL     1      -1.978   0.867  87.104  1.00  0.00     0.036 C 
HETATM   11  C6  UNL     1      -1.086   1.132  85.919  1.00  0.00     0.201 C 
HETATM   12  C7  UNL     1      -0.387   2.468  86.201  1.00  0.00     0.158 C 
BRANCH  11  13
HETATM   13  N4  UNL     1      -0.139   0.077  85.684  1.00  0.00    -0.073 N 
ATOM     14  H43 UNL     1       0.810   0.447  85.619  1.00  0.00     0.274 HD
ATOM     15  H42 UNL     1      -0.033  -0.509  86.512  1.00  0.00     0.274 HD
ATOM     16  H41 UNL     1      -0.366  -0.488  84.865  1.00  0.00     0.274 HD
ENDBRANCH  11  13
ENDBRANCH   5   7
ENDBRANCH   3   5
TORSDOF 3
ENDMDL
MODEL 4
REMARK VINA RESULT: -5.094809111      2.656      4.275
REMARK  3 active torsions:
REMARK  status: ('A' for Active; 'I' for Inactive)
REMARK    1  A    between atoms: N2_3  and  C2_5 
REMARK    2  A    between atoms: C2_5  and  N3_7 
REMARK    3  A    between atoms: C6_11  and  N4_12 
ROOT
HETATM    1  N1  UNL     1      -0.702  -0.177  85.201  1.00  0.00    -0.172 NA
HETATM    2  C1  UNL     1      -0.447   0.867  85.628  1.00  0.00     0.184 C 
HETATM    3  N2  UNL     1      -0.154   2.161  86.149  1.00  0.00    -0.270 N 
ATOM      4  H2  UNL     1       0.693   2.307  86.698  1.00  0.00     0.180 HD
ENDROOT
BRANCH   3   5
HETATM    5  C2  UNL     1      -1.024   3.232  85.912  1.00  0.00     0.183 C 
HETATM    6  S1  UNL     1      -2.458   3.274  86.694  1.00  0.00    -0.040 SA
BRANCH   5   7
HETATM    7  N3  UNL     1      -0.701   4.269  85.025  1.00  0.00    -0.356 N 
HETATM    8  C3  UNL     1      -1.350   5.543  85.005  1.00  0.00     0.125 C 
HETATM    9  C4  UNL     1      -0.326   6.675  85.203  1.00  0.00     0.022 C 
HETATM   10  C5  UNL     1       0.675   6.465  84.057  1.00  0.00     0.036 C 
HETATM   11  C6  UNL     1       1.385   5.172  84.365  1.00  0.00     0.201 C 
HETATM   12  C7  UNL     1       0.390   4.051  84.037  1.00  0.00     0.158 C 
BRANCH  11  13
HETATM   13  N4  UNL     1       2.614   5.020  83.637  1.00  0.00    -0.073 N 
ATOM     14  H43 UNL     1       2.487   5.265  82.654  1.00  0.00     0.274 HD
ATOM     15  H42 UNL     1       3.286   5.740  83.903  1.00  0.00     0.274 HD
ATOM     16  H41 UNL     1       3.021   4.089  83.731  1.00  0.00     0.274 HD
ENDBRANCH  11  13
ENDBRANCH   5   7
ENDBRANCH   3   5
TORSDOF 3
ENDMDL
MODEL 5
REMARK VINA RESULT: -5.087988472      1.503      1.798
REMARK  3 active torsions:
REMARK  status: ('A' for Active; 'I' for Inactive)
REMARK    1  A    between atoms: N2_3  and  C2_5 
REMARK    2  A    between atoms: C2_5  and  N3_7 
REMARK    3  A    between atoms: C6_11  and  N4_12 
ROOT
HETATM    1  N1  UNL     1      -1.105   2.516  82.088  1.00  0.00    -0.172 NA
HETATM    2  C1  UNL     1      -0.769   3.318  82.849  1.00  0.00     0.184 C 
HETATM    3  N2  UNL     1      -0.371   4.299  83.804  1.00  0.00    -0.270 N 
ATOM      4  H2  UNL     1       0.473   4.850  83.643  1.00  0.00     0.180 HD
ENDROOT
BRANCH   3   5
HETATM    5  C2  UNL     1      -1.131   4.511  84.960  1.00  0.00     0.183 C 
HETATM    6  S1  UNL     1      -1.863   5.957  85.170  1.00  0.00    -0.040 SA
BRANCH   5   7
HETATM    7  N3  UNL     1      -1.285   3.521  85.941  1.00  0.00    -0.356 N 
HETATM    8  C3  UNL     1      -2.392   3.445  86.842  1.00  0.00     0.125 C 
HETATM    9  C4  UNL     1      -3.102   2.085  86.714  1.00  0.00     0.022 C 
HETATM   10  C5  UNL     1      -1.990   1.066  87.001  1.00  0.00     0.036 C 
HETATM   11  C6  UNL     1      -1.028   1.170  85.846  1.00  0.00     0.201 C 
HETATM   12  C7  UNL     1      -0.240   2.468  86.063  1.00  0.00     0.158 C 
BRANCH  11  13
HETATM   13  N4  UNL     1      -0.158   0.032  85.736  1.00  0.00    -0.073 N 
ATOM     14  H43 UNL     1      -0.692  -0.836  85.735  1.00  0.00     0.274 HD
ATOM     15  H42 UNL     1       0.254  -0.023  84.805  1.00  0.00     0.274 HD
ATOM     16  H41 UNL     1       0.566   0.014  86.456  1.00  0.00     0.274 HD
ENDBRANCH  11  13
ENDBRANCH   5   7
ENDBRANCH   3   5
TORSDOF 3
ENDMDL
