MODEL 1
REMARK VINA RESULT: -7.885830359      0.000      0.000
REMARK  5 active torsions:
REMARK  status: ('A' for Active; 'I' for Inactive)
REMARK    1  A    between atoms: C9_10  and  N1_11 
REMARK       I    between atoms: N1_11  and  C10_13 
REMARK    2  A    between atoms: C10_13  and  C11_15 
REMARK    3  A    between atoms: C11_15  and  S2_16 
REMARK    4  A    between atoms: S2_16  and  C12_17 
REMARK    5  A    between atoms: C13_22  and  C14_23 
ROOT
HETATM    1  N1  UNL     1     -49.950  -1.986 -20.003  1.00  0.00    -0.320 N 
ATOM      2  H1  UNL     1     -48.988  -1.834 -20.305  1.00  0.00     0.169 HD
HETATM    3  C10 UNL     1     -50.421  -3.306 -19.771  1.00  0.00     0.232 C 
HETATM    4  O1  UNL     1     -51.567  -3.572 -19.389  1.00  0.00    -0.272 OA
ENDROOT
BRANCH   3   5
HETATM    5  C11 UNL     1     -49.454  -4.399 -20.016  1.00  0.00     0.185 C 
BRANCH   5   6
HETATM    6  S2  UNL     1     -49.705  -5.374 -21.469  1.00  0.00    -0.082 SA
BRANCH   6   7
HETATM    7  C12 UNL     1     -49.540  -4.545 -23.026  1.00  0.00     0.174 A 
HETATM    8  N2  UNL     1     -50.081  -4.950 -24.182  1.00  0.00    -0.277 N 
HETATM    9  N3  UNL     1     -49.883  -4.281 -25.332  1.00  0.00    -0.286 N 
ATOM     10  H2  UNL     1     -50.660  -5.790 -24.191  1.00  0.00     0.189 HD
HETATM   11  C13 UNL     1     -49.135  -3.177 -25.389  1.00  0.00     0.114 A 
ATOM     12  H3  UNL     1     -50.318  -4.628 -26.187  1.00  0.00     0.188 HD
HETATM   13  N4  UNL     1     -48.581  -2.755 -24.215  1.00  0.00    -0.286 N 
HETATM   14  N5  UNL     1     -48.775  -3.406 -23.095  1.00  0.00    -0.277 N 
ATOM     15  H4  UNL     1     -48.003  -1.914 -24.210  1.00  0.00     0.188 HD
ATOM     16  H5  UNL     1     -48.341  -3.053 -22.242  1.00  0.00     0.189 HD
BRANCH  11  17
HETATM   17  C14 UNL     1     -48.865  -2.432 -26.649  1.00  0.00     0.048 C 
HETATM   18  C15 UNL     1     -50.100  -1.834 -27.262  1.00  0.00     0.017 C 
HETATM   19  C16 UNL     1     -48.258  -3.394 -27.658  1.00  0.00     0.017 C 
ENDBRANCH  11  17
ENDBRANCH   6   7
ENDBRANCH   5   6
ENDBRANCH   3   5
BRANCH   1  20
HETATM   20  C9  UNL     1     -50.839  -0.856 -19.811  1.00  0.00     0.088 A 
HETATM   21  S1  UNL     1     -51.255  -0.070 -18.365  1.00  0.00    -0.076 SA
HETATM   22  C7  UNL     1     -52.330   1.106 -19.000  1.00  0.00    -0.007 A 
HETATM   23  C6  UNL     1     -52.323   0.839 -20.341  1.00  0.00    -0.004 A 
HETATM   24  C8  UNL     1     -53.071   2.144 -18.191  1.00  0.00     0.057 C 
HETATM   25  C4  UNL     1     -53.054   1.540 -21.317  1.00  0.00    -0.049 A 
HETATM   26  C17 UNL     1     -51.553  -0.177 -20.766  1.00  0.00     0.010 A 
HETATM   27  C3  UNL     1     -53.007   1.222 -22.666  1.00  0.00     0.014 A 
HETATM   28  C5  UNL     1     -53.918   2.696 -20.959  1.00  0.00     0.049 C 
HETATM   29  C2  UNL     1     -52.226   0.192 -23.087  1.00  0.00    -0.061 A 
HETATM   30  C1  UNL     1     -52.150  -0.175 -24.538  1.00  0.00     0.048 C 
HETATM   31  C18 UNL     1     -51.511  -0.492 -22.143  1.00  0.00     0.022 A 
ENDBRANCH   1  20
TORSDOF 5
ENDMDL
MODEL 2
REMARK VINA RESULT: -7.804126162      1.578      2.014
REMARK  5 active torsions:
REMARK  status: ('A' for Active; 'I' for Inactive)
REMARK    1  A    between atoms: C9_10  and  N1_11 
REMARK       I    between atoms: N1_11  and  C10_13 
REMARK    2  A    between atoms: C10_13  and  C11_15 
REMARK    3  A    between atoms: C11_15  and  S2_16 
REMARK    4  A    between atoms: S2_16  and  C12_17 
REMARK    5  A    between atoms: C13_22  and  C14_23 
ROOT
HETATM    1  N1  UNL     1     -49.979  -2.525 -21.175  1.00  0.00    -0.320 N 
ATOM      2  H1  UNL     1     -48.993  -2.399 -21.404  1.00  0.00     0.169 HD
HETATM    3  C10 UNL     1     -50.591  -3.795 -21.344  1.00  0.00     0.232 C 
HETATM    4  O1  UNL     1     -51.775  -4.032 -21.076  1.00  0.00    -0.272 OA
ENDROOT
BRANCH   3   5
HETATM    5  C11 UNL     1     -49.728  -4.871 -21.881  1.00  0.00     0.185 C 
BRANCH   5   6
HETATM    6  S2  UNL     1     -50.313  -5.722 -23.316  1.00  0.00    -0.082 SA
BRANCH   6   7
HETATM    7  C12 UNL     1     -50.865  -4.719 -24.669  1.00  0.00     0.174 A 
HETATM    8  N2  UNL     1     -52.144  -4.483 -24.989  1.00  0.00    -0.277 N 
HETATM    9  N3  UNL     1     -52.483  -3.734 -26.054  1.00  0.00    -0.286 N 
ATOM     10  H2  UNL     1     -52.881  -4.883 -24.409  1.00  0.00     0.189 HD
HETATM   11  C13 UNL     1     -51.566  -3.185 -26.854  1.00  0.00     0.114 A 
ATOM     12  H3  UNL     1     -53.471  -3.581 -26.256  1.00  0.00     0.188 HD
HETATM   13  N4  UNL     1     -50.260  -3.418 -26.535  1.00  0.00    -0.286 N 
HETATM   14  N5  UNL     1     -49.930  -4.146 -25.497  1.00  0.00    -0.277 N 
ATOM     15  H4  UNL     1     -49.525  -3.017 -27.116  1.00  0.00     0.188 HD
ATOM     16  H5  UNL     1     -48.941  -4.293 -25.297  1.00  0.00     0.189 HD
BRANCH  11  17
HETATM   17  C14 UNL     1     -51.905  -2.381 -28.060  1.00  0.00     0.048 C 
HETATM   18  C15 UNL     1     -51.271  -1.019 -28.064  1.00  0.00     0.017 C 
HETATM   19  C16 UNL     1     -53.414  -2.198 -28.110  1.00  0.00     0.017 C 
ENDBRANCH  11  17
ENDBRANCH   6   7
ENDBRANCH   5   6
ENDBRANCH   3   5
BRANCH   1  20
HETATM   20  C9  UNL     1     -50.758  -1.407 -20.678  1.00  0.00     0.088 A 
HETATM   21  S1  UNL     1     -50.872  -0.820 -19.089  1.00  0.00    -0.076 SA
HETATM   22  C7  UNL     1     -51.976   0.466 -19.358  1.00  0.00    -0.007 A 
HETATM   23  C6  UNL     1     -52.216   0.389 -20.702  1.00  0.00    -0.004 A 
HETATM   24  C8  UNL     1     -52.506   1.402 -18.298  1.00  0.00     0.057 C 
HETATM   25  C4  UNL     1     -53.067   1.243 -21.428  1.00  0.00    -0.049 A 
HETATM   26  C17 UNL     1     -51.589  -0.579 -21.390  1.00  0.00     0.010 A 
HETATM   27  C3  UNL     1     -53.273   1.116 -22.793  1.00  0.00     0.014 A 
HETATM   28  C5  UNL     1     -53.791   2.362 -20.770  1.00  0.00     0.049 C 
HETATM   29  C2  UNL     1     -52.635   0.133 -23.481  1.00  0.00    -0.061 A 
HETATM   30  C1  UNL     1     -52.833  -0.029 -24.958  1.00  0.00     0.048 C 
HETATM   31  C18 UNL     1     -51.804  -0.699 -22.781  1.00  0.00     0.022 A 
ENDBRANCH   1  20
TORSDOF 5
ENDMDL
MODEL 3
REMARK VINA RESULT: -7.801277125      1.731      2.147
REMARK  5 active torsions:
REMARK  status: ('A' for Active; 'I' for Inactive)
REMARK    1  A    between atoms: C9_10  and  N1_11 
REMARK       I    between atoms: N1_11  and  C10_13 
REMARK    2  A    between atoms: C10_13  and  C11_15 
REMARK    3  A    between atoms: C11_15  and  S2_16 
REMARK    4  A    between atoms: S2_16  and  C12_17 
REMARK    5  A    between atoms: C13_22  and  C14_23 
ROOT
HETATM    1  N1  UNL     1     -49.780  -1.851 -20.749  1.00  0.00    -0.320 N 
ATOM      2  H1  UNL     1     -50.035  -2.829 -20.615  1.00  0.00     0.169 HD
HETATM    3  C10 UNL     1     -48.523  -1.515 -21.320  1.00  0.00     0.232 C 
HETATM    4  O1  UNL     1     -48.148  -0.355 -21.529  1.00  0.00    -0.272 OA
ENDROOT
BRANCH   3   5
HETATM    5  C11 UNL     1     -47.638  -2.650 -21.665  1.00  0.00     0.185 C 
BRANCH   5   6
HETATM    6  S2  UNL     1     -48.352  -3.961 -22.611  1.00  0.00    -0.082 SA
BRANCH   6   7
HETATM    7  C12 UNL     1     -49.222  -3.500 -24.084  1.00  0.00     0.174 A 
HETATM    8  N2  UNL     1     -49.060  -2.352 -24.754  1.00  0.00    -0.277 N 
HETATM    9  N3  UNL     1     -49.783  -2.060 -25.851  1.00  0.00    -0.286 N 
ATOM     10  H2  UNL     1     -48.369  -1.679 -24.423  1.00  0.00     0.189 HD
HETATM   11  C13 UNL     1     -50.705  -2.897 -26.333  1.00  0.00     0.114 A 
ATOM     12  H3  UNL     1     -49.622  -1.174 -26.328  1.00  0.00     0.188 HD
HETATM   13  N4  UNL     1     -50.876  -4.071 -25.659  1.00  0.00    -0.286 N 
HETATM   14  N5  UNL     1     -50.171  -4.355 -24.592  1.00  0.00    -0.277 N 
ATOM     15  H4  UNL     1     -51.567  -4.742 -25.992  1.00  0.00     0.188 HD
ATOM     16  H5  UNL     1     -50.332  -5.245 -24.120  1.00  0.00     0.189 HD
BRANCH  11  17
HETATM   17  C14 UNL     1     -51.548  -2.593 -27.522  1.00  0.00     0.048 C 
HETATM   18  C15 UNL     1     -51.472  -1.155 -27.951  1.00  0.00     0.017 C 
HETATM   19  C16 UNL     1     -52.996  -2.907 -27.180  1.00  0.00     0.017 C 
ENDBRANCH  11  17
ENDBRANCH   6   7
ENDBRANCH   5   6
ENDBRANCH   3   5
BRANCH   1  20
HETATM   20  C9  UNL     1     -50.701  -0.799 -20.359  1.00  0.00     0.088 A 
HETATM   21  S1  UNL     1     -50.946  -0.126 -18.820  1.00  0.00    -0.076 SA
HETATM   22  C7  UNL     1     -52.175   1.004 -19.216  1.00  0.00    -0.007 A 
HETATM   23  C6  UNL     1     -52.349   0.812 -20.559  1.00  0.00    -0.004 A 
HETATM   24  C8  UNL     1     -52.851   1.941 -18.243  1.00  0.00     0.057 C 
HETATM   25  C4  UNL     1     -53.259   1.512 -21.372  1.00  0.00    -0.049 A 
HETATM   26  C17 UNL     1     -51.588  -0.121 -21.155  1.00  0.00     0.010 A 
HETATM   27  C3  UNL     1     -53.391   1.273 -22.731  1.00  0.00     0.014 A 
HETATM   28  C5  UNL     1     -54.131   2.582 -20.819  1.00  0.00     0.049 C 
HETATM   29  C2  UNL     1     -52.619   0.326 -23.326  1.00  0.00    -0.061 A 
HETATM   30  C1  UNL     1     -52.735   0.045 -24.794  1.00  0.00     0.048 C 
HETATM   31  C18 UNL     1     -51.730  -0.357 -22.541  1.00  0.00     0.022 A 
ENDBRANCH   1  20
TORSDOF 5
ENDMDL
MODEL 4
REMARK VINA RESULT: -7.771873290      1.240      1.767
REMARK  5 active torsions:
REMARK  status: ('A' for Active; 'I' for Inactive)
REMARK    1  A    between atoms: C9_10  and  N1_11 
REMARK       I    between atoms: N1_11  and  C10_13 
REMARK    2  A    between atoms: C10_13  and  C11_15 
REMARK    3  A    between atoms: C11_15  and  S2_16 
REMARK    4  A    between atoms: S2_16  and  C12_17 
REMARK    5  A    between atoms: C13_22  and  C14_23 
ROOT
HETATM    1  N1  UNL     1     -49.616  -2.053 -20.791  1.00  0.00    -0.320 N 
ATOM      2  H1  UNL     1     -48.648  -1.826 -21.015  1.00  0.00     0.169 HD
HETATM    3  C10 UNL     1     -50.071  -3.396 -20.884  1.00  0.00     0.232 C 
HETATM    4  O1  UNL     1     -51.223  -3.754 -20.614  1.00  0.00    -0.272 OA
ENDROOT
BRANCH   3   5
HETATM    5  C11 UNL     1     -49.077  -4.393 -21.341  1.00  0.00     0.185 C 
BRANCH   5   6
HETATM    6  S2  UNL     1     -48.144  -3.985 -22.786  1.00  0.00    -0.082 SA
BRANCH   6   7
HETATM    7  C12 UNL     1     -49.065  -3.531 -24.229  1.00  0.00     0.174 A 
HETATM    8  N2  UNL     1     -48.852  -2.438 -24.974  1.00  0.00    -0.277 N 
HETATM    9  N3  UNL     1     -49.618  -2.145 -26.041  1.00  0.00    -0.286 N 
ATOM     10  H2  UNL     1     -48.088  -1.810 -24.725  1.00  0.00     0.189 HD
HETATM   11  C13 UNL     1     -50.634  -2.925 -26.418  1.00  0.00     0.114 A 
ATOM     12  H3  UNL     1     -49.415  -1.302 -26.578  1.00  0.00     0.188 HD
HETATM   13  N4  UNL     1     -50.858  -4.042 -25.667  1.00  0.00    -0.286 N 
HETATM   14  N5  UNL     1     -50.111  -4.327 -24.629  1.00  0.00    -0.277 N 
ATOM     15  H4  UNL     1     -51.622  -4.668 -25.919  1.00  0.00     0.188 HD
ATOM     16  H5  UNL     1     -50.315  -5.173 -24.097  1.00  0.00     0.189 HD
BRANCH  11  17
HETATM   17  C14 UNL     1     -51.524  -2.613 -27.571  1.00  0.00     0.048 C 
HETATM   18  C15 UNL     1     -51.444  -1.179 -28.012  1.00  0.00     0.017 C 
HETATM   19  C16 UNL     1     -52.960  -2.901 -27.163  1.00  0.00     0.017 C 
ENDBRANCH  11  17
ENDBRANCH   6   7
ENDBRANCH   5   6
ENDBRANCH   3   5
BRANCH   1  20
HETATM   20  C9  UNL     1     -50.531  -1.007 -20.375  1.00  0.00     0.088 A 
HETATM   21  S1  UNL     1     -50.806  -0.400 -18.814  1.00  0.00    -0.076 SA
HETATM   22  C7  UNL     1     -52.009   0.764 -19.188  1.00  0.00    -0.007 A 
HETATM   23  C6  UNL     1     -52.152   0.635 -20.541  1.00  0.00    -0.004 A 
HETATM   24  C8  UNL     1     -52.696   1.666 -18.190  1.00  0.00     0.057 C 
HETATM   25  C4  UNL     1     -53.032   1.385 -21.343  1.00  0.00    -0.049 A 
HETATM   26  C17 UNL     1     -51.390  -0.281 -21.161  1.00  0.00     0.010 A 
HETATM   27  C3  UNL     1     -53.134   1.209 -22.715  1.00  0.00     0.014 A 
HETATM   28  C5  UNL     1     -53.903   2.441 -20.764  1.00  0.00     0.049 C 
HETATM   29  C2  UNL     1     -52.360   0.279 -23.333  1.00  0.00    -0.061 A 
HETATM   30  C1  UNL     1     -52.443   0.067 -24.815  1.00  0.00     0.048 C 
HETATM   31  C18 UNL     1     -51.500  -0.452 -22.559  1.00  0.00     0.022 A 
ENDBRANCH   1  20
TORSDOF 5
ENDMDL
MODEL 5
REMARK VINA RESULT: -7.751874667      1.091      1.379
REMARK  5 active torsions:
REMARK  status: ('A' for Active; 'I' for Inactive)
REMARK    1  A    between atoms: C9_10  and  N1_11 
REMARK       I    between atoms: N1_11  and  C10_13 
REMARK    2  A    between atoms: C10_13  and  C11_15 
REMARK    3  A    between atoms: C11_15  and  S2_16 
REMARK    4  A    between atoms: S2_16  and  C12_17 
REMARK    5  A    between atoms: C13_22  and  C14_23 
ROOT
HETATM    1  N1  UNL     1     -50.188  -1.982 -20.091  1.00  0.00    -0.320 N 
ATOM      2  H1  UNL     1     -49.224  -1.859 -20.398  1.00  0.00     0.169 HD
HETATM    3  C10 UNL     1     -50.716  -3.289 -19.913  1.00  0.00     0.232 C 
HETATM    4  O1  UNL     1     -51.869  -3.521 -19.529  1.00  0.00    -0.272 OA
ENDROOT
BRANCH   3   5
HETATM    5  C11 UNL     1     -49.802  -4.411 -20.220  1.00  0.00     0.185 C 
BRANCH   5   6
HETATM    6  S2  UNL     1     -50.308  -5.526 -21.495  1.00  0.00    -0.082 SA
BRANCH   6   7
HETATM    7  C12 UNL     1     -50.724  -4.812 -23.062  1.00  0.00     0.174 A 
HETATM    8  N2  UNL     1     -51.592  -5.324 -23.944  1.00  0.00    -0.277 N 
HETATM    9  N3  UNL     1     -51.831  -4.737 -25.130  1.00  0.00    -0.286 N 
ATOM     10  H2  UNL     1     -52.086  -6.185 -23.708  1.00  0.00     0.189 HD
HETATM   11  C13 UNL     1     -51.215  -3.611 -25.499  1.00  0.00     0.114 A 
ATOM     12  H3  UNL     1     -52.503  -5.164 -25.767  1.00  0.00     0.188 HD
HETATM   13  N4  UNL     1     -50.330  -3.079 -24.607  1.00  0.00    -0.286 N 
HETATM   14  N5  UNL     1     -50.099  -3.651 -23.451  1.00  0.00    -0.277 N 
ATOM     15  H4  UNL     1     -49.838  -2.218 -24.844  1.00  0.00     0.188 HD
ATOM     16  H5  UNL     1     -49.429  -3.218 -22.815  1.00  0.00     0.189 HD
BRANCH  11  17
HETATM   17  C14 UNL     1     -51.428  -2.953 -26.817  1.00  0.00     0.048 C 
HETATM   18  C15 UNL     1     -50.666  -1.668 -26.970  1.00  0.00     0.017 C 
HETATM   19  C16 UNL     1     -52.909  -2.643 -26.969  1.00  0.00     0.017 C 
ENDBRANCH  11  17
ENDBRANCH   6   7
ENDBRANCH   5   6
ENDBRANCH   3   5
BRANCH   1  20
HETATM   20  C9  UNL     1     -51.024  -0.824 -19.836  1.00  0.00     0.088 A 
HETATM   21  S1  UNL     1     -51.328  -0.043 -18.360  1.00  0.00    -0.076 SA
HETATM   22  C7  UNL     1     -52.394   1.179 -18.920  1.00  0.00    -0.007 A 
HETATM   23  C6  UNL     1     -52.472   0.930 -20.262  1.00  0.00    -0.004 A 
HETATM   24  C8  UNL     1     -53.050   2.232 -18.058  1.00  0.00     0.057 C 
HETATM   25  C4  UNL     1     -53.232   1.670 -21.186  1.00  0.00    -0.049 A 
HETATM   26  C17 UNL     1     -51.765  -0.107 -20.741  1.00  0.00     0.010 A 
HETATM   27  C3  UNL     1     -53.272   1.368 -22.539  1.00  0.00     0.014 A 
HETATM   28  C5  UNL     1     -54.032   2.851 -20.767  1.00  0.00     0.049 C 
HETATM   29  C2  UNL     1     -52.554   0.316 -23.016  1.00  0.00    -0.061 A 
HETATM   30  C1  UNL     1     -52.574  -0.034 -24.473  1.00  0.00     0.048 C 
HETATM   31  C18 UNL     1     -51.812  -0.406 -22.121  1.00  0.00     0.022 A 
ENDBRANCH   1  20
TORSDOF 5
ENDMDL
