MODEL 1
REMARK VINA RESULT: -7.211654049      0.000      0.000
REMARK  6 active torsions:
REMARK  status: ('A' for Active; 'I' for Inactive)
REMARK    1  A    between atoms: C2_2  and  O1_3 
REMARK    2  A    between atoms: O1_3  and  C3_4 
REMARK    3  A    between atoms: C3_4  and  C4_6 
REMARK    4  A    between atoms: C7_11  and  C8_12 
REMARK    5  A    between atoms: C14_19  and  N3_20 
REMARK    6  A    between atoms: N4_25  and  C16_26 
ROOT
HETATM    1  C8  UNL     1     -51.162  -2.552 -23.647  1.00  0.00     0.070 A 
HETATM    2  C9  UNL     1     -51.602  -2.280 -22.374  1.00  0.00     0.086 A 
HETATM    3  C10 UNL     1     -51.260  -3.153 -21.238  1.00  0.00     0.102 C 
HETATM    4  N2  UNL     1     -50.945  -3.843 -20.330  1.00  0.00    -0.191 NA
HETATM    5  C11 UNL     1     -52.167  -1.008 -22.247  1.00  0.00     0.030 A 
HETATM    6  C12 UNL     1     -52.747  -0.209 -21.313  1.00  0.00    -0.007 A 
HETATM    7  C13 UNL     1     -53.004  -0.592 -19.861  1.00  0.00     0.052 C 
HETATM    8  C14 UNL     1     -53.157   1.041 -21.715  1.00  0.00     0.152 A 
HETATM    9  S1  UNL     1     -52.723   1.053 -23.371  1.00  0.00    -0.047 SA
HETATM   10  C15 UNL     1     -52.047  -0.501 -23.496  1.00  0.00     0.091 A 
HETATM   11  N4  UNL     1     -51.440  -1.417 -24.358  1.00  0.00    -0.339 N 
ENDROOT
BRANCH   1  12
HETATM   12  C7  UNL     1     -50.908  -3.859 -24.283  1.00  0.00     0.023 A 
HETATM   13  C5  UNL     1     -51.656  -4.973 -24.479  1.00  0.00     0.019 A 
HETATM   14  N1  UNL     1     -50.942  -6.077 -24.752  1.00  0.00    -0.354 N 
HETATM   15  C6  UNL     1     -53.163  -4.989 -24.567  1.00  0.00     0.069 C 
HETATM   16  C4  UNL     1     -49.667  -5.720 -24.752  1.00  0.00     0.115 A 
ATOM     17  H1  UNL     1     -51.311  -7.012 -24.927  1.00  0.00     0.166 HD
HETATM   18  C18 UNL     1     -49.583  -4.351 -24.462  1.00  0.00    -0.015 A 
HETATM   19  C19 UNL     1     -48.303  -3.700 -24.246  1.00  0.00     0.052 C 
BRANCH  16  20
HETATM   20  C3  UNL     1     -48.570  -6.631 -25.032  1.00  0.00     0.310 C 
HETATM   21  O2  UNL     1     -48.002  -7.220 -24.053  1.00  0.00    -0.258 OA
BRANCH  20  22
HETATM   22  O1  UNL     1     -48.076  -6.931 -26.272  1.00  0.00    -0.317 OA
BRANCH  22  23
HETATM   23  C2  UNL     1     -47.072  -6.148 -26.865  1.00  0.00     0.175 C 
HETATM   24  C1  UNL     1     -47.700  -5.140 -27.826  1.00  0.00     0.034 C 
ENDBRANCH  22  23
ENDBRANCH  20  22
ENDBRANCH  16  20
ENDBRANCH   1  12
BRANCH  11  25
HETATM   25  C16 UNL     1     -51.233  -1.000 -25.701  1.00  0.00     0.125 C 
HETATM   26  C17 UNL     1     -52.471  -1.274 -26.553  1.00  0.00     0.027 C 
ENDBRANCH  11  25
BRANCH   8  27
HETATM   27  N3  UNL     1     -53.774   2.083 -20.964  1.00  0.00    -0.108 N 
HETATM   28  O3  UNL     1     -54.663   2.749 -21.501  1.00  0.00    -0.531 OA
HETATM   29  O4  UNL     1     -53.394   2.333 -19.695  1.00  0.00    -0.531 OA
ENDBRANCH   8  27
TORSDOF 6
ENDMDL
MODEL 2
REMARK VINA RESULT: -7.018782431      0.917      1.722
REMARK  6 active torsions:
REMARK  status: ('A' for Active; 'I' for Inactive)
REMARK    1  A    between atoms: C2_2  and  O1_3 
REMARK    2  A    between atoms: O1_3  and  C3_4 
REMARK    3  A    between atoms: C3_4  and  C4_6 
REMARK    4  A    between atoms: C7_11  and  C8_12 
REMARK    5  A    between atoms: C14_19  and  N3_20 
REMARK    6  A    between atoms: N4_25  and  C16_26 
ROOT
HETATM    1  C8  UNL     1     -51.094  -2.676 -23.661  1.00  0.00     0.070 A 
HETATM    2  C9  UNL     1     -51.600  -2.379 -22.419  1.00  0.00     0.086 A 
HETATM    3  C10 UNL     1     -51.316  -3.227 -21.248  1.00  0.00     0.102 C 
HETATM    4  N2  UNL     1     -51.048  -3.897 -20.311  1.00  0.00    -0.191 NA
HETATM    5  C11 UNL     1     -52.173  -1.106 -22.348  1.00  0.00     0.030 A 
HETATM    6  C12 UNL     1     -52.803  -0.289 -21.462  1.00  0.00    -0.007 A 
HETATM    7  C13 UNL     1     -53.134  -0.643 -20.019  1.00  0.00     0.052 C 
HETATM    8  C14 UNL     1     -53.193   0.951 -21.911  1.00  0.00     0.152 A 
HETATM    9  S1  UNL     1     -52.673   0.930 -23.543  1.00  0.00    -0.047 SA
HETATM   10  C15 UNL     1     -51.989  -0.625 -23.599  1.00  0.00     0.091 A 
HETATM   11  N4  UNL     1     -51.336  -1.557 -24.410  1.00  0.00    -0.339 N 
ENDROOT
BRANCH   1  12
HETATM   12  C7  UNL     1     -50.805  -3.995 -24.256  1.00  0.00     0.023 A 
HETATM   13  C5  UNL     1     -51.558  -5.087 -24.537  1.00  0.00     0.019 A 
HETATM   14  N1  UNL     1     -50.850  -6.215 -24.716  1.00  0.00    -0.354 N 
HETATM   15  C6  UNL     1     -53.042  -5.058 -24.809  1.00  0.00     0.069 C 
HETATM   16  C4  UNL     1     -49.574  -5.896 -24.560  1.00  0.00     0.115 A 
ATOM     17  H1  UNL     1     -51.224  -7.139 -24.930  1.00  0.00     0.166 HD
HETATM   18  C18 UNL     1     -49.484  -4.529 -24.268  1.00  0.00    -0.015 A 
HETATM   19  C19 UNL     1     -48.220  -3.916 -23.899  1.00  0.00     0.052 C 
BRANCH  16  20
HETATM   20  C3  UNL     1     -48.480  -6.843 -24.700  1.00  0.00     0.310 C 
HETATM   21  O2  UNL     1     -48.051  -7.109 -25.872  1.00  0.00    -0.258 OA
BRANCH  20  22
HETATM   22  O1  UNL     1     -47.845  -7.489 -23.675  1.00  0.00    -0.317 OA
BRANCH  22  23
HETATM   23  C2  UNL     1     -48.567  -8.222 -22.718  1.00  0.00     0.175 C 
HETATM   24  C1  UNL     1     -48.616  -7.450 -21.402  1.00  0.00     0.034 C 
ENDBRANCH  22  23
ENDBRANCH  20  22
ENDBRANCH  16  20
ENDBRANCH   1  12
BRANCH  11  25
HETATM   25  C16 UNL     1     -51.061  -1.167 -25.748  1.00  0.00     0.125 C 
HETATM   26  C17 UNL     1     -52.281  -1.381 -26.640  1.00  0.00     0.027 C 
ENDBRANCH  11  25
BRANCH   8  27
HETATM   27  N3  UNL     1     -53.851   2.007 -21.215  1.00  0.00    -0.108 N 
HETATM   28  O3  UNL     1     -54.827   2.543 -21.746  1.00  0.00    -0.531 OA
HETATM   29  O4  UNL     1     -53.414   2.408 -20.005  1.00  0.00    -0.531 OA
ENDBRANCH   8  27
TORSDOF 6
ENDMDL
MODEL 3
REMARK VINA RESULT: -7.007260223      1.694      2.046
REMARK  6 active torsions:
REMARK  status: ('A' for Active; 'I' for Inactive)
REMARK    1  A    between atoms: C2_2  and  O1_3 
REMARK    2  A    between atoms: O1_3  and  C3_4 
REMARK    3  A    between atoms: C3_4  and  C4_6 
REMARK    4  A    between atoms: C7_11  and  C8_12 
REMARK    5  A    between atoms: C14_19  and  N3_20 
REMARK    6  A    between atoms: N4_25  and  C16_26 
ROOT
HETATM    1  C8  UNL     1     -50.778  -1.771 -24.435  1.00  0.00     0.070 A 
HETATM    2  C9  UNL     1     -50.658  -1.447 -23.106  1.00  0.00     0.086 A 
HETATM    3  C10 UNL     1     -49.525  -1.927 -22.295  1.00  0.00     0.102 C 
HETATM    4  N2  UNL     1     -48.590  -2.289 -21.667  1.00  0.00    -0.191 NA
HETATM    5  C11 UNL     1     -51.550  -0.451 -22.700  1.00  0.00     0.030 A 
HETATM    6  C12 UNL     1     -51.903   0.249 -21.589  1.00  0.00    -0.007 A 
HETATM    7  C13 UNL     1     -51.297   0.068 -20.203  1.00  0.00     0.052 C 
HETATM    8  C14 UNL     1     -52.903   1.184 -21.720  1.00  0.00     0.152 A 
HETATM    9  S1  UNL     1     -53.314   1.049 -23.377  1.00  0.00    -0.047 SA
HETATM   10  C15 UNL     1     -52.221  -0.167 -23.840  1.00  0.00     0.091 A 
HETATM   11  N4  UNL     1     -51.769  -0.953 -24.903  1.00  0.00    -0.339 N 
ENDROOT
BRANCH   1  12
HETATM   12  C7  UNL     1     -50.352  -3.000 -25.134  1.00  0.00     0.023 A 
HETATM   13  C5  UNL     1     -50.362  -4.317 -24.815  1.00  0.00     0.019 A 
HETATM   14  N1  UNL     1     -49.537  -5.072 -25.558  1.00  0.00    -0.354 N 
HETATM   15  C6  UNL     1     -51.322  -4.956 -23.841  1.00  0.00     0.069 C 
HETATM   16  C4  UNL     1     -48.944  -4.259 -26.420  1.00  0.00     0.115 A 
ATOM     17  H1  UNL     1     -49.394  -6.079 -25.476  1.00  0.00     0.166 HD
HETATM   18  C18 UNL     1     -49.408  -2.955 -26.201  1.00  0.00    -0.015 A 
HETATM   19  C19 UNL     1     -48.829  -1.819 -26.895  1.00  0.00     0.052 C 
BRANCH  16  20
HETATM   20  C3  UNL     1     -47.988  -4.698 -27.423  1.00  0.00     0.310 C 
HETATM   21  O2  UNL     1     -47.093  -5.541 -27.083  1.00  0.00    -0.258 OA
BRANCH  20  22
HETATM   22  O1  UNL     1     -47.956  -4.292 -28.729  1.00  0.00    -0.317 OA
BRANCH  22  23
HETATM   23  C2  UNL     1     -48.087  -5.212 -29.782  1.00  0.00     0.175 C 
HETATM   24  C1  UNL     1     -46.840  -5.174 -30.662  1.00  0.00     0.034 C 
ENDBRANCH  22  23
ENDBRANCH  20  22
ENDBRANCH  16  20
ENDBRANCH   1  12
BRANCH  11  25
HETATM   25  C16 UNL     1     -52.377  -0.737 -26.168  1.00  0.00     0.125 C 
HETATM   26  C17 UNL     1     -53.708  -1.480 -26.266  1.00  0.00     0.027 C 
ENDBRANCH  11  25
BRANCH   8  27
HETATM   27  N3  UNL     1     -53.464   2.062 -20.747  1.00  0.00    -0.108 N 
HETATM   28  O3  UNL     1     -54.282   2.907 -21.119  1.00  0.00    -0.531 OA
HETATM   29  O4  UNL     1     -53.106   1.969 -19.452  1.00  0.00    -0.531 OA
ENDBRANCH   8  27
TORSDOF 6
ENDMDL
MODEL 4
REMARK VINA RESULT: -6.818428874      2.889      8.152
REMARK  6 active torsions:
REMARK  status: ('A' for Active; 'I' for Inactive)
REMARK    1  A    between atoms: C2_2  and  O1_3 
REMARK    2  A    between atoms: O1_3  and  C3_4 
REMARK    3  A    between atoms: C3_4  and  C4_6 
REMARK    4  A    between atoms: C7_11  and  C8_12 
REMARK    5  A    between atoms: C14_19  and  N3_20 
REMARK    6  A    between atoms: N4_25  and  C16_26 
ROOT
HETATM    1  C8  UNL     1     -49.450  -3.008 -24.848  1.00  0.00     0.070 A 
HETATM    2  C9  UNL     1     -48.810  -4.208 -24.650  1.00  0.00     0.086 A 
HETATM    3  C10 UNL     1     -48.940  -4.951 -23.385  1.00  0.00     0.102 C 
HETATM    4  N2  UNL     1     -49.085  -5.554 -22.377  1.00  0.00    -0.191 NA
HETATM    5  C11 UNL     1     -48.258  -4.736 -25.820  1.00  0.00     0.030 A 
HETATM    6  C12 UNL     1     -47.546  -5.813 -26.248  1.00  0.00    -0.007 A 
HETATM    7  C13 UNL     1     -47.044  -6.946 -25.364  1.00  0.00     0.052 C 
HETATM    8  C14 UNL     1     -47.235  -5.875 -27.587  1.00  0.00     0.152 A 
HETATM    9  S1  UNL     1     -47.939  -4.436 -28.193  1.00  0.00    -0.047 SA
HETATM   10  C15 UNL     1     -48.594  -3.815 -26.753  1.00  0.00     0.091 A 
HETATM   11  N4  UNL     1     -49.318  -2.763 -26.187  1.00  0.00    -0.339 N 
ENDROOT
BRANCH   1  12
HETATM   12  C7  UNL     1     -49.780  -1.957 -23.865  1.00  0.00     0.023 A 
HETATM   13  C5  UNL     1     -49.138  -1.440 -22.789  1.00  0.00     0.019 A 
HETATM   14  N1  UNL     1     -49.936  -0.774 -21.938  1.00  0.00    -0.354 N 
HETATM   15  C6  UNL     1     -47.640  -1.432 -22.605  1.00  0.00     0.069 C 
HETATM   16  C4  UNL     1     -51.162  -0.825 -22.440  1.00  0.00     0.115 A 
ATOM     17  H1  UNL     1     -49.653  -0.315 -21.072  1.00  0.00     0.166 HD
HETATM   18  C18 UNL     1     -51.127  -1.554 -23.637  1.00  0.00    -0.015 A 
HETATM   19  C19 UNL     1     -52.346  -1.906 -24.343  1.00  0.00     0.052 C 
BRANCH  16  20
HETATM   20  C3  UNL     1     -52.317  -0.197 -21.822  1.00  0.00     0.310 C 
HETATM   21  O2  UNL     1     -52.869  -0.779 -20.829  1.00  0.00    -0.258 OA
BRANCH  20  22
HETATM   22  O1  UNL     1     -52.884   0.987 -22.205  1.00  0.00    -0.317 OA
BRANCH  22  23
HETATM   23  C2  UNL     1     -54.115   1.410 -21.676  1.00  0.00     0.175 C 
HETATM   24  C1  UNL     1     -53.892   2.574 -20.713  1.00  0.00     0.034 C 
ENDBRANCH  22  23
ENDBRANCH  20  22
ENDBRANCH  16  20
ENDBRANCH   1  12
BRANCH  11  25
HETATM   25  C16 UNL     1     -49.754  -1.734 -27.065  1.00  0.00     0.125 C 
HETATM   26  C17 UNL     1     -51.003  -2.165 -27.830  1.00  0.00     0.027 C 
ENDBRANCH  11  25
BRANCH   8  27
HETATM   27  N3  UNL     1     -46.522  -6.873 -28.311  1.00  0.00    -0.108 N 
HETATM   28  O3  UNL     1     -45.307  -6.732 -28.468  1.00  0.00    -0.531 OA
HETATM   29  O4  UNL     1     -47.165  -7.946 -28.813  1.00  0.00    -0.531 OA
ENDBRANCH   8  27
TORSDOF 6
ENDMDL
MODEL 5
REMARK VINA RESULT: -6.799048815      3.663      5.223
REMARK  6 active torsions:
REMARK  status: ('A' for Active; 'I' for Inactive)
REMARK    1  A    between atoms: C2_2  and  O1_3 
REMARK    2  A    between atoms: O1_3  and  C3_4 
REMARK    3  A    between atoms: C3_4  and  C4_6 
REMARK    4  A    between atoms: C7_11  and  C8_12 
REMARK    5  A    between atoms: C14_19  and  N3_20 
REMARK    6  A    between atoms: N4_25  and  C16_26 
ROOT
HETATM    1  C8  UNL     1     -51.929  -0.106 -20.861  1.00  0.00     0.070 A 
HETATM    2  C9  UNL     1     -51.036  -0.261 -19.829  1.00  0.00     0.086 A 
HETATM    3  C10 UNL     1     -49.688  -0.811 -20.054  1.00  0.00     0.102 C 
HETATM    4  N2  UNL     1     -48.596  -1.219 -20.256  1.00  0.00    -0.191 NA
HETATM    5  C11 UNL     1     -51.442   0.369 -18.650  1.00  0.00     0.030 A 
HETATM    6  C12 UNL     1     -51.027   0.562 -17.369  1.00  0.00    -0.007 A 
HETATM    7  C13 UNL     1     -49.750  -0.002 -16.762  1.00  0.00     0.052 C 
HETATM    8  C14 UNL     1     -51.837   1.311 -16.547  1.00  0.00     0.152 A 
HETATM    9  S1  UNL     1     -53.140   1.711 -17.584  1.00  0.00    -0.047 SA
HETATM   10  C15 UNL     1     -52.622   0.930 -19.001  1.00  0.00     0.091 A 
HETATM   11  N4  UNL     1     -52.935   0.657 -20.335  1.00  0.00    -0.339 N 
ENDROOT
BRANCH   1  12
HETATM   12  C7  UNL     1     -52.090  -0.920 -22.081  1.00  0.00     0.023 A 
HETATM   13  C5  UNL     1     -51.824  -2.212 -22.393  1.00  0.00     0.019 A 
HETATM   14  N1  UNL     1     -51.754  -2.459 -23.712  1.00  0.00    -0.354 N 
HETATM   15  C6  UNL     1     -51.776  -3.343 -21.395  1.00  0.00     0.069 C 
HETATM   16  C4  UNL     1     -51.984  -1.310 -24.331  1.00  0.00     0.115 A 
ATOM     17  H1  UNL     1     -51.562  -3.359 -24.153  1.00  0.00     0.166 HD
HETATM   18  C18 UNL     1     -52.195  -0.315 -23.367  1.00  0.00    -0.015 A 
HETATM   19  C19 UNL     1     -52.326   1.083 -23.739  1.00  0.00     0.052 C 
BRANCH  16  20
HETATM   20  C3  UNL     1     -52.019  -1.161 -25.776  1.00  0.00     0.310 C 
HETATM   21  O2  UNL     1     -53.141  -1.280 -26.373  1.00  0.00    -0.258 OA
BRANCH  20  22
HETATM   22  O1  UNL     1     -50.945  -0.895 -26.579  1.00  0.00    -0.317 OA
BRANCH  22  23
HETATM   23  C2  UNL     1     -50.327  -1.909 -27.329  1.00  0.00     0.175 C 
HETATM   24  C1  UNL     1     -48.882  -2.086 -26.870  1.00  0.00     0.034 C 
ENDBRANCH  22  23
ENDBRANCH  20  22
ENDBRANCH  16  20
ENDBRANCH   1  12
BRANCH  11  25
HETATM   25  C16 UNL     1     -54.144   1.208 -20.840  1.00  0.00     0.125 C 
HETATM   26  C17 UNL     1     -54.013   2.717 -21.037  1.00  0.00     0.027 C 
ENDBRANCH  11  25
BRANCH   8  27
HETATM   27  N3  UNL     1     -51.656   1.683 -15.183  1.00  0.00    -0.108 N 
HETATM   28  O3  UNL     1     -52.239   1.032 -14.313  1.00  0.00    -0.531 OA
HETATM   29  O4  UNL     1     -50.866   2.724 -14.855  1.00  0.00    -0.531 OA
ENDBRANCH   8  27
TORSDOF 6
ENDMDL
