MODEL 1
REMARK VINA RESULT: -7.561369639      0.000      0.000
REMARK  7 active torsions:
REMARK  status: ('A' for Active; 'I' for Inactive)
REMARK    1  A    between atoms: C2_2  and  O1_3 
REMARK    2  A    between atoms: O1_3  and  C3_4 
REMARK    3  A    between atoms: C3_4  and  C4_6 
REMARK    4  A    between atoms: C6_8  and  O3_9 
REMARK    5  A    between atoms: C7_11  and  C8_12 
REMARK    6  A    between atoms: N1_13  and  C9_15 
REMARK    7  A    between atoms: C16_24  and  C17_25 
ROOT
HETATM    1  C9  UNL     1     -50.757  -2.565 -25.451  1.00  0.00     0.096 A 
HETATM    2  S1  UNL     1     -51.662  -1.150 -25.741  1.00  0.00    -0.067 SA
HETATM    3  C10 UNL     1     -51.997  -0.696 -24.135  1.00  0.00     0.061 A 
HETATM    4  C11 UNL     1     -51.388  -1.672 -23.400  1.00  0.00    -0.014 A 
HETATM    5  C12 UNL     1     -50.742  -2.647 -24.086  1.00  0.00     0.086 A 
HETATM    6  C13 UNL     1     -50.045  -3.755 -23.407  1.00  0.00     0.103 C 
HETATM    7  N2  UNL     1     -49.479  -4.643 -22.882  1.00  0.00    -0.191 NA
HETATM    8  C14 UNL     1     -51.563  -1.476 -21.895  1.00  0.00     0.042 C 
HETATM    9  C15 UNL     1     -51.306  -0.049 -21.556  1.00  0.00     0.018 C 
HETATM   10  C16 UNL     1     -52.332   0.909 -22.129  1.00  0.00     0.065 C 
HETATM   11  C20 UNL     1     -52.728   0.413 -23.467  1.00  0.00     0.171 C 
HETATM   12  O4  UNL     1     -53.690   0.892 -24.110  1.00  0.00    -0.291 OA
ENDROOT
BRANCH   1  13
HETATM   13  N1  UNL     1     -50.141  -3.476 -26.387  1.00  0.00    -0.356 N 
HETATM   14  C8  UNL     1     -48.988  -3.255 -26.868  1.00  0.00     0.129 C 
ATOM     15  H1  UNL     1     -50.645  -4.318 -26.668  1.00  0.00     0.166 HD
BRANCH  14  16
HETATM   16  C7  UNL     1     -48.321  -4.138 -27.815  1.00  0.00     0.124 A 
HETATM   17  C6  UNL     1     -48.109  -5.482 -27.579  1.00  0.00     0.103 A 
HETATM   18  C5  UNL     1     -47.458  -5.939 -28.706  1.00  0.00     0.083 A 
HETATM   19  C4  UNL     1     -47.295  -4.885 -29.577  1.00  0.00     0.154 A 
HETATM   20  O5  UNL     1     -47.831  -3.838 -28.985  1.00  0.00    -0.300 OA
BRANCH  17  21
HETATM   21  O3  UNL     1     -48.489  -6.192 -26.430  1.00  0.00    -0.358 OA
ATOM     22  H3  UNL     1     -48.443  -5.925 -25.519  1.00  0.00     0.217 HD
ENDBRANCH  17  21
BRANCH  19  23
HETATM   23  C3  UNL     1     -46.660  -4.903 -30.888  1.00  0.00     0.317 C 
HETATM   24  O2  UNL     1     -45.793  -5.773 -31.117  1.00  0.00    -0.257 OA
BRANCH  23  25
HETATM   25  O1  UNL     1     -46.977  -4.002 -31.885  1.00  0.00    -0.316 OA
BRANCH  25  26
HETATM   26  C2  UNL     1     -46.054  -3.443 -32.796  1.00  0.00     0.175 C 
HETATM   27  C1  UNL     1     -46.730  -2.328 -33.554  1.00  0.00     0.034 C 
ENDBRANCH  25  26
ENDBRANCH  23  25
ENDBRANCH  19  23
ENDBRANCH  14  16
ENDBRANCH   1  13
BRANCH  10  28
HETATM   28  C17 UNL     1     -53.470   1.157 -21.194  1.00  0.00    -0.011 C 
HETATM   29  C18 UNL     1     -53.091   0.874 -19.752  1.00  0.00     0.010 C 
HETATM   30  C19 UNL     1     -53.862   2.625 -21.237  1.00  0.00     0.010 C 
ENDBRANCH  10  28
TORSDOF 7
ENDMDL
MODEL 2
REMARK VINA RESULT: -7.492259487      4.123      6.586
REMARK  7 active torsions:
REMARK  status: ('A' for Active; 'I' for Inactive)
REMARK    1  A    between atoms: C2_2  and  O1_3 
REMARK    2  A    between atoms: O1_3  and  C3_4 
REMARK    3  A    between atoms: C3_4  and  C4_6 
REMARK    4  A    between atoms: C6_8  and  O3_9 
REMARK    5  A    between atoms: C7_11  and  C8_12 
REMARK    6  A    between atoms: N1_13  and  C9_15 
REMARK    7  A    between atoms: C16_24  and  C17_25 
ROOT
HETATM    1  C9  UNL     1     -52.072  -0.274 -20.662  1.00  0.00     0.096 A 
HETATM    2  S1  UNL     1     -51.021  -0.757 -19.409  1.00  0.00    -0.067 SA
HETATM    3  C10 UNL     1     -51.422   0.411 -18.239  1.00  0.00     0.061 A 
HETATM    4  C11 UNL     1     -52.379   1.162 -18.860  1.00  0.00    -0.014 A 
HETATM    5  C12 UNL     1     -52.717   0.804 -20.123  1.00  0.00     0.086 A 
HETATM    6  C13 UNL     1     -53.737   1.534 -20.899  1.00  0.00     0.103 C 
HETATM    7  N2  UNL     1     -54.553   2.102 -21.530  1.00  0.00    -0.191 NA
HETATM    8  C14 UNL     1     -52.897   2.302 -17.986  1.00  0.00     0.042 C 
HETATM    9  C15 UNL     1     -53.161   1.784 -16.615  1.00  0.00     0.018 C 
HETATM   10  C16 UNL     1     -51.910   1.350 -15.874  1.00  0.00     0.065 C 
HETATM   11  C20 UNL     1     -50.989   0.728 -16.852  1.00  0.00     0.171 C 
HETATM   12  O4  UNL     1     -49.803   0.436 -16.575  1.00  0.00    -0.291 OA
ENDROOT
BRANCH   1  13
HETATM   13  N1  UNL     1     -52.264  -0.839 -21.977  1.00  0.00    -0.356 N 
HETATM   14  C8  UNL     1     -52.038  -2.066 -22.212  1.00  0.00     0.129 C 
ATOM     15  H1  UNL     1     -52.590  -0.239 -22.734  1.00  0.00     0.166 HD
BRANCH  14  16
HETATM   16  C7  UNL     1     -52.213  -2.687 -23.518  1.00  0.00     0.124 A 
HETATM   17  C6  UNL     1     -52.358  -4.048 -23.697  1.00  0.00     0.103 A 
HETATM   18  C5  UNL     1     -52.495  -4.212 -25.059  1.00  0.00     0.083 A 
HETATM   19  C4  UNL     1     -52.431  -2.974 -25.659  1.00  0.00     0.154 A 
HETATM   20  O5  UNL     1     -52.262  -2.106 -24.684  1.00  0.00    -0.300 OA
BRANCH  17  21
HETATM   21  O3  UNL     1     -52.360  -5.022 -22.686  1.00  0.00    -0.358 OA
ATOM     22  H3  UNL     1     -52.064  -5.924 -22.724  1.00  0.00     0.217 HD
ENDBRANCH  17  21
BRANCH  19  23
HETATM   23  C3  UNL     1     -52.528  -2.668 -27.080  1.00  0.00     0.317 C 
HETATM   24  O2  UNL     1     -53.644  -2.751 -27.632  1.00  0.00    -0.257 OA
BRANCH  23  25
HETATM   25  O1  UNL     1     -51.437  -2.289 -27.838  1.00  0.00    -0.316 OA
BRANCH  25  26
HETATM   26  C2  UNL     1     -50.137  -2.826 -27.712  1.00  0.00     0.175 C 
HETATM   27  C1  UNL     1     -49.275  -1.845 -26.958  1.00  0.00     0.034 C 
ENDBRANCH  25  26
ENDBRANCH  23  25
ENDBRANCH  19  23
ENDBRANCH  14  16
ENDBRANCH   1  13
BRANCH  10  28
HETATM   28  C17 UNL     1     -51.311   2.454 -15.066  1.00  0.00    -0.011 C 
HETATM   29  C18 UNL     1     -52.318   3.547 -14.765  1.00  0.00     0.010 C 
HETATM   30  C19 UNL     1     -50.867   1.919 -13.714  1.00  0.00     0.010 C 
ENDBRANCH  10  28
TORSDOF 7
ENDMDL
MODEL 3
REMARK VINA RESULT: -7.446455294      1.651      2.431
REMARK  7 active torsions:
REMARK  status: ('A' for Active; 'I' for Inactive)
REMARK    1  A    between atoms: C2_2  and  O1_3 
REMARK    2  A    between atoms: O1_3  and  C3_4 
REMARK    3  A    between atoms: C3_4  and  C4_6 
REMARK    4  A    between atoms: C6_8  and  O3_9 
REMARK    5  A    between atoms: C7_11  and  C8_12 
REMARK    6  A    between atoms: N1_13  and  C9_15 
REMARK    7  A    between atoms: C16_24  and  C17_25 
ROOT
HETATM    1  C9  UNL     1     -50.045  -2.894 -25.869  1.00  0.00     0.096 A 
HETATM    2  S1  UNL     1     -49.657  -2.972 -24.211  1.00  0.00    -0.067 SA
HETATM    3  C10 UNL     1     -50.562  -1.645 -23.649  1.00  0.00     0.061 A 
HETATM    4  C11 UNL     1     -51.153  -1.165 -24.781  1.00  0.00    -0.014 A 
HETATM    5  C12 UNL     1     -50.883  -1.817 -25.939  1.00  0.00     0.086 A 
HETATM    6  C13 UNL     1     -51.462  -1.397 -27.229  1.00  0.00     0.103 C 
HETATM    7  N2  UNL     1     -51.919  -1.078 -28.267  1.00  0.00    -0.191 NA
HETATM    8  C14 UNL     1     -52.029   0.059 -24.519  1.00  0.00     0.042 C 
HETATM    9  C15 UNL     1     -52.869  -0.192 -23.316  1.00  0.00     0.018 C 
HETATM   10  C16 UNL     1     -52.074  -0.303 -22.029  1.00  0.00     0.065 C 
HETATM   11  C20 UNL     1     -50.801  -0.995 -22.333  1.00  0.00     0.171 C 
HETATM   12  O4  UNL     1     -49.860  -1.073 -21.511  1.00  0.00    -0.291 OA
ENDROOT
BRANCH   1  13
HETATM   13  N1  UNL     1     -49.618  -3.740 -26.959  1.00  0.00    -0.356 N 
HETATM   14  C8  UNL     1     -48.447  -3.660 -27.442  1.00  0.00     0.129 C 
ATOM     15  H1  UNL     1     -50.272  -4.418 -27.350  1.00  0.00     0.166 HD
BRANCH  14  16
HETATM   16  C7  UNL     1     -47.964  -4.486 -28.540  1.00  0.00     0.124 A 
HETATM   17  C6  UNL     1     -48.024  -5.865 -28.536  1.00  0.00     0.103 A 
HETATM   18  C5  UNL     1     -47.471  -6.246 -29.740  1.00  0.00     0.083 A 
HETATM   19  C4  UNL     1     -47.098  -5.115 -30.430  1.00  0.00     0.154 A 
HETATM   20  O5  UNL     1     -47.418  -4.096 -29.659  1.00  0.00    -0.300 OA
BRANCH  17  21
HETATM   21  O3  UNL     1     -48.543  -6.669 -27.509  1.00  0.00    -0.358 OA
ATOM     22  H3  UNL     1     -49.450  -6.812 -27.263  1.00  0.00     0.217 HD
ENDBRANCH  17  21
BRANCH  19  23
HETATM   23  C3  UNL     1     -46.473  -5.038 -31.744  1.00  0.00     0.317 C 
HETATM   24  O2  UNL     1     -45.710  -5.962 -32.094  1.00  0.00    -0.257 OA
BRANCH  23  25
HETATM   25  O1  UNL     1     -46.691  -3.989 -32.615  1.00  0.00    -0.316 OA
BRANCH  25  26
HETATM   26  C2  UNL     1     -45.683  -3.156 -33.148  1.00  0.00     0.175 C 
HETATM   27  C1  UNL     1     -46.293  -1.829 -33.523  1.00  0.00     0.034 C 
ENDBRANCH  25  26
ENDBRANCH  23  25
ENDBRANCH  19  23
ENDBRANCH  14  16
ENDBRANCH   1  13
BRANCH  10  28
HETATM   28  C17 UNL     1     -51.921   1.010 -21.334  1.00  0.00    -0.011 C 
HETATM   29  C18 UNL     1     -53.098   1.931 -21.596  1.00  0.00     0.010 C 
HETATM   30  C19 UNL     1     -51.891   0.796 -19.830  1.00  0.00     0.010 C 
ENDBRANCH  10  28
TORSDOF 7
ENDMDL
MODEL 4
REMARK VINA RESULT: -7.406827112      3.835      6.427
REMARK  7 active torsions:
REMARK  status: ('A' for Active; 'I' for Inactive)
REMARK    1  A    between atoms: C2_2  and  O1_3 
REMARK    2  A    between atoms: O1_3  and  C3_4 
REMARK    3  A    between atoms: C3_4  and  C4_6 
REMARK    4  A    between atoms: C6_8  and  O3_9 
REMARK    5  A    between atoms: C7_11  and  C8_12 
REMARK    6  A    between atoms: N1_13  and  C9_15 
REMARK    7  A    between atoms: C16_24  and  C17_25 
ROOT
HETATM    1  C9  UNL     1     -52.004  -0.005 -20.907  1.00  0.00     0.096 A 
HETATM    2  S1  UNL     1     -50.939  -0.602 -19.717  1.00  0.00    -0.067 SA
HETATM    3  C10 UNL     1     -51.352   0.428 -18.427  1.00  0.00     0.061 A 
HETATM    4  C11 UNL     1     -52.323   1.225 -18.961  1.00  0.00    -0.014 A 
HETATM    5  C12 UNL     1     -52.663   0.999 -20.253  1.00  0.00     0.086 A 
HETATM    6  C13 UNL     1     -53.700   1.790 -20.943  1.00  0.00     0.103 C 
HETATM    7  N2  UNL     1     -54.527   2.409 -21.506  1.00  0.00    -0.191 NA
HETATM    8  C14 UNL     1     -52.854   2.257 -17.967  1.00  0.00     0.042 C 
HETATM    9  C15 UNL     1     -53.102   1.591 -16.659  1.00  0.00     0.018 C 
HETATM   10  C16 UNL     1     -51.841   1.101 -15.974  1.00  0.00     0.065 C 
HETATM   11  C20 UNL     1     -50.915   0.603 -17.017  1.00  0.00     0.171 C 
HETATM   12  O4  UNL     1     -49.724   0.302 -16.777  1.00  0.00    -0.291 OA
ENDROOT
BRANCH   1  13
HETATM   13  N1  UNL     1     -52.195  -0.430 -22.274  1.00  0.00    -0.356 N 
HETATM   14  C8  UNL     1     -51.260  -0.356 -23.128  1.00  0.00     0.129 C 
ATOM     15  H1  UNL     1     -53.102  -0.798 -22.559  1.00  0.00     0.166 HD
BRANCH  14  16
HETATM   16  C7  UNL     1     -51.398  -0.769 -24.519  1.00  0.00     0.124 A 
HETATM   17  C6  UNL     1     -52.525  -0.521 -25.275  1.00  0.00     0.103 A 
HETATM   18  C5  UNL     1     -52.248  -1.067 -26.511  1.00  0.00     0.083 A 
HETATM   19  C4  UNL     1     -50.988  -1.621 -26.473  1.00  0.00     0.154 A 
HETATM   20  O5  UNL     1     -50.534  -1.410 -25.255  1.00  0.00    -0.300 OA
BRANCH  17  21
HETATM   21  O3  UNL     1     -53.682   0.148 -24.845  1.00  0.00    -0.358 OA
ATOM     22  H3  UNL     1     -53.816   1.077 -24.699  1.00  0.00     0.217 HD
ENDBRANCH  17  21
BRANCH  19  23
HETATM   23  C3  UNL     1     -50.285  -2.307 -27.549  1.00  0.00     0.317 C 
HETATM   24  O2  UNL     1     -50.953  -2.769 -28.497  1.00  0.00    -0.257 OA
BRANCH  23  25
HETATM   25  O1  UNL     1     -48.912  -2.464 -27.564  1.00  0.00    -0.316 OA
BRANCH  25  26
HETATM   26  C2  UNL     1     -48.239  -3.706 -27.545  1.00  0.00     0.175 C 
HETATM   27  C1  UNL     1     -48.398  -4.327 -26.180  1.00  0.00     0.034 C 
ENDBRANCH  25  26
ENDBRANCH  23  25
ENDBRANCH  19  23
ENDBRANCH  14  16
ENDBRANCH   1  13
BRANCH  10  28
HETATM   28  C17 UNL     1     -51.254   2.122 -15.055  1.00  0.00    -0.011 C 
HETATM   29  C18 UNL     1     -52.248   3.217 -14.715  1.00  0.00     0.010 C 
HETATM   30  C19 UNL     1     -50.887   1.472 -13.731  1.00  0.00     0.010 C 
ENDBRANCH  10  28
TORSDOF 7
ENDMDL
MODEL 5
REMARK VINA RESULT: -7.336850551      0.871      1.462
REMARK  7 active torsions:
REMARK  status: ('A' for Active; 'I' for Inactive)
REMARK    1  A    between atoms: C2_2  and  O1_3 
REMARK    2  A    between atoms: O1_3  and  C3_4 
REMARK    3  A    between atoms: C3_4  and  C4_6 
REMARK    4  A    between atoms: C6_8  and  O3_9 
REMARK    5  A    between atoms: C7_11  and  C8_12 
REMARK    6  A    between atoms: N1_13  and  C9_15 
REMARK    7  A    between atoms: C16_24  and  C17_25 
ROOT
HETATM    1  C9  UNL     1     -50.747  -2.622 -25.404  1.00  0.00     0.096 A 
HETATM    2  S1  UNL     1     -51.632  -1.196 -25.704  1.00  0.00    -0.067 SA
HETATM    3  C10 UNL     1     -51.975  -0.737 -24.102  1.00  0.00     0.061 A 
HETATM    4  C11 UNL     1     -51.385  -1.719 -23.360  1.00  0.00    -0.014 A 
HETATM    5  C12 UNL     1     -50.744  -2.701 -24.039  1.00  0.00     0.086 A 
HETATM    6  C13 UNL     1     -50.066  -3.817 -23.353  1.00  0.00     0.103 C 
HETATM    7  N2  UNL     1     -49.516  -4.711 -22.821  1.00  0.00    -0.191 NA
HETATM    8  C14 UNL     1     -51.571  -1.518 -21.857  1.00  0.00     0.042 C 
HETATM    9  C15 UNL     1     -51.300  -0.094 -21.518  1.00  0.00     0.018 C 
HETATM   10  C16 UNL     1     -52.310   0.876 -22.102  1.00  0.00     0.065 C 
HETATM   11  C20 UNL     1     -52.699   0.383 -23.443  1.00  0.00     0.171 C 
HETATM   12  O4  UNL     1     -53.649   0.872 -24.095  1.00  0.00    -0.291 OA
ENDROOT
BRANCH   1  13
HETATM   13  N1  UNL     1     -50.133  -3.542 -26.333  1.00  0.00    -0.356 N 
HETATM   14  C8  UNL     1     -48.994  -3.310 -26.843  1.00  0.00     0.129 C 
ATOM     15  H1  UNL     1     -50.626  -4.399 -26.585  1.00  0.00     0.166 HD
BRANCH  14  16
HETATM   16  C7  UNL     1     -48.331  -4.201 -27.785  1.00  0.00     0.124 A 
HETATM   17  C6  UNL     1     -48.146  -5.549 -27.552  1.00  0.00     0.103 A 
HETATM   18  C5  UNL     1     -47.488  -6.013 -28.672  1.00  0.00     0.083 A 
HETATM   19  C4  UNL     1     -47.295  -4.959 -29.536  1.00  0.00     0.154 A 
HETATM   20  O5  UNL     1     -47.820  -3.905 -28.948  1.00  0.00    -0.300 OA
BRANCH  17  21
HETATM   21  O3  UNL     1     -48.554  -6.257 -26.411  1.00  0.00    -0.358 OA
ATOM     22  H3  UNL     1     -48.855  -7.156 -26.342  1.00  0.00     0.217 HD
ENDBRANCH  17  21
BRANCH  19  23
HETATM   23  C3  UNL     1     -46.643  -4.984 -30.839  1.00  0.00     0.317 C 
HETATM   24  O2  UNL     1     -46.838  -4.029 -31.620  1.00  0.00    -0.257 OA
BRANCH  23  25
HETATM   25  O1  UNL     1     -45.820  -6.017 -31.243  1.00  0.00    -0.316 OA
BRANCH  25  26
HETATM   26  C2  UNL     1     -44.408  -5.976 -31.241  1.00  0.00     0.175 C 
HETATM   27  C1  UNL     1     -43.910  -6.400 -29.882  1.00  0.00     0.034 C 
ENDBRANCH  25  26
ENDBRANCH  23  25
ENDBRANCH  19  23
ENDBRANCH  14  16
ENDBRANCH   1  13
BRANCH  10  28
HETATM   28  C17 UNL     1     -53.453   1.138 -21.177  1.00  0.00    -0.011 C 
HETATM   29  C18 UNL     1     -53.085   0.870 -19.730  1.00  0.00     0.010 C 
HETATM   30  C19 UNL     1     -53.838   2.608 -21.239  1.00  0.00     0.010 C 
ENDBRANCH  10  28
TORSDOF 7
ENDMDL
