MODEL 1
REMARK VINA RESULT: -7.005756724      0.000      0.000
REMARK  7 active torsions:
REMARK  status: ('A' for Active; 'I' for Inactive)
REMARK    1  A    between atoms: C3_3  and  C4_4 
REMARK    2  A    between atoms: C4_4  and  O2_6 
REMARK    3  A    between atoms: O2_6  and  C5_7 
REMARK    4  A    between atoms: C5_7  and  C6_8 
REMARK    5  A    between atoms: C10_13  and  N1_14 
REMARK    6  A    between atoms: N1_14  and  C11_16 
REMARK    7  A    between atoms: C17_23  and  C18_24 
ROOT
HETATM    1  C1  UNL     1     -50.549  -1.551 -27.279  1.00  0.00     0.074 C 
HETATM    2  C2  UNL     1     -51.335  -1.677 -26.009  1.00  0.00     0.073 A 
HETATM    3  C3  UNL     1     -52.706  -1.734 -25.872  1.00  0.00     0.177 A 
HETATM    4  O3  UNL     1     -52.914  -1.843 -24.579  1.00  0.00    -0.282 OA
HETATM    5  C9  UNL     1     -51.770  -1.856 -23.933  1.00  0.00     0.199 A 
HETATM    6  C10 UNL     1     -51.171  -1.938 -22.653  1.00  0.00     0.107 A 
HETATM    7  C17 UNL     1     -49.842  -1.882 -22.822  1.00  0.00     0.064 A 
HETATM    8  N2  UNL     1     -49.623  -1.767 -24.175  1.00  0.00    -0.293 N 
ATOM      9  H2  UNL     1     -48.709  -1.703 -24.623  1.00  0.00     0.187 HD
HETATM   10  N3  UNL     1     -50.758  -1.755 -24.791  1.00  0.00    -0.233 N 
ENDROOT
BRANCH   6  11
HETATM   11  N1  UNL     1     -51.964  -1.979 -21.480  1.00  0.00    -0.378 N 
ATOM     12  H1  UNL     1     -52.181  -2.918 -21.145  1.00  0.00     0.160 HD
BRANCH  11  13
HETATM   13  C11 UNL     1     -52.503  -0.938 -20.701  1.00  0.00     0.113 C 
HETATM   14  C12 UNL     1     -51.933  -0.808 -19.301  1.00  0.00     0.059 C 
HETATM   15  C13 UNL     1     -51.690   0.670 -19.181  1.00  0.00     0.120 C 
HETATM   16  C14 UNL     1     -52.704   1.351 -18.294  1.00  0.00     0.039 C 
HETATM   17  O4  UNL     1     -51.697   1.208 -20.455  1.00  0.00    -0.379 OA
HETATM   18  C15 UNL     1     -52.592   0.440 -21.201  1.00  0.00     0.140 C 
HETATM   19  C16 UNL     1     -53.967   1.061 -21.051  1.00  0.00     0.041 C 
ENDBRANCH  11  13
ENDBRANCH   6  11
BRANCH   7  20
HETATM   20  C18 UNL     1     -48.702  -1.942 -21.900  1.00  0.00    -0.005 C 
HETATM   21  C19 UNL     1     -48.676  -3.229 -21.133  1.00  0.00     0.021 C 
HETATM   22  C20 UNL     1     -47.370  -1.851 -22.628  1.00  0.00     0.021 C 
HETATM   23  C21 UNL     1     -48.719  -0.739 -20.954  1.00  0.00     0.021 C 
ENDBRANCH   7  20
BRANCH   3  24
HETATM   24  C4  UNL     1     -53.686  -1.680 -26.950  1.00  0.00     0.319 C 
HETATM   25  O1  UNL     1     -53.598  -2.530 -27.868  1.00  0.00    -0.257 OA
BRANCH  24  26
HETATM   26  O2  UNL     1     -54.688  -0.762 -27.017  1.00  0.00    -0.316 OA
BRANCH  26  27
HETATM   27  C5  UNL     1     -55.655  -0.452 -26.071  1.00  0.00     0.183 C 
BRANCH  27  28
HETATM   28  C6  UNL     1     -55.705   1.041 -25.855  1.00  0.00     0.002 C 
HETATM   29  C7  UNL     1     -57.152   1.484 -25.732  1.00  0.00     0.011 C 
HETATM   30  C8  UNL     1     -54.938   1.431 -24.601  1.00  0.00     0.011 C 
ENDBRANCH  27  28
ENDBRANCH  26  27
ENDBRANCH  24  26
ENDBRANCH   3  24
TORSDOF 7
ENDMDL
MODEL 2
REMARK VINA RESULT: -6.913949386      2.789      4.089
REMARK  7 active torsions:
REMARK  status: ('A' for Active; 'I' for Inactive)
REMARK    1  A    between atoms: C3_3  and  C4_4 
REMARK    2  A    between atoms: C4_4  and  O2_6 
REMARK    3  A    between atoms: O2_6  and  C5_7 
REMARK    4  A    between atoms: C5_7  and  C6_8 
REMARK    5  A    between atoms: C10_13  and  N1_14 
REMARK    6  A    between atoms: N1_14  and  C11_16 
REMARK    7  A    between atoms: C17_23  and  C18_24 
ROOT
HETATM    1  C1  UNL     1     -51.394  -1.090 -27.466  1.00  0.00     0.074 C 
HETATM    2  C2  UNL     1     -51.820  -1.879 -26.265  1.00  0.00     0.073 A 
HETATM    3  C3  UNL     1     -52.932  -1.673 -25.476  1.00  0.00     0.177 A 
HETATM    4  O3  UNL     1     -52.875  -2.611 -24.557  1.00  0.00    -0.282 OA
HETATM    5  C9  UNL     1     -51.811  -3.361 -24.738  1.00  0.00     0.199 A 
HETATM    6  C10 UNL     1     -51.087  -4.473 -24.242  1.00  0.00     0.107 A 
HETATM    7  C17 UNL     1     -50.016  -4.645 -25.030  1.00  0.00     0.064 A 
HETATM    8  N2  UNL     1     -50.076  -3.664 -25.992  1.00  0.00    -0.293 N 
ATOM      9  H2  UNL     1     -49.399  -3.530 -26.743  1.00  0.00     0.187 HD
HETATM   10  N3  UNL     1     -51.125  -2.937 -25.796  1.00  0.00    -0.233 N 
ENDROOT
BRANCH   6  11
HETATM   11  N1  UNL     1     -51.494  -5.135 -23.057  1.00  0.00    -0.378 N 
ATOM     12  H1  UNL     1     -52.113  -5.932 -23.206  1.00  0.00     0.160 HD
BRANCH  11  13
HETATM   13  C11 UNL     1     -51.184  -4.874 -21.709  1.00  0.00     0.113 C 
HETATM   14  C12 UNL     1     -50.164  -5.805 -21.082  1.00  0.00     0.059 C 
HETATM   15  C13 UNL     1     -49.250  -4.856 -20.361  1.00  0.00     0.120 C 
HETATM   16  C14 UNL     1     -49.455  -4.879 -18.866  1.00  0.00     0.039 C 
HETATM   17  O4  UNL     1     -49.461  -3.589 -20.876  1.00  0.00    -0.379 OA
HETATM   18  C15 UNL     1     -50.806  -3.533 -21.244  1.00  0.00     0.140 C 
HETATM   19  C16 UNL     1     -51.593  -3.055 -20.039  1.00  0.00     0.041 C 
ENDBRANCH  11  13
ENDBRANCH   6  11
BRANCH   7  20
HETATM   20  C18 UNL     1     -48.921  -5.621 -25.048  1.00  0.00    -0.005 C 
HETATM   21  C19 UNL     1     -49.428  -7.026 -24.920  1.00  0.00     0.021 C 
HETATM   22  C20 UNL     1     -48.129  -5.570 -26.344  1.00  0.00     0.021 C 
HETATM   23  C21 UNL     1     -47.905  -5.302 -23.949  1.00  0.00     0.021 C 
ENDBRANCH   7  20
BRANCH   3  24
HETATM   24  C4  UNL     1     -53.935  -0.630 -25.650  1.00  0.00     0.319 C 
HETATM   25  O1  UNL     1     -54.753  -0.752 -26.593  1.00  0.00    -0.257 OA
BRANCH  24  26
HETATM   26  O2  UNL     1     -54.033   0.467 -24.850  1.00  0.00    -0.316 OA
BRANCH  26  27
HETATM   27  C5  UNL     1     -53.043   1.106 -24.118  1.00  0.00     0.183 C 
BRANCH  27  28
HETATM   28  C6  UNL     1     -53.051   0.604 -22.693  1.00  0.00     0.002 C 
HETATM   29  C7  UNL     1     -51.692   0.020 -22.357  1.00  0.00     0.011 C 
HETATM   30  C8  UNL     1     -53.381   1.732 -21.727  1.00  0.00     0.011 C 
ENDBRANCH  27  28
ENDBRANCH  26  27
ENDBRANCH  24  26
ENDBRANCH   3  24
TORSDOF 7
ENDMDL
MODEL 3
REMARK VINA RESULT: -6.782732037      2.310      3.864
REMARK  7 active torsions:
REMARK  status: ('A' for Active; 'I' for Inactive)
REMARK    1  A    between atoms: C3_3  and  C4_4 
REMARK    2  A    between atoms: C4_4  and  O2_6 
REMARK    3  A    between atoms: O2_6  and  C5_7 
REMARK    4  A    between atoms: C5_7  and  C6_8 
REMARK    5  A    between atoms: C10_13  and  N1_14 
REMARK    6  A    between atoms: N1_14  and  C11_16 
REMARK    7  A    between atoms: C17_23  and  C18_24 
ROOT
HETATM    1  C1  UNL     1     -52.125  -5.080 -24.654  1.00  0.00     0.074 C 
HETATM    2  C2  UNL     1     -51.938  -3.666 -24.193  1.00  0.00     0.073 A 
HETATM    3  C3  UNL     1     -52.205  -2.510 -24.898  1.00  0.00     0.177 A 
HETATM    4  O3  UNL     1     -51.883  -1.533 -24.083  1.00  0.00    -0.282 OA
HETATM    5  C9  UNL     1     -51.442  -2.017 -22.943  1.00  0.00     0.199 A 
HETATM    6  C10 UNL     1     -50.943  -1.675 -21.662  1.00  0.00     0.107 A 
HETATM    7  C17 UNL     1     -50.695  -2.818 -21.005  1.00  0.00     0.064 A 
HETATM    8  N2  UNL     1     -51.033  -3.842 -21.859  1.00  0.00    -0.293 N 
ATOM      9  H2  UNL     1     -50.957  -4.837 -21.647  1.00  0.00     0.187 HD
HETATM   10  N3  UNL     1     -51.461  -3.346 -22.972  1.00  0.00    -0.233 N 
ENDROOT
BRANCH   6  11
HETATM   11  N1  UNL     1     -50.714  -0.323 -21.308  1.00  0.00    -0.378 N 
ATOM     12  H1  UNL     1     -49.742  -0.022 -21.380  1.00  0.00     0.160 HD
BRANCH  11  13
HETATM   13  C11 UNL     1     -51.608   0.674 -20.872  1.00  0.00     0.113 C 
HETATM   14  C12 UNL     1     -52.365   1.396 -21.970  1.00  0.00     0.059 C 
HETATM   15  C13 UNL     1     -53.772   1.412 -21.445  1.00  0.00     0.120 C 
HETATM   16  C14 UNL     1     -54.187   2.775 -20.946  1.00  0.00     0.039 C 
HETATM   17  O4  UNL     1     -53.863   0.463 -20.442  1.00  0.00    -0.379 OA
HETATM   18  C15 UNL     1     -52.610   0.417 -19.830  1.00  0.00     0.140 C 
HETATM   19  C16 UNL     1     -52.607   1.440 -18.710  1.00  0.00     0.041 C 
ENDBRANCH  11  13
ENDBRANCH   6  11
BRANCH   7  20
HETATM   20  C18 UNL     1     -50.199  -3.122 -19.659  1.00  0.00    -0.005 C 
HETATM   21  C19 UNL     1     -51.170  -2.694 -18.600  1.00  0.00     0.021 C 
HETATM   22  C20 UNL     1     -49.974  -4.611 -19.453  1.00  0.00     0.021 C 
HETATM   23  C21 UNL     1     -48.828  -2.479 -19.438  1.00  0.00     0.021 C 
ENDBRANCH   7  20
BRANCH   3  24
HETATM   24  C4  UNL     1     -52.732  -2.428 -26.255  1.00  0.00     0.319 C 
HETATM   25  O1  UNL     1     -53.808  -1.810 -26.432  1.00  0.00    -0.257 OA
BRANCH  24  26
HETATM   26  O2  UNL     1     -52.122  -2.984 -27.338  1.00  0.00    -0.316 OA
BRANCH  26  27
HETATM   27  C5  UNL     1     -50.965  -2.584 -27.991  1.00  0.00     0.183 C 
BRANCH  27  28
HETATM   28  C6  UNL     1     -49.753  -2.984 -27.183  1.00  0.00     0.002 C 
HETATM   29  C7  UNL     1     -48.871  -3.894 -28.017  1.00  0.00     0.011 C 
HETATM   30  C8  UNL     1     -48.966  -1.757 -26.750  1.00  0.00     0.011 C 
ENDBRANCH  27  28
ENDBRANCH  26  27
ENDBRANCH  24  26
ENDBRANCH   3  24
TORSDOF 7
ENDMDL
MODEL 4
REMARK VINA RESULT: -6.742512146      1.694      2.459
REMARK  7 active torsions:
REMARK  status: ('A' for Active; 'I' for Inactive)
REMARK    1  A    between atoms: C3_3  and  C4_4 
REMARK    2  A    between atoms: C4_4  and  O2_6 
REMARK    3  A    between atoms: O2_6  and  C5_7 
REMARK    4  A    between atoms: C5_7  and  C6_8 
REMARK    5  A    between atoms: C10_13  and  N1_14 
REMARK    6  A    between atoms: N1_14  and  C11_16 
REMARK    7  A    between atoms: C17_23  and  C18_24 
ROOT
HETATM    1  C1  UNL     1     -52.684  -4.878 -24.887  1.00  0.00     0.074 C 
HETATM    2  C2  UNL     1     -52.371  -3.545 -24.278  1.00  0.00     0.073 A 
HETATM    3  C3  UNL     1     -52.643  -2.297 -24.801  1.00  0.00     0.177 A 
HETATM    4  O3  UNL     1     -52.184  -1.448 -23.911  1.00  0.00    -0.282 OA
HETATM    5  C9  UNL     1     -51.657  -2.094 -22.894  1.00  0.00     0.199 A 
HETATM    6  C10 UNL     1     -51.012  -1.943 -21.643  1.00  0.00     0.107 A 
HETATM    7  C17 UNL     1     -50.763  -3.170 -21.163  1.00  0.00     0.064 A 
HETATM    8  N2  UNL     1     -51.244  -4.060 -22.096  1.00  0.00    -0.293 N 
ATOM      9  H2  UNL     1     -51.204  -5.076 -22.018  1.00  0.00     0.187 HD
HETATM   10  N3  UNL     1     -51.755  -3.407 -23.085  1.00  0.00    -0.233 N 
ENDROOT
BRANCH   6  11
HETATM   11  N1  UNL     1     -50.672  -0.659 -21.150  1.00  0.00    -0.378 N 
ATOM     12  H1  UNL     1     -49.671  -0.458 -21.140  1.00  0.00     0.160 HD
BRANCH  11  13
HETATM   13  C11 UNL     1     -51.487   0.385 -20.673  1.00  0.00     0.113 C 
HETATM   14  C12 UNL     1     -52.227   1.173 -21.737  1.00  0.00     0.059 C 
HETATM   15  C13 UNL     1     -53.614   1.270 -21.171  1.00  0.00     0.120 C 
HETATM   16  C14 UNL     1     -53.927   2.647 -20.638  1.00  0.00     0.039 C 
HETATM   17  O4  UNL     1     -53.738   0.311 -20.182  1.00  0.00    -0.379 OA
HETATM   18  C15 UNL     1     -52.474   0.174 -19.607  1.00  0.00     0.140 C 
HETATM   19  C16 UNL     1     -52.375   1.174 -18.471  1.00  0.00     0.041 C 
ENDBRANCH  11  13
ENDBRANCH   6  11
BRANCH   7  20
HETATM   20  C18 UNL     1     -50.151  -3.668 -19.926  1.00  0.00    -0.005 C 
HETATM   21  C19 UNL     1     -49.971  -5.155 -19.956  1.00  0.00     0.021 C 
HETATM   22  C20 UNL     1     -48.771  -3.075 -19.691  1.00  0.00     0.021 C 
HETATM   23  C21 UNL     1     -50.978  -3.238 -18.713  1.00  0.00     0.021 C 
ENDBRANCH   7  20
BRANCH   3  24
HETATM   24  C4  UNL     1     -53.300  -2.018 -26.072  1.00  0.00     0.319 C 
HETATM   25  O1  UNL     1     -52.703  -2.339 -27.127  1.00  0.00    -0.257 OA
BRANCH  24  26
HETATM   26  O2  UNL     1     -54.522  -1.427 -26.178  1.00  0.00    -0.316 OA
BRANCH  26  27
HETATM   27  C5  UNL     1     -54.834  -0.111 -26.487  1.00  0.00     0.183 C 
BRANCH  27  28
HETATM   28  C6  UNL     1     -55.690   0.485 -25.395  1.00  0.00     0.002 C 
HETATM   29  C7  UNL     1     -54.852   1.437 -24.561  1.00  0.00     0.011 C 
HETATM   30  C8  UNL     1     -56.878   1.228 -25.988  1.00  0.00     0.011 C 
ENDBRANCH  27  28
ENDBRANCH  26  27
ENDBRANCH  24  26
ENDBRANCH   3  24
TORSDOF 7
ENDMDL
MODEL 5
REMARK VINA RESULT: -6.646222363      2.358      5.621
REMARK  7 active torsions:
REMARK  status: ('A' for Active; 'I' for Inactive)
REMARK    1  A    between atoms: C3_3  and  C4_4 
REMARK    2  A    between atoms: C4_4  and  O2_6 
REMARK    3  A    between atoms: O2_6  and  C5_7 
REMARK    4  A    between atoms: C5_7  and  C6_8 
REMARK    5  A    between atoms: C10_13  and  N1_14 
REMARK    6  A    between atoms: N1_14  and  C11_16 
REMARK    7  A    between atoms: C17_23  and  C18_24 
ROOT
HETATM    1  C1  UNL     1     -54.526   1.521 -24.615  1.00  0.00     0.074 C 
HETATM    2  C2  UNL     1     -53.418   0.837 -23.873  1.00  0.00     0.073 A 
HETATM    3  C3  UNL     1     -53.123   0.933 -22.529  1.00  0.00     0.177 A 
HETATM    4  O3  UNL     1     -52.076   0.159 -22.355  1.00  0.00    -0.282 OA
HETATM    5  C9  UNL     1     -51.724  -0.393 -23.495  1.00  0.00     0.199 A 
HETATM    6  C10 UNL     1     -50.798  -1.268 -24.113  1.00  0.00     0.107 A 
HETATM    7  C17 UNL     1     -51.113  -1.340 -25.414  1.00  0.00     0.064 A 
HETATM    8  N2  UNL     1     -52.209  -0.528 -25.597  1.00  0.00    -0.293 N 
ATOM      9  H2  UNL     1     -52.687  -0.372 -26.485  1.00  0.00     0.187 HD
HETATM   10  N3  UNL     1     -52.538   0.005 -24.468  1.00  0.00    -0.233 N 
ENDROOT
BRANCH   6  11
HETATM   11  N1  UNL     1     -49.724  -1.827 -23.379  1.00  0.00    -0.378 N 
ATOM     12  H1  UNL     1     -48.832  -1.345 -23.493  1.00  0.00     0.160 HD
BRANCH  11  13
HETATM   13  C11 UNL     1     -49.684  -2.940 -22.517  1.00  0.00     0.113 C 
HETATM   14  C12 UNL     1     -49.465  -2.622 -21.050  1.00  0.00     0.059 C 
HETATM   15  C13 UNL     1     -50.491  -3.481 -20.369  1.00  0.00     0.120 C 
HETATM   16  C14 UNL     1     -49.880  -4.681 -19.688  1.00  0.00     0.039 C 
HETATM   17  O4  UNL     1     -51.423  -3.863 -21.317  1.00  0.00    -0.379 OA
HETATM   18  C15 UNL     1     -50.733  -3.967 -22.526  1.00  0.00     0.140 C 
HETATM   19  C16 UNL     1     -50.205  -5.385 -22.633  1.00  0.00     0.041 C 
ENDBRANCH  11  13
ENDBRANCH   6  11
BRANCH   7  20
HETATM   20  C18 UNL     1     -50.556  -2.082 -26.550  1.00  0.00    -0.005 C 
HETATM   21  C19 UNL     1     -51.256  -1.744 -27.831  1.00  0.00     0.021 C 
HETATM   22  C20 UNL     1     -49.085  -1.772 -26.773  1.00  0.00     0.021 C 
HETATM   23  C21 UNL     1     -50.607  -3.588 -26.278  1.00  0.00     0.021 C 
ENDBRANCH   7  20
BRANCH   3  24
HETATM   24  C4  UNL     1     -53.838   1.733 -21.542  1.00  0.00     0.319 C 
HETATM   25  O1  UNL     1     -54.900   2.296 -21.898  1.00  0.00    -0.257 OA
BRANCH  24  26
HETATM   26  O2  UNL     1     -53.419   1.901 -20.258  1.00  0.00    -0.316 OA
BRANCH  26  27
HETATM   27  C5  UNL     1     -53.244   0.950 -19.263  1.00  0.00     0.183 C 
BRANCH  27  28
HETATM   28  C6  UNL     1     -51.918   1.165 -18.572  1.00  0.00     0.002 C 
HETATM   29  C7  UNL     1     -52.130   1.172 -17.069  1.00  0.00     0.011 C 
HETATM   30  C8  UNL     1     -50.931   0.072 -18.949  1.00  0.00     0.011 C 
ENDBRANCH  27  28
ENDBRANCH  26  27
ENDBRANCH  24  26
ENDBRANCH   3  24
TORSDOF 7
ENDMDL
