MODEL 1
REMARK VINA RESULT: -4.517423259      0.000      0.000
REMARK  3 active torsions:
REMARK  status: ('A' for Active; 'I' for Inactive)
REMARK    1  A    between atoms: C4_4  and  C5_5 
REMARK    2  A    between atoms: C5_5  and  N1_6 
REMARK    3  A    between atoms: N1_6  and  C6_8 
ROOT
HETATM    1  N1  UNL     1      13.830 -11.145 -24.894  1.00  0.00    -0.393 N 
ATOM      2  H1  UNL     1      14.216 -10.580 -24.138  1.00  0.00     0.159 HD
ENDROOT
BRANCH   1   3
HETATM    3  C5  UNL     1      12.698 -10.705 -25.606  1.00  0.00     0.060 C 
BRANCH   3   4
HETATM    4  C4  UNL     1      11.806  -9.914 -24.685  1.00  0.00     0.024 C 
HETATM    5  C3  UNL     1      11.347  -8.601 -25.334  1.00  0.00     0.010 C 
HETATM    6  C2  UNL     1      10.799  -7.905 -24.081  1.00  0.00     0.001 C 
HETATM    7  C1  UNL     1      11.972  -8.058 -23.143  1.00  0.00     0.001 C 
HETATM    8  C10 UNL     1      12.498  -9.428 -23.444  1.00  0.00     0.010 C 
ENDBRANCH   3   4
ENDBRANCH   1   3
BRANCH   1   9
HETATM    9  C6  UNL     1      14.416 -12.367 -25.237  1.00  0.00     0.128 C 
HETATM   10  C7  UNL     1      14.064 -12.959 -26.552  1.00  0.00     0.197 C 
HETATM   11  O1  UNL     1      14.574 -14.277 -26.563  1.00  0.00    -0.365 OA
HETATM   12  C8  UNL     1      15.819 -14.356 -25.972  1.00  0.00     0.337 C 
HETATM   13  O2  UNL     1      16.500 -13.143 -26.052  1.00  0.00    -0.365 OA
HETATM   14  C9  UNL     1      15.943 -12.196 -25.210  1.00  0.00     0.197 C 
ENDBRANCH   1   9
TORSDOF 3
ENDMDL
MODEL 2
REMARK VINA RESULT: -4.486741413      0.542      1.153
REMARK  3 active torsions:
REMARK  status: ('A' for Active; 'I' for Inactive)
REMARK    1  A    between atoms: C4_4  and  C5_5 
REMARK    2  A    between atoms: C5_5  and  N1_6 
REMARK    3  A    between atoms: N1_6  and  C6_8 
ROOT
HETATM    1  N1  UNL     1      14.061 -11.273 -24.868  1.00  0.00    -0.393 N 
ATOM      2  H1  UNL     1      14.688 -10.474 -24.774  1.00  0.00     0.159 HD
ENDROOT
BRANCH   1   3
HETATM    3  C5  UNL     1      12.687 -11.136 -24.597  1.00  0.00     0.060 C 
BRANCH   3   4
HETATM    4  C4  UNL     1      12.320  -9.675 -24.610  1.00  0.00     0.024 C 
HETATM    5  C3  UNL     1      12.465  -9.045 -23.217  1.00  0.00     0.010 C 
HETATM    6  C2  UNL     1      11.707  -7.736 -23.477  1.00  0.00     0.001 C 
HETATM    7  C1  UNL     1      10.425  -8.271 -24.070  1.00  0.00     0.001 C 
HETATM    8  C10 UNL     1      10.874  -9.419 -24.923  1.00  0.00     0.010 C 
ENDBRANCH   3   4
ENDBRANCH   1   3
BRANCH   1   9
HETATM    9  C6  UNL     1      14.555 -12.519 -25.267  1.00  0.00     0.128 C 
HETATM   10  C7  UNL     1      14.029 -13.100 -26.527  1.00  0.00     0.197 C 
HETATM   11  O1  UNL     1      14.482 -14.438 -26.587  1.00  0.00    -0.365 OA
HETATM   12  C8  UNL     1      15.783 -14.566 -26.142  1.00  0.00     0.337 C 
HETATM   13  O2  UNL     1      16.498 -13.382 -26.309  1.00  0.00    -0.365 OA
HETATM   14  C9  UNL     1      16.080 -12.411 -25.417  1.00  0.00     0.197 C 
ENDBRANCH   1   9
TORSDOF 3
ENDMDL
MODEL 3
REMARK VINA RESULT: -4.477867315      5.068      6.971
REMARK  3 active torsions:
REMARK  status: ('A' for Active; 'I' for Inactive)
REMARK    1  A    between atoms: C4_4  and  C5_5 
REMARK    2  A    between atoms: C5_5  and  N1_6 
REMARK    3  A    between atoms: N1_6  and  C6_8 
ROOT
HETATM    1  N1  UNL     1       8.772  -7.313 -26.080  1.00  0.00    -0.393 N 
ATOM      2  H1  UNL     1       8.772  -6.750 -26.930  1.00  0.00     0.159 HD
ENDROOT
BRANCH   1   3
HETATM    3  C5  UNL     1       7.564  -7.807 -25.553  1.00  0.00     0.060 C 
BRANCH   3   4
HETATM    4  C4  UNL     1       6.492  -6.758 -25.695  1.00  0.00     0.024 C 
HETATM    5  C3  UNL     1       7.086  -5.342 -25.699  1.00  0.00     0.010 C 
HETATM    6  C2  UNL     1       5.789  -4.549 -25.493  1.00  0.00     0.001 C 
HETATM    7  C1  UNL     1       5.217  -5.258 -24.289  1.00  0.00     0.001 C 
HETATM    8  C10 UNL     1       5.546  -6.700 -24.531  1.00  0.00     0.010 C 
ENDBRANCH   3   4
ENDBRANCH   1   3
BRANCH   1   9
HETATM    9  C6  UNL     1       9.971  -7.604 -25.422  1.00  0.00     0.128 C 
HETATM   10  C7  UNL     1      10.737  -6.472 -24.845  1.00  0.00     0.197 C 
HETATM   11  O1  UNL     1      12.000  -6.977 -24.461  1.00  0.00    -0.365 OA
HETATM   12  C8  UNL     1      11.904  -8.234 -23.896  1.00  0.00     0.337 C 
HETATM   13  O2  UNL     1      10.655  -8.439 -23.314  1.00  0.00    -0.365 OA
HETATM   14  C9  UNL     1       9.669  -8.581 -24.275  1.00  0.00     0.197 C 
ENDBRANCH   1   9
TORSDOF 3
ENDMDL
MODEL 4
REMARK VINA RESULT: -4.460588182      3.895      6.314
REMARK  3 active torsions:
REMARK  status: ('A' for Active; 'I' for Inactive)
REMARK    1  A    between atoms: C4_4  and  C5_5 
REMARK    2  A    between atoms: C5_5  and  N1_6 
REMARK    3  A    between atoms: N1_6  and  C6_8 
ROOT
HETATM    1  N1  UNL     1      11.185  -9.271 -23.521  1.00  0.00    -0.393 N 
ATOM      2  H1  UNL     1      10.641  -9.889 -22.919  1.00  0.00     0.159 HD
ENDROOT
BRANCH   1   3
HETATM    3  C5  UNL     1      12.486  -9.628 -23.919  1.00  0.00     0.060 C 
BRANCH   3   4
HETATM    4  C4  UNL     1      12.415 -10.806 -24.857  1.00  0.00     0.024 C 
HETATM    5  C3  UNL     1      13.716 -11.621 -24.838  1.00  0.00     0.010 C 
HETATM    6  C2  UNL     1      13.472 -12.471 -26.092  1.00  0.00     0.001 C 
HETATM    7  C1  UNL     1      13.124 -11.396 -27.093  1.00  0.00     0.001 C 
HETATM    8  C10 UNL     1      12.305 -10.420 -26.303  1.00  0.00     0.010 C 
ENDBRANCH   3   4
ENDBRANCH   1   3
BRANCH   1   9
HETATM    9  C6  UNL     1      10.648  -8.057 -23.962  1.00  0.00     0.128 C 
HETATM   10  C7  UNL     1      11.575  -7.072 -24.573  1.00  0.00     0.197 C 
HETATM   11  O1  UNL     1      10.861  -5.859 -24.707  1.00  0.00    -0.365 OA
HETATM   12  C8  UNL     1       9.555  -6.068 -25.107  1.00  0.00     0.337 C 
HETATM   13  O2  UNL     1       9.425  -7.256 -25.824  1.00  0.00    -0.365 OA
HETATM   14  C9  UNL     1       9.556  -8.359 -24.999  1.00  0.00     0.197 C 
ENDBRANCH   1   9
TORSDOF 3
ENDMDL
MODEL 5
REMARK VINA RESULT: -4.423618221      0.757      1.801
REMARK  3 active torsions:
REMARK  status: ('A' for Active; 'I' for Inactive)
REMARK    1  A    between atoms: C4_4  and  C5_5 
REMARK    2  A    between atoms: C5_5  and  N1_6 
REMARK    3  A    between atoms: N1_6  and  C6_8 
ROOT
HETATM    1  N1  UNL     1      13.436 -11.222 -26.220  1.00  0.00    -0.393 N 
ATOM      2  H1  UNL     1      13.336 -10.613 -27.031  1.00  0.00     0.159 HD
ENDROOT
BRANCH   1   3
HETATM    3  C5  UNL     1      12.531 -11.135 -25.147  1.00  0.00     0.060 C 
BRANCH   3   4
HETATM    4  C4  UNL     1      12.236  -9.685 -24.860  1.00  0.00     0.024 C 
HETATM    5  C3  UNL     1      12.543  -9.326 -23.400  1.00  0.00     0.010 C 
HETATM    6  C2  UNL     1      11.829  -7.968 -23.343  1.00  0.00     0.001 C 
HETATM    7  C1  UNL     1      10.472  -8.345 -23.889  1.00  0.00     0.001 C 
HETATM    8  C10 UNL     1      10.782  -9.330 -24.975  1.00  0.00     0.010 C 
ENDBRANCH   3   4
ENDBRANCH   1   3
BRANCH   1   9
HETATM    9  C6  UNL     1      14.475 -12.157 -26.159  1.00  0.00     0.128 C 
HETATM   10  C7  UNL     1      15.000 -12.521 -24.820  1.00  0.00     0.197 C 
HETATM   11  O1  UNL     1      16.180 -13.272 -25.027  1.00  0.00    -0.365 OA
HETATM   12  C8  UNL     1      16.058 -14.145 -26.090  1.00  0.00     0.337 C 
HETATM   13  O2  UNL     1      14.729 -14.507 -26.305  1.00  0.00    -0.365 OA
HETATM   14  C9  UNL     1      14.000 -13.454 -26.830  1.00  0.00     0.197 C 
ENDBRANCH   1   9
TORSDOF 3
ENDMDL
