MODEL 1
REMARK VINA RESULT: -7.582487595      0.000      0.000
REMARK  18 active torsions:
REMARK  status: ('A' for Active; 'I' for Inactive)
REMARK    1  A    between atoms: C2_2  and  C3_3 
REMARK    2  A    between atoms: C3_3  and  O2_5 
REMARK    3  A    between atoms: O2_5  and  C4_6 
REMARK    4  A    between atoms: C4_6  and  C5_7 
REMARK    5  A    between atoms: C6_9  and  O4_10 
REMARK    6  A    between atoms: O4_10  and  C7_11 
REMARK    7  A    between atoms: C8_13  and  C9_14 
REMARK    8  A    between atoms: C9_14  and  O6_15 
REMARK    9  A    between atoms: C9_14  and  O7_17 
REMARK   10  A    between atoms: C10_19  and  O8_20 
REMARK   11  A    between atoms: O8_20  and  C11_21 
REMARK   12  A    between atoms: C13_24  and  O10_25 
REMARK   13  A    between atoms: N1_28  and  O11_30 
REMARK   14  A    between atoms: C15_32  and  N2_33 
REMARK   15  A    between atoms: C16_37  and  N3_38 
REMARK   16  A    between atoms: C20_42  and  O12_43 
REMARK   17  A    between atoms: O12_43  and  C21_44 
REMARK   18  A    between atoms: C23_47  and  O14_48 
ROOT
HETATM    1  C7  UNL     1      17.040   4.805  11.765  1.00  0.00     0.273 C 
HETATM    2  O5  UNL     1      15.910   4.996  12.550  1.00  0.00    -0.348 OA
HETATM    3  C8  UNL     1      15.467   4.138  13.448  1.00  0.00     0.212 C 
HETATM    4  C10 UNL     1      15.863   2.690  13.311  1.00  0.00     0.206 C 
HETATM    5  C13 UNL     1      16.626   2.503  12.021  1.00  0.00     0.139 C 
HETATM    6  C14 UNL     1      17.355   1.290  11.786  1.00  0.00     0.080 C 
HETATM    7  N1  UNL     1      17.284   0.100  12.195  1.00  0.00    -0.272 N 
ATOM      8  H1  UNL     1      16.529  -0.065  12.860  1.00  0.00     0.193 HD
HETATM    9  C15 UNL     1      18.391   1.784  10.772  1.00  0.00     0.267 C 
HETATM   10  C16 UNL     1      18.887   3.046  11.460  1.00  0.00     0.270 C 
HETATM   11  C19 UNL     1      17.728   3.573  12.159  1.00  0.00     0.120 C 
ENDROOT
BRANCH   1  12
HETATM   12  O4  UNL     1      16.619   4.905  10.442  1.00  0.00    -0.328 OA
BRANCH  12  13
HETATM   13  C6  UNL     1      17.350   5.825   9.708  1.00  0.00     0.295 C 
HETATM   14  O3  UNL     1      16.785   6.015   8.482  1.00  0.00    -0.348 OA
HETATM   15  C5  UNL     1      17.212   7.270   8.020  1.00  0.00     0.180 C 
HETATM   16  C23 UNL     1      17.393   8.132   9.216  1.00  0.00     0.186 C 
HETATM   17  C20 UNL     1      17.342   7.182  10.399  1.00  0.00     0.218 C 
BRANCH  15  18
HETATM   18  C4  UNL     1      16.136   7.741   7.079  1.00  0.00     0.213 C 
BRANCH  18  19
HETATM   19  O2  UNL     1      14.985   6.974   7.051  1.00  0.00    -0.319 OA
BRANCH  19  20
HETATM   20  C3  UNL     1      13.792   7.299   7.697  1.00  0.00     0.258 C 
HETATM   21  O1  UNL     1      13.245   6.443   8.423  1.00  0.00    -0.265 OA
BRANCH  20  22
HETATM   22  C2  UNL     1      13.214   8.678   7.488  1.00  0.00     0.106 C 
HETATM   23  C1  UNL     1      11.832   8.662   8.106  1.00  0.00     0.015 C 
ENDBRANCH  20  22
ENDBRANCH  19  20
ENDBRANCH  18  19
ENDBRANCH  15  18
BRANCH  16  24
HETATM   24  O14 UNL     1      16.414   9.117   9.315  1.00  0.00    -0.385 OA
HETATM   25  C24 UNL     1      15.578   8.952  10.393  1.00  0.00     0.202 C 
ENDBRANCH  16  24
BRANCH  17  26
HETATM   26  O12 UNL     1      18.385   7.334  11.310  1.00  0.00    -0.309 OA
BRANCH  26  27
HETATM   27  C21 UNL     1      18.356   8.203  12.387  1.00  0.00     0.255 C 
HETATM   28  C22 UNL     1      18.830   9.606  12.342  1.00  0.00     0.126 C 
HETATM   29  O13 UNL     1      17.896   7.763  13.477  1.00  0.00    -0.266 OA
ENDBRANCH  26  27
ENDBRANCH  17  26
ENDBRANCH  12  13
ENDBRANCH   1  12
BRANCH   3  30
HETATM   30  C9  UNL     1      15.771   4.651  14.826  1.00  0.00     0.285 C 
BRANCH  30  31
HETATM   31  O6  UNL     1      14.744   4.509  15.743  1.00  0.00    -0.369 OA
ATOM     32  H6  UNL     1      14.798   3.734  16.289  1.00  0.00     0.212 HD
ENDBRANCH  30  31
BRANCH  30  33
HETATM   33  O7  UNL     1      15.968   6.061  14.729  1.00  0.00    -0.369 OA
ATOM     34  H7  UNL     1      15.140   6.482  14.926  1.00  0.00     0.212 HD
ENDBRANCH  30  33
ENDBRANCH   3  30
BRANCH   5  35
HETATM   35  O10 UNL     1      15.768   2.789  10.953  1.00  0.00    -0.380 OA
ATOM     36  H10 UNL     1      16.256   2.699  10.142  1.00  0.00     0.211 HD
ENDBRANCH   5  35
BRANCH  10  37
HETATM   37  N3  UNL     1      19.702   3.892  10.666  1.00  0.00     0.087 N 
HETATM   38  C17 UNL     1      19.942   3.350   9.333  1.00  0.00     0.310 C 
HETATM   39  C18 UNL     1      21.050   3.954  11.265  1.00  0.00     0.310 C 
ENDBRANCH  10  37
BRANCH   4  40
HETATM   40  O8  UNL     1      16.689   2.251  14.360  1.00  0.00    -0.310 OA
BRANCH  40  41
HETATM   41  C11 UNL     1      16.365   1.283  15.288  1.00  0.00     0.255 C 
HETATM   42  C12 UNL     1      15.889   1.606  16.662  1.00  0.00     0.126 C 
HETATM   43  O9  UNL     1      16.475   0.070  14.959  1.00  0.00    -0.266 OA
ENDBRANCH  40  41
ENDBRANCH   4  40
BRANCH   9  44
HETATM   44  N2  UNL     1      19.391   0.816  10.578  1.00  0.00    -0.068 N 
ATOM     45  H23 UNL     1      20.096   0.846  11.314  1.00  0.00     0.275 HD
ATOM     46  H22 UNL     1      19.042  -0.128  10.741  1.00  0.00     0.275 HD
ATOM     47  H21 UNL     1      19.806   0.912   9.650  1.00  0.00     0.275 HD
ENDBRANCH   9  44
BRANCH   7  48
HETATM   48  O11 UNL     1      18.012  -0.988  11.920  1.00  0.00    -0.290 OA
ATOM     49  H11 UNL     1      17.844  -1.916  12.040  1.00  0.00     0.244 HD
ENDBRANCH   7  48
TORSDOF 18
ENDMDL
MODEL 2
REMARK VINA RESULT: -7.539450563      1.630      3.913
REMARK  18 active torsions:
REMARK  status: ('A' for Active; 'I' for Inactive)
REMARK    1  A    between atoms: C2_2  and  C3_3 
REMARK    2  A    between atoms: C3_3  and  O2_5 
REMARK    3  A    between atoms: O2_5  and  C4_6 
REMARK    4  A    between atoms: C4_6  and  C5_7 
REMARK    5  A    between atoms: C6_9  and  O4_10 
REMARK    6  A    between atoms: O4_10  and  C7_11 
REMARK    7  A    between atoms: C8_13  and  C9_14 
REMARK    8  A    between atoms: C9_14  and  O6_15 
REMARK    9  A    between atoms: C9_14  and  O7_17 
REMARK   10  A    between atoms: C10_19  and  O8_20 
REMARK   11  A    between atoms: O8_20  and  C11_21 
REMARK   12  A    between atoms: C13_24  and  O10_25 
REMARK   13  A    between atoms: N1_28  and  O11_30 
REMARK   14  A    between atoms: C15_32  and  N2_33 
REMARK   15  A    between atoms: C16_37  and  N3_38 
REMARK   16  A    between atoms: C20_42  and  O12_43 
REMARK   17  A    between atoms: O12_43  and  C21_44 
REMARK   18  A    between atoms: C23_47  and  O14_48 
ROOT
HETATM    1  C7  UNL     1      16.871   5.133  11.820  1.00  0.00     0.273 C 
HETATM    2  O5  UNL     1      15.729   5.120  12.610  1.00  0.00    -0.348 OA
HETATM    3  C8  UNL     1      15.390   4.139  13.424  1.00  0.00     0.212 C 
HETATM    4  C10 UNL     1      15.950   2.764  13.160  1.00  0.00     0.206 C 
HETATM    5  C13 UNL     1      16.726   2.784  11.864  1.00  0.00     0.139 C 
HETATM    6  C14 UNL     1      17.590   1.689  11.526  1.00  0.00     0.080 C 
HETATM    7  N1  UNL     1      17.658   0.467  11.825  1.00  0.00    -0.272 N 
ATOM      8  H1  UNL     1      16.929   0.157  12.467  1.00  0.00     0.193 HD
HETATM    9  C15 UNL     1      18.559   2.390  10.568  1.00  0.00     0.267 C 
HETATM   10  C16 UNL     1      18.907   3.633  11.371  1.00  0.00     0.270 C 
HETATM   11  C19 UNL     1      17.698   3.957  12.106  1.00  0.00     0.120 C 
ENDROOT
BRANCH   1  12
HETATM   12  O4  UNL     1      16.437   5.302  10.508  1.00  0.00    -0.328 OA
BRANCH  12  13
HETATM   13  C6  UNL     1      16.309   6.634  10.148  1.00  0.00     0.295 C 
HETATM   14  O3  UNL     1      16.693   7.445  11.174  1.00  0.00    -0.348 OA
HETATM   15  C5  UNL     1      17.044   8.684  10.613  1.00  0.00     0.180 C 
HETATM   16  C23 UNL     1      17.590   8.405   9.261  1.00  0.00     0.186 C 
HETATM   17  C20 UNL     1      17.230   6.958   8.978  1.00  0.00     0.218 C 
BRANCH  15  18
HETATM   18  C4  UNL     1      18.040   9.290  11.566  1.00  0.00     0.213 C 
BRANCH  18  19
HETATM   19  O2  UNL     1      18.737   8.394  12.357  1.00  0.00    -0.319 OA
BRANCH  19  20
HETATM   20  C3  UNL     1      18.818   8.452  13.748  1.00  0.00     0.258 C 
HETATM   21  O1  UNL     1      18.147   7.647  14.427  1.00  0.00    -0.265 OA
BRANCH  20  22
HETATM   22  C2  UNL     1      19.718   9.490  14.373  1.00  0.00     0.106 C 
HETATM   23  C1  UNL     1      19.676   9.251  15.868  1.00  0.00     0.015 C 
ENDBRANCH  20  22
ENDBRANCH  19  20
ENDBRANCH  18  19
ENDBRANCH  15  18
BRANCH  16  24
HETATM   24  O14 UNL     1      18.966   8.607   9.191  1.00  0.00    -0.385 OA
HETATM   25  C24 UNL     1      19.358   9.321   8.084  1.00  0.00     0.202 C 
ENDBRANCH  16  24
BRANCH  17  26
HETATM   26  O12 UNL     1      16.630   6.742   7.739  1.00  0.00    -0.309 OA
BRANCH  26  27
HETATM   27  C21 UNL     1      17.225   6.052   6.698  1.00  0.00     0.255 C 
HETATM   28  C22 UNL     1      18.263   6.619   5.804  1.00  0.00     0.126 C 
HETATM   29  O13 UNL     1      16.854   4.861   6.500  1.00  0.00    -0.266 OA
ENDBRANCH  26  27
ENDBRANCH  17  26
ENDBRANCH  12  13
ENDBRANCH   1  12
BRANCH   3  30
HETATM   30  C9  UNL     1      15.637   4.557  14.845  1.00  0.00     0.285 C 
BRANCH  30  31
HETATM   31  O6  UNL     1      14.647   4.197  15.742  1.00  0.00    -0.369 OA
ATOM     32  H6  UNL     1      14.919   4.170  16.651  1.00  0.00     0.212 HD
ENDBRANCH  30  31
BRANCH  30  33
HETATM   33  O7  UNL     1      15.648   5.983  14.880  1.00  0.00    -0.369 OA
ATOM     34  H7  UNL     1      16.278   6.250  15.539  1.00  0.00     0.212 HD
ENDBRANCH  30  33
ENDBRANCH   3  30
BRANCH   5  35
HETATM   35  O10 UNL     1      15.837   3.065  10.819  1.00  0.00    -0.380 OA
ATOM     36  H10 UNL     1      16.116   3.868  10.394  1.00  0.00     0.211 HD
ENDBRANCH   5  35
BRANCH  10  37
HETATM   37  N3  UNL     1      19.616   4.636  10.662  1.00  0.00     0.087 N 
HETATM   38  C17 UNL     1      19.634   4.400   9.223  1.00  0.00     0.310 C 
HETATM   39  C18 UNL     1      21.042   4.571  11.043  1.00  0.00     0.310 C 
ENDBRANCH  10  37
BRANCH   4  40
HETATM   40  O8  UNL     1      16.825   2.331  14.171  1.00  0.00    -0.310 OA
BRANCH  40  41
HETATM   41  C11 UNL     1      16.596   1.282  15.038  1.00  0.00     0.255 C 
HETATM   42  C12 UNL     1      16.497   1.458  16.513  1.00  0.00     0.126 C 
HETATM   43  O9  UNL     1      16.462   0.122  14.560  1.00  0.00    -0.266 OA
ENDBRANCH  40  41
ENDBRANCH   4  40
BRANCH   9  44
HETATM   44  N2  UNL     1      19.663   1.565  10.295  1.00  0.00    -0.068 N 
ATOM     45  H23 UNL     1      20.136   1.838   9.433  1.00  0.00     0.275 HD
ATOM     46  H22 UNL     1      20.429   1.729  10.947  1.00  0.00     0.275 HD
ATOM     47  H21 UNL     1      19.382   0.584  10.279  1.00  0.00     0.275 HD
ENDBRANCH   9  44
BRANCH   7  48
HETATM   48  O11 UNL     1      18.506  -0.500  11.459  1.00  0.00    -0.290 OA
ATOM     49  H11 UNL     1      18.719  -0.875  10.612  1.00  0.00     0.244 HD
ENDBRANCH   7  48
TORSDOF 18
ENDMDL
MODEL 3
REMARK VINA RESULT: -7.538678910      1.300      3.888
REMARK  18 active torsions:
REMARK  status: ('A' for Active; 'I' for Inactive)
REMARK    1  A    between atoms: C2_2  and  C3_3 
REMARK    2  A    between atoms: C3_3  and  O2_5 
REMARK    3  A    between atoms: O2_5  and  C4_6 
REMARK    4  A    between atoms: C4_6  and  C5_7 
REMARK    5  A    between atoms: C6_9  and  O4_10 
REMARK    6  A    between atoms: O4_10  and  C7_11 
REMARK    7  A    between atoms: C8_13  and  C9_14 
REMARK    8  A    between atoms: C9_14  and  O6_15 
REMARK    9  A    between atoms: C9_14  and  O7_17 
REMARK   10  A    between atoms: C10_19  and  O8_20 
REMARK   11  A    between atoms: O8_20  and  C11_21 
REMARK   12  A    between atoms: C13_24  and  O10_25 
REMARK   13  A    between atoms: N1_28  and  O11_30 
REMARK   14  A    between atoms: C15_32  and  N2_33 
REMARK   15  A    between atoms: C16_37  and  N3_38 
REMARK   16  A    between atoms: C20_42  and  O12_43 
REMARK   17  A    between atoms: O12_43  and  C21_44 
REMARK   18  A    between atoms: C23_47  and  O14_48 
ROOT
HETATM    1  C7  UNL     1      16.710   5.389  12.092  1.00  0.00     0.273 C 
HETATM    2  O5  UNL     1      15.545   5.161  12.813  1.00  0.00    -0.348 OA
HETATM    3  C8  UNL     1      15.286   4.061  13.494  1.00  0.00     0.212 C 
HETATM    4  C10 UNL     1      16.008   2.795  13.110  1.00  0.00     0.206 C 
HETATM    5  C13 UNL     1      16.830   3.049  11.868  1.00  0.00     0.139 C 
HETATM    6  C14 UNL     1      17.826   2.101  11.457  1.00  0.00     0.080 C 
HETATM    7  N1  UNL     1      18.019   0.866  11.622  1.00  0.00    -0.272 N 
ATOM      8  H1  UNL     1      17.304   0.407  12.185  1.00  0.00     0.193 HD
HETATM    9  C15 UNL     1      18.748   3.008  10.637  1.00  0.00     0.267 C 
HETATM   10  C16 UNL     1      18.920   4.179  11.591  1.00  0.00     0.270 C 
HETATM   11  C19 UNL     1      17.652   4.284  12.291  1.00  0.00     0.120 C 
ENDROOT
BRANCH   1  12
HETATM   12  O4  UNL     1      16.314   5.662  10.786  1.00  0.00    -0.328 OA
BRANCH  12  13
HETATM   13  C6  UNL     1      16.105   7.012  10.555  1.00  0.00     0.295 C 
HETATM   14  O3  UNL     1      16.853   7.765  11.411  1.00  0.00    -0.348 OA
HETATM   15  C5  UNL     1      17.018   9.026  10.817  1.00  0.00     0.180 C 
HETATM   16  C23 UNL     1      17.036   8.812   9.348  1.00  0.00     0.186 C 
HETATM   17  C20 UNL     1      16.557   7.386   9.149  1.00  0.00     0.218 C 
BRANCH  15  18
HETATM   18  C4  UNL     1      18.304   9.571  11.376  1.00  0.00     0.213 C 
BRANCH  18  19
HETATM   19  O2  UNL     1      19.140   8.644  11.974  1.00  0.00    -0.319 OA
BRANCH  19  20
HETATM   20  C3  UNL     1      19.360   8.536  13.347  1.00  0.00     0.258 C 
HETATM   21  O1  UNL     1      19.375   7.401  13.869  1.00  0.00    -0.265 OA
BRANCH  20  22
HETATM   22  C2  UNL     1      19.571   9.801  14.143  1.00  0.00     0.106 C 
HETATM   23  C1  UNL     1      19.626   9.388  15.599  1.00  0.00     0.015 C 
ENDBRANCH  20  22
ENDBRANCH  19  20
ENDBRANCH  18  19
ENDBRANCH  15  18
BRANCH  16  24
HETATM   24  O14 UNL     1      18.302   9.002   8.799  1.00  0.00    -0.385 OA
HETATM   25  C24 UNL     1      18.273   9.434   7.495  1.00  0.00     0.202 C 
ENDBRANCH  16  24
BRANCH  17  26
HETATM   26  O12 UNL     1      15.548   7.241   8.199  1.00  0.00    -0.309 OA
BRANCH  26  27
HETATM   27  C21 UNL     1      14.205   7.459   8.452  1.00  0.00     0.255 C 
HETATM   28  C22 UNL     1      13.586   8.798   8.587  1.00  0.00     0.126 C 
HETATM   29  O13 UNL     1      13.464   6.444   8.577  1.00  0.00    -0.266 OA
ENDBRANCH  26  27
ENDBRANCH  17  26
ENDBRANCH  12  13
ENDBRANCH   1  12
BRANCH   3  30
HETATM   30  C9  UNL     1      15.424   4.335  14.963  1.00  0.00     0.285 C 
BRANCH  30  31
HETATM   31  O6  UNL     1      14.523   3.664  15.772  1.00  0.00    -0.369 OA
ATOM     32  H6  UNL     1      13.799   4.191  16.089  1.00  0.00     0.212 HD
ENDBRANCH  30  31
BRANCH  30  33
HETATM   33  O7  UNL     1      15.134   5.715  15.175  1.00  0.00    -0.369 OA
ATOM     34  H7  UNL     1      14.648   5.786  15.988  1.00  0.00     0.212 HD
ENDBRANCH  30  33
ENDBRANCH   3  30
BRANCH   5  35
HETATM   35  O10 UNL     1      15.960   3.352  10.814  1.00  0.00    -0.380 OA
ATOM     36  H10 UNL     1      16.472   3.688  10.087  1.00  0.00     0.211 HD
ENDBRANCH   5  35
BRANCH  10  37
HETATM   37  N3  UNL     1      19.540   5.328  11.038  1.00  0.00     0.087 N 
HETATM   38  C17 UNL     1      19.581   5.297   9.580  1.00  0.00     0.310 C 
HETATM   39  C18 UNL     1      20.965   5.335  11.426  1.00  0.00     0.310 C 
ENDBRANCH  10  37
BRANCH   4  40
HETATM   40  O8  UNL     1      16.884   2.344  14.112  1.00  0.00    -0.310 OA
BRANCH  40  41
HETATM   41  C11 UNL     1      16.707   1.215  14.885  1.00  0.00     0.255 C 
HETATM   42  C12 UNL     1      16.737   1.241  16.374  1.00  0.00     0.126 C 
HETATM   43  O9  UNL     1      16.509   0.111  14.307  1.00  0.00    -0.266 OA
ENDBRANCH  40  41
ENDBRANCH   4  40
BRANCH   9  44
HETATM   44  N2  UNL     1      19.949   2.345  10.334  1.00  0.00    -0.068 N 
ATOM     45  H23 UNL     1      20.760   2.951  10.461  1.00  0.00     0.275 HD
ATOM     46  H22 UNL     1      20.178   1.637  11.032  1.00  0.00     0.275 HD
ATOM     47  H21 UNL     1      19.913   1.952   9.393  1.00  0.00     0.275 HD
ENDBRANCH   9  44
BRANCH   7  48
HETATM   48  O11 UNL     1      18.986   0.045  11.197  1.00  0.00    -0.290 OA
ATOM     49  H11 UNL     1      19.882  -0.088  11.485  1.00  0.00     0.244 HD
ENDBRANCH   7  48
TORSDOF 18
ENDMDL
MODEL 4
REMARK VINA RESULT: -7.482344320      1.568      2.846
REMARK  18 active torsions:
REMARK  status: ('A' for Active; 'I' for Inactive)
REMARK    1  A    between atoms: C2_2  and  C3_3 
REMARK    2  A    between atoms: C3_3  and  O2_5 
REMARK    3  A    between atoms: O2_5  and  C4_6 
REMARK    4  A    between atoms: C4_6  and  C5_7 
REMARK    5  A    between atoms: C6_9  and  O4_10 
REMARK    6  A    between atoms: O4_10  and  C7_11 
REMARK    7  A    between atoms: C8_13  and  C9_14 
REMARK    8  A    between atoms: C9_14  and  O6_15 
REMARK    9  A    between atoms: C9_14  and  O7_17 
REMARK   10  A    between atoms: C10_19  and  O8_20 
REMARK   11  A    between atoms: O8_20  and  C11_21 
REMARK   12  A    between atoms: C13_24  and  O10_25 
REMARK   13  A    between atoms: N1_28  and  O11_30 
REMARK   14  A    between atoms: C15_32  and  N2_33 
REMARK   15  A    between atoms: C16_37  and  N3_38 
REMARK   16  A    between atoms: C20_42  and  O12_43 
REMARK   17  A    between atoms: O12_43  and  C21_44 
REMARK   18  A    between atoms: C23_47  and  O14_48 
ROOT
HETATM    1  C7  UNL     1      16.962   5.143  11.897  1.00  0.00     0.273 C 
HETATM    2  O5  UNL     1      15.807   5.137  12.669  1.00  0.00    -0.348 OA
HETATM    3  C8  UNL     1      15.431   4.142  13.449  1.00  0.00     0.212 C 
HETATM    4  C10 UNL     1      15.961   2.762  13.155  1.00  0.00     0.206 C 
HETATM    5  C13 UNL     1      16.758   2.798  11.873  1.00  0.00     0.139 C 
HETATM    6  C14 UNL     1      17.600   1.692  11.517  1.00  0.00     0.080 C 
HETATM    7  N1  UNL     1      17.633   0.461  11.783  1.00  0.00    -0.272 N 
ATOM      8  H1  UNL     1      16.886   0.151  12.404  1.00  0.00     0.193 HD
HETATM    9  C15 UNL     1      18.601   2.394  10.595  1.00  0.00     0.267 C 
HETATM   10  C16 UNL     1      18.968   3.605  11.438  1.00  0.00     0.270 C 
HETATM   11  C19 UNL     1      17.754   3.939  12.163  1.00  0.00     0.120 C 
ENDROOT
BRANCH   1  12
HETATM   12  O4  UNL     1      16.553   5.360  10.584  1.00  0.00    -0.328 OA
BRANCH  12  13
HETATM   13  C6  UNL     1      16.494   6.703  10.250  1.00  0.00     0.295 C 
HETATM   14  O3  UNL     1      17.560   7.049   9.474  1.00  0.00    -0.348 OA
HETATM   15  C5  UNL     1      17.193   8.200   8.756  1.00  0.00     0.180 C 
HETATM   16  C23 UNL     1      15.730   8.110   8.518  1.00  0.00     0.186 C 
HETATM   17  C20 UNL     1      15.249   6.990   9.421  1.00  0.00     0.218 C 
BRANCH  15  18
HETATM   18  C4  UNL     1      18.024   8.175   7.502  1.00  0.00     0.213 C 
BRANCH  18  19
HETATM   19  O2  UNL     1      18.716   7.000   7.262  1.00  0.00    -0.319 OA
BRANCH  19  20
HETATM   20  C3  UNL     1      18.333   6.020   6.347  1.00  0.00     0.258 C 
HETATM   21  O1  UNL     1      17.377   5.268   6.631  1.00  0.00    -0.265 OA
BRANCH  20  22
HETATM   22  C2  UNL     1      19.094   5.913   5.048  1.00  0.00     0.106 C 
HETATM   23  C1  UNL     1      20.534   5.626   5.416  1.00  0.00     0.015 C 
ENDBRANCH  20  22
ENDBRANCH  19  20
ENDBRANCH  18  19
ENDBRANCH  15  18
BRANCH  16  24
HETATM   24  O14 UNL     1      15.424   7.854   7.184  1.00  0.00    -0.385 OA
HETATM   25  C24 UNL     1      14.506   8.729   6.656  1.00  0.00     0.202 C 
ENDBRANCH  16  24
BRANCH  17  26
HETATM   26  O12 UNL     1      14.139   7.309  10.201  1.00  0.00    -0.309 OA
BRANCH  26  27
HETATM   27  C21 UNL     1      14.208   7.970  11.415  1.00  0.00     0.255 C 
HETATM   28  C22 UNL     1      13.557   7.501  12.661  1.00  0.00     0.126 C 
HETATM   29  O13 UNL     1      14.870   9.045  11.456  1.00  0.00    -0.266 OA
ENDBRANCH  26  27
ENDBRANCH  17  26
ENDBRANCH  12  13
ENDBRANCH   1  12
BRANCH   3  30
HETATM   30  C9  UNL     1      15.665   4.514  14.885  1.00  0.00     0.285 C 
BRANCH  30  31
HETATM   31  O6  UNL     1      14.662   4.132  15.759  1.00  0.00    -0.369 OA
ATOM     32  H6  UNL     1      14.797   3.293  16.182  1.00  0.00     0.212 HD
ENDBRANCH  30  31
BRANCH  30  33
HETATM   33  O7  UNL     1      15.683   5.938  14.965  1.00  0.00    -0.369 OA
ATOM     34  H7  UNL     1      16.579   6.205  15.135  1.00  0.00     0.212 HD
ENDBRANCH  30  33
ENDBRANCH   3  30
BRANCH   5  35
HETATM   35  O10 UNL     1      15.894   3.130  10.822  1.00  0.00    -0.380 OA
ATOM     36  H10 UNL     1      15.618   4.033  10.933  1.00  0.00     0.211 HD
ENDBRANCH   5  35
BRANCH  10  37
HETATM   37  N3  UNL     1      19.713   4.609  10.769  1.00  0.00     0.087 N 
HETATM   38  C17 UNL     1      19.779   4.392   9.328  1.00  0.00     0.310 C 
HETATM   39  C18 UNL     1      21.123   4.522  11.200  1.00  0.00     0.310 C 
ENDBRANCH  10  37
BRANCH   4  40
HETATM   40  O8  UNL     1      16.808   2.279  14.167  1.00  0.00    -0.310 OA
BRANCH  40  41
HETATM   41  C11 UNL     1      16.542   1.208  14.996  1.00  0.00     0.255 C 
HETATM   42  C12 UNL     1      16.346   1.351  16.465  1.00  0.00     0.126 C 
HETATM   43  O9  UNL     1      16.458   0.057  14.487  1.00  0.00    -0.266 OA
ENDBRANCH  40  41
ENDBRANCH   4  40
BRANCH   9  44
HETATM   44  N2  UNL     1      19.689   1.550  10.316  1.00  0.00    -0.068 N 
ATOM     45  H23 UNL     1      20.244   1.358  11.150  1.00  0.00     0.275 HD
ATOM     46  H22 UNL     1      19.388   0.598  10.111  1.00  0.00     0.275 HD
ATOM     47  H21 UNL     1      20.259   1.937   9.563  1.00  0.00     0.275 HD
ENDBRANCH   9  44
BRANCH   7  48
HETATM   48  O11 UNL     1      18.463  -0.517  11.403  1.00  0.00    -0.290 OA
ATOM     49  H11 UNL     1      18.637  -0.913  10.557  1.00  0.00     0.244 HD
ENDBRANCH   7  48
TORSDOF 18
ENDMDL
MODEL 5
REMARK VINA RESULT: -7.389426332      1.417      3.371
REMARK  18 active torsions:
REMARK  status: ('A' for Active; 'I' for Inactive)
REMARK    1  A    between atoms: C2_2  and  C3_3 
REMARK    2  A    between atoms: C3_3  and  O2_5 
REMARK    3  A    between atoms: O2_5  and  C4_6 
REMARK    4  A    between atoms: C4_6  and  C5_7 
REMARK    5  A    between atoms: C6_9  and  O4_10 
REMARK    6  A    between atoms: O4_10  and  C7_11 
REMARK    7  A    between atoms: C8_13  and  C9_14 
REMARK    8  A    between atoms: C9_14  and  O6_15 
REMARK    9  A    between atoms: C9_14  and  O7_17 
REMARK   10  A    between atoms: C10_19  and  O8_20 
REMARK   11  A    between atoms: O8_20  and  C11_21 
REMARK   12  A    between atoms: C13_24  and  O10_25 
REMARK   13  A    between atoms: N1_28  and  O11_30 
REMARK   14  A    between atoms: C15_32  and  N2_33 
REMARK   15  A    between atoms: C16_37  and  N3_38 
REMARK   16  A    between atoms: C20_42  and  O12_43 
REMARK   17  A    between atoms: O12_43  and  C21_44 
REMARK   18  A    between atoms: C23_47  and  O14_48 
ROOT
HETATM    1  C7  UNL     1      16.967   5.057  11.869  1.00  0.00     0.273 C 
HETATM    2  O5  UNL     1      15.819   5.120  12.647  1.00  0.00    -0.348 OA
HETATM    3  C8  UNL     1      15.419   4.173  13.473  1.00  0.00     0.212 C 
HETATM    4  C10 UNL     1      15.905   2.765  13.237  1.00  0.00     0.206 C 
HETATM    5  C13 UNL     1      16.693   2.721  11.949  1.00  0.00     0.139 C 
HETATM    6  C14 UNL     1      17.498   1.575  11.638  1.00  0.00     0.080 C 
HETATM    7  N1  UNL     1      17.496   0.356  11.956  1.00  0.00    -0.272 N 
ATOM      8  H1  UNL     1      16.745   0.098  12.595  1.00  0.00     0.193 HD
HETATM    9  C15 UNL     1      18.514   2.206  10.679  1.00  0.00     0.267 C 
HETATM   10  C16 UNL     1      18.923   3.441  11.466  1.00  0.00     0.270 C 
HETATM   11  C19 UNL     1      17.725   3.843  12.183  1.00  0.00     0.120 C 
ENDROOT
BRANCH   1  12
HETATM   12  O4  UNL     1      16.556   5.229  10.550  1.00  0.00    -0.328 OA
BRANCH  12  13
HETATM   13  C6  UNL     1      16.536   6.557  10.157  1.00  0.00     0.295 C 
HETATM   14  O3  UNL     1      17.784   6.964   9.786  1.00  0.00    -0.348 OA
HETATM   15  C5  UNL     1      17.622   8.070   8.936  1.00  0.00     0.180 C 
HETATM   16  C23 UNL     1      16.344   7.871   8.207  1.00  0.00     0.186 C 
HETATM   17  C20 UNL     1      15.646   6.736   8.935  1.00  0.00     0.218 C 
BRANCH  15  18
HETATM   18  C4  UNL     1      18.840   8.080   8.052  1.00  0.00     0.213 C 
BRANCH  18  19
HETATM   19  O2  UNL     1      19.610   6.930   8.076  1.00  0.00    -0.319 OA
BRANCH  19  20
HETATM   20  C3  UNL     1      19.465   5.854   7.201  1.00  0.00     0.258 C 
HETATM   21  O1  UNL     1      18.626   4.968   7.465  1.00  0.00    -0.265 OA
BRANCH  20  22
HETATM   22  C2  UNL     1      20.335   5.808   5.968  1.00  0.00     0.106 C 
HETATM   23  C1  UNL     1      19.423   6.071   4.789  1.00  0.00     0.015 C 
ENDBRANCH  20  22
ENDBRANCH  19  20
ENDBRANCH  18  19
ENDBRANCH  15  18
BRANCH  16  24
HETATM   24  O14 UNL     1      16.540   7.565   6.863  1.00  0.00    -0.385 OA
HETATM   25  C24 UNL     1      15.876   8.411   6.008  1.00  0.00     0.202 C 
ENDBRANCH  16  24
BRANCH  17  26
HETATM   26  O12 UNL     1      14.316   6.991   9.265  1.00  0.00    -0.309 OA
BRANCH  26  27
HETATM   27  C21 UNL     1      13.315   7.214   8.337  1.00  0.00     0.255 C 
HETATM   28  C22 UNL     1      12.366   8.351   8.386  1.00  0.00     0.126 C 
HETATM   29  O13 UNL     1      13.206   6.388   7.387  1.00  0.00    -0.266 OA
ENDBRANCH  26  27
ENDBRANCH  17  26
ENDBRANCH  12  13
ENDBRANCH   1  12
BRANCH   3  30
HETATM   30  C9  UNL     1      15.674   4.600  14.889  1.00  0.00     0.285 C 
BRANCH  30  31
HETATM   31  O6  UNL     1      14.665   4.293  15.785  1.00  0.00    -0.369 OA
ATOM     32  H6  UNL     1      14.897   4.392  16.701  1.00  0.00     0.212 HD
ENDBRANCH  30  31
BRANCH  30  33
HETATM   33  O7  UNL     1      15.743   6.025  14.906  1.00  0.00    -0.369 OA
ATOM     34  H7  UNL     1      14.861   6.357  14.793  1.00  0.00     0.212 HD
ENDBRANCH  30  33
ENDBRANCH   3  30
BRANCH   5  35
HETATM   35  O10 UNL     1      15.831   3.033  10.891  1.00  0.00    -0.380 OA
ATOM     36  H10 UNL     1      15.620   3.959  10.937  1.00  0.00     0.211 HD
ENDBRANCH   5  35
BRANCH  10  37
HETATM   37  N3  UNL     1      19.693   4.391  10.749  1.00  0.00     0.087 N 
HETATM   38  C17 UNL     1      20.809   3.784  10.033  1.00  0.00     0.310 C 
HETATM   39  C18 UNL     1      20.349   5.298  11.713  1.00  0.00     0.310 C 
ENDBRANCH  10  37
BRANCH   4  40
HETATM   40  O8  UNL     1      16.744   2.301  14.264  1.00  0.00    -0.310 OA
BRANCH  40  41
HETATM   41  C11 UNL     1      16.463   1.260  15.124  1.00  0.00     0.255 C 
HETATM   42  C12 UNL     1      16.176   1.461  16.571  1.00  0.00     0.126 C 
HETATM   43  O9  UNL     1      16.445   0.085  14.665  1.00  0.00    -0.266 OA
ENDBRANCH  40  41
ENDBRANCH   4  40
BRANCH   9  44
HETATM   44  N2  UNL     1      19.574   1.317  10.431  1.00  0.00    -0.068 N 
ATOM     45  H23 UNL     1      19.912   0.881  11.288  1.00  0.00     0.275 HD
ATOM     46  H22 UNL     1      19.259   0.477   9.946  1.00  0.00     0.275 HD
ATOM     47  H21 UNL     1      20.324   1.788   9.923  1.00  0.00     0.275 HD
ENDBRANCH   9  44
BRANCH   7  48
HETATM   48  O11 UNL     1      18.294  -0.662  11.615  1.00  0.00    -0.290 OA
ATOM     49  H11 UNL     1      18.246  -1.595  11.788  1.00  0.00     0.244 HD
ENDBRANCH   7  48
TORSDOF 18
ENDMDL
