MODEL 1
REMARK VINA RESULT: -7.500583017      0.000      0.000
REMARK  17 active torsions:
REMARK  status: ('A' for Active; 'I' for Inactive)
REMARK    1  A    between atoms: C2_2  and  C3_3 
REMARK    2  A    between atoms: C3_3  and  O2_5 
REMARK    3  A    between atoms: O2_5  and  C4_6 
REMARK    4  A    between atoms: C5_8  and  N1_9 
REMARK    5  A    between atoms: C5_8  and  O4_13 
REMARK    6  A    between atoms: C6_15  and  O5_16 
REMARK    7  A    between atoms: O5_16  and  C7_17 
REMARK    8  A    between atoms: C8_22  and  O6_23 
REMARK    9  A    between atoms: O6_23  and  C9_24 
REMARK   10  A    between atoms: C11_27  and  O8_28 
REMARK   11  A    between atoms: O8_28  and  C12_29 
REMARK   12  A    between atoms: C15_33  and  O10_34 
REMARK   13  A    between atoms: O10_34  and  C16_35 
REMARK   14  A    between atoms: C18_38  and  O12_39 
REMARK   15  A    between atoms: O12_39  and  C19_40 
REMARK   16  A    between atoms: C21_43  and  O14_44 
REMARK   17  A    between atoms: O14_44  and  C22_45 
ROOT
HETATM    1  C4  UNL     1      17.001   6.534   9.605  1.00  0.00     0.306 C 
HETATM    2  O3  UNL     1      17.446   7.598   8.828  1.00  0.00    -0.297 OA
HETATM    3  C5  UNL     1      17.458   7.338   7.494  1.00  0.00     0.365 C 
HETATM    4  C6  UNL     1      18.198   6.116   7.064  1.00  0.00     0.256 C 
HETATM    5  C8  UNL     1      18.248   4.995   8.040  1.00  0.00     0.202 C 
HETATM    6  C11 UNL     1      17.745   5.280   9.422  1.00  0.00     0.212 C 
ENDROOT
BRANCH   6   7
HETATM    7  O8  UNL     1      16.966   4.231   9.916  1.00  0.00    -0.346 OA
BRANCH   7   8
HETATM    8  C12 UNL     1      17.611   3.473  10.885  1.00  0.00     0.293 C 
HETATM    9  O9  UNL     1      16.994   2.216  10.902  1.00  0.00    -0.351 OA
HETATM   10  C13 UNL     1      17.444   1.427  11.959  1.00  0.00     0.152 C 
HETATM   11  C14 UNL     1      16.769   0.081  11.793  1.00  0.00     0.042 C 
HETATM   12  C15 UNL     1      17.141   2.035  13.313  1.00  0.00     0.192 C 
HETATM   13  C18 UNL     1      16.506   3.379  13.032  1.00  0.00     0.198 C 
HETATM   14  C21 UNL     1      17.537   4.164  12.236  1.00  0.00     0.219 C 
BRANCH  12  15
HETATM   15  O10 UNL     1      16.385   1.216  14.153  1.00  0.00    -0.311 OA
BRANCH  15  16
HETATM   16  C16 UNL     1      16.497   1.262  15.556  1.00  0.00     0.255 C 
HETATM   17  C17 UNL     1      15.336   1.465  16.451  1.00  0.00     0.126 C 
HETATM   18  O11 UNL     1      17.634   1.125  16.095  1.00  0.00    -0.266 OA
ENDBRANCH  15  16
ENDBRANCH  12  15
BRANCH  13  19
HETATM   19  O12 UNL     1      15.968   4.020  14.120  1.00  0.00    -0.311 OA
BRANCH  19  20
HETATM   20  C19 UNL     1      15.459   5.291  14.175  1.00  0.00     0.255 C 
HETATM   21  C20 UNL     1      16.219   6.454  14.696  1.00  0.00     0.126 C 
HETATM   22  O13 UNL     1      14.297   5.480  13.769  1.00  0.00    -0.266 OA
ENDBRANCH  19  20
ENDBRANCH  13  19
BRANCH  14  23
HETATM   23  O14 UNL     1      18.811   4.006  12.818  1.00  0.00    -0.308 OA
BRANCH  23  24
HETATM   24  C22 UNL     1      19.444   5.005  13.495  1.00  0.00     0.255 C 
HETATM   25  C23 UNL     1      19.932   6.183  12.731  1.00  0.00     0.126 C 
HETATM   26  O15 UNL     1      19.597   4.903  14.738  1.00  0.00    -0.266 OA
ENDBRANCH  23  24
ENDBRANCH  14  23
ENDBRANCH   7   8
ENDBRANCH   6   7
BRANCH   1  27
HETATM   27  O2  UNL     1      15.616   6.414   9.333  1.00  0.00    -0.287 OA
BRANCH  27  28
HETATM   28  C3  UNL     1      14.650   7.230   9.845  1.00  0.00     0.260 C 
HETATM   29  O1  UNL     1      13.635   7.505   9.152  1.00  0.00    -0.265 OA
BRANCH  28  30
HETATM   30  C2  UNL     1      14.717   7.837  11.214  1.00  0.00     0.107 C 
HETATM   31  C1  UNL     1      15.180   9.293  11.079  1.00  0.00     0.015 C 
ENDBRANCH  28  30
ENDBRANCH  27  28
ENDBRANCH   1  27
BRANCH   5  32
HETATM   32  O6  UNL     1      19.584   4.507   8.052  1.00  0.00    -0.311 OA
BRANCH  32  33
HETATM   33  C9  UNL     1      20.495   4.704   9.046  1.00  0.00     0.255 C 
HETATM   34  C10 UNL     1      20.981   3.596   9.929  1.00  0.00     0.126 C 
HETATM   35  O7  UNL     1      20.942   5.862   9.225  1.00  0.00    -0.266 OA
ENDBRANCH  32  33
ENDBRANCH   5  32
BRANCH   4  36
HETATM   36  O5  UNL     1      19.451   6.401   6.453  1.00  0.00    -0.309 OA
BRANCH  36  37
HETATM   37  C7  UNL     1      19.763   6.240   5.141  1.00  0.00     0.225 C 
HETATM   38  N2  UNL     1      19.195   6.974   4.280  1.00  0.00    -0.368 N 
ATOM     39  H22 UNL     1      18.510   7.683   4.545  1.00  0.00     0.159 HD
ATOM     40  H21 UNL     1      19.429   6.852   3.295  1.00  0.00     0.159 HD
HETATM   41  N3  UNL     1      20.714   5.255   4.772  1.00  0.00    -0.057 NA
ENDBRANCH  36  37
ENDBRANCH   4  36
BRANCH   3  42
HETATM   42  N1  UNL     1      16.047   7.315   7.064  1.00  0.00    -0.018 N 
ATOM     43  H13 UNL     1      15.386   7.344   7.841  1.00  0.00     0.281 HD
ATOM     44  H12 UNL     1      15.747   8.179   6.612  1.00  0.00     0.281 HD
ATOM     45  H11 UNL     1      15.941   6.490   6.473  1.00  0.00     0.281 HD
ENDBRANCH   3  42
BRANCH   3  46
HETATM   46  O4  UNL     1      17.990   8.463   6.819  1.00  0.00    -0.342 OA
ATOM     47  H4  UNL     1      17.271   9.014   6.533  1.00  0.00     0.215 HD
ENDBRANCH   3  46
TORSDOF 17
ENDMDL
MODEL 2
REMARK VINA RESULT: -7.422820318      1.118      1.399
REMARK  17 active torsions:
REMARK  status: ('A' for Active; 'I' for Inactive)
REMARK    1  A    between atoms: C2_2  and  C3_3 
REMARK    2  A    between atoms: C3_3  and  O2_5 
REMARK    3  A    between atoms: O2_5  and  C4_6 
REMARK    4  A    between atoms: C5_8  and  N1_9 
REMARK    5  A    between atoms: C5_8  and  O4_13 
REMARK    6  A    between atoms: C6_15  and  O5_16 
REMARK    7  A    between atoms: O5_16  and  C7_17 
REMARK    8  A    between atoms: C8_22  and  O6_23 
REMARK    9  A    between atoms: O6_23  and  C9_24 
REMARK   10  A    between atoms: C11_27  and  O8_28 
REMARK   11  A    between atoms: O8_28  and  C12_29 
REMARK   12  A    between atoms: C15_33  and  O10_34 
REMARK   13  A    between atoms: O10_34  and  C16_35 
REMARK   14  A    between atoms: C18_38  and  O12_39 
REMARK   15  A    between atoms: O12_39  and  C19_40 
REMARK   16  A    between atoms: C21_43  and  O14_44 
REMARK   17  A    between atoms: O14_44  and  C22_45 
ROOT
HETATM    1  C4  UNL     1      16.745   7.061   9.401  1.00  0.00     0.306 C 
HETATM    2  O3  UNL     1      17.250   8.218   8.818  1.00  0.00    -0.297 OA
HETATM    3  C5  UNL     1      17.736   8.032   7.562  1.00  0.00     0.365 C 
HETATM    4  C6  UNL     1      18.753   6.954   7.396  1.00  0.00     0.256 C 
HETATM    5  C8  UNL     1      18.654   5.802   8.331  1.00  0.00     0.202 C 
HETATM    6  C11 UNL     1      17.690   5.938   9.471  1.00  0.00     0.212 C 
ENDROOT
BRANCH   6   7
HETATM    7  O8  UNL     1      16.964   4.763   9.678  1.00  0.00    -0.346 OA
BRANCH   7   8
HETATM    8  C12 UNL     1      17.571   3.889  10.571  1.00  0.00     0.293 C 
HETATM    9  O9  UNL     1      16.875   2.676  10.494  1.00  0.00    -0.351 OA
HETATM   10  C13 UNL     1      17.286   1.775  11.475  1.00  0.00     0.152 C 
HETATM   11  C14 UNL     1      16.525   0.492  11.210  1.00  0.00     0.042 C 
HETATM   12  C15 UNL     1      17.037   2.286  12.879  1.00  0.00     0.192 C 
HETATM   13  C18 UNL     1      16.485   3.686  12.720  1.00  0.00     0.198 C 
HETATM   14  C21 UNL     1      17.555   4.468  11.975  1.00  0.00     0.219 C 
BRANCH  12  15
HETATM   15  O10 UNL     1      16.240   1.448  13.661  1.00  0.00    -0.311 OA
BRANCH  15  16
HETATM   16  C16 UNL     1      16.595   1.073  14.971  1.00  0.00     0.255 C 
HETATM   17  C17 UNL     1      17.017   2.047  16.003  1.00  0.00     0.126 C 
HETATM   18  O11 UNL     1      16.558  -0.148  15.301  1.00  0.00    -0.266 OA
ENDBRANCH  15  16
ENDBRANCH  12  15
BRANCH  13  19
HETATM   19  O12 UNL     1      16.001   4.266  13.866  1.00  0.00    -0.311 OA
BRANCH  19  20
HETATM   20  C19 UNL     1      15.630   5.572  14.050  1.00  0.00     0.255 C 
HETATM   21  C20 UNL     1      16.499   6.586  14.698  1.00  0.00     0.126 C 
HETATM   22  O13 UNL     1      14.504   5.927  13.655  1.00  0.00    -0.266 OA
ENDBRANCH  19  20
ENDBRANCH  13  19
BRANCH  14  23
HETATM   23  O14 UNL     1      18.823   4.184  12.521  1.00  0.00    -0.308 OA
BRANCH  23  24
HETATM   24  C22 UNL     1      19.553   5.102  13.214  1.00  0.00     0.255 C 
HETATM   25  C23 UNL     1      20.200   6.210  12.462  1.00  0.00     0.126 C 
HETATM   26  O15 UNL     1      19.659   4.988  14.461  1.00  0.00    -0.266 OA
ENDBRANCH  23  24
ENDBRANCH  14  23
ENDBRANCH   7   8
ENDBRANCH   6   7
BRANCH   1  27
HETATM   27  O2  UNL     1      15.560   6.757   8.688  1.00  0.00    -0.287 OA
BRANCH  27  28
HETATM   28  C3  UNL     1      14.300   7.092   9.095  1.00  0.00     0.260 C 
HETATM   29  O1  UNL     1      14.081   7.325  10.313  1.00  0.00    -0.265 OA
BRANCH  28  30
HETATM   30  C2  UNL     1      13.131   7.203   8.165  1.00  0.00     0.107 C 
HETATM   31  C1  UNL     1      12.646   8.657   8.162  1.00  0.00     0.015 C 
ENDBRANCH  28  30
ENDBRANCH  27  28
ENDBRANCH   1  27
BRANCH   5  32
HETATM   32  O6  UNL     1      19.971   5.511   8.782  1.00  0.00    -0.311 OA
BRANCH  32  33
HETATM   33  C9  UNL     1      20.607   4.311   8.663  1.00  0.00     0.255 C 
HETATM   34  C10 UNL     1      21.091   3.532   9.848  1.00  0.00     0.126 C 
HETATM   35  O7  UNL     1      20.790   3.844   7.514  1.00  0.00    -0.266 OA
ENDBRANCH  32  33
ENDBRANCH   5  32
BRANCH   4  36
HETATM   36  O5  UNL     1      20.077   7.448   7.233  1.00  0.00    -0.309 OA
BRANCH  36  37
HETATM   37  C7  UNL     1      20.837   7.363   6.110  1.00  0.00     0.225 C 
HETATM   38  N2  UNL     1      21.635   6.389   5.982  1.00  0.00    -0.368 N 
ATOM     39  H22 UNL     1      21.722   5.666   6.697  1.00  0.00     0.159 HD
ATOM     40  H21 UNL     1      22.205   6.326   5.138  1.00  0.00     0.159 HD
HETATM   41  N3  UNL     1      20.716   8.367   5.116  1.00  0.00    -0.057 NA
ENDBRANCH  36  37
ENDBRANCH   4  36
BRANCH   3  42
HETATM   42  N1  UNL     1      16.562   7.830   6.691  1.00  0.00    -0.018 N 
ATOM     43  H13 UNL     1      16.219   6.869   6.690  1.00  0.00     0.281 HD
ATOM     44  H12 UNL     1      15.712   8.267   7.047  1.00  0.00     0.281 HD
ATOM     45  H11 UNL     1      16.832   8.163   5.765  1.00  0.00     0.281 HD
ENDBRANCH   3  42
BRANCH   3  46
HETATM   46  O4  UNL     1      18.280   9.257   7.103  1.00  0.00    -0.342 OA
ATOM     47  H4  UNL     1      19.015   9.489   7.658  1.00  0.00     0.215 HD
ENDBRANCH   3  46
TORSDOF 17
ENDMDL
MODEL 3
REMARK VINA RESULT: -6.936695907      2.349      3.719
REMARK  17 active torsions:
REMARK  status: ('A' for Active; 'I' for Inactive)
REMARK    1  A    between atoms: C2_2  and  C3_3 
REMARK    2  A    between atoms: C3_3  and  O2_5 
REMARK    3  A    between atoms: O2_5  and  C4_6 
REMARK    4  A    between atoms: C5_8  and  N1_9 
REMARK    5  A    between atoms: C5_8  and  O4_13 
REMARK    6  A    between atoms: C6_15  and  O5_16 
REMARK    7  A    between atoms: O5_16  and  C7_17 
REMARK    8  A    between atoms: C8_22  and  O6_23 
REMARK    9  A    between atoms: O6_23  and  C9_24 
REMARK   10  A    between atoms: C11_27  and  O8_28 
REMARK   11  A    between atoms: O8_28  and  C12_29 
REMARK   12  A    between atoms: C15_33  and  O10_34 
REMARK   13  A    between atoms: O10_34  and  C16_35 
REMARK   14  A    between atoms: C18_38  and  O12_39 
REMARK   15  A    between atoms: O12_39  and  C19_40 
REMARK   16  A    between atoms: C21_43  and  O14_44 
REMARK   17  A    between atoms: O14_44  and  C22_45 
ROOT
HETATM    1  C4  UNL     1      20.068   5.850   7.684  1.00  0.00     0.306 C 
HETATM    2  O3  UNL     1      21.014   6.626   7.023  1.00  0.00    -0.297 OA
HETATM    3  C5  UNL     1      21.821   5.917   6.190  1.00  0.00     0.365 C 
HETATM    4  C6  UNL     1      22.525   4.746   6.786  1.00  0.00     0.256 C 
HETATM    5  C8  UNL     1      21.834   4.060   7.910  1.00  0.00     0.202 C 
HETATM    6  C11 UNL     1      20.618   4.736   8.468  1.00  0.00     0.212 C 
ENDROOT
BRANCH   6   7
HETATM    7  O8  UNL     1      19.590   3.825   8.721  1.00  0.00    -0.346 OA
BRANCH   7   8
HETATM    8  C12 UNL     1      19.643   3.271   9.993  1.00  0.00     0.293 C 
HETATM    9  O9  UNL     1      19.028   2.015   9.920  1.00  0.00    -0.351 OA
HETATM   10  C13 UNL     1      18.867   1.437  11.179  1.00  0.00     0.152 C 
HETATM   11  C14 UNL     1      18.284   0.060  10.935  1.00  0.00     0.042 C 
HETATM   12  C15 UNL     1      17.981   2.261  12.090  1.00  0.00     0.192 C 
HETATM   13  C18 UNL     1      17.635   3.513  11.315  1.00  0.00     0.198 C 
HETATM   14  C21 UNL     1      18.963   4.182  10.999  1.00  0.00     0.219 C 
BRANCH  12  15
HETATM   15  O10 UNL     1      16.870   1.574  12.582  1.00  0.00    -0.311 OA
BRANCH  15  16
HETATM   16  C16 UNL     1      16.645   1.387  13.960  1.00  0.00     0.255 C 
HETATM   17  C17 UNL     1      16.551   2.508  14.921  1.00  0.00     0.126 C 
HETATM   18  O11 UNL     1      16.515   0.214  14.417  1.00  0.00    -0.266 OA
ENDBRANCH  15  16
ENDBRANCH  12  15
BRANCH  13  19
HETATM   19  O12 UNL     1      16.674   4.314  11.879  1.00  0.00    -0.311 OA
BRANCH  19  20
HETATM   20  C19 UNL     1      16.347   5.599  11.534  1.00  0.00     0.255 C 
HETATM   21  C20 UNL     1      16.541   6.762  12.435  1.00  0.00     0.126 C 
HETATM   22  O13 UNL     1      15.860   5.802  10.406  1.00  0.00    -0.266 OA
ENDBRANCH  19  20
ENDBRANCH  13  19
BRANCH  14  23
HETATM   23  O14 UNL     1      19.787   4.173  12.144  1.00  0.00    -0.308 OA
BRANCH  23  24
HETATM   24  C22 UNL     1      19.861   5.221  13.010  1.00  0.00     0.255 C 
HETATM   25  C23 UNL     1      20.369   6.525  12.507  1.00  0.00     0.126 C 
HETATM   26  O15 UNL     1      19.501   5.059  14.204  1.00  0.00    -0.266 OA
ENDBRANCH  23  24
ENDBRANCH  14  23
ENDBRANCH   7   8
ENDBRANCH   6   7
BRANCH   1  27
HETATM   27  O2  UNL     1      19.147   5.440   6.689  1.00  0.00    -0.287 OA
BRANCH  27  28
HETATM   28  C3  UNL     1      17.863   5.891   6.586  1.00  0.00     0.260 C 
HETATM   29  O1  UNL     1      16.908   5.070   6.636  1.00  0.00    -0.265 OA
BRANCH  28  30
HETATM   30  C2  UNL     1      17.503   7.335   6.412  1.00  0.00     0.107 C 
HETATM   31  C1  UNL     1      18.104   7.832   5.092  1.00  0.00     0.015 C 
ENDBRANCH  28  30
ENDBRANCH  27  28
ENDBRANCH   1  27
BRANCH   5  32
HETATM   32  O6  UNL     1      22.809   3.810   8.915  1.00  0.00    -0.311 OA
BRANCH  32  33
HETATM   33  C9  UNL     1      23.013   4.562  10.033  1.00  0.00     0.255 C 
HETATM   34  C10 UNL     1      23.387   6.012   9.974  1.00  0.00     0.126 C 
HETATM   35  O7  UNL     1      22.881   4.015  11.153  1.00  0.00    -0.266 OA
ENDBRANCH  32  33
ENDBRANCH   5  32
BRANCH   4  36
HETATM   36  O5  UNL     1      23.909   4.978   7.020  1.00  0.00    -0.309 OA
BRANCH  36  37
HETATM   37  C7  UNL     1      24.934   4.154   6.679  1.00  0.00     0.225 C 
HETATM   38  N2  UNL     1      25.690   3.706   7.590  1.00  0.00    -0.368 N 
ATOM     39  H22 UNL     1      25.550   3.946   8.572  1.00  0.00     0.159 HD
ATOM     40  H21 UNL     1      26.460   3.088   7.334  1.00  0.00     0.159 HD
HETATM   41  N3  UNL     1      25.128   3.821   5.315  1.00  0.00    -0.057 NA
ENDBRANCH  36  37
ENDBRANCH   4  36
BRANCH   3  42
HETATM   42  N1  UNL     1      20.988   5.537   5.033  1.00  0.00    -0.018 N 
ATOM     43  H13 UNL     1      19.988   5.651   5.199  1.00  0.00     0.281 HD
ATOM     44  H12 UNL     1      21.060   6.188   4.251  1.00  0.00     0.281 HD
ATOM     45  H11 UNL     1      21.252   4.583   4.791  1.00  0.00     0.281 HD
ENDBRANCH   3  42
BRANCH   3  46
HETATM   46  O4  UNL     1      22.779   6.799   5.631  1.00  0.00    -0.342 OA
ATOM     47  H4  UNL     1      22.346   7.614   5.406  1.00  0.00     0.215 HD
ENDBRANCH   3  46
TORSDOF 17
ENDMDL
MODEL 4
REMARK VINA RESULT: -6.934170000      3.428      8.322
REMARK  17 active torsions:
REMARK  status: ('A' for Active; 'I' for Inactive)
REMARK    1  A    between atoms: C2_2  and  C3_3 
REMARK    2  A    between atoms: C3_3  and  O2_5 
REMARK    3  A    between atoms: O2_5  and  C4_6 
REMARK    4  A    between atoms: C5_8  and  N1_9 
REMARK    5  A    between atoms: C5_8  and  O4_13 
REMARK    6  A    between atoms: C6_15  and  O5_16 
REMARK    7  A    between atoms: O5_16  and  C7_17 
REMARK    8  A    between atoms: C8_22  and  O6_23 
REMARK    9  A    between atoms: O6_23  and  C9_24 
REMARK   10  A    between atoms: C11_27  and  O8_28 
REMARK   11  A    between atoms: O8_28  and  C12_29 
REMARK   12  A    between atoms: C15_33  and  O10_34 
REMARK   13  A    between atoms: O10_34  and  C16_35 
REMARK   14  A    between atoms: C18_38  and  O12_39 
REMARK   15  A    between atoms: O12_39  and  C19_40 
REMARK   16  A    between atoms: C21_43  and  O14_44 
REMARK   17  A    between atoms: O14_44  and  C22_45 
ROOT
HETATM    1  C4  UNL     1      17.736   3.573  13.214  1.00  0.00     0.306 C 
HETATM    2  O3  UNL     1      17.886   3.088  14.509  1.00  0.00    -0.297 OA
HETATM    3  C5  UNL     1      16.895   2.241  14.896  1.00  0.00     0.365 C 
HETATM    4  C6  UNL     1      15.499   2.745  14.754  1.00  0.00     0.256 C 
HETATM    5  C8  UNL     1      15.255   3.720  13.658  1.00  0.00     0.202 C 
HETATM    6  C11 UNL     1      16.463   4.258  12.952  1.00  0.00     0.212 C 
ENDROOT
BRANCH   6   7
HETATM    7  O8  UNL     1      16.270   4.316  11.570  1.00  0.00    -0.346 OA
BRANCH   7   8
HETATM    8  C12 UNL     1      16.625   5.538  11.013  1.00  0.00     0.293 C 
HETATM    9  O9  UNL     1      15.533   5.977  10.255  1.00  0.00    -0.351 OA
HETATM   10  C13 UNL     1      15.838   7.113   9.507  1.00  0.00     0.152 C 
HETATM   11  C14 UNL     1      14.550   7.522   8.822  1.00  0.00     0.042 C 
HETATM   12  C15 UNL     1      16.947   6.871   8.503  1.00  0.00     0.192 C 
HETATM   13  C18 UNL     1      17.410   5.449   8.730  1.00  0.00     0.198 C 
HETATM   14  C21 UNL     1      17.883   5.395  10.174  1.00  0.00     0.219 C 
BRANCH  12  15
HETATM   15  O10 UNL     1      16.593   7.148   7.182  1.00  0.00    -0.311 OA
BRANCH  15  16
HETATM   16  C16 UNL     1      17.348   8.008   6.361  1.00  0.00     0.255 C 
HETATM   17  C17 UNL     1      17.502   9.455   6.634  1.00  0.00     0.126 C 
HETATM   18  O11 UNL     1      17.929   7.542   5.338  1.00  0.00    -0.266 OA
ENDBRANCH  15  16
ENDBRANCH  12  15
BRANCH  13  19
HETATM   19  O12 UNL     1      18.280   4.952   7.792  1.00  0.00    -0.311 OA
BRANCH  19  20
HETATM   20  C19 UNL     1      19.649   4.956   7.834  1.00  0.00     0.255 C 
HETATM   21  C20 UNL     1      20.477   6.111   7.405  1.00  0.00     0.126 C 
HETATM   22  O13 UNL     1      20.231   3.938   8.252  1.00  0.00    -0.266 OA
ENDBRANCH  19  20
ENDBRANCH  13  19
BRANCH  14  23
HETATM   23  O14 UNL     1      18.668   6.530  10.463  1.00  0.00    -0.308 OA
BRANCH  23  24
HETATM   24  C22 UNL     1      19.631   6.538  11.427  1.00  0.00     0.255 C 
HETATM   25  C23 UNL     1      21.045   6.328  11.020  1.00  0.00     0.126 C 
HETATM   26  O15 UNL     1      19.299   6.719  12.625  1.00  0.00    -0.266 OA
ENDBRANCH  23  24
ENDBRANCH  14  23
ENDBRANCH   7   8
ENDBRANCH   6   7
BRANCH   1  27
HETATM   27  O2  UNL     1      17.968   2.466  12.361  1.00  0.00    -0.287 OA
BRANCH  27  28
HETATM   28  C3  UNL     1      19.092   2.288  11.608  1.00  0.00     0.260 C 
HETATM   29  O1  UNL     1      20.089   3.036  11.791  1.00  0.00    -0.265 OA
BRANCH  28  30
HETATM   30  C2  UNL     1      19.224   1.233  10.551  1.00  0.00     0.107 C 
HETATM   31  C1  UNL     1      18.066   0.240  10.707  1.00  0.00     0.015 C 
ENDBRANCH  28  30
ENDBRANCH  27  28
ENDBRANCH   1  27
BRANCH   5  32
HETATM   32  O6  UNL     1      14.446   4.761  14.192  1.00  0.00    -0.311 OA
BRANCH  32  33
HETATM   33  C9  UNL     1      14.721   6.094  14.132  1.00  0.00     0.255 C 
HETATM   34  C10 UNL     1      14.037   7.018  13.170  1.00  0.00     0.126 C 
HETATM   35  O7  UNL     1      15.581   6.562  14.915  1.00  0.00    -0.266 OA
ENDBRANCH  32  33
ENDBRANCH   5  32
BRANCH   4  36
HETATM   36  O5  UNL     1      14.903   3.115  15.992  1.00  0.00    -0.309 OA
BRANCH  36  37
HETATM   37  C7  UNL     1      14.567   2.277  17.007  1.00  0.00     0.225 C 
HETATM   38  N2  UNL     1      14.758   2.652  18.201  1.00  0.00    -0.368 N 
ATOM     39  H22 UNL     1      15.156   3.565  18.421  1.00  0.00     0.159 HD
ATOM     40  H21 UNL     1      14.506   2.022  18.963  1.00  0.00     0.159 HD
HETATM   41  N3  UNL     1      14.014   1.008  16.702  1.00  0.00    -0.057 NA
ENDBRANCH  36  37
ENDBRANCH   4  36
BRANCH   3  42
HETATM   42  N1  UNL     1      17.112   0.985  14.154  1.00  0.00    -0.018 N 
ATOM     43  H13 UNL     1      16.352   0.313  14.265  1.00  0.00     0.281 HD
ATOM     44  H12 UNL     1      17.037   1.093  13.143  1.00  0.00     0.281 HD
ATOM     45  H11 UNL     1      18.017   0.626  14.457  1.00  0.00     0.281 HD
ENDBRANCH   3  42
BRANCH   3  46
HETATM   46  O4  UNL     1      17.120   1.871  16.245  1.00  0.00    -0.342 OA
ATOM     47  H4  UNL     1      16.317   1.502  16.595  1.00  0.00     0.215 HD
ENDBRANCH   3  46
TORSDOF 17
ENDMDL
MODEL 5
REMARK VINA RESULT: -6.855899255      3.992      7.443
REMARK  17 active torsions:
REMARK  status: ('A' for Active; 'I' for Inactive)
REMARK    1  A    between atoms: C2_2  and  C3_3 
REMARK    2  A    between atoms: C3_3  and  O2_5 
REMARK    3  A    between atoms: O2_5  and  C4_6 
REMARK    4  A    between atoms: C5_8  and  N1_9 
REMARK    5  A    between atoms: C5_8  and  O4_13 
REMARK    6  A    between atoms: C6_15  and  O5_16 
REMARK    7  A    between atoms: O5_16  and  C7_17 
REMARK    8  A    between atoms: C8_22  and  O6_23 
REMARK    9  A    between atoms: O6_23  and  C9_24 
REMARK   10  A    between atoms: C11_27  and  O8_28 
REMARK   11  A    between atoms: O8_28  and  C12_29 
REMARK   12  A    between atoms: C15_33  and  O10_34 
REMARK   13  A    between atoms: O10_34  and  C16_35 
REMARK   14  A    between atoms: C18_38  and  O12_39 
REMARK   15  A    between atoms: O12_39  and  C19_40 
REMARK   16  A    between atoms: C21_43  and  O14_44 
REMARK   17  A    between atoms: O14_44  and  C22_45 
ROOT
HETATM    1  C4  UNL     1      18.259   7.159  12.413  1.00  0.00     0.306 C 
HETATM    2  O3  UNL     1      16.889   6.945  12.512  1.00  0.00    -0.297 OA
HETATM    3  C5  UNL     1      16.551   5.914  13.330  1.00  0.00     0.365 C 
HETATM    4  C6  UNL     1      17.199   4.602  13.045  1.00  0.00     0.256 C 
HETATM    5  C8  UNL     1      18.555   4.652  12.436  1.00  0.00     0.202 C 
HETATM    6  C11 UNL     1      19.038   5.993  11.974  1.00  0.00     0.212 C 
ENDROOT
BRANCH   6   7
HETATM    7  O8  UNL     1      20.377   6.204  12.312  1.00  0.00    -0.346 OA
BRANCH   7   8
HETATM    8  C12 UNL     1      21.202   6.390  11.210  1.00  0.00     0.293 C 
HETATM    9  O9  UNL     1      20.926   5.353  10.311  1.00  0.00    -0.351 OA
HETATM   10  C13 UNL     1      21.820   5.336   9.242  1.00  0.00     0.152 C 
HETATM   11  C14 UNL     1      21.344   4.236   8.315  1.00  0.00     0.042 C 
HETATM   12  C15 UNL     1      23.252   5.109   9.681  1.00  0.00     0.192 C 
HETATM   13  C18 UNL     1      23.221   5.062  11.193  1.00  0.00     0.198 C 
HETATM   14  C21 UNL     1      22.660   6.404  11.635  1.00  0.00     0.219 C 
BRANCH  12  15
HETATM   15  O10 UNL     1      23.863   4.001   9.091  1.00  0.00    -0.311 OA
BRANCH  15  16
HETATM   16  C16 UNL     1      25.074   4.095   8.379  1.00  0.00     0.255 C 
HETATM   17  C17 UNL     1      25.436   5.270   7.555  1.00  0.00     0.126 C 
HETATM   18  O11 UNL     1      25.904   3.141   8.433  1.00  0.00    -0.266 OA
ENDBRANCH  15  16
ENDBRANCH  12  15
BRANCH  13  19
HETATM   19  O12 UNL     1      24.387   4.665  11.798  1.00  0.00    -0.311 OA
BRANCH  19  20
HETATM   20  C19 UNL     1      25.444   5.452  12.175  1.00  0.00     0.255 C 
HETATM   21  C20 UNL     1      26.512   5.890  11.241  1.00  0.00     0.126 C 
HETATM   22  O13 UNL     1      25.513   5.818  13.363  1.00  0.00    -0.266 OA
ENDBRANCH  19  20
ENDBRANCH  13  19
BRANCH  14  23
HETATM   23  O14 UNL     1      23.265   7.442  10.896  1.00  0.00    -0.308 OA
BRANCH  23  24
HETATM   24  C22 UNL     1      23.829   8.535  11.482  1.00  0.00     0.255 C 
HETATM   25  C23 UNL     1      23.318   8.974  12.807  1.00  0.00     0.126 C 
HETATM   26  O15 UNL     1      24.758   9.139  10.890  1.00  0.00    -0.266 OA
ENDBRANCH  23  24
ENDBRANCH  14  23
ENDBRANCH   7   8
ENDBRANCH   6   7
BRANCH   1  27
HETATM   27  O2  UNL     1      18.661   7.663  13.675  1.00  0.00    -0.287 OA
BRANCH  27  28
HETATM   28  C3  UNL     1      19.206   8.897  13.881  1.00  0.00     0.260 C 
HETATM   29  O1  UNL     1      19.495   9.623  12.892  1.00  0.00    -0.265 OA
BRANCH  28  30
HETATM   30  C2  UNL     1      19.492   9.461  15.239  1.00  0.00     0.107 C 
HETATM   31  C1  UNL     1      20.651  10.457  15.120  1.00  0.00     0.015 C 
ENDBRANCH  28  30
ENDBRANCH  27  28
ENDBRANCH   1  27
BRANCH   5  32
HETATM   32  O6  UNL     1      18.582   3.689  11.389  1.00  0.00    -0.311 OA
BRANCH  32  33
HETATM   33  C9  UNL     1      19.489   2.680  11.258  1.00  0.00     0.255 C 
HETATM   34  C10 UNL     1      19.241   1.476  10.403  1.00  0.00     0.126 C 
HETATM   35  O7  UNL     1      20.574   2.769  11.880  1.00  0.00    -0.266 OA
ENDBRANCH  32  33
ENDBRANCH   5  32
BRANCH   4  36
HETATM   36  O5  UNL     1      16.327   3.663  12.427  1.00  0.00    -0.309 OA
BRANCH  36  37
HETATM   37  C7  UNL     1      16.348   2.315  12.588  1.00  0.00     0.225 C 
HETATM   38  N2  UNL     1      16.838   1.831  13.650  1.00  0.00    -0.368 N 
ATOM     39  H22 UNL     1      17.216   2.426  14.388  1.00  0.00     0.159 HD
ATOM     40  H21 UNL     1      16.854   0.818  13.770  1.00  0.00     0.159 HD
HETATM   41  N3  UNL     1      15.824   1.488  11.562  1.00  0.00    -0.057 NA
ENDBRANCH  36  37
ENDBRANCH   4  36
BRANCH   3  42
HETATM   42  N1  UNL     1      16.810   6.377  14.707  1.00  0.00    -0.018 N 
ATOM     43  H13 UNL     1      16.962   7.384  14.774  1.00  0.00     0.281 HD
ATOM     44  H12 UNL     1      15.988   6.334  15.310  1.00  0.00     0.281 HD
ATOM     45  H11 UNL     1      17.595   5.825  15.052  1.00  0.00     0.281 HD
ENDBRANCH   3  42
BRANCH   3  46
HETATM   46  O4  UNL     1      15.144   5.753  13.296  1.00  0.00    -0.342 OA
ATOM     47  H4  UNL     1      14.941   4.961  12.812  1.00  0.00     0.215 HD
ENDBRANCH   3  46
TORSDOF 17
ENDMDL
