MODEL 1
REMARK VINA RESULT: -7.480873834      0.000      0.000
REMARK  16 active torsions:
REMARK  status: ('A' for Active; 'I' for Inactive)
REMARK    1  A    between atoms: C2_2  and  O2_4 
REMARK    2  A    between atoms: O2_4  and  C3_5 
REMARK    3  A    between atoms: C4_6  and  O3_7 
REMARK    4  A    between atoms: O3_7  and  C5_8 
REMARK    5  A    between atoms: C7_11  and  O5_12 
REMARK    6  A    between atoms: O5_12  and  C8_13 
REMARK    7  A    between atoms: C10_16  and  N1_17 
REMARK    8  A    between atoms: N1_17  and  O7_18 
REMARK    9  A    between atoms: N1_17  and  C11_20 
REMARK   10  A    between atoms: C13_22  and  O8_23 
REMARK   11  A    between atoms: O8_23  and  C14_24 
REMARK   12  A    between atoms: C16_33  and  N5_34 
REMARK   13  A    between atoms: C17_39  and  O10_40 
REMARK   14  A    between atoms: O10_40  and  C18_41 
REMARK   15  A    between atoms: C20_44  and  O12_45 
REMARK   16  A    between atoms: O12_45  and  C21_46 
ROOT
HETATM    1  C3  UNL     1      17.222   6.496   8.424  1.00  0.00     0.196 C 
HETATM    2  C4  UNL     1      18.186   5.446   8.879  1.00  0.00     0.196 C 
HETATM    3  C7  UNL     1      18.294   5.437  10.394  1.00  0.00     0.192 C 
HETATM    4  C10 UNL     1      16.902   5.209  10.944  1.00  0.00     0.180 C 
HETATM    5  C17 UNL     1      16.122   6.463  10.582  1.00  0.00     0.192 C 
HETATM    6  C20 UNL     1      15.865   6.382   9.103  1.00  0.00     0.196 C 
ENDROOT
BRANCH   4   7
HETATM    7  N1  UNL     1      16.885   4.922  12.345  1.00  0.00    -0.234 N 
BRANCH   7   8
HETATM    8  O7  UNL     1      16.911   5.891  13.266  1.00  0.00    -0.285 OA
ATOM      9  H7  UNL     1      17.362   5.784  14.095  1.00  0.00     0.245 HD
ENDBRANCH   7   8
BRANCH   7  10
HETATM   10  C11 UNL     1      16.840   3.572  12.793  1.00  0.00     0.146 C 
HETATM   11  C12 UNL     1      16.908   3.328  14.134  1.00  0.00     0.094 C 
HETATM   12  C13 UNL     1      16.576   2.194  14.841  1.00  0.00     0.150 C 
HETATM   13  C15 UNL     1      16.664   0.899  14.317  1.00  0.00     0.293 C 
HETATM   14  O9  UNL     1      16.631  -0.007  15.175  1.00  0.00    -0.265 OA
HETATM   15  N4  UNL     1      16.778   0.519  13.020  1.00  0.00    -0.154 N 
HETATM   16  C16 UNL     1      16.621   1.280  11.928  1.00  0.00     0.680 C 
ATOM     17  H4  UNL     1      17.011  -0.461  12.856  1.00  0.00     0.187 HD
HETATM   18  N6  UNL     1      16.732   2.607  11.835  1.00  0.00    -0.175 N 
ATOM     19  H6  UNL     1      16.736   2.962  10.879  1.00  0.00     0.186 HD
BRANCH  12  20
HETATM   20  O8  UNL     1      16.131   2.271  16.133  1.00  0.00    -0.276 OA
BRANCH  20  21
HETATM   21  C14 UNL     1      14.804   2.283  16.476  1.00  0.00     0.230 C 
HETATM   22  N2  UNL     1      14.221   3.445  16.575  1.00  0.00    -0.368 N 
ATOM     23  H22 UNL     1      14.796   4.267  16.390  1.00  0.00     0.159 HD
ATOM     24  H21 UNL     1      13.234   3.455  16.830  1.00  0.00     0.159 HD
HETATM   25  N3  UNL     1      14.006   1.140  16.732  1.00  0.00    -0.056 NA
ENDBRANCH  20  21
ENDBRANCH  12  20
BRANCH  16  26
HETATM   26  N5  UNL     1      16.329   0.605  10.861  1.00  0.00    -0.234 N 
ATOM     27  H52 UNL     1      15.655  -0.157  10.933  1.00  0.00     0.174 HD
ATOM     28  H51 UNL     1      16.825   0.921  10.027  1.00  0.00     0.174 HD
ENDBRANCH  16  26
ENDBRANCH   7  10
ENDBRANCH   4   7
BRANCH   3  29
HETATM   29  O5  UNL     1      19.251   4.576  10.883  1.00  0.00    -0.311 OA
BRANCH  29  30
HETATM   30  C8  UNL     1      20.333   4.897  11.665  1.00  0.00     0.255 C 
HETATM   31  C9  UNL     1      21.700   4.699  11.122  1.00  0.00     0.126 C 
HETATM   32  O6  UNL     1      20.106   5.349  12.817  1.00  0.00    -0.266 OA
ENDBRANCH  29  30
ENDBRANCH   3  29
BRANCH   5  33
HETATM   33  O10 UNL     1      15.022   6.696  11.370  1.00  0.00    -0.311 OA
BRANCH  33  34
HETATM   34  C18 UNL     1      14.564   7.973  11.709  1.00  0.00     0.255 C 
HETATM   35  C19 UNL     1      15.260   9.214  11.343  1.00  0.00     0.126 C 
HETATM   36  O11 UNL     1      13.496   7.975  12.362  1.00  0.00    -0.266 OA
ENDBRANCH  33  34
ENDBRANCH   5  33
BRANCH   2  37
HETATM   37  O3  UNL     1      19.467   5.792   8.384  1.00  0.00    -0.311 OA
BRANCH  37  38
HETATM   38  C5  UNL     1      20.212   4.972   7.567  1.00  0.00     0.255 C 
HETATM   39  C6  UNL     1      20.731   5.584   6.297  1.00  0.00     0.126 C 
HETATM   40  O4  UNL     1      20.426   3.795   7.888  1.00  0.00    -0.266 OA
ENDBRANCH  37  38
ENDBRANCH   2  37
BRANCH   6  41
HETATM   41  O12 UNL     1      15.108   7.504   8.642  1.00  0.00    -0.311 OA
BRANCH  41  42
HETATM   42  C21 UNL     1      13.873   7.345   8.064  1.00  0.00     0.255 C 
HETATM   43  C22 UNL     1      12.742   8.183   8.494  1.00  0.00     0.126 C 
HETATM   44  O13 UNL     1      13.703   6.493   7.174  1.00  0.00    -0.266 OA
ENDBRANCH  41  42
ENDBRANCH   6  41
BRANCH   1  45
HETATM   45  O2  UNL     1      17.110   6.421   7.021  1.00  0.00    -0.311 OA
BRANCH  45  46
HETATM   46  C2  UNL     1      17.226   7.601   6.298  1.00  0.00     0.255 C 
HETATM   47  C1  UNL     1      18.384   8.507   6.439  1.00  0.00     0.126 C 
HETATM   48  O1  UNL     1      16.325   7.955   5.471  1.00  0.00    -0.266 OA
ENDBRANCH  45  46
ENDBRANCH   1  45
TORSDOF 16
ENDMDL
MODEL 2
REMARK VINA RESULT: -7.468661490      1.555      2.436
REMARK  16 active torsions:
REMARK  status: ('A' for Active; 'I' for Inactive)
REMARK    1  A    between atoms: C2_2  and  O2_4 
REMARK    2  A    between atoms: O2_4  and  C3_5 
REMARK    3  A    between atoms: C4_6  and  O3_7 
REMARK    4  A    between atoms: O3_7  and  C5_8 
REMARK    5  A    between atoms: C7_11  and  O5_12 
REMARK    6  A    between atoms: O5_12  and  C8_13 
REMARK    7  A    between atoms: C10_16  and  N1_17 
REMARK    8  A    between atoms: N1_17  and  O7_18 
REMARK    9  A    between atoms: N1_17  and  C11_20 
REMARK   10  A    between atoms: C13_22  and  O8_23 
REMARK   11  A    between atoms: O8_23  and  C14_24 
REMARK   12  A    between atoms: C16_33  and  N5_34 
REMARK   13  A    between atoms: C17_39  and  O10_40 
REMARK   14  A    between atoms: O10_40  and  C18_41 
REMARK   15  A    between atoms: C20_44  and  O12_45 
REMARK   16  A    between atoms: O12_45  and  C21_46 
ROOT
HETATM    1  C3  UNL     1      19.233   6.539   9.359  1.00  0.00     0.196 C 
HETATM    2  C4  UNL     1      19.888   5.786  10.474  1.00  0.00     0.196 C 
HETATM    3  C7  UNL     1      18.980   5.731  11.690  1.00  0.00     0.192 C 
HETATM    4  C10 UNL     1      17.680   5.088  11.254  1.00  0.00     0.180 C 
HETATM    5  C17 UNL     1      17.046   6.084  10.296  1.00  0.00     0.192 C 
HETATM    6  C20 UNL     1      17.847   6.008   9.025  1.00  0.00     0.196 C 
ENDROOT
BRANCH   4   7
HETATM    7  N1  UNL     1      16.826   4.737  12.346  1.00  0.00    -0.234 N 
BRANCH   7   8
HETATM    8  O7  UNL     1      16.032   5.635  12.940  1.00  0.00    -0.285 OA
ATOM      9  H7  UNL     1      15.686   5.498  13.815  1.00  0.00     0.245 HD
ENDBRANCH   7   8
BRANCH   7  10
HETATM   10  C11 UNL     1      16.804   3.399  12.830  1.00  0.00     0.146 C 
HETATM   11  C12 UNL     1      16.852   3.193  14.178  1.00  0.00     0.094 C 
HETATM   12  C13 UNL     1      16.533   2.070  14.910  1.00  0.00     0.150 C 
HETATM   13  C15 UNL     1      16.662   0.764  14.422  1.00  0.00     0.293 C 
HETATM   14  O9  UNL     1      16.633  -0.119  15.304  1.00  0.00    -0.265 OA
HETATM   15  N4  UNL     1      16.809   0.352  13.138  1.00  0.00    -0.154 N 
HETATM   16  C16 UNL     1      16.654   1.080  12.023  1.00  0.00     0.680 C 
ATOM     17  H4  UNL     1      17.067  -0.626  13.005  1.00  0.00     0.187 HD
HETATM   18  N6  UNL     1      16.736   2.406  11.896  1.00  0.00    -0.175 N 
ATOM     19  H6  UNL     1      16.750   2.736  10.931  1.00  0.00     0.186 HD
BRANCH  12  20
HETATM   20  O8  UNL     1      16.063   2.170  16.191  1.00  0.00    -0.276 OA
BRANCH  20  21
HETATM   21  C14 UNL     1      14.729   2.223  16.504  1.00  0.00     0.230 C 
HETATM   22  N2  UNL     1      14.172   3.400  16.560  1.00  0.00    -0.368 N 
ATOM     23  H22 UNL     1      14.769   4.203  16.366  1.00  0.00     0.159 HD
ATOM     24  H21 UNL     1      13.180   3.439  16.793  1.00  0.00     0.159 HD
HETATM   25  N3  UNL     1      13.899   1.105  16.773  1.00  0.00    -0.056 NA
ENDBRANCH  20  21
ENDBRANCH  12  20
BRANCH  16  26
HETATM   26  N5  UNL     1      16.398   0.370  10.970  1.00  0.00    -0.234 N 
ATOM     27  H52 UNL     1      16.515  -0.642  11.021  1.00  0.00     0.174 HD
ATOM     28  H51 UNL     1      16.094   0.923  10.167  1.00  0.00     0.174 HD
ENDBRANCH  16  26
ENDBRANCH   7  10
ENDBRANCH   4   7
BRANCH   3  29
HETATM   29  O5  UNL     1      19.560   5.156  12.798  1.00  0.00    -0.311 OA
BRANCH  29  30
HETATM   30  C8  UNL     1      19.526   5.623  14.089  1.00  0.00     0.255 C 
HETATM   31  C9  UNL     1      19.296   7.071  14.326  1.00  0.00     0.126 C 
HETATM   32  O6  UNL     1      19.693   4.790  15.015  1.00  0.00    -0.266 OA
ENDBRANCH  29  30
ENDBRANCH   3  29
BRANCH   5  33
HETATM   33  O10 UNL     1      15.686   5.952  10.156  1.00  0.00    -0.311 OA
BRANCH  33  34
HETATM   34  C18 UNL     1      14.813   7.032   9.994  1.00  0.00     0.255 C 
HETATM   35  C19 UNL     1      14.901   8.278  10.768  1.00  0.00     0.126 C 
HETATM   36  O11 UNL     1      13.934   6.851   9.121  1.00  0.00    -0.266 OA
ENDBRANCH  33  34
ENDBRANCH   5  33
BRANCH   2  37
HETATM   37  O3  UNL     1      21.042   6.508  10.863  1.00  0.00    -0.311 OA
BRANCH  37  38
HETATM   38  C5  UNL     1      22.321   6.014  10.748  1.00  0.00     0.255 C 
HETATM   39  C6  UNL     1      23.328   6.908  10.083  1.00  0.00     0.126 C 
HETATM   40  O4  UNL     1      22.598   4.886  11.180  1.00  0.00    -0.266 OA
ENDBRANCH  37  38
ENDBRANCH   2  37
BRANCH   6  41
HETATM   41  O12 UNL     1      17.326   6.890   8.027  1.00  0.00    -0.311 OA
BRANCH  41  42
HETATM   42  C21 UNL     1      16.752   6.407   6.876  1.00  0.00     0.255 C 
HETATM   43  C22 UNL     1      15.853   7.263   6.085  1.00  0.00     0.126 C 
HETATM   44  O13 UNL     1      16.989   5.247   6.497  1.00  0.00    -0.266 OA
ENDBRANCH  41  42
ENDBRANCH   6  41
BRANCH   1  45
HETATM   45  O2  UNL     1      20.086   6.507   8.237  1.00  0.00    -0.311 OA
BRANCH  45  46
HETATM   46  C2  UNL     1      20.429   7.717   7.649  1.00  0.00     0.255 C 
HETATM   47  C1  UNL     1      20.397   7.925   6.187  1.00  0.00     0.126 C 
HETATM   48  O1  UNL     1      20.790   8.712   8.357  1.00  0.00    -0.266 OA
ENDBRANCH  45  46
ENDBRANCH   1  45
TORSDOF 16
ENDMDL
MODEL 3
REMARK VINA RESULT: -7.351480008      3.358      7.387
REMARK  16 active torsions:
REMARK  status: ('A' for Active; 'I' for Inactive)
REMARK    1  A    between atoms: C2_2  and  O2_4 
REMARK    2  A    between atoms: O2_4  and  C3_5 
REMARK    3  A    between atoms: C4_6  and  O3_7 
REMARK    4  A    between atoms: O3_7  and  C5_8 
REMARK    5  A    between atoms: C7_11  and  O5_12 
REMARK    6  A    between atoms: O5_12  and  C8_13 
REMARK    7  A    between atoms: C10_16  and  N1_17 
REMARK    8  A    between atoms: N1_17  and  O7_18 
REMARK    9  A    between atoms: N1_17  and  C11_20 
REMARK   10  A    between atoms: C13_22  and  O8_23 
REMARK   11  A    between atoms: O8_23  and  C14_24 
REMARK   12  A    between atoms: C16_33  and  N5_34 
REMARK   13  A    between atoms: C17_39  and  O10_40 
REMARK   14  A    between atoms: O10_40  and  C18_41 
REMARK   15  A    between atoms: C20_44  and  O12_45 
REMARK   16  A    between atoms: O12_45  and  C21_46 
ROOT
HETATM    1  C3  UNL     1      16.796   4.400  12.953  1.00  0.00     0.196 C 
HETATM    2  C4  UNL     1      17.410   3.051  13.155  1.00  0.00     0.196 C 
HETATM    3  C7  UNL     1      17.856   2.460  11.829  1.00  0.00     0.192 C 
HETATM    4  C10 UNL     1      18.826   3.440  11.203  1.00  0.00     0.180 C 
HETATM    5  C17 UNL     1      17.991   4.664  10.862  1.00  0.00     0.192 C 
HETATM    6  C20 UNL     1      17.696   5.345  12.171  1.00  0.00     0.196 C 
ENDROOT
BRANCH   4   7
HETATM    7  N1  UNL     1      19.524   2.905  10.075  1.00  0.00    -0.234 N 
BRANCH   7   8
HETATM    8  O7  UNL     1      19.184   1.736   9.522  1.00  0.00    -0.285 OA
ATOM      9  H7  UNL     1      19.327   1.556   8.599  1.00  0.00     0.245 HD
ENDBRANCH   7   8
BRANCH   7  10
HETATM   10  C11 UNL     1      20.616   3.621   9.510  1.00  0.00     0.146 C 
HETATM   11  C12 UNL     1      21.553   4.150  10.348  1.00  0.00     0.094 C 
HETATM   12  C13 UNL     1      22.829   4.592  10.078  1.00  0.00     0.150 C 
HETATM   13  C15 UNL     1      23.217   5.136   8.847  1.00  0.00     0.293 C 
HETATM   14  O9  UNL     1      24.297   5.762   8.879  1.00  0.00    -0.265 OA
HETATM   15  N4  UNL     1      22.578   5.064   7.653  1.00  0.00    -0.154 N 
HETATM   16  C16 UNL     1      21.538   4.283   7.327  1.00  0.00     0.680 C 
ATOM     17  H4  UNL     1      22.929   5.677   6.916  1.00  0.00     0.187 HD
HETATM   18  N6  UNL     1      20.645   3.728   8.150  1.00  0.00    -0.175 N 
ATOM     19  H6  UNL     1      19.843   3.310   7.678  1.00  0.00     0.186 HD
BRANCH  12  20
HETATM   20  O8  UNL     1      23.817   4.527  11.023  1.00  0.00    -0.276 OA
BRANCH  20  21
HETATM   21  C14 UNL     1      24.100   5.549  11.891  1.00  0.00     0.230 C 
HETATM   22  N2  UNL     1      25.180   5.440  12.613  1.00  0.00    -0.368 N 
ATOM     23  H22 UNL     1      25.741   4.598  12.482  1.00  0.00     0.159 HD
ATOM     24  H21 UNL     1      25.391   6.199  13.260  1.00  0.00     0.159 HD
HETATM   25  N3  UNL     1      23.321   6.719  12.073  1.00  0.00    -0.056 NA
ENDBRANCH  20  21
ENDBRANCH  12  20
BRANCH  16  26
HETATM   26  N5  UNL     1      21.426   4.070   6.054  1.00  0.00    -0.234 N 
ATOM     27  H52 UNL     1      20.495   4.072   5.638  1.00  0.00     0.174 HD
ATOM     28  H51 UNL     1      22.319   3.916   5.584  1.00  0.00     0.174 HD
ENDBRANCH  16  26
ENDBRANCH   7  10
ENDBRANCH   4   7
BRANCH   3  29
HETATM   29  O5  UNL     1      18.324   1.169  11.919  1.00  0.00    -0.311 OA
BRANCH  29  30
HETATM   30  C8  UNL     1      17.706   0.029  11.467  1.00  0.00     0.255 C 
HETATM   31  C9  UNL     1      18.461  -1.249  11.466  1.00  0.00     0.126 C 
HETATM   32  O6  UNL     1      16.516   0.129  11.072  1.00  0.00    -0.266 OA
ENDBRANCH  29  30
ENDBRANCH   3  29
BRANCH   5  33
HETATM   33  O10 UNL     1      18.522   5.461   9.879  1.00  0.00    -0.311 OA
BRANCH  33  34
HETATM   34  C18 UNL     1      17.833   5.831   8.721  1.00  0.00     0.255 C 
HETATM   35  C19 UNL     1      17.287   7.175   8.489  1.00  0.00     0.126 C 
HETATM   36  O11 UNL     1      17.714   4.910   7.881  1.00  0.00    -0.266 OA
ENDBRANCH  33  34
ENDBRANCH   5  33
BRANCH   2  37
HETATM   37  O3  UNL     1      16.406   2.191  13.663  1.00  0.00    -0.311 OA
BRANCH  37  38
HETATM   38  C5  UNL     1      16.583   1.385  14.764  1.00  0.00     0.255 C 
HETATM   39  C6  UNL     1      16.955   2.074  16.046  1.00  0.00     0.126 C 
HETATM   40  O4  UNL     1      16.437   0.158  14.673  1.00  0.00    -0.266 OA
ENDBRANCH  37  38
ENDBRANCH   2  37
BRANCH   6  41
HETATM   41  O12 UNL     1      16.930   6.536  11.978  1.00  0.00    -0.311 OA
BRANCH  41  42
HETATM   42  C21 UNL     1      17.442   7.773  12.285  1.00  0.00     0.255 C 
HETATM   43  C22 UNL     1      18.436   7.914  13.361  1.00  0.00     0.126 C 
HETATM   44  O13 UNL     1      17.069   8.779  11.656  1.00  0.00    -0.266 OA
ENDBRANCH  41  42
ENDBRANCH   6  41
BRANCH   1  45
HETATM   45  O2  UNL     1      16.458   4.930  14.215  1.00  0.00    -0.311 OA
BRANCH  45  46
HETATM   46  C2  UNL     1      15.110   5.082  14.514  1.00  0.00     0.255 C 
HETATM   47  C1  UNL     1      14.526   4.628  15.793  1.00  0.00     0.126 C 
HETATM   48  O1  UNL     1      14.312   5.626  13.686  1.00  0.00    -0.266 OA
ENDBRANCH  45  46
ENDBRANCH   1  45
TORSDOF 16
ENDMDL
MODEL 4
REMARK VINA RESULT: -7.330515511      2.639      5.981
REMARK  16 active torsions:
REMARK  status: ('A' for Active; 'I' for Inactive)
REMARK    1  A    between atoms: C2_2  and  O2_4 
REMARK    2  A    between atoms: O2_4  and  C3_5 
REMARK    3  A    between atoms: C4_6  and  O3_7 
REMARK    4  A    between atoms: O3_7  and  C5_8 
REMARK    5  A    between atoms: C7_11  and  O5_12 
REMARK    6  A    between atoms: O5_12  and  C8_13 
REMARK    7  A    between atoms: C10_16  and  N1_17 
REMARK    8  A    between atoms: N1_17  and  O7_18 
REMARK    9  A    between atoms: N1_17  and  C11_20 
REMARK   10  A    between atoms: C13_22  and  O8_23 
REMARK   11  A    between atoms: O8_23  and  C14_24 
REMARK   12  A    between atoms: C16_33  and  N5_34 
REMARK   13  A    between atoms: C17_39  and  O10_40 
REMARK   14  A    between atoms: O10_40  and  C18_41 
REMARK   15  A    between atoms: C20_44  and  O12_45 
REMARK   16  A    between atoms: O12_45  and  C21_46 
ROOT
HETATM    1  C3  UNL     1      20.972   7.152  11.957  1.00  0.00     0.196 C 
HETATM    2  C4  UNL     1      19.728   7.129  12.789  1.00  0.00     0.196 C 
HETATM    3  C7  UNL     1      18.570   6.538  12.004  1.00  0.00     0.192 C 
HETATM    4  C10 UNL     1      18.986   5.151  11.561  1.00  0.00     0.180 C 
HETATM    5  C17 UNL     1      20.107   5.374  10.558  1.00  0.00     0.192 C 
HETATM    6  C20 UNL     1      21.307   5.793  11.361  1.00  0.00     0.196 C 
ENDROOT
BRANCH   4   7
HETATM    7  N1  UNL     1      17.906   4.376  11.033  1.00  0.00    -0.234 N 
BRANCH   7   8
HETATM    8  O7  UNL     1      17.116   4.836  10.056  1.00  0.00    -0.285 OA
ATOM      9  H7  UNL     1      16.193   4.615  10.011  1.00  0.00     0.245 HD
ENDBRANCH   7   8
BRANCH   7  10
HETATM   10  C11 UNL     1      17.647   3.075  11.547  1.00  0.00     0.146 C 
HETATM   11  C12 UNL     1      17.284   2.952  12.857  1.00  0.00     0.094 C 
HETATM   12  C13 UNL     1      16.685   1.898  13.510  1.00  0.00     0.150 C 
HETATM   13  C15 UNL     1      16.855   0.558  13.141  1.00  0.00     0.293 C 
HETATM   14  O9  UNL     1      16.506  -0.264  14.012  1.00  0.00    -0.265 OA
HETATM   15  N4  UNL     1      17.340   0.058  11.976  1.00  0.00    -0.154 N 
HETATM   16  C16 UNL     1      17.571   0.721  10.835  1.00  0.00     0.680 C 
ATOM     17  H4  UNL     1      17.554  -0.939  11.969  1.00  0.00     0.187 HD
HETATM   18  N6  UNL     1      17.782   2.030  10.680  1.00  0.00    -0.175 N 
ATOM     19  H6  UNL     1      18.101   2.297   9.748  1.00  0.00     0.186 HD
BRANCH  12  20
HETATM   20  O8  UNL     1      15.870   2.105  14.590  1.00  0.00    -0.276 OA
BRANCH  20  21
HETATM   21  C14 UNL     1      16.320   2.121  15.884  1.00  0.00     0.230 C 
HETATM   22  N2  UNL     1      15.436   2.312  16.824  1.00  0.00    -0.368 N 
ATOM     23  H22 UNL     1      14.468   2.436  16.529  1.00  0.00     0.159 HD
ATOM     24  H21 UNL     1      15.771   2.324  17.787  1.00  0.00     0.159 HD
HETATM   25  N3  UNL     1      17.666   1.947  16.294  1.00  0.00    -0.056 NA
ENDBRANCH  20  21
ENDBRANCH  12  20
BRANCH  16  26
HETATM   26  N5  UNL     1      17.582  -0.038   9.785  1.00  0.00    -0.234 N 
ATOM     27  H52 UNL     1      16.775  -0.022   9.161  1.00  0.00     0.174 HD
ATOM     28  H51 UNL     1      18.432  -0.594   9.691  1.00  0.00     0.174 HD
ENDBRANCH  16  26
ENDBRANCH   7  10
ENDBRANCH   4   7
BRANCH   3  29
HETATM   29  O5  UNL     1      17.362   6.591  12.662  1.00  0.00    -0.311 OA
BRANCH  29  30
HETATM   30  C8  UNL     1      16.203   7.182  12.222  1.00  0.00     0.255 C 
HETATM   31  C9  UNL     1      16.288   8.439  11.437  1.00  0.00     0.126 C 
HETATM   32  O6  UNL     1      15.116   6.621  12.512  1.00  0.00    -0.266 OA
ENDBRANCH  29  30
ENDBRANCH   3  29
BRANCH   5  33
HETATM   33  O10 UNL     1      20.304   4.333   9.684  1.00  0.00    -0.311 OA
BRANCH  33  34
HETATM   34  C18 UNL     1      20.195   4.453   8.296  1.00  0.00     0.255 C 
HETATM   35  C19 UNL     1      21.300   4.189   7.364  1.00  0.00     0.126 C 
HETATM   36  O11 UNL     1      19.061   4.808   7.902  1.00  0.00    -0.266 OA
ENDBRANCH  33  34
ENDBRANCH   5  33
BRANCH   2  37
HETATM   37  O3  UNL     1      19.378   8.469  13.079  1.00  0.00    -0.311 OA
BRANCH  37  38
HETATM   38  C5  UNL     1      19.258   8.962  14.359  1.00  0.00     0.255 C 
HETATM   39  C6  UNL     1      20.078  10.177  14.689  1.00  0.00     0.126 C 
HETATM   40  O4  UNL     1      18.506   8.411  15.175  1.00  0.00    -0.266 OA
ENDBRANCH  37  38
ENDBRANCH   2  37
BRANCH   6  41
HETATM   41  O12 UNL     1      22.446   6.009  10.524  1.00  0.00    -0.311 OA
BRANCH  41  42
HETATM   42  C21 UNL     1      23.578   5.241  10.643  1.00  0.00     0.255 C 
HETATM   43  C22 UNL     1      24.654   5.649  11.560  1.00  0.00     0.126 C 
HETATM   44  O13 UNL     1      23.699   4.197   9.979  1.00  0.00    -0.266 OA
ENDBRANCH  41  42
ENDBRANCH   6  41
BRANCH   1  45
HETATM   45  O2  UNL     1      22.028   7.648  12.748  1.00  0.00    -0.311 OA
BRANCH  45  46
HETATM   46  C2  UNL     1      22.650   8.821  12.338  1.00  0.00     0.255 C 
HETATM   47  C1  UNL     1      23.907   9.305  12.944  1.00  0.00     0.126 C 
HETATM   48  O1  UNL     1      22.154   9.536  11.409  1.00  0.00    -0.266 OA
ENDBRANCH  45  46
ENDBRANCH   1  45
TORSDOF 16
ENDMDL
MODEL 5
REMARK VINA RESULT: -7.188252000      3.497      7.915
REMARK  16 active torsions:
REMARK  status: ('A' for Active; 'I' for Inactive)
REMARK    1  A    between atoms: C2_2  and  O2_4 
REMARK    2  A    between atoms: O2_4  and  C3_5 
REMARK    3  A    between atoms: C4_6  and  O3_7 
REMARK    4  A    between atoms: O3_7  and  C5_8 
REMARK    5  A    between atoms: C7_11  and  O5_12 
REMARK    6  A    between atoms: O5_12  and  C8_13 
REMARK    7  A    between atoms: C10_16  and  N1_17 
REMARK    8  A    between atoms: N1_17  and  O7_18 
REMARK    9  A    between atoms: N1_17  and  C11_20 
REMARK   10  A    between atoms: C13_22  and  O8_23 
REMARK   11  A    between atoms: O8_23  and  C14_24 
REMARK   12  A    between atoms: C16_33  and  N5_34 
REMARK   13  A    between atoms: C17_39  and  O10_40 
REMARK   14  A    between atoms: O10_40  and  C18_41 
REMARK   15  A    between atoms: C20_44  and  O12_45 
REMARK   16  A    between atoms: O12_45  and  C21_46 
ROOT
HETATM    1  C3  UNL     1      16.949   4.426  13.047  1.00  0.00     0.196 C 
HETATM    2  C4  UNL     1      17.567   3.066  13.140  1.00  0.00     0.196 C 
HETATM    3  C7  UNL     1      18.112   2.632  11.790  1.00  0.00     0.192 C 
HETATM    4  C10 UNL     1      19.109   3.682  11.347  1.00  0.00     0.180 C 
HETATM    5  C17 UNL     1      18.281   4.932  11.089  1.00  0.00     0.192 C 
HETATM    6  C20 UNL     1      17.887   5.458  12.441  1.00  0.00     0.196 C 
ENDROOT
BRANCH   4   7
HETATM    7  N1  UNL     1      19.891   3.282  10.219  1.00  0.00    -0.234 N 
BRANCH   7   8
HETATM    8  O7  UNL     1      19.488   2.317   9.385  1.00  0.00    -0.285 OA
ATOM      9  H7  UNL     1      19.913   2.166   8.548  1.00  0.00     0.245 HD
ENDBRANCH   7   8
BRANCH   7  10
HETATM   10  C11 UNL     1      21.137   3.916   9.957  1.00  0.00     0.146 C 
HETATM   11  C12 UNL     1      21.633   3.879   8.686  1.00  0.00     0.094 C 
HETATM   12  C13 UNL     1      22.612   4.649   8.099  1.00  0.00     0.150 C 
HETATM   13  C15 UNL     1      23.687   5.206   8.802  1.00  0.00     0.293 C 
HETATM   14  O9  UNL     1      24.627   5.597   8.080  1.00  0.00    -0.265 OA
HETATM   15  N4  UNL     1      23.826   5.370  10.142  1.00  0.00    -0.154 N 
HETATM   16  C16 UNL     1      22.884   5.231  11.085  1.00  0.00     0.680 C 
ATOM     17  H4  UNL     1      24.757   5.629  10.470  1.00  0.00     0.187 HD
HETATM   18  N6  UNL     1      21.754   4.525  11.011  1.00  0.00    -0.175 N 
ATOM     19  H6  UNL     1      21.264   4.421  11.900  1.00  0.00     0.186 HD
BRANCH  12  20
HETATM   20  O8  UNL     1      22.591   4.919   6.758  1.00  0.00    -0.276 OA
BRANCH  20  21
HETATM   21  C14 UNL     1      22.910   3.995   5.796  1.00  0.00     0.230 C 
HETATM   22  N2  UNL     1      22.249   4.045   4.674  1.00  0.00    -0.368 N 
ATOM     23  H22 UNL     1      21.537   4.770   4.589  1.00  0.00     0.159 HD
ATOM     24  H21 UNL     1      22.486   3.358   3.959  1.00  0.00     0.159 HD
HETATM   25  N3  UNL     1      23.901   2.987   5.915  1.00  0.00    -0.056 NA
ENDBRANCH  20  21
ENDBRANCH  12  20
BRANCH  16  26
HETATM   26  N5  UNL     1      23.144   5.874  12.179  1.00  0.00    -0.234 N 
ATOM     27  H52 UNL     1      22.514   6.623  12.467  1.00  0.00     0.174 HD
ATOM     28  H51 UNL     1      23.986   5.549  12.656  1.00  0.00     0.174 HD
ENDBRANCH  16  26
ENDBRANCH   7  10
ENDBRANCH   4   7
BRANCH   3  29
HETATM   29  O5  UNL     1      18.591   1.341  11.767  1.00  0.00    -0.311 OA
BRANCH  29  30
HETATM   30  C8  UNL     1      18.084   0.281  11.057  1.00  0.00     0.255 C 
HETATM   31  C9  UNL     1      18.415  -1.100  11.489  1.00  0.00     0.126 C 
HETATM   32  O6  UNL     1      17.357   0.539  10.064  1.00  0.00    -0.266 OA
ENDBRANCH  29  30
ENDBRANCH   3  29
BRANCH   5  33
HETATM   33  O10 UNL     1      18.868   5.837  10.240  1.00  0.00    -0.311 OA
BRANCH  33  34
HETATM   34  C18 UNL     1      18.330   6.207   9.004  1.00  0.00     0.255 C 
HETATM   35  C19 UNL     1      18.407   7.567   8.454  1.00  0.00     0.126 C 
HETATM   36  O11 UNL     1      17.766   5.271   8.393  1.00  0.00    -0.266 OA
ENDBRANCH  33  34
ENDBRANCH   5  33
BRANCH   2  37
HETATM   37  O3  UNL     1      16.542   2.148  13.476  1.00  0.00    -0.311 OA
BRANCH  37  38
HETATM   38  C5  UNL     1      16.646   1.238  14.503  1.00  0.00     0.255 C 
HETATM   39  C6  UNL     1      16.974   1.793  15.860  1.00  0.00     0.126 C 
HETATM   40  O4  UNL     1      16.474   0.030  14.290  1.00  0.00    -0.266 OA
ENDBRANCH  37  38
ENDBRANCH   2  37
BRANCH   6  41
HETATM   41  O12 UNL     1      17.119   6.659  12.329  1.00  0.00    -0.311 OA
BRANCH  41  42
HETATM   42  C21 UNL     1      17.674   7.889  12.587  1.00  0.00     0.255 C 
HETATM   43  C22 UNL     1      18.502   8.089  13.787  1.00  0.00     0.126 C 
HETATM   44  O13 UNL     1      17.481   8.839  11.807  1.00  0.00    -0.266 OA
ENDBRANCH  41  42
ENDBRANCH   6  41
BRANCH   1  45
HETATM   45  O2  UNL     1      16.517   4.808  14.334  1.00  0.00    -0.311 OA
BRANCH  45  46
HETATM   46  C2  UNL     1      15.150   4.846  14.574  1.00  0.00     0.255 C 
HETATM   47  C1  UNL     1      14.545   4.297  15.805  1.00  0.00     0.126 C 
HETATM   48  O1  UNL     1      14.350   5.363  13.729  1.00  0.00    -0.266 OA
ENDBRANCH  45  46
ENDBRANCH   1  45
TORSDOF 16
ENDMDL
