MODEL 1
REMARK VINA RESULT: -8.546085379      0.000      0.000
REMARK  2 active torsions:
REMARK  status: ('A' for Active; 'I' for Inactive)
REMARK    1  A    between atoms: C2_2  and  C3_4 
REMARK    2  A    between atoms: C3_4  and  C4_5 
ROOT
HETATM    1  C3  UNL     1      49.526  79.505  77.904  1.00  0.00     0.193 C 
HETATM    2  N1  UNL     1      49.961  80.521  76.983  1.00  0.00    -0.366 N 
ATOM      3  H1  UNL     1      49.750  80.566  75.985  1.00  0.00     0.161 HD
HETATM    4  C5  UNL     1      50.739  81.449  77.725  1.00  0.00     0.036 A 
HETATM    5  C6  UNL     1      51.137  82.770  77.449  1.00  0.00     0.030 A 
HETATM    6  C7  UNL     1      51.903  83.471  78.342  1.00  0.00     0.002 A 
HETATM    7  C8  UNL     1      52.318  82.927  79.537  1.00  0.00     0.001 A 
HETATM    8  C9  UNL     1      51.923  81.631  79.798  1.00  0.00     0.010 A 
HETATM    9  C10 UNL     1      51.147  80.896  78.914  1.00  0.00    -0.021 A 
HETATM   10  C11 UNL     1      50.599  79.518  78.951  1.00  0.00     0.022 C 
HETATM   11  C12 UNL     1      50.115  79.184  80.326  1.00  0.00     0.023 C 
HETATM   12  C13 UNL     1      51.715  78.572  78.590  1.00  0.00     0.023 C 
ENDROOT
BRANCH   1  13
HETATM   13  C2  UNL     1      49.408  78.208  77.220  1.00  0.00     0.123 C 
HETATM   14  C1  UNL     1      49.384  78.072  75.914  1.00  0.00     0.055 C 
HETATM   15  F1  UNL     1      49.325  77.070  77.958  1.00  0.00    -0.209 F 
ENDBRANCH   1  13
BRANCH   1  16
HETATM   16  C4  UNL     1      48.186  79.998  78.428  1.00  0.00     0.420 C 
HETATM   17  F2  UNL     1      47.282  78.957  78.173  1.00  0.00    -0.168 F 
HETATM   18  F3  UNL     1      47.755  81.057  77.664  1.00  0.00    -0.168 F 
HETATM   19  F4  UNL     1      48.173  80.244  79.761  1.00  0.00    -0.168 F 
ENDBRANCH   1  16
TORSDOF 2
ENDMDL
MODEL 2
REMARK VINA RESULT: -8.430601535      0.758      1.147
REMARK  2 active torsions:
REMARK  status: ('A' for Active; 'I' for Inactive)
REMARK    1  A    between atoms: C2_2  and  C3_4 
REMARK    2  A    between atoms: C3_4  and  C4_5 
ROOT
HETATM    1  C3  UNL     1      49.452  79.126  77.706  1.00  0.00     0.193 C 
HETATM    2  N1  UNL     1      49.569  79.963  76.542  1.00  0.00    -0.366 N 
ATOM      3  H1  UNL     1      49.200  79.764  75.611  1.00  0.00     0.161 HD
HETATM    4  C5  UNL     1      50.295  81.120  76.933  1.00  0.00     0.036 A 
HETATM    5  C6  UNL     1      50.427  82.389  76.340  1.00  0.00     0.030 A 
HETATM    6  C7  UNL     1      51.200  83.357  76.923  1.00  0.00     0.002 A 
HETATM    7  C8  UNL     1      51.879  83.141  78.101  1.00  0.00     0.001 A 
HETATM    8  C9  UNL     1      51.744  81.894  78.674  1.00  0.00     0.010 A 
HETATM    9  C10 UNL     1      50.967  80.894  78.109  1.00  0.00    -0.021 A 
HETATM   10  C11 UNL     1      50.660  79.500  78.512  1.00  0.00     0.022 C 
HETATM   11  C12 UNL     1      50.457  79.415  79.991  1.00  0.00     0.023 C 
HETATM   12  C13 UNL     1      51.843  78.645  78.138  1.00  0.00     0.023 C 
ENDROOT
BRANCH   1  13
HETATM   13  C2  UNL     1      49.439  77.707  77.317  1.00  0.00     0.123 C 
HETATM   14  C1  UNL     1      49.512  77.290  76.074  1.00  0.00     0.055 C 
HETATM   15  F1  UNL     1      49.353  76.753  78.281  1.00  0.00    -0.209 F 
ENDBRANCH   1  13
BRANCH   1  16
HETATM   16  C4  UNL     1      48.150  79.550  78.366  1.00  0.00     0.420 C 
HETATM   17  F2  UNL     1      48.254  79.126  79.698  1.00  0.00    -0.168 F 
HETATM   18  F3  UNL     1      47.108  78.830  77.830  1.00  0.00    -0.168 F 
HETATM   19  F4  UNL     1      47.945  80.889  78.370  1.00  0.00    -0.168 F 
ENDBRANCH   1  16
TORSDOF 2
ENDMDL
MODEL 3
REMARK VINA RESULT: -8.178920322      0.906      1.192
REMARK  2 active torsions:
REMARK  status: ('A' for Active; 'I' for Inactive)
REMARK    1  A    between atoms: C2_2  and  C3_4 
REMARK    2  A    between atoms: C3_4  and  C4_5 
ROOT
HETATM    1  C3  UNL     1      49.469  79.348  78.098  1.00  0.00     0.193 C 
HETATM    2  N1  UNL     1      49.323  80.162  76.922  1.00  0.00    -0.366 N 
ATOM      3  H1  UNL     1      48.746  79.953  76.106  1.00  0.00     0.161 HD
HETATM    4  C5  UNL     1      50.135  81.313  77.109  1.00  0.00     0.036 A 
HETATM    5  C6  UNL     1      50.142  82.568  76.475  1.00  0.00     0.030 A 
HETATM    6  C7  UNL     1      51.042  83.532  76.841  1.00  0.00     0.002 A 
HETATM    7  C8  UNL     1      51.974  83.326  77.834  1.00  0.00     0.001 A 
HETATM    8  C9  UNL     1      51.959  82.091  78.450  1.00  0.00     0.010 A 
HETATM    9  C10 UNL     1      51.059  81.095  78.101  1.00  0.00    -0.021 A 
HETATM   10  C11 UNL     1      50.835  79.714  78.594  1.00  0.00     0.022 C 
HETATM   11  C12 UNL     1      50.980  79.659  80.082  1.00  0.00     0.023 C 
HETATM   12  C13 UNL     1      51.887  78.831  77.975  1.00  0.00     0.023 C 
ENDROOT
BRANCH   1  13
HETATM   13  C2  UNL     1      49.346  77.922  77.754  1.00  0.00     0.123 C 
HETATM   14  C1  UNL     1      49.297  77.471  76.522  1.00  0.00     0.055 C 
HETATM   15  F1  UNL     1      49.286  76.999  78.749  1.00  0.00    -0.209 F 
ENDBRANCH   1  13
BRANCH   1  16
HETATM   16  C4  UNL     1      48.361  79.806  79.033  1.00  0.00     0.420 C 
HETATM   17  F2  UNL     1      47.346  80.291  78.197  1.00  0.00    -0.168 F 
HETATM   18  F3  UNL     1      48.791  80.892  79.759  1.00  0.00    -0.168 F 
HETATM   19  F4  UNL     1      47.836  78.814  79.793  1.00  0.00    -0.168 F 
ENDBRANCH   1  16
TORSDOF 2
ENDMDL
MODEL 4
REMARK VINA RESULT: -7.530225171      1.707      4.247
REMARK  2 active torsions:
REMARK  status: ('A' for Active; 'I' for Inactive)
REMARK    1  A    between atoms: C2_2  and  C3_4 
REMARK    2  A    between atoms: C3_4  and  C4_5 
ROOT
HETATM    1  C3  UNL     1      49.934  80.074  78.778  1.00  0.00     0.193 C 
HETATM    2  N1  UNL     1      50.174  78.683  78.502  1.00  0.00    -0.366 N 
ATOM      3  H1  UNL     1      50.610  78.006  79.128  1.00  0.00     0.161 HD
HETATM    4  C5  UNL     1      49.687  78.430  77.191  1.00  0.00     0.036 A 
HETATM    5  C6  UNL     1      49.355  77.233  76.530  1.00  0.00     0.030 A 
HETATM    6  C7  UNL     1      48.897  77.251  75.239  1.00  0.00     0.002 A 
HETATM    7  C8  UNL     1      48.741  78.422  74.533  1.00  0.00     0.001 A 
HETATM    8  C9  UNL     1      49.069  79.590  75.190  1.00  0.00     0.010 A 
HETATM    9  C10 UNL     1      49.534  79.604  76.497  1.00  0.00    -0.021 A 
HETATM   10  C11 UNL     1      49.948  80.695  77.413  1.00  0.00     0.022 C 
HETATM   11  C12 UNL     1      49.037  81.873  77.270  1.00  0.00     0.023 C 
HETATM   12  C13 UNL     1      51.342  81.115  77.026  1.00  0.00     0.023 C 
ENDROOT
BRANCH   1  13
HETATM   13  C2  UNL     1      50.983  80.609  79.662  1.00  0.00     0.123 C 
HETATM   14  C1  UNL     1      51.764  79.859  80.404  1.00  0.00     0.055 C 
HETATM   15  F1  UNL     1      51.179  81.952  79.725  1.00  0.00    -0.209 F 
ENDBRANCH   1  13
BRANCH   1  16
HETATM   16  C4  UNL     1      48.562  80.116  79.430  1.00  0.00     0.420 C 
HETATM   17  F2  UNL     1      48.428  78.887  80.092  1.00  0.00    -0.168 F 
HETATM   18  F3  UNL     1      47.590  80.119  78.457  1.00  0.00    -0.168 F 
HETATM   19  F4  UNL     1      48.419  81.101  80.349  1.00  0.00    -0.168 F 
ENDBRANCH   1  16
TORSDOF 2
ENDMDL
MODEL 5
REMARK VINA RESULT: -7.075677393      1.814      4.082
REMARK  2 active torsions:
REMARK  status: ('A' for Active; 'I' for Inactive)
REMARK    1  A    between atoms: C2_2  and  C3_4 
REMARK    2  A    between atoms: C3_4  and  C4_5 
ROOT
HETATM    1  C3  UNL     1      49.883  79.320  79.335  1.00  0.00     0.193 C 
HETATM    2  N1  UNL     1      49.274  78.125  78.814  1.00  0.00    -0.366 N 
ATOM      3  H1  UNL     1      49.042  77.283  79.342  1.00  0.00     0.161 HD
HETATM    4  C5  UNL     1      49.056  78.340  77.427  1.00  0.00     0.036 A 
HETATM    5  C6  UNL     1      48.226  77.689  76.497  1.00  0.00     0.030 A 
HETATM    6  C7  UNL     1      48.192  78.090  75.188  1.00  0.00     0.002 A 
HETATM    7  C8  UNL     1      48.957  79.136  74.722  1.00  0.00     0.001 A 
HETATM    8  C9  UNL     1      49.768  79.768  75.642  1.00  0.00     0.010 A 
HETATM    9  C10 UNL     1      49.824  79.384  76.973  1.00  0.00    -0.021 A 
HETATM   10  C11 UNL     1      50.592  79.884  78.140  1.00  0.00     0.022 C 
HETATM   11  C12 UNL     1      50.661  81.379  78.120  1.00  0.00     0.023 C 
HETATM   12  C13 UNL     1      51.992  79.336  78.035  1.00  0.00     0.023 C 
ENDROOT
BRANCH   1  13
HETATM   13  C2  UNL     1      50.797  78.990  80.440  1.00  0.00     0.123 C 
HETATM   14  C1  UNL     1      50.761  77.857  81.103  1.00  0.00     0.055 C 
HETATM   15  F1  UNL     1      51.745  79.890  80.812  1.00  0.00    -0.209 F 
ENDBRANCH   1  13
BRANCH   1  16
HETATM   16  C4  UNL     1      48.722  80.186  79.793  1.00  0.00     0.420 C 
HETATM   17  F2  UNL     1      49.308  81.348  80.315  1.00  0.00    -0.168 F 
HETATM   18  F3  UNL     1      48.089  79.583  80.856  1.00  0.00    -0.168 F 
HETATM   19  F4  UNL     1      47.882  80.555  78.796  1.00  0.00    -0.168 F 
ENDBRANCH   1  16
TORSDOF 2
ENDMDL
