MODEL 1
REMARK VINA RESULT: -7.768513589      0.000      0.000
REMARK  1 active torsions:
REMARK  status: ('A' for Active; 'I' for Inactive)
REMARK    1  A    between atoms: C3_6  and  C5_8 
ROOT
HETATM    1  C1  UNL     1      49.529  77.478  77.427  1.00  0.00     0.045 C 
HETATM    2  C2  UNL     1      49.616  78.757  78.191  1.00  0.00     0.212 C 
HETATM    3  N1  UNL     1      50.412  78.522  79.401  1.00  0.00    -0.050 N 
ATOM      4  H11 UNL     1      51.397  78.347  79.200  1.00  0.00     0.279 HD
ATOM      5  H12 UNL     1      50.204  77.628  79.846  1.00  0.00     0.279 HD
HETATM    6  C3  UNL     1      50.211  79.643  80.277  1.00  0.00     0.222 C 
HETATM    7  C4  UNL     1      48.784  79.751  80.759  1.00  0.00     0.056 C 
HETATM    8  C6  UNL     1      50.632  80.940  79.641  1.00  0.00     0.082 C 
HETATM    9  C7  UNL     1      50.698  80.891  78.187  1.00  0.00    -0.072 C 
HETATM   10  C8  UNL     1      50.228  79.875  77.476  1.00  0.00    -0.042 C 
HETATM   11  C9  UNL     1      50.395  80.011  76.011  1.00  0.00     0.115 C 
HETATM   12  C10 UNL     1      49.936  81.336  75.486  1.00  0.00     0.247 C 
HETATM   13  F4  UNL     1      50.534  81.668  74.286  1.00  0.00    -0.206 F 
HETATM   14  F5  UNL     1      48.570  81.254  75.199  1.00  0.00    -0.206 F 
HETATM   15  C11 UNL     1      50.230  82.447  76.443  1.00  0.00     0.083 C 
HETATM   16  C12 UNL     1      51.304  82.001  77.409  1.00  0.00     0.040 C 
ENDROOT
BRANCH   6  17
HETATM   17  C5  UNL     1      51.082  79.447  81.522  1.00  0.00     0.420 C 
HETATM   18  F1  UNL     1      51.244  78.093  81.735  1.00  0.00    -0.168 F 
HETATM   19  F2  UNL     1      52.295  80.065  81.288  1.00  0.00    -0.168 F 
HETATM   20  F3  UNL     1      50.513  80.063  82.622  1.00  0.00    -0.168 F 
ENDBRANCH   6  17
TORSDOF 1
ENDMDL
MODEL 2
REMARK VINA RESULT: -7.638241900      1.939      4.870
REMARK  1 active torsions:
REMARK  status: ('A' for Active; 'I' for Inactive)
REMARK    1  A    between atoms: C3_6  and  C5_8 
ROOT
HETATM    1  C1  UNL     1      48.467  78.716  80.424  1.00  0.00     0.045 C 
HETATM    2  C2  UNL     1      49.282  78.846  79.182  1.00  0.00     0.212 C 
HETATM    3  N1  UNL     1      48.412  78.597  78.026  1.00  0.00    -0.050 N 
ATOM      4  H11 UNL     1      47.720  79.332  77.885  1.00  0.00     0.279 HD
ATOM      5  H12 UNL     1      47.760  77.827  78.179  1.00  0.00     0.279 HD
HETATM    6  C3  UNL     1      49.257  78.396  76.881  1.00  0.00     0.222 C 
HETATM    7  C4  UNL     1      50.113  77.158  77.005  1.00  0.00     0.056 C 
HETATM    8  C6  UNL     1      50.130  79.590  76.606  1.00  0.00     0.082 C 
HETATM    9  C7  UNL     1      50.303  80.472  77.752  1.00  0.00    -0.072 C 
HETATM   10  C8  UNL     1      49.913  80.148  78.979  1.00  0.00    -0.042 C 
HETATM   11  C9  UNL     1      50.174  81.182  80.007  1.00  0.00     0.115 C 
HETATM   12  C10 UNL     1      51.575  81.708  79.973  1.00  0.00     0.247 C 
HETATM   13  F4  UNL     1      51.684  82.966  80.531  1.00  0.00    -0.206 F 
HETATM   14  F5  UNL     1      52.379  80.887  80.771  1.00  0.00    -0.206 F 
HETATM   15  C11 UNL     1      52.102  81.802  78.576  1.00  0.00     0.083 C 
HETATM   16  C12 UNL     1      50.943  81.804  77.606  1.00  0.00     0.040 C 
ENDROOT
BRANCH   6  17
HETATM   17  C5  UNL     1      48.366  78.194  75.652  1.00  0.00     0.420 C 
HETATM   18  F1  UNL     1      48.457  79.317  74.855  1.00  0.00    -0.168 F 
HETATM   19  F2  UNL     1      48.816  77.070  74.986  1.00  0.00    -0.168 F 
HETATM   20  F3  UNL     1      47.058  77.950  76.029  1.00  0.00    -0.168 F 
ENDBRANCH   6  17
TORSDOF 1
ENDMDL
MODEL 3
REMARK VINA RESULT: -7.442584567      2.639      4.331
REMARK  1 active torsions:
REMARK  status: ('A' for Active; 'I' for Inactive)
REMARK    1  A    between atoms: C3_6  and  C5_8 
ROOT
HETATM    1  C1  UNL     1      50.531  82.156  75.780  1.00  0.00     0.045 C 
HETATM    2  C2  UNL     1      50.107  81.512  77.057  1.00  0.00     0.212 C 
HETATM    3  N1  UNL     1      49.850  80.090  76.797  1.00  0.00    -0.050 N 
ATOM      4  H11 UNL     1      50.698  79.566  76.585  1.00  0.00     0.279 HD
ATOM      5  H12 UNL     1      49.367  79.929  75.912  1.00  0.00     0.279 HD
HETATM    6  C3  UNL     1      49.134  79.565  77.928  1.00  0.00     0.222 C 
HETATM    7  C4  UNL     1      47.770  80.190  78.089  1.00  0.00     0.056 C 
HETATM    8  C6  UNL     1      49.914  79.710  79.206  1.00  0.00     0.082 C 
HETATM    9  C7  UNL     1      50.958  80.723  79.150  1.00  0.00    -0.072 C 
HETATM   10  C8  UNL     1      51.074  81.587  78.149  1.00  0.00    -0.042 C 
HETATM   11  C9  UNL     1      52.205  82.536  78.275  1.00  0.00     0.115 C 
HETATM   12  C10 UNL     1      52.270  83.202  79.614  1.00  0.00     0.247 C 
HETATM   13  F4  UNL     1      53.536  83.658  79.920  1.00  0.00    -0.206 F 
HETATM   14  F5  UNL     1      51.470  84.349  79.581  1.00  0.00    -0.206 F 
HETATM   15  C11 UNL     1      51.859  82.278  80.717  1.00  0.00     0.083 C 
HETATM   16  C12 UNL     1      51.965  80.850  80.235  1.00  0.00     0.040 C 
ENDROOT
BRANCH   6  17
HETATM   17  C5  UNL     1      48.909  78.066  77.703  1.00  0.00     0.420 C 
HETATM   18  F1  UNL     1      48.559  77.490  78.907  1.00  0.00    -0.168 F 
HETATM   19  F2  UNL     1      47.900  77.928  76.771  1.00  0.00    -0.168 F 
HETATM   20  F3  UNL     1      50.041  77.474  77.174  1.00  0.00    -0.168 F 
ENDBRANCH   6  17
TORSDOF 1
ENDMDL
MODEL 4
REMARK VINA RESULT: -7.300573550      2.451      4.338
REMARK  1 active torsions:
REMARK  status: ('A' for Active; 'I' for Inactive)
REMARK    1  A    between atoms: C3_6  and  C5_8 
ROOT
HETATM    1  C1  UNL     1      51.087  79.835  81.542  1.00  0.00     0.045 C 
HETATM    2  C2  UNL     1      51.195  79.891  80.055  1.00  0.00     0.212 C 
HETATM    3  N1  UNL     1      50.092  79.112  79.479  1.00  0.00    -0.050 N 
ATOM      4  H11 UNL     1      49.181  79.546  79.626  1.00  0.00     0.279 HD
ATOM      5  H12 UNL     1      49.912  78.245  79.986  1.00  0.00     0.279 HD
HETATM    6  C3  UNL     1      50.392  78.896  78.090  1.00  0.00     0.222 C 
HETATM    7  C4  UNL     1      51.622  78.045  77.890  1.00  0.00     0.056 C 
HETATM    8  C6  UNL     1      50.541  80.190  77.337  1.00  0.00     0.082 C 
HETATM    9  C7  UNL     1      50.823  81.339  78.185  1.00  0.00    -0.072 C 
HETATM   10  C8  UNL     1      51.134  81.229  79.471  1.00  0.00    -0.042 C 
HETATM   11  C9  UNL     1      51.381  82.516  80.163  1.00  0.00     0.115 C 
HETATM   12  C10 UNL     1      52.323  83.413  79.422  1.00  0.00     0.247 C 
HETATM   13  F4  UNL     1      52.164  84.742  79.757  1.00  0.00    -0.206 F 
HETATM   14  F5  UNL     1      53.632  83.098  79.802  1.00  0.00    -0.206 F 
HETATM   15  C11 UNL     1      52.142  83.310  77.941  1.00  0.00     0.083 C 
HETATM   16  C12 UNL     1      50.782  82.722  77.645  1.00  0.00     0.040 C 
ENDROOT
BRANCH   6  17
HETATM   17  C5  UNL     1      49.223  78.136  77.456  1.00  0.00     0.420 C 
HETATM   18  F1  UNL     1      49.445  78.043  76.097  1.00  0.00    -0.168 F 
HETATM   19  F2  UNL     1      49.167  76.886  78.040  1.00  0.00    -0.168 F 
HETATM   20  F3  UNL     1      48.023  78.768  77.725  1.00  0.00    -0.168 F 
ENDBRANCH   6  17
TORSDOF 1
ENDMDL
MODEL 5
REMARK VINA RESULT: -7.045362744      2.566      4.728
REMARK  1 active torsions:
REMARK  status: ('A' for Active; 'I' for Inactive)
REMARK    1  A    between atoms: C3_6  and  C5_8 
ROOT
HETATM    1  C1  UNL     1      49.896  82.617  76.141  1.00  0.00     0.045 C 
HETATM    2  C2  UNL     1      49.715  81.490  77.101  1.00  0.00     0.212 C 
HETATM    3  N1  UNL     1      49.528  80.252  76.334  1.00  0.00    -0.050 N 
ATOM      4  H11 UNL     1      50.372  79.958  75.844  1.00  0.00     0.279 HD
ATOM      5  H12 UNL     1      48.933  80.379  75.515  1.00  0.00     0.279 HD
HETATM    6  C3  UNL     1      49.029  79.253  77.239  1.00  0.00     0.222 C 
HETATM    7  C4  UNL     1      47.661  79.593  77.779  1.00  0.00     0.056 C 
HETATM    8  C6  UNL     1      49.977  79.000  78.380  1.00  0.00     0.082 C 
HETATM    9  C7  UNL     1      50.923  80.082  78.613  1.00  0.00    -0.072 C 
HETATM   10  C8  UNL     1      50.826  81.267  78.024  1.00  0.00    -0.042 C 
HETATM   11  C9  UNL     1      51.889  82.231  78.388  1.00  0.00     0.115 C 
HETATM   12  C10 UNL     1      52.102  82.344  79.866  1.00  0.00     0.247 C 
HETATM   13  F4  UNL     1      53.363  82.805  80.187  1.00  0.00    -0.206 F 
HETATM   14  F5  UNL     1      51.224  83.308  80.372  1.00  0.00    -0.206 F 
HETATM   15  C11 UNL     1      51.929  81.028  80.556  1.00  0.00     0.083 C 
HETATM   16  C12 UNL     1      52.067  79.913  79.544  1.00  0.00     0.040 C 
ENDROOT
BRANCH   6  17
HETATM   17  C5  UNL     1      48.884  77.935  76.471  1.00  0.00     0.420 C 
HETATM   18  F1  UNL     1      49.476  76.930  77.208  1.00  0.00    -0.168 F 
HETATM   19  F2  UNL     1      47.535  77.697  76.294  1.00  0.00    -0.168 F 
HETATM   20  F3  UNL     1      49.451  78.035  75.213  1.00  0.00    -0.168 F 
ENDBRANCH   6  17
TORSDOF 1
ENDMDL
