MODEL 1
REMARK VINA RESULT: -8.687166260      0.000      0.000
REMARK  2 active torsions:
REMARK  status: ('A' for Active; 'I' for Inactive)
REMARK    1  A    between atoms: C1_2  and  C2_5 
REMARK    2  A    between atoms: N1_13  and  C9_14 
ROOT
HETATM    1  C2  UNL     1      51.188  79.826  80.059  1.00  0.00     0.201 C 
HETATM    2  C3  UNL     1      51.257  81.338  80.405  1.00  0.00     0.039 C 
HETATM    3  C4  UNL     1      52.175  81.937  79.342  1.00  0.00     0.044 C 
HETATM    4  C5  UNL     1      51.341  81.927  78.058  1.00  0.00    -0.024 A 
HETATM    5  C6  UNL     1      51.348  82.865  77.082  1.00  0.00     0.017 A 
HETATM    6  C7  UNL     1      50.514  82.655  76.007  1.00  0.00     0.052 A 
HETATM    7  S1  UNL     1      49.767  81.175  76.402  1.00  0.00    -0.084 SA
HETATM    8  C8  UNL     1      50.512  80.857  77.895  1.00  0.00     0.086 A 
HETATM    9  N1  UNL     1      50.405  79.780  78.862  1.00  0.00    -0.270 N 
ENDROOT
BRANCH   1  10
HETATM   10  C1  UNL     1      50.677  79.173  81.275  1.00  0.00     0.407 C 
HETATM   11  F1  UNL     1      51.020  77.868  81.445  1.00  0.00    -0.169 F 
HETATM   12  F2  UNL     1      49.327  79.403  81.466  1.00  0.00    -0.169 F 
HETATM   13  F3  UNL     1      51.289  79.851  82.353  1.00  0.00    -0.169 F 
ENDBRANCH   1  10
BRANCH   9  14
HETATM   14  C9  UNL     1      49.496  78.715  78.542  1.00  0.00     0.488 C 
HETATM   15  F4  UNL     1      49.410  77.711  79.451  1.00  0.00    -0.150 F 
HETATM   16  F5  UNL     1      49.790  78.296  77.255  1.00  0.00    -0.150 F 
HETATM   17  F6  UNL     1      48.176  79.204  78.429  1.00  0.00    -0.150 F 
ENDBRANCH   9  14
TORSDOF 2
ENDMDL
MODEL 2
REMARK VINA RESULT: -8.268843209      2.435      3.757
REMARK  2 active torsions:
REMARK  status: ('A' for Active; 'I' for Inactive)
REMARK    1  A    between atoms: C1_2  and  C2_5 
REMARK    2  A    between atoms: N1_13  and  C9_14 
ROOT
HETATM    1  C2  UNL     1      50.404  80.757  79.670  1.00  0.00     0.201 C 
HETATM    2  C3  UNL     1      50.416  79.229  79.942  1.00  0.00     0.039 C 
HETATM    3  C4  UNL     1      49.006  78.761  79.588  1.00  0.00     0.044 C 
HETATM    4  C5  UNL     1      48.947  78.827  78.061  1.00  0.00    -0.024 A 
HETATM    5  C6  UNL     1      48.298  77.968  77.238  1.00  0.00     0.017 A 
HETATM    6  C7  UNL     1      48.376  78.217  75.887  1.00  0.00     0.052 A 
HETATM    7  S1  UNL     1      49.339  79.622  75.824  1.00  0.00    -0.084 SA
HETATM    8  C8  UNL     1      49.620  79.862  77.482  1.00  0.00     0.086 A 
HETATM    9  N1  UNL     1      50.356  80.855  78.242  1.00  0.00    -0.270 N 
ENDROOT
BRANCH   1  10
HETATM   10  C1  UNL     1      51.576  81.288  80.385  1.00  0.00     0.407 C 
HETATM   11  F1  UNL     1      51.609  82.635  80.566  1.00  0.00    -0.169 F 
HETATM   12  F2  UNL     1      52.765  80.782  79.893  1.00  0.00    -0.169 F 
HETATM   13  F3  UNL     1      51.496  80.751  81.689  1.00  0.00    -0.169 F 
ENDBRANCH   1  10
BRANCH   9  14
HETATM   14  C9  UNL     1      51.002  81.893  77.490  1.00  0.00     0.488 C 
HETATM   15  F4  UNL     1      51.869  82.678  78.179  1.00  0.00    -0.150 F 
HETATM   16  F5  UNL     1      50.013  82.589  76.815  1.00  0.00    -0.150 F 
HETATM   17  F6  UNL     1      51.779  81.342  76.447  1.00  0.00    -0.150 F 
ENDBRANCH   9  14
TORSDOF 2
ENDMDL
MODEL 3
REMARK VINA RESULT: -8.259592186      1.994      4.200
REMARK  2 active torsions:
REMARK  status: ('A' for Active; 'I' for Inactive)
REMARK    1  A    between atoms: C1_2  and  C2_5 
REMARK    2  A    between atoms: N1_13  and  C9_14 
ROOT
HETATM    1  C2  UNL     1      48.979  79.506  76.794  1.00  0.00     0.201 C 
HETATM    2  C3  UNL     1      50.256  80.207  76.259  1.00  0.00     0.039 C 
HETATM    3  C4  UNL     1      50.327  81.524  77.029  1.00  0.00     0.044 C 
HETATM    4  C5  UNL     1      50.738  81.122  78.447  1.00  0.00    -0.024 A 
HETATM    5  C6  UNL     1      51.554  81.812  79.279  1.00  0.00     0.017 A 
HETATM    6  C7  UNL     1      51.790  81.265  80.519  1.00  0.00     0.052 A 
HETATM    7  S1  UNL     1      50.873  79.829  80.471  1.00  0.00    -0.084 SA
HETATM    8  C8  UNL     1      50.221  79.948  78.908  1.00  0.00     0.086 A 
HETATM    9  N1  UNL     1      49.333  79.109  78.123  1.00  0.00    -0.270 N 
ENDROOT
BRANCH   1  10
HETATM   10  C1  UNL     1      48.659  78.470  75.799  1.00  0.00     0.407 C 
HETATM   11  F1  UNL     1      47.436  77.886  75.911  1.00  0.00    -0.169 F 
HETATM   12  F2  UNL     1      49.682  77.551  75.650  1.00  0.00    -0.169 F 
HETATM   13  F3  UNL     1      48.626  79.139  74.555  1.00  0.00    -0.169 F 
ENDBRANCH   1  10
BRANCH   9  14
HETATM   14  C9  UNL     1      48.860  77.907  78.751  1.00  0.00     0.488 C 
HETATM   15  F4  UNL     1      49.302  76.741  78.217  1.00  0.00    -0.150 F 
HETATM   16  F5  UNL     1      47.482  78.007  78.845  1.00  0.00    -0.150 F 
HETATM   17  F6  UNL     1      49.273  77.856  80.101  1.00  0.00    -0.150 F 
ENDBRANCH   9  14
TORSDOF 2
ENDMDL
MODEL 4
REMARK VINA RESULT: -8.227252296      2.106      3.361
REMARK  2 active torsions:
REMARK  status: ('A' for Active; 'I' for Inactive)
REMARK    1  A    between atoms: C1_2  and  C2_5 
REMARK    2  A    between atoms: N1_13  and  C9_14 
ROOT
HETATM    1  C2  UNL     1      49.986  79.082  78.354  1.00  0.00     0.201 C 
HETATM    2  C3  UNL     1      49.692  79.491  79.823  1.00  0.00     0.039 C 
HETATM    3  C4  UNL     1      51.054  79.872  80.399  1.00  0.00     0.044 C 
HETATM    4  C5  UNL     1      51.393  81.212  79.742  1.00  0.00    -0.024 A 
HETATM    5  C6  UNL     1      52.038  82.255  80.317  1.00  0.00     0.017 A 
HETATM    6  C7  UNL     1      52.240  83.371  79.538  1.00  0.00     0.052 A 
HETATM    7  S1  UNL     1      51.529  82.922  78.055  1.00  0.00    -0.084 SA
HETATM    8  C8  UNL     1      51.000  81.356  78.445  1.00  0.00     0.086 A 
HETATM    9  N1  UNL     1      50.301  80.320  77.706  1.00  0.00    -0.270 N 
ENDROOT
BRANCH   1  10
HETATM   10  C1  UNL     1      48.801  78.327  77.917  1.00  0.00     0.407 C 
HETATM   11  F1  UNL     1      48.979  77.491  76.859  1.00  0.00    -0.169 F 
HETATM   12  F2  UNL     1      47.684  79.131  77.785  1.00  0.00    -0.169 F 
HETATM   13  F3  UNL     1      48.477  77.477  78.998  1.00  0.00    -0.169 F 
ENDBRANCH   1  10
BRANCH   9  14
HETATM   14  C9  UNL     1      49.965  80.615  76.342  1.00  0.00     0.488 C 
HETATM   15  F4  UNL     1      49.412  79.601  75.630  1.00  0.00    -0.150 F 
HETATM   16  F5  UNL     1      51.085  81.181  75.756  1.00  0.00    -0.150 F 
HETATM   17  F6  UNL     1      49.008  81.653  76.279  1.00  0.00    -0.150 F 
ENDBRANCH   9  14
TORSDOF 2
ENDMDL
MODEL 5
REMARK VINA RESULT: -8.201915130      1.059      1.524
REMARK  2 active torsions:
REMARK  status: ('A' for Active; 'I' for Inactive)
REMARK    1  A    between atoms: C1_2  and  C2_5 
REMARK    2  A    between atoms: N1_13  and  C9_14 
ROOT
HETATM    1  C2  UNL     1      50.365  79.263  79.439  1.00  0.00     0.201 C 
HETATM    2  C3  UNL     1      50.499  80.597  80.221  1.00  0.00     0.039 C 
HETATM    3  C4  UNL     1      51.729  81.276  79.621  1.00  0.00     0.044 C 
HETATM    4  C5  UNL     1      51.277  81.745  78.236  1.00  0.00    -0.024 A 
HETATM    5  C6  UNL     1      51.647  82.886  77.608  1.00  0.00     0.017 A 
HETATM    6  C7  UNL     1      51.118  83.112  76.358  1.00  0.00     0.052 A 
HETATM    7  S1  UNL     1      50.137  81.738  76.118  1.00  0.00    -0.084 SA
HETATM    8  C8  UNL     1      50.413  80.919  77.580  1.00  0.00     0.086 A 
HETATM    9  N1  UNL     1      49.934  79.667  78.135  1.00  0.00    -0.270 N 
ENDROOT
BRANCH   1  10
HETATM   10  C1  UNL     1      49.477  78.421  80.257  1.00  0.00     0.407 C 
HETATM   11  F1  UNL     1      48.968  77.317  79.649  1.00  0.00    -0.169 F 
HETATM   12  F2  UNL     1      48.516  79.161  80.921  1.00  0.00    -0.169 F 
HETATM   13  F3  UNL     1      50.290  77.917  81.297  1.00  0.00    -0.169 F 
ENDBRANCH   1  10
BRANCH   9  14
HETATM   14  C9  UNL     1      49.038  78.900  77.316  1.00  0.00     0.488 C 
HETATM   15  F4  UNL     1      47.738  78.884  77.707  1.00  0.00    -0.150 F 
HETATM   16  F5  UNL     1      49.601  77.645  77.153  1.00  0.00    -0.150 F 
HETATM   17  F6  UNL     1      49.004  79.413  76.000  1.00  0.00    -0.150 F 
ENDBRANCH   9  14
TORSDOF 2
ENDMDL
