MODEL 1
REMARK VINA RESULT: -8.305869358      0.000      0.000
REMARK  3 active torsions:
REMARK  status: ('A' for Active; 'I' for Inactive)
REMARK    1  A    between atoms: C5_5  and  C6_6 
REMARK    2  A    between atoms: C8_11  and  C10_13 
REMARK    3  A    between atoms: N1_17  and  O1_18 
ROOT
HETATM    1  C1  UNL     1      47.901  78.355  78.061  1.00  0.00     0.038 C 
HETATM    2  C2  UNL     1      48.747  79.556  78.510  1.00  0.00     0.050 C 
HETATM    3  C3  UNL     1      47.763  80.655  78.831  1.00  0.00     0.038 C 
HETATM    4  C4  UNL     1      49.450  79.218  79.770  1.00  0.00     0.011 C 
HETATM    5  C5  UNL     1      50.492  79.959  80.111  1.00  0.00     0.026 C 
HETATM    6  C7  UNL     1      50.897  81.061  79.233  1.00  0.00     0.079 C 
HETATM    7  C8  UNL     1      50.805  80.640  77.786  1.00  0.00     0.137 C 
HETATM    8  C9  UNL     1      52.117  79.895  77.479  1.00  0.00     0.045 C 
HETATM    9  N1  UNL     1      49.669  79.846  77.482  1.00  0.00    -0.169 NA
ENDROOT
BRANCH   7  10
HETATM   10  C10 UNL     1      50.810  81.832  76.847  1.00  0.00     0.409 C 
HETATM   11  F4  UNL     1      51.493  82.847  77.508  1.00  0.00    -0.169 F 
HETATM   12  F5  UNL     1      49.502  82.282  76.633  1.00  0.00    -0.169 F 
HETATM   13  F6  UNL     1      51.438  81.603  75.664  1.00  0.00    -0.169 F 
ENDBRANCH   7  10
BRANCH   9  14
HETATM   14  O1  UNL     1      50.109  78.677  76.932  1.00  0.00    -0.311 OA
ATOM     15  H1  UNL     1      50.236  78.800  75.998  1.00  0.00     0.237 HD
ENDBRANCH   9  14
BRANCH   5  16
HETATM   16  C6  UNL     1      51.196  79.613  81.384  1.00  0.00     0.413 C 
HETATM   17  F1  UNL     1      50.498  80.071  82.484  1.00  0.00    -0.166 F 
HETATM   18  F2  UNL     1      51.283  78.237  81.507  1.00  0.00    -0.166 F 
HETATM   19  F3  UNL     1      52.449  80.201  81.313  1.00  0.00    -0.166 F 
ENDBRANCH   5  16
TORSDOF 3
ENDMDL
MODEL 2
REMARK VINA RESULT: -7.986228622      2.247      3.503
REMARK  3 active torsions:
REMARK  status: ('A' for Active; 'I' for Inactive)
REMARK    1  A    between atoms: C5_5  and  C6_6 
REMARK    2  A    between atoms: C8_11  and  C10_13 
REMARK    3  A    between atoms: N1_17  and  O1_18 
ROOT
HETATM    1  C1  UNL     1      50.326  83.018  76.281  1.00  0.00     0.038 C 
HETATM    2  C2  UNL     1      50.634  81.624  76.847  1.00  0.00     0.050 C 
HETATM    3  C3  UNL     1      51.790  81.095  76.032  1.00  0.00     0.038 C 
HETATM    4  C4  UNL     1      51.110  81.754  78.245  1.00  0.00     0.011 C 
HETATM    5  C5  UNL     1      51.070  80.677  79.012  1.00  0.00     0.026 C 
HETATM    6  C7  UNL     1      50.558  79.424  78.448  1.00  0.00     0.079 C 
HETATM    7  C8  UNL     1      49.347  79.691  77.586  1.00  0.00     0.137 C 
HETATM    8  C9  UNL     1      48.150  79.763  78.550  1.00  0.00     0.045 C 
HETATM    9  N1  UNL     1      49.449  80.861  76.789  1.00  0.00    -0.169 NA
ENDROOT
BRANCH   7  10
HETATM   10  C10 UNL     1      49.035  78.523  76.669  1.00  0.00     0.409 C 
HETATM   11  F4  UNL     1      47.690  78.227  76.858  1.00  0.00    -0.169 F 
HETATM   12  F5  UNL     1      49.768  77.395  77.059  1.00  0.00    -0.169 F 
HETATM   13  F6  UNL     1      49.227  78.786  75.351  1.00  0.00    -0.169 F 
ENDBRANCH   7  10
BRANCH   9  14
HETATM   14  O1  UNL     1      48.385  81.663  77.083  1.00  0.00    -0.311 OA
ATOM     15  H1  UNL     1      48.406  82.429  76.522  1.00  0.00     0.237 HD
ENDBRANCH   9  14
BRANCH   5  16
HETATM   16  C6  UNL     1      51.552  80.816  80.420  1.00  0.00     0.413 C 
HETATM   17  F1  UNL     1      50.813  80.031  81.284  1.00  0.00    -0.166 F 
HETATM   18  F2  UNL     1      52.864  80.385  80.506  1.00  0.00    -0.166 F 
HETATM   19  F3  UNL     1      51.431  82.158  80.746  1.00  0.00    -0.166 F 
ENDBRANCH   5  16
TORSDOF 3
ENDMDL
MODEL 3
REMARK VINA RESULT: -7.687816808      2.203      3.541
REMARK  3 active torsions:
REMARK  status: ('A' for Active; 'I' for Inactive)
REMARK    1  A    between atoms: C5_5  and  C6_6 
REMARK    2  A    between atoms: C8_11  and  C10_13 
REMARK    3  A    between atoms: N1_17  and  O1_18 
ROOT
HETATM    1  C1  UNL     1      50.991  82.204  77.316  1.00  0.00     0.038 C 
HETATM    2  C2  UNL     1      50.858  80.708  77.636  1.00  0.00     0.050 C 
HETATM    3  C3  UNL     1      52.113  80.060  77.102  1.00  0.00     0.038 C 
HETATM    4  C4  UNL     1      50.862  80.518  79.106  1.00  0.00     0.011 C 
HETATM    5  C5  UNL     1      50.392  79.375  79.580  1.00  0.00     0.026 C 
HETATM    6  C7  UNL     1      49.894  78.368  78.638  1.00  0.00     0.079 C 
HETATM    7  C8  UNL     1      49.098  79.027  77.537  1.00  0.00     0.137 C 
HETATM    8  C9  UNL     1      47.679  79.221  78.101  1.00  0.00     0.045 C 
HETATM    9  N1  UNL     1      49.650  80.249  77.073  1.00  0.00    -0.169 NA
ENDROOT
BRANCH   7  10
HETATM   10  C10 UNL     1      48.915  78.109  76.342  1.00  0.00     0.409 C 
HETATM   11  F4  UNL     1      49.626  76.949  76.628  1.00  0.00    -0.169 F 
HETATM   12  F5  UNL     1      49.494  78.681  75.203  1.00  0.00    -0.169 F 
HETATM   13  F6  UNL     1      47.624  77.763  76.101  1.00  0.00    -0.169 F 
ENDBRANCH   7  10
BRANCH   9  14
HETATM   14  O1  UNL     1      48.697  81.217  77.207  1.00  0.00    -0.311 OA
ATOM     15  H1  UNL     1      48.713  81.550  78.097  1.00  0.00     0.237 HD
ENDBRANCH   9  14
BRANCH   5  16
HETATM   16  C6  UNL     1      50.399  79.190  81.064  1.00  0.00     0.413 C 
HETATM   17  F1  UNL     1      50.895  77.950  81.413  1.00  0.00    -0.166 F 
HETATM   18  F2  UNL     1      51.228  80.134  81.645  1.00  0.00    -0.166 F 
HETATM   19  F3  UNL     1      49.086  79.334  81.484  1.00  0.00    -0.166 F 
ENDBRANCH   5  16
TORSDOF 3
ENDMDL
MODEL 4
REMARK VINA RESULT: -7.450821851      1.525      4.479
REMARK  3 active torsions:
REMARK  status: ('A' for Active; 'I' for Inactive)
REMARK    1  A    between atoms: C5_5  and  C6_6 
REMARK    2  A    between atoms: C8_11  and  C10_13 
REMARK    3  A    between atoms: N1_17  and  O1_18 
ROOT
HETATM    1  C1  UNL     1      47.569  78.699  78.027  1.00  0.00     0.038 C 
HETATM    2  C2  UNL     1      49.060  79.026  77.859  1.00  0.00     0.050 C 
HETATM    3  C3  UNL     1      49.704  77.759  77.349  1.00  0.00     0.038 C 
HETATM    4  C4  UNL     1      49.222  80.053  76.803  1.00  0.00     0.011 C 
HETATM    5  C5  UNL     1      50.361  80.726  76.768  1.00  0.00     0.026 C 
HETATM    6  C7  UNL     1      51.391  80.428  77.768  1.00  0.00     0.079 C 
HETATM    7  C8  UNL     1      50.762  80.223  79.125  1.00  0.00     0.137 C 
HETATM    8  C9  UNL     1      50.573  81.630  79.720  1.00  0.00     0.045 C 
HETATM    9  N1  UNL     1      49.543  79.498  79.097  1.00  0.00    -0.169 NA
ENDROOT
BRANCH   7  10
HETATM   10  C10 UNL     1      51.704  79.523  80.087  1.00  0.00     0.409 C 
HETATM   11  F4  UNL     1      52.634  78.849  79.303  1.00  0.00    -0.169 F 
HETATM   12  F5  UNL     1      51.008  78.559  80.827  1.00  0.00    -0.169 F 
HETATM   13  F6  UNL     1      52.381  80.364  80.912  1.00  0.00    -0.169 F 
ENDBRANCH   7  10
BRANCH   9  14
HETATM   14  O1  UNL     1      48.583  80.267  79.689  1.00  0.00    -0.311 OA
ATOM     15  H1  UNL     1      49.000  80.986  80.150  1.00  0.00     0.237 HD
ENDBRANCH   9  14
BRANCH   5  16
HETATM   16  C6  UNL     1      50.518  81.760  75.700  1.00  0.00     0.413 C 
HETATM   17  F1  UNL     1      51.830  81.857  75.283  1.00  0.00    -0.166 F 
HETATM   18  F2  UNL     1      49.768  81.401  74.593  1.00  0.00    -0.166 F 
HETATM   19  F3  UNL     1      50.082  82.958  76.246  1.00  0.00    -0.166 F 
ENDBRANCH   5  16
TORSDOF 3
ENDMDL
MODEL 5
REMARK VINA RESULT: -7.444202838      1.665      4.478
REMARK  3 active torsions:
REMARK  status: ('A' for Active; 'I' for Inactive)
REMARK    1  A    between atoms: C5_5  and  C6_6 
REMARK    2  A    between atoms: C8_11  and  C10_13 
REMARK    3  A    between atoms: N1_17  and  O1_18 
ROOT
HETATM    1  C1  UNL     1      48.167  78.103  75.977  1.00  0.00     0.038 C 
HETATM    2  C2  UNL     1      49.204  78.684  76.950  1.00  0.00     0.050 C 
HETATM    3  C3  UNL     1      50.357  77.709  76.952  1.00  0.00     0.038 C 
HETATM    4  C4  UNL     1      49.718  79.966  76.414  1.00  0.00     0.011 C 
HETATM    5  C5  UNL     1      50.323  80.787  77.257  1.00  0.00     0.026 C 
HETATM    6  C7  UNL     1      50.448  80.394  78.664  1.00  0.00     0.079 C 
HETATM    7  C8  UNL     1      49.172  79.744  79.143  1.00  0.00     0.137 C 
HETATM    8  C9  UNL     1      48.233  80.899  79.536  1.00  0.00     0.045 C 
HETATM    9  N1  UNL     1      48.569  78.877  78.195  1.00  0.00    -0.169 NA
ENDROOT
BRANCH   7  10
HETATM   10  C10 UNL     1      49.382  78.964  80.428  1.00  0.00     0.409 C 
HETATM   11  F4  UNL     1      48.274  79.222  81.227  1.00  0.00    -0.169 F 
HETATM   12  F5  UNL     1      50.506  79.447  81.107  1.00  0.00    -0.169 F 
HETATM   13  F6  UNL     1      49.470  77.620  80.252  1.00  0.00    -0.169 F 
ENDBRANCH   7  10
BRANCH   9  14
HETATM   14  O1  UNL     1      47.292  79.309  77.985  1.00  0.00    -0.311 OA
ATOM     15  H1  UNL     1      46.732  78.976  78.676  1.00  0.00     0.237 HD
ENDBRANCH   9  14
BRANCH   5  16
HETATM   16  C6  UNL     1      50.839  82.079  76.708  1.00  0.00     0.413 C 
HETATM   17  F1  UNL     1      49.838  83.026  76.629  1.00  0.00    -0.166 F 
HETATM   18  F2  UNL     1      51.809  82.588  77.554  1.00  0.00    -0.166 F 
HETATM   19  F3  UNL     1      51.353  81.795  75.452  1.00  0.00    -0.166 F 
ENDBRANCH   5  16
TORSDOF 3
ENDMDL
