MODEL 1
REMARK VINA RESULT: -6.320778988      0.000      0.000
REMARK  1 active torsions:
REMARK  status: ('A' for Active; 'I' for Inactive)
REMARK    1  A    between atoms: C2_2  and  N1_5 
ROOT
HETATM    1  N1  UNL     1     -31.570 -11.923  20.067  1.00  0.00    -0.286 N 
HETATM    2  C4  UNL     1     -31.544 -13.163  19.369  1.00  0.00     0.223 C 
HETATM    3  C5  UNL     1     -30.061 -13.495  19.479  1.00  0.00     0.283 C 
HETATM    4  F2  UNL     1     -29.884 -14.863  19.458  1.00  0.00    -0.202 F 
HETATM    5  F3  UNL     1     -29.391 -12.918  18.406  1.00  0.00    -0.202 F 
HETATM    6  C6  UNL     1     -29.692 -12.858  20.783  1.00  0.00     0.110 C 
HETATM    7  C7  UNL     1     -29.533 -13.957  21.794  1.00  0.00     0.041 C 
HETATM    8  C8  UNL     1     -28.436 -12.019  20.624  1.00  0.00     0.041 C 
HETATM    9  N2  UNL     1     -30.793 -11.996  21.186  1.00  0.00    -0.125 NA
ENDROOT
BRANCH   1  10
HETATM   10  C2  UNL     1     -32.796 -11.236  20.122  1.00  0.00     0.181 C 
HETATM   11  C1  UNL     1     -33.573 -11.750  21.329  1.00  0.00     0.077 C 
HETATM   12  C3  UNL     1     -33.631 -11.237  18.881  1.00  0.00     0.077 C 
HETATM   13  F1  UNL     1     -32.507  -9.897  20.380  1.00  0.00    -0.219 F 
ENDBRANCH   1  10
TORSDOF 1
ENDMDL
MODEL 2
REMARK VINA RESULT: -6.258994903      1.698      3.968
REMARK  1 active torsions:
REMARK  status: ('A' for Active; 'I' for Inactive)
REMARK    1  A    between atoms: C2_2  and  N1_5 
ROOT
HETATM    1  N1  UNL     1     -30.607 -12.366  19.953  1.00  0.00    -0.286 N 
HETATM    2  C4  UNL     1     -31.125 -13.319  19.033  1.00  0.00     0.223 C 
HETATM    3  C5  UNL     1     -32.605 -13.248  19.387  1.00  0.00     0.283 C 
HETATM    4  F2  UNL     1     -33.367 -13.567  18.283  1.00  0.00    -0.202 F 
HETATM    5  F3  UNL     1     -32.865 -14.150  20.412  1.00  0.00    -0.202 F 
HETATM    6  C6  UNL     1     -32.754 -11.827  19.834  1.00  0.00     0.110 C 
HETATM    7  C7  UNL     1     -33.460 -11.080  18.740  1.00  0.00     0.041 C 
HETATM    8  C8  UNL     1     -33.491 -11.765  21.161  1.00  0.00     0.041 C 
HETATM    9  N2  UNL     1     -31.419 -11.271  20.005  1.00  0.00    -0.125 NA
ENDROOT
BRANCH   1  10
HETATM   10  C2  UNL     1     -29.211 -12.191  19.988  1.00  0.00     0.181 C 
HETATM   11  C1  UNL     1     -28.596 -13.422  20.643  1.00  0.00     0.077 C 
HETATM   12  C3  UNL     1     -28.700 -10.923  20.594  1.00  0.00     0.077 C 
HETATM   13  F1  UNL     1     -28.766 -12.183  18.666  1.00  0.00    -0.219 F 
ENDBRANCH   1  10
TORSDOF 1
ENDMDL
MODEL 3
REMARK VINA RESULT: -5.652375788      1.956      3.960
REMARK  1 active torsions:
REMARK  status: ('A' for Active; 'I' for Inactive)
REMARK    1  A    between atoms: C2_2  and  N1_5 
ROOT
HETATM    1  N1  UNL     1     -30.469 -12.609  20.247  1.00  0.00    -0.286 N 
HETATM    2  C4  UNL     1     -30.891 -13.634  19.355  1.00  0.00     0.223 C 
HETATM    3  C5  UNL     1     -32.402 -13.484  19.479  1.00  0.00     0.283 C 
HETATM    4  F2  UNL     1     -33.011 -13.889  18.309  1.00  0.00    -0.202 F 
HETATM    5  F3  UNL     1     -32.846 -14.272  20.535  1.00  0.00    -0.202 F 
HETATM    6  C6  UNL     1     -32.551 -12.022  19.763  1.00  0.00     0.110 C 
HETATM    7  C7  UNL     1     -33.061 -11.368  18.511  1.00  0.00     0.041 C 
HETATM    8  C8  UNL     1     -33.468 -11.806  20.955  1.00  0.00     0.041 C 
HETATM    9  N2  UNL     1     -31.233 -11.491  20.076  1.00  0.00    -0.125 NA
ENDROOT
BRANCH   1  10
HETATM   10  C2  UNL     1     -29.087 -12.473  20.470  1.00  0.00     0.181 C 
HETATM   11  C1  UNL     1     -28.777 -10.989  20.634  1.00  0.00     0.077 C 
HETATM   12  C3  UNL     1     -28.173 -13.127  19.483  1.00  0.00     0.077 C 
HETATM   13  F1  UNL     1     -28.807 -13.072  21.698  1.00  0.00    -0.219 F 
ENDBRANCH   1  10
TORSDOF 1
ENDMDL
MODEL 4
REMARK VINA RESULT: -5.525169054      1.662      2.603
REMARK  1 active torsions:
REMARK  status: ('A' for Active; 'I' for Inactive)
REMARK    1  A    between atoms: C2_2  and  N1_5 
ROOT
HETATM    1  N1  UNL     1     -32.159 -12.902  20.191  1.00  0.00    -0.286 N 
HETATM    2  C4  UNL     1     -30.738 -12.861  20.115  1.00  0.00     0.223 C 
HETATM    3  C5  UNL     1     -30.427 -14.350  20.210  1.00  0.00     0.283 C 
HETATM    4  F2  UNL     1     -29.246 -14.624  19.553  1.00  0.00    -0.202 F 
HETATM    5  F3  UNL     1     -30.309 -14.698  21.551  1.00  0.00    -0.202 F 
HETATM    6  C6  UNL     1     -31.633 -14.965  19.571  1.00  0.00     0.110 C 
HETATM    7  C7  UNL     1     -31.226 -15.445  18.208  1.00  0.00     0.041 C 
HETATM    8  C8  UNL     1     -32.186 -16.076  20.446  1.00  0.00     0.041 C 
HETATM    9  N2  UNL     1     -32.641 -13.925  19.428  1.00  0.00    -0.125 NA
ENDROOT
BRANCH   1  10
HETATM   10  C2  UNL     1     -32.842 -11.673  20.210  1.00  0.00     0.181 C 
HETATM   11  C1  UNL     1     -33.775 -11.667  21.415  1.00  0.00     0.077 C 
HETATM   12  C3  UNL     1     -33.550 -11.271  18.955  1.00  0.00     0.077 C 
HETATM   13  F1  UNL     1     -31.892 -10.678  20.441  1.00  0.00    -0.219 F 
ENDBRANCH   1  10
TORSDOF 1
ENDMDL
MODEL 5
REMARK VINA RESULT: -5.347264333      1.105      1.528
REMARK  1 active torsions:
REMARK  status: ('A' for Active; 'I' for Inactive)
REMARK    1  A    between atoms: C2_2  and  N1_5 
ROOT
HETATM    1  N1  UNL     1     -31.609 -11.917  20.074  1.00  0.00    -0.286 N 
HETATM    2  C4  UNL     1     -31.369 -12.922  21.054  1.00  0.00     0.223 C 
HETATM    3  C5  UNL     1     -30.024 -13.447  20.567  1.00  0.00     0.283 C 
HETATM    4  F2  UNL     1     -29.303 -13.944  21.632  1.00  0.00    -0.202 F 
HETATM    5  F3  UNL     1     -30.247 -14.457  19.639  1.00  0.00    -0.202 F 
HETATM    6  C6  UNL     1     -29.418 -12.229  19.943  1.00  0.00     0.110 C 
HETATM    7  C7  UNL     1     -28.355 -11.724  20.875  1.00  0.00     0.041 C 
HETATM    8  C8  UNL     1     -28.882 -12.556  18.560  1.00  0.00     0.041 C 
HETATM    9  N2  UNL     1     -30.463 -11.222  19.822  1.00  0.00    -0.125 NA
ENDROOT
BRANCH   1  10
HETATM   10  C2  UNL     1     -32.833 -11.228  20.140  1.00  0.00     0.181 C 
HETATM   11  C1  UNL     1     -33.604 -11.746  21.349  1.00  0.00     0.077 C 
HETATM   12  C3  UNL     1     -33.676 -11.221  18.904  1.00  0.00     0.077 C 
HETATM   13  F1  UNL     1     -32.539  -9.891  20.402  1.00  0.00    -0.219 F 
ENDBRANCH   1  10
TORSDOF 1
ENDMDL
