MODEL 1
REMARK VINA RESULT: -7.046231241      0.000      0.000
REMARK  2 active torsions:
REMARK  status: ('A' for Active; 'I' for Inactive)
REMARK    1  A    between atoms: C2_2  and  C3_3 
REMARK    2  A    between atoms: C6_9  and  C7_10 
ROOT
HETATM    1  C1  UNL     1     -32.050 -11.119  20.540  1.00  0.00     0.021 C 
HETATM    2  C2  UNL     1     -31.018 -12.105  19.985  1.00  0.00    -0.013 C 
HETATM    3  C4  UNL     1     -31.586 -12.669  18.723  1.00  0.00     0.015 C 
HETATM    4  C5  UNL     1     -32.070 -14.080  18.843  1.00  0.00     0.014 C 
HETATM    5  C6  UNL     1     -31.085 -15.019  19.455  1.00  0.00     0.093 C 
HETATM    6  C8  UNL     1     -30.258 -14.429  20.549  1.00  0.00     0.014 C 
HETATM    7  C9  UNL     1     -30.745 -13.110  21.050  1.00  0.00     0.015 C 
ENDROOT
BRANCH   2   8
HETATM    8  C3  UNL     1     -29.791 -11.315  19.707  1.00  0.00     0.062 C 
HETATM    9  N1  UNL     1     -29.159 -10.832  20.700  1.00  0.00    -0.410 N 
ATOM     10  H12 UNL     1     -29.497 -10.990  21.649  1.00  0.00     0.155 HD
ATOM     11  H11 UNL     1     -28.317 -10.289  20.510  1.00  0.00     0.155 HD
ENDBRANCH   2   8
BRANCH   5  12
HETATM   12  C7  UNL     1     -31.875 -16.220  19.985  1.00  0.00     0.391 C 
HETATM   13  F1  UNL     1     -33.130 -15.836  20.378  1.00  0.00    -0.171 F 
HETATM   14  F2  UNL     1     -31.928 -17.133  18.937  1.00  0.00    -0.171 F 
HETATM   15  F3  UNL     1     -31.132 -16.786  20.976  1.00  0.00    -0.171 F 
ENDBRANCH   5  12
TORSDOF 2
ENDMDL
MODEL 2
REMARK VINA RESULT: -7.034520872      0.076      1.072
REMARK  2 active torsions:
REMARK  status: ('A' for Active; 'I' for Inactive)
REMARK    1  A    between atoms: C2_2  and  C3_3 
REMARK    2  A    between atoms: C6_9  and  C7_10 
ROOT
HETATM    1  C1  UNL     1     -32.001 -11.155  20.564  1.00  0.00     0.021 C 
HETATM    2  C2  UNL     1     -30.971 -12.135  19.994  1.00  0.00    -0.013 C 
HETATM    3  C4  UNL     1     -31.546 -12.693  18.733  1.00  0.00     0.015 C 
HETATM    4  C5  UNL     1     -32.026 -14.106  18.848  1.00  0.00     0.014 C 
HETATM    5  C6  UNL     1     -31.033 -15.045  19.447  1.00  0.00     0.093 C 
HETATM    6  C8  UNL     1     -30.199 -14.460  20.537  1.00  0.00     0.014 C 
HETATM    7  C9  UNL     1     -30.686 -13.145  21.051  1.00  0.00     0.015 C 
ENDROOT
BRANCH   2   8
HETATM    8  C3  UNL     1     -29.748 -11.339  19.711  1.00  0.00     0.062 C 
HETATM    9  N1  UNL     1     -29.093 -10.885  20.703  1.00  0.00    -0.410 N 
ATOM     10  H12 UNL     1     -29.410 -11.069  21.655  1.00  0.00     0.155 HD
ATOM     11  H11 UNL     1     -28.254 -10.339  20.510  1.00  0.00     0.155 HD
ENDBRANCH   2   8
BRANCH   5  12
HETATM   12  C7  UNL     1     -31.815 -16.252  19.976  1.00  0.00     0.391 C 
HETATM   13  F1  UNL     1     -31.208 -16.769  21.089  1.00  0.00    -0.171 F 
HETATM   14  F2  UNL     1     -33.091 -15.782  20.265  1.00  0.00    -0.171 F 
HETATM   15  F3  UNL     1     -31.935 -17.137  18.948  1.00  0.00    -0.171 F 
ENDBRANCH   5  12
TORSDOF 2
ENDMDL
MODEL 3
REMARK VINA RESULT: -6.984448028      0.075      1.106
REMARK  2 active torsions:
REMARK  status: ('A' for Active; 'I' for Inactive)
REMARK    1  A    between atoms: C2_2  and  C3_3 
REMARK    2  A    between atoms: C6_9  and  C7_10 
ROOT
HETATM    1  C1  UNL     1     -32.034 -11.155  20.559  1.00  0.00     0.021 C 
HETATM    2  C2  UNL     1     -31.010 -12.131  19.970  1.00  0.00    -0.013 C 
HETATM    3  C4  UNL     1     -31.596 -12.673  18.707  1.00  0.00     0.015 C 
HETATM    4  C5  UNL     1     -32.078 -14.086  18.809  1.00  0.00     0.014 C 
HETATM    5  C6  UNL     1     -31.084 -15.035  19.390  1.00  0.00     0.093 C 
HETATM    6  C8  UNL     1     -30.240 -14.464  20.481  1.00  0.00     0.014 C 
HETATM    7  C9  UNL     1     -30.720 -13.154  21.013  1.00  0.00     0.015 C 
ENDROOT
BRANCH   2   8
HETATM    8  C3  UNL     1     -29.788 -11.335  19.688  1.00  0.00     0.062 C 
HETATM    9  N1  UNL     1     -29.112 -10.912  20.680  1.00  0.00    -0.410 N 
ATOM     10  H12 UNL     1     -29.414 -11.122  21.632  1.00  0.00     0.155 HD
ATOM     11  H11 UNL     1     -28.273 -10.366  20.487  1.00  0.00     0.155 HD
ENDBRANCH   2   8
BRANCH   5  12
HETATM   12  C7  UNL     1     -31.865 -16.246  19.910  1.00  0.00     0.391 C 
HETATM   13  F1  UNL     1     -31.918 -17.229  18.959  1.00  0.00    -0.171 F 
HETATM   14  F2  UNL     1     -31.188 -16.675  21.047  1.00  0.00    -0.171 F 
HETATM   15  F3  UNL     1     -33.085 -15.796  20.313  1.00  0.00    -0.171 F 
ENDBRANCH   5  12
TORSDOF 2
ENDMDL
MODEL 4
REMARK VINA RESULT: -6.869977957      1.378      2.371
REMARK  2 active torsions:
REMARK  status: ('A' for Active; 'I' for Inactive)
REMARK    1  A    between atoms: C2_2  and  C3_3 
REMARK    2  A    between atoms: C6_9  and  C7_10 
ROOT
HETATM    1  C1  UNL     1     -27.834 -12.714  19.789  1.00  0.00     0.021 C 
HETATM    2  C2  UNL     1     -29.287 -12.350  20.110  1.00  0.00    -0.013 C 
HETATM    3  C4  UNL     1     -29.732 -13.250  21.216  1.00  0.00     0.015 C 
HETATM    4  C5  UNL     1     -30.666 -14.337  20.787  1.00  0.00     0.014 C 
HETATM    5  C6  UNL     1     -31.829 -13.866  19.979  1.00  0.00     0.093 C 
HETATM    6  C8  UNL     1     -31.524 -12.745  19.042  1.00  0.00     0.014 C 
HETATM    7  C9  UNL     1     -30.067 -12.481  18.847  1.00  0.00     0.015 C 
ENDROOT
BRANCH   2   8
HETATM    8  C3  UNL     1     -29.276 -10.932  20.553  1.00  0.00     0.062 C 
HETATM    9  N1  UNL     1     -28.165 -10.436  20.927  1.00  0.00    -0.410 N 
ATOM     10  H12 UNL     1     -27.320 -11.006  20.917  1.00  0.00     0.155 HD
ATOM     11  H11 UNL     1     -28.157  -9.462  21.231  1.00  0.00     0.155 HD
ENDBRANCH   2   8
BRANCH   5  12
HETATM   12  C7  UNL     1     -32.356 -15.073  19.198  1.00  0.00     0.391 C 
HETATM   13  F1  UNL     1     -33.072 -14.665  18.104  1.00  0.00    -0.171 F 
HETATM   14  F2  UNL     1     -31.233 -15.805  18.826  1.00  0.00    -0.171 F 
HETATM   15  F3  UNL     1     -33.066 -15.840  20.071  1.00  0.00    -0.171 F 
ENDBRANCH   5  12
TORSDOF 2
ENDMDL
MODEL 5
REMARK VINA RESULT: -6.817161807      1.386      2.366
REMARK  2 active torsions:
REMARK  status: ('A' for Active; 'I' for Inactive)
REMARK    1  A    between atoms: C2_2  and  C3_3 
REMARK    2  A    between atoms: C6_9  and  C7_10 
ROOT
HETATM    1  C1  UNL     1     -27.817 -12.713  19.787  1.00  0.00     0.021 C 
HETATM    2  C2  UNL     1     -29.274 -12.370  20.112  1.00  0.00    -0.013 C 
HETATM    3  C4  UNL     1     -29.696 -13.266  21.231  1.00  0.00     0.015 C 
HETATM    4  C5  UNL     1     -30.614 -14.374  20.819  1.00  0.00     0.014 C 
HETATM    5  C6  UNL     1     -31.790 -13.931  20.013  1.00  0.00     0.093 C 
HETATM    6  C8  UNL     1     -31.510 -12.816  19.063  1.00  0.00     0.014 C 
HETATM    7  C9  UNL     1     -30.059 -12.528  18.856  1.00  0.00     0.015 C 
ENDROOT
BRANCH   2   8
HETATM    8  C3  UNL     1     -29.284 -10.948  20.540  1.00  0.00     0.062 C 
HETATM    9  N1  UNL     1     -28.184 -10.434  20.919  1.00  0.00    -0.410 N 
ATOM     10  H12 UNL     1     -27.331 -10.994  20.923  1.00  0.00     0.155 HD
ATOM     11  H11 UNL     1     -28.191  -9.457  21.213  1.00  0.00     0.155 HD
ENDBRANCH   2   8
BRANCH   5  12
HETATM   12  C7  UNL     1     -32.300 -15.156  19.248  1.00  0.00     0.391 C 
HETATM   13  F1  UNL     1     -33.059 -15.953  20.064  1.00  0.00    -0.171 F 
HETATM   14  F2  UNL     1     -33.049 -14.657  18.187  1.00  0.00    -0.171 F 
HETATM   15  F3  UNL     1     -31.214 -15.782  18.716  1.00  0.00    -0.171 F 
ENDBRANCH   5  12
TORSDOF 2
ENDMDL
