MODEL 1
REMARK VINA RESULT: -8.165674825      0.000      0.000
REMARK  1 active torsions:
REMARK  status: ('A' for Active; 'I' for Inactive)
REMARK    1  A    between atoms: C8_8  and  C9_9 
ROOT
HETATM    1  C1  UNL     1     -28.696 -11.333  20.453  1.00  0.00     0.046 C 
HETATM    2  C2  UNL     1     -29.756 -12.384  20.459  1.00  0.00     0.123 C 
HETATM    3  C3  UNL     1     -29.175 -13.750  20.807  1.00  0.00     0.038 C 
HETATM    4  C4  UNL     1     -29.784 -14.833  19.962  1.00  0.00     0.003 C 
HETATM    5  C5  UNL     1     -31.274 -14.651  19.767  1.00  0.00     0.007 C 
HETATM    6  C6  UNL     1     -31.622 -13.233  19.349  1.00  0.00     0.028 C 
HETATM    7  C7  UNL     1     -30.314 -12.533  19.038  1.00  0.00     0.045 C 
HETATM    8  C8  UNL     1     -32.077 -12.501  20.577  1.00  0.00     0.297 C 
HETATM    9  N1  UNL     1     -30.902 -12.057  21.254  1.00  0.00    -0.053 N 
ATOM     10  H11 UNL     1     -30.941 -11.066  21.491  1.00  0.00     0.278 HD
ATOM     11  H12 UNL     1     -30.836 -12.428  22.201  1.00  0.00     0.278 HD
ENDROOT
BRANCH   8  12
HETATM   12  C9  UNL     1     -33.056 -11.399  20.268  1.00  0.00     0.415 C 
HETATM   13  F1  UNL     1     -33.572 -11.462  19.006  1.00  0.00    -0.169 F 
HETATM   14  F2  UNL     1     -34.105 -11.492  21.167  1.00  0.00    -0.169 F 
HETATM   15  F3  UNL     1     -32.419 -10.188  20.411  1.00  0.00    -0.169 F 
ENDBRANCH   8  12
TORSDOF 1
ENDMDL
MODEL 2
REMARK VINA RESULT: -8.062344619      0.075      1.078
REMARK  1 active torsions:
REMARK  status: ('A' for Active; 'I' for Inactive)
REMARK    1  A    between atoms: C8_8  and  C9_9 
ROOT
HETATM    1  C1  UNL     1     -28.673 -11.302  20.519  1.00  0.00     0.046 C 
HETATM    2  C2  UNL     1     -29.724 -12.361  20.492  1.00  0.00     0.123 C 
HETATM    3  C3  UNL     1     -29.139 -13.727  20.833  1.00  0.00     0.038 C 
HETATM    4  C4  UNL     1     -29.724 -14.803  19.965  1.00  0.00     0.003 C 
HETATM    5  C5  UNL     1     -31.211 -14.631  19.745  1.00  0.00     0.007 C 
HETATM    6  C6  UNL     1     -31.563 -13.210  19.339  1.00  0.00     0.028 C 
HETATM    7  C7  UNL     1     -30.255 -12.496  19.059  1.00  0.00     0.045 C 
HETATM    8  C8  UNL     1     -32.046 -12.498  20.567  1.00  0.00     0.297 C 
HETATM    9  N1  UNL     1     -30.887 -12.053  21.270  1.00  0.00    -0.053 N 
ATOM     10  H11 UNL     1     -30.938 -11.065  21.519  1.00  0.00     0.278 HD
ATOM     11  H12 UNL     1     -30.834 -12.435  22.214  1.00  0.00     0.278 HD
ENDROOT
BRANCH   8  12
HETATM   12  C9  UNL     1     -33.028 -11.399  20.254  1.00  0.00     0.415 C 
HETATM   13  F1  UNL     1     -32.501 -10.145  20.364  1.00  0.00    -0.169 F 
HETATM   14  F2  UNL     1     -33.461 -11.570  18.951  1.00  0.00    -0.169 F 
HETATM   15  F3  UNL     1     -34.091 -11.496  21.121  1.00  0.00    -0.169 F 
ENDBRANCH   8  12
TORSDOF 1
ENDMDL
MODEL 3
REMARK VINA RESULT: -8.054633841      0.087      1.066
REMARK  1 active torsions:
REMARK  status: ('A' for Active; 'I' for Inactive)
REMARK    1  A    between atoms: C8_8  and  C9_9 
ROOT
HETATM    1  C1  UNL     1     -28.676 -11.294  20.479  1.00  0.00     0.046 C 
HETATM    2  C2  UNL     1     -29.717 -12.364  20.475  1.00  0.00     0.123 C 
HETATM    3  C3  UNL     1     -29.116 -13.719  20.832  1.00  0.00     0.038 C 
HETATM    4  C4  UNL     1     -29.696 -14.814  19.983  1.00  0.00     0.003 C 
HETATM    5  C5  UNL     1     -31.186 -14.659  19.770  1.00  0.00     0.007 C 
HETATM    6  C6  UNL     1     -31.555 -13.248  19.345  1.00  0.00     0.028 C 
HETATM    7  C7  UNL     1     -30.256 -12.525  19.047  1.00  0.00     0.045 C 
HETATM    8  C8  UNL     1     -32.037 -12.522  20.566  1.00  0.00     0.297 C 
HETATM    9  N1  UNL     1     -30.877 -12.056  21.256  1.00  0.00    -0.053 N 
ATOM     10  H11 UNL     1     -30.936 -11.065  21.490  1.00  0.00     0.278 HD
ATOM     11  H12 UNL     1     -30.815 -12.424  22.205  1.00  0.00     0.278 HD
ENDROOT
BRANCH   8  12
HETATM   12  C9  UNL     1     -33.031 -11.438  20.244  1.00  0.00     0.415 C 
HETATM   13  F1  UNL     1     -34.140 -11.455  21.040  1.00  0.00    -0.169 F 
HETATM   14  F2  UNL     1     -32.402 -10.216  20.409  1.00  0.00    -0.169 F 
HETATM   15  F3  UNL     1     -33.438 -11.585  18.938  1.00  0.00    -0.169 F 
ENDBRANCH   8  12
TORSDOF 1
ENDMDL
MODEL 4
REMARK VINA RESULT: -7.248783848      0.927      1.562
REMARK  1 active torsions:
REMARK  status: ('A' for Active; 'I' for Inactive)
REMARK    1  A    between atoms: C8_8  and  C9_9 
ROOT
HETATM    1  C1  UNL     1     -28.834 -12.764  19.778  1.00  0.00     0.046 C 
HETATM    2  C2  UNL     1     -30.176 -13.398  19.943  1.00  0.00     0.123 C 
HETATM    3  C3  UNL     1     -30.059 -14.914  20.049  1.00  0.00     0.038 C 
HETATM    4  C4  UNL     1     -31.154 -15.601  19.285  1.00  0.00     0.003 C 
HETATM    5  C5  UNL     1     -32.493 -14.914  19.443  1.00  0.00     0.007 C 
HETATM    6  C6  UNL     1     -32.391 -13.415  19.220  1.00  0.00     0.028 C 
HETATM    7  C7  UNL     1     -31.003 -13.144  18.676  1.00  0.00     0.045 C 
HETATM    8  C8  UNL     1     -32.325 -12.764  20.570  1.00  0.00     0.297 C 
HETATM    9  N1  UNL     1     -30.965 -12.834  20.997  1.00  0.00    -0.053 N 
ATOM     10  H11 UNL     1     -30.608 -11.931  21.310  1.00  0.00     0.278 HD
ATOM     11  H12 UNL     1     -30.859 -13.341  21.875  1.00  0.00     0.278 HD
ENDROOT
BRANCH   8  12
HETATM   12  C9  UNL     1     -32.892 -11.368  20.571  1.00  0.00     0.415 C 
HETATM   13  F1  UNL     1     -33.573 -11.054  21.712  1.00  0.00    -0.169 F 
HETATM   14  F2  UNL     1     -31.841 -10.478  20.439  1.00  0.00    -0.169 F 
HETATM   15  F3  UNL     1     -33.755 -11.240  19.507  1.00  0.00    -0.169 F 
ENDBRANCH   8  12
TORSDOF 1
ENDMDL
MODEL 5
REMARK VINA RESULT: -7.014475742      2.354      3.637
REMARK  1 active torsions:
REMARK  status: ('A' for Active; 'I' for Inactive)
REMARK    1  A    between atoms: C8_8  and  C9_9 
ROOT
HETATM    1  C1  UNL     1     -33.078 -11.905  18.694  1.00  0.00     0.046 C 
HETATM    2  C2  UNL     1     -32.038 -12.938  18.978  1.00  0.00     0.123 C 
HETATM    3  C3  UNL     1     -32.462 -14.305  18.452  1.00  0.00     0.038 C 
HETATM    4  C4  UNL     1     -32.101 -15.397  19.417  1.00  0.00     0.003 C 
HETATM    5  C5  UNL     1     -30.737 -15.196  20.041  1.00  0.00     0.007 C 
HETATM    6  C6  UNL     1     -30.558 -13.783  20.568  1.00  0.00     0.028 C 
HETATM    7  C7  UNL     1     -31.915 -13.111  20.497  1.00  0.00     0.045 C 
HETATM    8  C8  UNL     1     -29.782 -13.015  19.539  1.00  0.00     0.297 C 
HETATM    9  N1  UNL     1     -30.719 -12.574  18.558  1.00  0.00    -0.053 N 
ATOM     10  H11 UNL     1     -30.635 -11.577  18.360  1.00  0.00     0.278 HD
ATOM     11  H12 UNL     1     -30.498 -12.923  17.625  1.00  0.00     0.278 HD
ENDROOT
BRANCH   8  12
HETATM   12  C9  UNL     1     -28.960 -11.904  20.140  1.00  0.00     0.415 C 
HETATM   13  F1  UNL     1     -29.444 -11.448  21.332  1.00  0.00    -0.169 F 
HETATM   14  F2  UNL     1     -27.679 -12.384  20.351  1.00  0.00    -0.169 F 
HETATM   15  F3  UNL     1     -28.929 -10.849  19.257  1.00  0.00    -0.169 F 
ENDBRANCH   8  12
TORSDOF 1
ENDMDL
