MODEL 1
REMARK VINA RESULT: -6.761368546      0.000      0.000
REMARK  1 active torsions:
REMARK  status: ('A' for Active; 'I' for Inactive)
REMARK    1  A    between atoms: C5_5  and  C6_6 
ROOT
HETATM    1  C1  UNL     1     -29.024 -11.340  20.260  1.00  0.00     0.012 C 
HETATM    2  C2  UNL     1     -29.718 -12.642  20.067  1.00  0.00     0.008 C 
HETATM    3  C3  UNL     1     -29.631 -13.514  21.327  1.00  0.00     0.009 C 
HETATM    4  C4  UNL     1     -29.984 -14.910  20.906  1.00  0.00     0.034 C 
HETATM    5  C5  UNL     1     -30.914 -14.958  19.731  1.00  0.00     0.185 C 
HETATM    6  N1  UNL     1     -31.743 -13.830  19.566  1.00  0.00    -0.401 N 
ATOM      7  H1  UNL     1     -32.756 -13.917  19.477  1.00  0.00     0.154 HD
HETATM    8  C7  UNL     1     -31.095 -12.562  19.528  1.00  0.00     0.022 C 
HETATM    9  C8  UNL     1     -31.008 -12.137  18.059  1.00  0.00     0.038 C 
HETATM   10  C9  UNL     1     -31.982 -11.562  20.213  1.00  0.00     0.038 C 
ENDROOT
BRANCH   5  11
HETATM   11  C6  UNL     1     -31.810 -16.183  19.926  1.00  0.00     0.407 C 
HETATM   12  F1  UNL     1     -33.083 -15.737  20.273  1.00  0.00    -0.169 F 
HETATM   13  F2  UNL     1     -31.924 -16.841  18.721  1.00  0.00    -0.169 F 
HETATM   14  F3  UNL     1     -31.373 -16.977  20.945  1.00  0.00    -0.169 F 
ENDBRANCH   5  11
TORSDOF 1
ENDMDL
MODEL 2
REMARK VINA RESULT: -6.731434696      0.062      1.079
REMARK  1 active torsions:
REMARK  status: ('A' for Active; 'I' for Inactive)
REMARK    1  A    between atoms: C5_5  and  C6_6 
ROOT
HETATM    1  C1  UNL     1     -29.023 -11.363  20.225  1.00  0.00     0.012 C 
HETATM    2  C2  UNL     1     -29.730 -12.658  20.030  1.00  0.00     0.008 C 
HETATM    3  C3  UNL     1     -29.666 -13.525  21.294  1.00  0.00     0.009 C 
HETATM    4  C4  UNL     1     -30.031 -14.919  20.875  1.00  0.00     0.034 C 
HETATM    5  C5  UNL     1     -30.949 -14.961  19.690  1.00  0.00     0.185 C 
HETATM    6  N1  UNL     1     -31.763 -13.824  19.512  1.00  0.00    -0.401 N 
ATOM      7  H1  UNL     1     -32.775 -13.900  19.413  1.00  0.00     0.154 HD
HETATM    8  C7  UNL     1     -31.100 -12.564  19.476  1.00  0.00     0.022 C 
HETATM    9  C8  UNL     1     -30.993 -12.145  18.007  1.00  0.00     0.038 C 
HETATM   10  C9  UNL     1     -31.983 -11.551  20.148  1.00  0.00     0.038 C 
ENDROOT
BRANCH   5  11
HETATM   11  C6  UNL     1     -31.861 -16.174  19.879  1.00  0.00     0.407 C 
HETATM   12  F1  UNL     1     -31.332 -16.959  20.901  1.00  0.00    -0.169 F 
HETATM   13  F2  UNL     1     -33.096 -15.736  20.302  1.00  0.00    -0.169 F 
HETATM   14  F3  UNL     1     -31.909 -16.954  18.761  1.00  0.00    -0.169 F 
ENDBRANCH   5  11
TORSDOF 1
ENDMDL
MODEL 3
REMARK VINA RESULT: -6.624742070      0.506      1.183
REMARK  1 active torsions:
REMARK  status: ('A' for Active; 'I' for Inactive)
REMARK    1  A    between atoms: C5_5  and  C6_6 
ROOT
HETATM    1  C1  UNL     1     -29.502 -11.161  20.040  1.00  0.00     0.012 C 
HETATM    2  C2  UNL     1     -30.130 -12.507  19.939  1.00  0.00     0.008 C 
HETATM    3  C3  UNL     1     -29.615 -13.447  21.038  1.00  0.00     0.009 C 
HETATM    4  C4  UNL     1     -29.978 -14.840  20.612  1.00  0.00     0.034 C 
HETATM    5  C5  UNL     1     -31.207 -14.897  19.755  1.00  0.00     0.185 C 
HETATM    6  N1  UNL     1     -32.125 -13.842  19.937  1.00  0.00    -0.401 N 
ATOM      7  H1  UNL     1     -33.109 -14.017  20.136  1.00  0.00     0.154 HD
HETATM    8  C7  UNL     1     -31.607 -12.520  19.829  1.00  0.00     0.022 C 
HETATM    9  C8  UNL     1     -31.985 -11.993  18.441  1.00  0.00     0.038 C 
HETATM   10  C9  UNL     1     -32.320 -11.653  20.827  1.00  0.00     0.038 C 
ENDROOT
BRANCH   5  11
HETATM   11  C6  UNL     1     -31.918 -16.209  20.088  1.00  0.00     0.407 C 
HETATM   12  F1  UNL     1     -31.942 -16.993  18.937  1.00  0.00    -0.169 F 
HETATM   13  F2  UNL     1     -31.174 -16.889  21.026  1.00  0.00    -0.169 F 
HETATM   14  F3  UNL     1     -33.215 -16.006  20.459  1.00  0.00    -0.169 F 
ENDBRANCH   5  11
TORSDOF 1
ENDMDL
MODEL 4
REMARK VINA RESULT: -6.374783300      3.396      4.367
REMARK  1 active torsions:
REMARK  status: ('A' for Active; 'I' for Inactive)
REMARK    1  A    between atoms: C5_5  and  C6_6 
ROOT
HETATM    1  C1  UNL     1     -32.681 -15.094  19.929  1.00  0.00     0.012 C 
HETATM    2  C2  UNL     1     -31.615 -14.093  20.204  1.00  0.00     0.008 C 
HETATM    3  C3  UNL     1     -30.238 -14.607  19.763  1.00  0.00     0.009 C 
HETATM    4  C4  UNL     1     -29.220 -13.733  20.437  1.00  0.00     0.034 C 
HETATM    5  C5  UNL     1     -29.719 -12.346  20.711  1.00  0.00     0.185 C 
HETATM    6  N1  UNL     1     -30.739 -11.885  19.854  1.00  0.00    -0.401 N 
ATOM      7  H1  UNL     1     -30.659 -11.001  19.352  1.00  0.00     0.154 HD
HETATM    8  C7  UNL     1     -31.886 -12.718  19.723  1.00  0.00     0.022 C 
HETATM    9  C8  UNL     1     -32.989 -12.116  20.600  1.00  0.00     0.038 C 
HETATM   10  C9  UNL     1     -32.371 -12.632  18.304  1.00  0.00     0.038 C 
ENDROOT
BRANCH   5  11
HETATM   11  C6  UNL     1     -28.518 -11.408  20.569  1.00  0.00     0.407 C 
HETATM   12  F1  UNL     1     -27.379 -12.187  20.382  1.00  0.00    -0.169 F 
HETATM   13  F2  UNL     1     -28.683 -10.651  19.430  1.00  0.00    -0.169 F 
HETATM   14  F3  UNL     1     -28.315 -10.666  21.695  1.00  0.00    -0.169 F 
ENDBRANCH   5  11
TORSDOF 1
ENDMDL
MODEL 5
REMARK VINA RESULT: -6.313439063      3.414      4.390
REMARK  1 active torsions:
REMARK  status: ('A' for Active; 'I' for Inactive)
REMARK    1  A    between atoms: C5_5  and  C6_6 
ROOT
HETATM    1  C1  UNL     1     -32.647 -15.100  19.937  1.00  0.00     0.012 C 
HETATM    2  C2  UNL     1     -31.586 -14.091  20.202  1.00  0.00     0.008 C 
HETATM    3  C3  UNL     1     -30.205 -14.608  19.776  1.00  0.00     0.009 C 
HETATM    4  C4  UNL     1     -29.193 -13.721  20.441  1.00  0.00     0.034 C 
HETATM    5  C5  UNL     1     -29.697 -12.332  20.693  1.00  0.00     0.185 C 
HETATM    6  N1  UNL     1     -30.714 -11.887  19.824  1.00  0.00    -0.401 N 
ATOM      7  H1  UNL     1     -30.634 -11.010  19.310  1.00  0.00     0.154 HD
HETATM    8  C7  UNL     1     -31.859 -12.725  19.700  1.00  0.00     0.022 C 
HETATM    9  C8  UNL     1     -32.968 -12.113  20.562  1.00  0.00     0.038 C 
HETATM   10  C9  UNL     1     -32.336 -12.661  18.277  1.00  0.00     0.038 C 
ENDROOT
BRANCH   5  11
HETATM   11  C6  UNL     1     -28.499 -11.392  20.542  1.00  0.00     0.407 C 
HETATM   12  F1  UNL     1     -28.387 -10.642  21.710  1.00  0.00    -0.169 F 
HETATM   13  F2  UNL     1     -27.354 -12.151  20.436  1.00  0.00    -0.169 F 
HETATM   14  F3  UNL     1     -28.669 -10.510  19.516  1.00  0.00    -0.169 F 
ENDBRANCH   5  11
TORSDOF 1
ENDMDL
