MODEL 1
REMARK VINA RESULT: -6.960580119      0.000      0.000
REMARK  2 active torsions:
REMARK  status: ('A' for Active; 'I' for Inactive)
REMARK    1  A    between atoms: C6_6  and  C7_7 
REMARK    2  A    between atoms: C8_11  and  N1_12 
ROOT
HETATM    1  C1  UNL     1     -33.459 -11.679  21.165  1.00  0.00     0.015 C 
HETATM    2  C2  UNL     1     -32.766 -11.988  19.862  1.00  0.00    -0.046 C 
HETATM    3  C3  UNL     1     -33.687 -11.444  18.757  1.00  0.00     0.015 C 
HETATM    4  C4  UNL     1     -32.562 -13.428  19.600  1.00  0.00     0.009 C 
HETATM    5  C5  UNL     1     -31.304 -14.024  20.126  1.00  0.00     0.016 C 
HETATM    6  C6  UNL     1     -30.097 -13.126  19.928  1.00  0.00     0.124 C 
HETATM    7  C8  UNL     1     -30.430 -11.850  20.612  1.00  0.00     0.196 C 
HETATM    8  C9  UNL     1     -31.489 -11.180  19.747  1.00  0.00     0.042 C 
ENDROOT
BRANCH   6   9
HETATM    9  C7  UNL     1     -28.855 -13.804  20.401  1.00  0.00     0.393 C 
HETATM   10  F1  UNL     1     -27.699 -13.244  19.973  1.00  0.00    -0.171 F 
HETATM   11  F2  UNL     1     -28.892 -15.113  19.923  1.00  0.00    -0.171 F 
HETATM   12  F3  UNL     1     -28.912 -13.875  21.790  1.00  0.00    -0.171 F 
ENDBRANCH   6   9
BRANCH   7  13
HETATM   13  N1  UNL     1     -29.338 -10.962  20.843  1.00  0.00    -0.074 N 
ATOM     14  H13 UNL     1     -28.633 -11.082  20.115  1.00  0.00     0.274 HD
ATOM     15  H12 UNL     1     -29.628 -10.001  20.660  1.00  0.00     0.274 HD
ATOM     16  H11 UNL     1     -28.899 -11.023  21.762  1.00  0.00     0.274 HD
ENDBRANCH   7  13
TORSDOF 2
ENDMDL
MODEL 2
REMARK VINA RESULT: -6.815830191      0.085      1.069
REMARK  2 active torsions:
REMARK  status: ('A' for Active; 'I' for Inactive)
REMARK    1  A    between atoms: C6_6  and  C7_7 
REMARK    2  A    between atoms: C8_11  and  N1_12 
ROOT
HETATM    1  C1  UNL     1     -33.471 -11.677  21.137  1.00  0.00     0.015 C 
HETATM    2  C2  UNL     1     -32.759 -12.010  19.850  1.00  0.00    -0.046 C 
HETATM    3  C3  UNL     1     -33.649 -11.459  18.723  1.00  0.00     0.015 C 
HETATM    4  C4  UNL     1     -32.577 -13.457  19.605  1.00  0.00     0.009 C 
HETATM    5  C5  UNL     1     -31.342 -14.071  20.159  1.00  0.00     0.016 C 
HETATM    6  C6  UNL     1     -30.115 -13.198  19.977  1.00  0.00     0.124 C 
HETATM    7  C8  UNL     1     -30.435 -11.910  20.644  1.00  0.00     0.196 C 
HETATM    8  C9  UNL     1     -31.465 -11.228  19.753  1.00  0.00     0.042 C 
ENDROOT
BRANCH   6   9
HETATM    9  C7  UNL     1     -28.894 -13.895  20.479  1.00  0.00     0.393 C 
HETATM   10  F1  UNL     1     -28.751 -13.900  21.825  1.00  0.00    -0.171 F 
HETATM   11  F2  UNL     1     -27.791 -13.235  19.939  1.00  0.00    -0.171 F 
HETATM   12  F3  UNL     1     -28.895 -15.184  19.954  1.00  0.00    -0.171 F 
ENDBRANCH   6   9
BRANCH   7  13
HETATM   13  N1  UNL     1     -29.331 -11.041  20.888  1.00  0.00    -0.074 N 
ATOM     14  H13 UNL     1     -28.466 -11.484  20.576  1.00  0.00     0.274 HD
ATOM     15  H12 UNL     1     -29.369 -10.245  20.250  1.00  0.00     0.274 HD
ATOM     16  H11 UNL     1     -29.225 -10.711  21.848  1.00  0.00     0.274 HD
ENDBRANCH   7  13
TORSDOF 2
ENDMDL
MODEL 3
REMARK VINA RESULT: -6.205536524      2.758      3.910
REMARK  2 active torsions:
REMARK  status: ('A' for Active; 'I' for Inactive)
REMARK    1  A    between atoms: C6_6  and  C7_7 
REMARK    2  A    between atoms: C8_11  and  N1_12 
ROOT
HETATM    1  C1  UNL     1     -29.032 -11.988  18.383  1.00  0.00     0.015 C 
HETATM    2  C2  UNL     1     -29.533 -12.289  19.773  1.00  0.00    -0.046 C 
HETATM    3  C3  UNL     1     -29.070 -11.114  20.650  1.00  0.00     0.015 C 
HETATM    4  C4  UNL     1     -28.988 -13.529  20.367  1.00  0.00     0.009 C 
HETATM    5  C5  UNL     1     -29.740 -14.781  20.091  1.00  0.00     0.016 C 
HETATM    6  C6  UNL     1     -31.244 -14.598  20.177  1.00  0.00     0.124 C 
HETATM    7  C8  UNL     1     -31.575 -13.530  19.199  1.00  0.00     0.196 C 
HETATM    8  C9  UNL     1     -31.047 -12.236  19.804  1.00  0.00     0.042 C 
ENDROOT
BRANCH   6   9
HETATM    9  C7  UNL     1     -31.944 -15.899  19.969  1.00  0.00     0.393 C 
HETATM   10  F1  UNL     1     -33.239 -15.922  20.363  1.00  0.00    -0.171 F 
HETATM   11  F2  UNL     1     -31.259 -16.860  20.712  1.00  0.00    -0.171 F 
HETATM   12  F3  UNL     1     -31.805 -16.247  18.628  1.00  0.00    -0.171 F 
ENDBRANCH   6   9
BRANCH   7  13
HETATM   13  N1  UNL     1     -32.955 -13.397  18.862  1.00  0.00    -0.074 N 
ATOM     14  H13 UNL     1     -33.206 -14.087  18.153  1.00  0.00     0.274 HD
ATOM     15  H12 UNL     1     -33.534 -13.715  19.640  1.00  0.00     0.274 HD
ATOM     16  H11 UNL     1     -33.254 -12.469  18.563  1.00  0.00     0.274 HD
ENDBRANCH   7  13
TORSDOF 2
ENDMDL
MODEL 4
REMARK VINA RESULT: -6.107000467      2.783      3.846
REMARK  2 active torsions:
REMARK  status: ('A' for Active; 'I' for Inactive)
REMARK    1  A    between atoms: C6_6  and  C7_7 
REMARK    2  A    between atoms: C8_11  and  N1_12 
ROOT
HETATM    1  C1  UNL     1     -29.050 -12.022  18.396  1.00  0.00     0.015 C 
HETATM    2  C2  UNL     1     -29.573 -12.320  19.779  1.00  0.00    -0.046 C 
HETATM    3  C3  UNL     1     -29.169 -11.119  20.649  1.00  0.00     0.015 C 
HETATM    4  C4  UNL     1     -29.004 -13.533  20.403  1.00  0.00     0.009 C 
HETATM    5  C5  UNL     1     -29.710 -14.813  20.128  1.00  0.00     0.016 C 
HETATM    6  C6  UNL     1     -31.220 -14.676  20.177  1.00  0.00     0.124 C 
HETATM    7  C8  UNL     1     -31.561 -13.633  19.176  1.00  0.00     0.196 C 
HETATM    8  C9  UNL     1     -31.089 -12.315  19.774  1.00  0.00     0.042 C 
ENDROOT
BRANCH   6   9
HETATM    9  C7  UNL     1     -31.874 -16.002  19.971  1.00  0.00     0.393 C 
HETATM   10  F1  UNL     1     -31.916 -16.427  18.687  1.00  0.00    -0.171 F 
HETATM   11  F2  UNL     1     -33.188 -15.888  20.423  1.00  0.00    -0.171 F 
HETATM   12  F3  UNL     1     -31.237 -16.922  20.800  1.00  0.00    -0.171 F 
ENDBRANCH   6   9
BRANCH   7  13
HETATM   13  N1  UNL     1     -32.936 -13.550  18.805  1.00  0.00    -0.074 N 
ATOM     14  H13 UNL     1     -33.333 -12.672  19.141  1.00  0.00     0.274 HD
ATOM     15  H12 UNL     1     -33.016 -13.413  17.797  1.00  0.00     0.274 HD
ATOM     16  H11 UNL     1     -33.526 -14.330  19.096  1.00  0.00     0.274 HD
ENDBRANCH   7  13
TORSDOF 2
ENDMDL
MODEL 5
REMARK VINA RESULT: -5.955920377      1.542      2.499
REMARK  2 active torsions:
REMARK  status: ('A' for Active; 'I' for Inactive)
REMARK    1  A    between atoms: C6_6  and  C7_7 
REMARK    2  A    between atoms: C8_11  and  N1_12 
ROOT
HETATM    1  C1  UNL     1     -33.482 -11.474  19.064  1.00  0.00     0.015 C 
HETATM    2  C2  UNL     1     -32.941 -11.949  20.388  1.00  0.00    -0.046 C 
HETATM    3  C3  UNL     1     -34.103 -11.823  21.387  1.00  0.00     0.015 C 
HETATM    4  C4  UNL     1     -31.814 -11.149  20.915  1.00  0.00     0.009 C 
HETATM    5  C5  UNL     1     -30.452 -11.566  20.489  1.00  0.00     0.016 C 
HETATM    6  C6  UNL     1     -30.267 -13.072  20.490  1.00  0.00     0.124 C 
HETATM    7  C8  UNL     1     -31.314 -13.605  19.582  1.00  0.00     0.196 C 
HETATM    8  C9  UNL     1     -32.633 -13.432  20.323  1.00  0.00     0.042 C 
ENDROOT
BRANCH   6   9
HETATM    9  C7  UNL     1     -28.863 -13.429  20.131  1.00  0.00     0.393 C 
HETATM   10  F1  UNL     1     -28.527 -14.721  20.353  1.00  0.00    -0.171 F 
HETATM   11  F2  UNL     1     -28.023 -12.633  20.910  1.00  0.00    -0.171 F 
HETATM   12  F3  UNL     1     -28.657 -13.061  18.804  1.00  0.00    -0.171 F 
ENDBRANCH   6   9
BRANCH   7  13
HETATM   13  N1  UNL     1     -31.150 -14.960  19.166  1.00  0.00    -0.074 N 
ATOM     14  H13 UNL     1     -30.179 -15.124  18.899  1.00  0.00     0.274 HD
ATOM     15  H12 UNL     1     -31.226 -15.582  19.971  1.00  0.00     0.274 HD
ATOM     16  H11 UNL     1     -31.772 -15.278  18.422  1.00  0.00     0.274 HD
ENDBRANCH   7  13
TORSDOF 2
ENDMDL
