MODEL 1
REMARK VINA RESULT: -6.953613975      0.000      0.000
REMARK  5 active torsions:
REMARK  status: ('A' for Active; 'I' for Inactive)
REMARK    1  A    between atoms: O1_2  and  C2_3 
REMARK    2  A    between atoms: C2_3  and  C3_4 
REMARK    3  A    between atoms: C6_9  and  C7_10 
REMARK    4  A    between atoms: C7_10  and  C8_15 
REMARK    5  A    between atoms: N2_11  and  O2_13 
ROOT
HETATM    1  C3  UNL     1     -13.628  18.768 -12.581  1.00  0.00     0.017 A 
HETATM    2  C4  UNL     1     -12.593  18.299 -11.808  1.00  0.00     0.045 A 
HETATM    3  C5  UNL     1     -12.773  17.396 -10.747  1.00  0.00     0.060 A 
HETATM    4  N1  UNL     1     -11.710  16.974 -10.030  1.00  0.00    -0.352 N 
ATOM      5  H1  UNL     1     -10.783  17.322 -10.274  1.00  0.00     0.166 HD
HETATM    6  C6  UNL     1     -11.828  16.111  -9.006  1.00  0.00     0.073 A 
HETATM    7  C14 UNL     1     -13.085  15.658  -8.700  1.00  0.00     0.120 A 
HETATM    8  N3  UNL     1     -14.184  16.058  -9.398  1.00  0.00    -0.362 N 
ATOM      9  H3  UNL     1     -15.111  15.709  -9.155  1.00  0.00     0.165 HD
HETATM   10  C15 UNL     1     -14.020  16.926 -10.419  1.00  0.00     0.062 A 
HETATM   11  C16 UNL     1     -15.070  17.381 -11.173  1.00  0.00     0.074 A 
HETATM   12  C17 UNL     1     -14.883  18.276 -12.223  1.00  0.00     0.128 A 
HETATM   13  F1  UNL     1     -15.982  18.681 -12.872  1.00  0.00    -0.205 F 
ENDROOT
BRANCH   6  14
HETATM   14  C7  UNL     1     -10.692  15.665  -8.220  1.00  0.00     0.064 C 
HETATM   15  N2  UNL     1     -10.167  16.538  -7.403  1.00  0.00    -0.271 N 
ATOM     16  H2  UNL     1      -9.369  16.238  -6.845  1.00  0.00     0.194 HD
BRANCH  15  17
HETATM   17  O2  UNL     1     -10.599  17.806  -7.239  1.00  0.00    -0.290 OA
ATOM     18  H2  UNL     1     -10.356  18.542  -7.789  1.00  0.00     0.244 HD
ENDBRANCH  15  17
BRANCH  14  19
HETATM   19  C8  UNL     1     -10.106  14.299  -8.330  1.00  0.00     0.040 C 
HETATM   20  C9  UNL     1     -11.156  13.280  -8.215  1.00  0.00     0.011 C 
HETATM   21  C10 UNL     1     -11.496  12.519  -9.456  1.00  0.00     0.001 C 
HETATM   22  C11 UNL     1     -10.202  12.113 -10.129  1.00  0.00     0.000 C 
HETATM   23  C12 UNL     1      -9.635  13.429 -10.653  1.00  0.00     0.001 C 
HETATM   24  C13 UNL     1      -9.182  14.223  -9.491  1.00  0.00     0.011 C 
ENDBRANCH  14  19
ENDBRANCH   6  14
BRANCH   1  25
HETATM   25  C2  UNL     1     -13.457  19.746 -13.675  1.00  0.00     0.090 C 
HETATM   26  C18 UNL     1     -13.871  19.120 -15.025  1.00  0.00     0.043 C 
HETATM   27  C19 UNL     1     -13.944  20.283 -15.994  1.00  0.00     0.003 C 
HETATM   28  C20 UNL     1     -12.511  20.691 -16.285  1.00  0.00     0.000 C 
HETATM   29  C21 UNL     1     -11.548  20.066 -15.299  1.00  0.00     0.003 C 
HETATM   30  C22 UNL     1     -12.017  20.180 -13.887  1.00  0.00     0.043 C 
BRANCH  25  31
HETATM   31  O1  UNL     1     -14.290  20.824 -13.547  1.00  0.00    -0.380 OA
HETATM   32  C1  UNL     1     -13.988  21.818 -12.686  1.00  0.00     0.203 C 
ENDBRANCH  25  31
ENDBRANCH   1  25
TORSDOF 5
ENDMDL
MODEL 2
REMARK VINA RESULT: -6.626285885      2.934      7.799
REMARK  5 active torsions:
REMARK  status: ('A' for Active; 'I' for Inactive)
REMARK    1  A    between atoms: O1_2  and  C2_3 
REMARK    2  A    between atoms: C2_3  and  C3_4 
REMARK    3  A    between atoms: C6_9  and  C7_10 
REMARK    4  A    between atoms: C7_10  and  C8_15 
REMARK    5  A    between atoms: N2_11  and  O2_13 
ROOT
HETATM    1  C3  UNL     1     -10.309  16.686  -9.518  1.00  0.00     0.017 A 
HETATM    2  C4  UNL     1     -10.978  16.998 -10.678  1.00  0.00     0.045 A 
HETATM    3  C5  UNL     1     -10.863  18.241 -11.322  1.00  0.00     0.060 A 
HETATM    4  N1  UNL     1     -11.548  18.479 -12.461  1.00  0.00    -0.352 N 
ATOM      5  H1  UNL     1     -12.144  17.743 -12.838  1.00  0.00     0.166 HD
HETATM    6  C6  UNL     1     -11.473  19.650 -13.116  1.00  0.00     0.073 A 
HETATM    7  C14 UNL     1     -10.664  20.622 -12.586  1.00  0.00     0.120 A 
HETATM    8  N3  UNL     1      -9.955  20.423 -11.441  1.00  0.00    -0.362 N 
ATOM      9  H3  UNL     1      -9.358  21.159 -11.064  1.00  0.00     0.165 HD
HETATM   10  C15 UNL     1     -10.060  19.232 -10.814  1.00  0.00     0.062 A 
HETATM   11  C16 UNL     1      -9.384  18.947  -9.658  1.00  0.00     0.074 A 
HETATM   12  C17 UNL     1      -9.503  17.712  -9.025  1.00  0.00     0.128 A 
HETATM   13  F1  UNL     1      -8.825  17.553  -7.882  1.00  0.00    -0.205 F 
ENDROOT
BRANCH   6  14
HETATM   14  C7  UNL     1     -12.218  19.919 -14.332  1.00  0.00     0.064 C 
HETATM   15  N2  UNL     1     -11.520  20.045 -15.429  1.00  0.00    -0.271 N 
ATOM     16  H2  UNL     1     -12.030  20.235 -16.291  1.00  0.00     0.194 HD
BRANCH  15  17
HETATM   17  O2  UNL     1     -10.177  19.944 -15.511  1.00  0.00    -0.290 OA
ATOM     18  H2  UNL     1      -9.698  19.141 -15.680  1.00  0.00     0.244 HD
ENDBRANCH  15  17
BRANCH  14  19
HETATM   19  C8  UNL     1     -13.699  20.080 -14.368  1.00  0.00     0.040 C 
HETATM   20  C9  UNL     1     -14.343  18.812 -14.731  1.00  0.00     0.011 C 
HETATM   21  C10 UNL     1     -15.104  18.109 -13.653  1.00  0.00     0.001 C 
HETATM   22  C11 UNL     1     -15.947  19.135 -12.926  1.00  0.00     0.000 C 
HETATM   23  C12 UNL     1     -14.925  19.971 -12.162  1.00  0.00     0.001 C 
HETATM   24  C13 UNL     1     -14.174  20.780 -13.147  1.00  0.00     0.011 C 
ENDBRANCH  14  19
ENDBRANCH   6  14
BRANCH   1  25
HETATM   25  C2  UNL     1     -10.450  15.397  -8.812  1.00  0.00     0.090 C 
HETATM   26  C18 UNL     1     -11.501  14.511  -9.515  1.00  0.00     0.043 C 
HETATM   27  C19 UNL     1     -11.336  13.136  -8.899  1.00  0.00     0.003 C 
HETATM   28  C20 UNL     1     -11.913  13.221  -7.497  1.00  0.00     0.000 C 
HETATM   29  C21 UNL     1     -12.133  14.658  -7.076  1.00  0.00     0.003 C 
HETATM   30  C22 UNL     1     -10.964  15.533  -7.389  1.00  0.00     0.043 C 
BRANCH  25  31
HETATM   31  O1  UNL     1      -9.307  14.647  -8.859  1.00  0.00    -0.380 OA
HETATM   32  C1  UNL     1      -8.644  14.491 -10.024  1.00  0.00     0.203 C 
ENDBRANCH  25  31
ENDBRANCH   1  25
TORSDOF 5
ENDMDL
MODEL 3
REMARK VINA RESULT: -6.455919480      1.532      1.936
REMARK  5 active torsions:
REMARK  status: ('A' for Active; 'I' for Inactive)
REMARK    1  A    between atoms: O1_2  and  C2_3 
REMARK    2  A    between atoms: C2_3  and  C3_4 
REMARK    3  A    between atoms: C6_9  and  C7_10 
REMARK    4  A    between atoms: C7_10  and  C8_15 
REMARK    5  A    between atoms: N2_11  and  O2_13 
ROOT
HETATM    1  C3  UNL     1     -13.720  18.841 -12.339  1.00  0.00     0.017 A 
HETATM    2  C4  UNL     1     -12.615  18.066 -12.074  1.00  0.00     0.045 A 
HETATM    3  C5  UNL     1     -12.267  17.639 -10.781  1.00  0.00     0.060 A 
HETATM    4  N1  UNL     1     -11.169  16.877 -10.594  1.00  0.00    -0.352 N 
ATOM      5  H1  UNL     1     -10.604  16.621 -11.404  1.00  0.00     0.166 HD
HETATM    6  C6  UNL     1     -10.792  16.443  -9.379  1.00  0.00     0.073 A 
HETATM    7  C14 UNL     1     -11.569  16.801  -8.308  1.00  0.00     0.120 A 
HETATM    8  N3  UNL     1     -12.685  17.568  -8.453  1.00  0.00    -0.362 N 
ATOM      9  H3  UNL     1     -13.250  17.823  -7.644  1.00  0.00     0.165 HD
HETATM   10  C15 UNL     1     -13.027  17.983  -9.692  1.00  0.00     0.062 A 
HETATM   11  C16 UNL     1     -14.132  18.757  -9.928  1.00  0.00     0.074 A 
HETATM   12  C17 UNL     1     -14.471  19.176 -11.213  1.00  0.00     0.128 A 
HETATM   13  F1  UNL     1     -15.552  19.957 -11.326  1.00  0.00    -0.205 F 
ENDROOT
BRANCH   6  14
HETATM   14  C7  UNL     1      -9.604  15.636  -9.167  1.00  0.00     0.064 C 
HETATM   15  N2  UNL     1      -8.455  16.219  -9.384  1.00  0.00    -0.271 N 
ATOM     16  H2  UNL     1      -7.612  15.664  -9.240  1.00  0.00     0.194 HD
BRANCH  15  17
HETATM   17  O2  UNL     1      -8.296  17.497  -9.785  1.00  0.00    -0.290 OA
ATOM     18  H2  UNL     1      -8.913  17.984 -10.320  1.00  0.00     0.244 HD
ENDBRANCH  15  17
BRANCH  14  19
HETATM   19  C8  UNL     1      -9.648  14.206  -8.750  1.00  0.00     0.040 C 
HETATM   20  C9  UNL     1     -11.030  13.794  -8.477  1.00  0.00     0.011 C 
HETATM   21  C10 UNL     1     -11.656  12.848  -9.451  1.00  0.00     0.001 C 
HETATM   22  C11 UNL     1     -10.653  11.757  -9.759  1.00  0.00     0.000 C 
HETATM   23  C12 UNL     1      -9.582  12.469 -10.581  1.00  0.00     0.001 C 
HETATM   24  C13 UNL     1      -8.840  13.371  -9.675  1.00  0.00     0.011 C 
ENDBRANCH  14  19
ENDBRANCH   6  14
BRANCH   1  25
HETATM   25  C2  UNL     1     -14.076  19.327 -13.687  1.00  0.00     0.090 C 
HETATM   26  C18 UNL     1     -12.810  19.785 -14.444  1.00  0.00     0.043 C 
HETATM   27  C19 UNL     1     -13.254  19.965 -15.883  1.00  0.00     0.003 C 
HETATM   28  C20 UNL     1     -14.093  21.229 -15.919  1.00  0.00     0.000 C 
HETATM   29  C21 UNL     1     -14.479  21.677 -14.526  1.00  0.00     0.003 C 
HETATM   30  C22 UNL     1     -14.974  20.552 -13.678  1.00  0.00     0.043 C 
BRANCH  25  31
HETATM   31  O1  UNL     1     -14.590  18.338 -14.480  1.00  0.00    -0.380 OA
HETATM   32  C1  UNL     1     -15.685  17.653 -14.090  1.00  0.00     0.203 C 
ENDBRANCH  25  31
ENDBRANCH   1  25
TORSDOF 5
ENDMDL
MODEL 4
REMARK VINA RESULT: -6.330930970      1.189      1.388
REMARK  5 active torsions:
REMARK  status: ('A' for Active; 'I' for Inactive)
REMARK    1  A    between atoms: O1_2  and  C2_3 
REMARK    2  A    between atoms: C2_3  and  C3_4 
REMARK    3  A    between atoms: C6_9  and  C7_10 
REMARK    4  A    between atoms: C7_10  and  C8_15 
REMARK    5  A    between atoms: N2_11  and  O2_13 
ROOT
HETATM    1  C3  UNL     1     -13.944  19.075 -13.233  1.00  0.00     0.017 A 
HETATM    2  C4  UNL     1     -13.091  18.925 -12.165  1.00  0.00     0.045 A 
HETATM    3  C5  UNL     1     -13.346  18.053 -11.093  1.00  0.00     0.060 A 
HETATM    4  N1  UNL     1     -12.462  17.954 -10.078  1.00  0.00    -0.352 N 
ATOM      5  H1  UNL     1     -11.614  18.519 -10.108  1.00  0.00     0.166 HD
HETATM    6  C6  UNL     1     -12.659  17.136  -9.029  1.00  0.00     0.073 A 
HETATM    7  C14 UNL     1     -13.807  16.387  -9.016  1.00  0.00     0.120 A 
HETATM    8  N3  UNL     1     -14.724  16.457 -10.020  1.00  0.00    -0.362 N 
ATOM      9  H3  UNL     1     -15.571  15.891  -9.991  1.00  0.00     0.165 HD
HETATM   10  C15 UNL     1     -14.487  17.292 -11.054  1.00  0.00     0.062 A 
HETATM   11  C16 UNL     1     -15.356  17.425 -12.105  1.00  0.00     0.074 A 
HETATM   12  C17 UNL     1     -15.095  18.291 -13.164  1.00  0.00     0.128 A 
HETATM   13  F1  UNL     1     -16.028  18.369 -14.121  1.00  0.00    -0.205 F 
ENDROOT
BRANCH   6  14
HETATM   14  C7  UNL     1     -11.721  17.034  -7.926  1.00  0.00     0.064 C 
HETATM   15  N2  UNL     1     -11.578  18.097  -7.181  1.00  0.00    -0.271 N 
ATOM     16  H2  UNL     1     -10.922  18.040  -6.403  1.00  0.00     0.194 HD
BRANCH  15  17
HETATM   17  O2  UNL     1     -12.229  19.265  -7.360  1.00  0.00    -0.290 OA
ATOM     18  H2  UNL     1     -13.107  19.353  -7.712  1.00  0.00     0.244 HD
ENDBRANCH  15  17
BRANCH  14  19
HETATM   19  C8  UNL     1     -10.921  15.809  -7.640  1.00  0.00     0.040 C 
HETATM   20  C9  UNL     1     -11.690  14.879  -6.805  1.00  0.00     0.011 C 
HETATM   21  C10 UNL     1     -12.164  13.620  -7.459  1.00  0.00     0.001 C 
HETATM   22  C11 UNL     1     -11.018  13.048  -8.265  1.00  0.00     0.000 C 
HETATM   23  C12 UNL     1     -10.866  14.025  -9.427  1.00  0.00     0.001 C 
HETATM   24  C13 UNL     1     -10.310  15.286  -8.889  1.00  0.00     0.011 C 
ENDBRANCH  14  19
ENDBRANCH   6  14
BRANCH   1  25
HETATM   25  C2  UNL     1     -13.706  20.014 -14.347  1.00  0.00     0.090 C 
HETATM   26  C18 UNL     1     -13.875  19.294 -15.703  1.00  0.00     0.043 C 
HETATM   27  C19 UNL     1     -13.910  20.401 -16.738  1.00  0.00     0.003 C 
HETATM   28  C20 UNL     1     -12.490  20.923 -16.857  1.00  0.00     0.000 C 
HETATM   29  C21 UNL     1     -11.624  20.433 -15.717  1.00  0.00     0.003 C 
HETATM   30  C22 UNL     1     -12.292  20.567 -14.389  1.00  0.00     0.043 C 
BRANCH  25  31
HETATM   31  O1  UNL     1     -14.635  21.017 -14.393  1.00  0.00    -0.380 OA
HETATM   32  C1  UNL     1     -14.586  22.032 -13.506  1.00  0.00     0.203 C 
ENDBRANCH  25  31
ENDBRANCH   1  25
TORSDOF 5
ENDMDL
MODEL 5
REMARK VINA RESULT: -6.310471468      2.974      8.220
REMARK  5 active torsions:
REMARK  status: ('A' for Active; 'I' for Inactive)
REMARK    1  A    between atoms: O1_2  and  C2_3 
REMARK    2  A    between atoms: C2_3  and  C3_4 
REMARK    3  A    between atoms: C6_9  and  C7_10 
REMARK    4  A    between atoms: C7_10  and  C8_15 
REMARK    5  A    between atoms: N2_11  and  O2_13 
ROOT
HETATM    1  C3  UNL     1     -11.072  16.682  -9.658  1.00  0.00     0.017 A 
HETATM    2  C4  UNL     1     -12.299  17.079 -10.135  1.00  0.00     0.045 A 
HETATM    3  C5  UNL     1     -12.508  18.301 -10.796  1.00  0.00     0.060 A 
HETATM    4  N1  UNL     1     -13.740  18.627 -11.241  1.00  0.00    -0.352 N 
ATOM      5  H1  UNL     1     -14.507  17.972 -11.088  1.00  0.00     0.166 HD
HETATM    6  C6  UNL     1     -13.994  19.783 -11.878  1.00  0.00     0.073 A 
HETATM    7  C14 UNL     1     -12.945  20.644 -12.071  1.00  0.00     0.120 A 
HETATM    8  N3  UNL     1     -11.687  20.354 -11.638  1.00  0.00    -0.362 N 
ATOM      9  H3  UNL     1     -10.920  21.009 -11.792  1.00  0.00     0.165 HD
HETATM   10  C15 UNL     1     -11.476  19.182 -11.002  1.00  0.00     0.062 A 
HETATM   11  C16 UNL     1     -10.244  18.811 -10.534  1.00  0.00     0.074 A 
HETATM   12  C17 UNL     1     -10.044  17.597  -9.880  1.00  0.00     0.128 A 
HETATM   13  F1  UNL     1      -8.807  17.350  -9.434  1.00  0.00    -0.205 F 
ENDROOT
BRANCH   6  14
HETATM   14  C7  UNL     1     -15.318  20.148 -12.346  1.00  0.00     0.064 C 
HETATM   15  N2  UNL     1     -15.976  19.234 -13.009  1.00  0.00    -0.271 N 
ATOM     16  H2  UNL     1     -16.908  19.477 -13.344  1.00  0.00     0.194 HD
BRANCH  15  17
HETATM   17  O2  UNL     1     -15.519  17.995 -13.285  1.00  0.00    -0.290 OA
ATOM     18  H2  UNL     1     -15.058  17.746 -14.077  1.00  0.00     0.244 HD
ENDBRANCH  15  17
BRANCH  14  19
HETATM   19  C8  UNL     1     -15.924  21.492 -12.128  1.00  0.00     0.040 C 
HETATM   20  C9  UNL     1     -17.069  21.690 -13.023  1.00  0.00     0.011 C 
HETATM   21  C10 UNL     1     -18.424  21.703 -12.391  1.00  0.00     0.001 C 
HETATM   22  C11 UNL     1     -18.356  22.565 -11.148  1.00  0.00     0.000 C 
HETATM   23  C12 UNL     1     -17.511  21.741 -10.180  1.00  0.00     0.001 C 
HETATM   24  C13 UNL     1     -16.118  21.744 -10.677  1.00  0.00     0.011 C 
ENDBRANCH  14  19
ENDBRANCH   6  14
BRANCH   1  25
HETATM   25  C2  UNL     1     -10.846  15.417  -8.930  1.00  0.00     0.090 C 
HETATM   26  C18 UNL     1      -9.775  14.567  -9.648  1.00  0.00     0.043 C 
HETATM   27  C19 UNL     1      -9.417  13.469  -8.666  1.00  0.00     0.003 C 
HETATM   28  C20 UNL     1     -10.593  12.509  -8.648  1.00  0.00     0.000 C 
HETATM   29  C21 UNL     1     -11.810  13.113  -9.314  1.00  0.00     0.003 C 
HETATM   30  C22 UNL     1     -12.068  14.516  -8.875  1.00  0.00     0.043 C 
BRANCH  25  31
HETATM   31  O1  UNL     1     -10.320  15.619  -7.683  1.00  0.00    -0.380 OA
HETATM   32  C1  UNL     1     -11.064  16.192  -6.715  1.00  0.00     0.203 C 
ENDBRANCH  25  31
ENDBRANCH   1  25
TORSDOF 5
ENDMDL
