MODEL 1
REMARK VINA RESULT: -5.555457896      0.000      0.000
REMARK  5 active torsions:
REMARK  status: ('A' for Active; 'I' for Inactive)
REMARK    1  A    between atoms: C2_2  and  C4_4 
REMARK    2  A    between atoms: C7_8  and  N1_9 
REMARK    3  A    between atoms: C12_15  and  C13_16 
REMARK       I    between atoms: N2_19  and  C14_20 
REMARK    4  A    between atoms: C14_20  and  O4_22 
REMARK    5  A    between atoms: O4_22  and  C15_23 
ROOT
HETATM    1  N1  UNL     1     -12.143  18.255 -10.570  1.00  0.00    -0.337 N 
ATOM      2  H1  UNL     1     -12.085  18.417 -11.576  1.00  0.00     0.168 HD
HETATM    3  C8  UNL     1     -12.546  19.198  -9.816  1.00  0.00     0.089 C 
HETATM    4  C9  UNL     1     -12.631  18.968  -8.358  1.00  0.00     0.077 C 
HETATM    5  C10 UNL     1     -13.101  20.143  -7.572  1.00  0.00     0.010 C 
HETATM    6  C11 UNL     1     -13.900  21.139  -8.377  1.00  0.00     0.037 C 
HETATM    7  C12 UNL     1     -12.993  21.585  -9.524  1.00  0.00     0.197 C 
HETATM    8  N2  UNL     1     -12.897  20.439 -10.417  1.00  0.00    -0.268 N 
HETATM    9  C14 UNL     1     -13.143  20.572 -11.811  1.00  0.00     0.369 C 
HETATM   10  O3  UNL     1     -13.446  21.713 -12.241  1.00  0.00    -0.238 OA
ENDROOT
BRANCH   1  11
HETATM   11  C7  UNL     1     -11.765  16.957 -10.046  1.00  0.00     0.115 A 
HETATM   12  C6  UNL     1     -12.602  15.985  -9.564  1.00  0.00     0.151 A 
HETATM   13  C5  UNL     1     -12.029  14.842  -9.121  1.00  0.00     0.060 A 
HETATM   14  F1  UNL     1     -13.985  16.152  -9.524  1.00  0.00    -0.203 F 
HETATM   15  C4  UNL     1     -10.667  14.761  -9.196  1.00  0.00    -0.009 A 
HETATM   16  S1  UNL     1     -10.224  16.256  -9.871  1.00  0.00    -0.073 SA
BRANCH  15  17
HETATM   17  C2  UNL     1      -9.823  13.588  -8.764  1.00  0.00     0.018 C 
HETATM   18  C1  UNL     1     -10.636  12.497  -8.160  1.00  0.00     0.015 C 
HETATM   19  C3  UNL     1      -9.151  13.055 -10.007  1.00  0.00     0.015 C 
ENDBRANCH  15  17
ENDBRANCH   1  11
BRANCH   7  20
HETATM   20  C13 UNL     1     -11.651  21.959  -9.032  1.00  0.00     0.197 C 
HETATM   21  O1  UNL     1     -11.550  22.719  -8.043  1.00  0.00    -0.646 OA
HETATM   22  O2  UNL     1     -10.511  21.482  -9.645  1.00  0.00    -0.646 OA
ENDBRANCH   7  20
BRANCH   9  23
HETATM   23  O4  UNL     1     -13.070  19.541 -12.705  1.00  0.00    -0.293 OA
BRANCH  23  24
HETATM   24  C15 UNL     1     -14.197  18.955 -13.335  1.00  0.00     0.061 C 
HETATM   25  C16 UNL     1     -15.482  19.257 -12.603  1.00  0.00     0.046 C 
HETATM   26  C17 UNL     1     -13.992  17.458 -13.338  1.00  0.00     0.046 C 
HETATM   27  C18 UNL     1     -14.350  19.419 -14.760  1.00  0.00     0.046 C 
ENDBRANCH  23  24
ENDBRANCH   9  23
TORSDOF 5
ENDMDL
MODEL 2
REMARK VINA RESULT: -5.395739019      3.071      6.641
REMARK  5 active torsions:
REMARK  status: ('A' for Active; 'I' for Inactive)
REMARK    1  A    between atoms: C2_2  and  C4_4 
REMARK    2  A    between atoms: C7_8  and  N1_9 
REMARK    3  A    between atoms: C12_15  and  C13_16 
REMARK       I    between atoms: N2_19  and  C14_20 
REMARK    4  A    between atoms: C14_20  and  O4_22 
REMARK    5  A    between atoms: O4_22  and  C15_23 
ROOT
HETATM    1  N1  UNL     1     -11.830  18.130  -9.469  1.00  0.00    -0.337 N 
ATOM      2  H1  UNL     1     -11.060  18.771  -9.274  1.00  0.00     0.168 HD
HETATM    3  C8  UNL     1     -11.898  17.034  -8.824  1.00  0.00     0.089 C 
HETATM    4  C9  UNL     1     -13.011  16.102  -9.104  1.00  0.00     0.077 C 
HETATM    5  C10 UNL     1     -12.985  14.848  -8.302  1.00  0.00     0.010 C 
HETATM    6  C11 UNL     1     -12.202  14.959  -7.016  1.00  0.00     0.037 C 
HETATM    7  C12 UNL     1     -10.786  15.375  -7.414  1.00  0.00     0.197 C 
HETATM    8  N2  UNL     1     -10.892  16.758  -7.857  1.00  0.00    -0.268 N 
HETATM    9  C14 UNL     1     -10.029  17.763  -7.340  1.00  0.00     0.369 C 
HETATM   10  O3  UNL     1      -9.174  17.413  -6.489  1.00  0.00    -0.238 OA
ENDROOT
BRANCH   1  11
HETATM   11  C7  UNL     1     -12.811  18.497 -10.472  1.00  0.00     0.115 A 
HETATM   12  C6  UNL     1     -13.936  19.255 -10.288  1.00  0.00     0.151 A 
HETATM   13  C5  UNL     1     -14.717  19.474 -11.372  1.00  0.00     0.060 A 
HETATM   14  F1  UNL     1     -14.278  19.785  -9.045  1.00  0.00    -0.203 F 
HETATM   15  C4  UNL     1     -14.310  18.918 -12.552  1.00  0.00    -0.009 A 
HETATM   16  S1  UNL     1     -12.872  18.117 -12.130  1.00  0.00    -0.073 SA
BRANCH  15  17
HETATM   17  C2  UNL     1     -15.019  19.032 -13.878  1.00  0.00     0.018 C 
HETATM   18  C1  UNL     1     -14.092  19.390 -14.987  1.00  0.00     0.015 C 
HETATM   19  C3  UNL     1     -15.616  17.676 -14.170  1.00  0.00     0.015 C 
ENDBRANCH  15  17
ENDBRANCH   1  11
BRANCH   7  20
HETATM   20  C13 UNL     1     -10.266  14.530  -8.508  1.00  0.00     0.197 C 
HETATM   21  O1  UNL     1     -10.343  13.285  -8.412  1.00  0.00    -0.646 OA
HETATM   22  O2  UNL     1      -9.702  15.093  -9.634  1.00  0.00    -0.646 OA
ENDBRANCH   7  20
BRANCH   9  23
HETATM   23  O4  UNL     1     -10.074  19.077  -7.711  1.00  0.00    -0.293 OA
BRANCH  23  24
HETATM   24  C15 UNL     1     -10.626  20.110  -6.911  1.00  0.00     0.061 C 
HETATM   25  C16 UNL     1     -11.792  19.629  -6.083  1.00  0.00     0.046 C 
HETATM   26  C17 UNL     1     -11.118  21.194  -7.842  1.00  0.00     0.046 C 
HETATM   27  C18 UNL     1      -9.604  20.707  -5.979  1.00  0.00     0.046 C 
ENDBRANCH  23  24
ENDBRANCH   9  23
TORSDOF 5
ENDMDL
MODEL 3
REMARK VINA RESULT: -5.315888462      1.781      3.982
REMARK  5 active torsions:
REMARK  status: ('A' for Active; 'I' for Inactive)
REMARK    1  A    between atoms: C2_2  and  C4_4 
REMARK    2  A    between atoms: C7_8  and  N1_9 
REMARK    3  A    between atoms: C12_15  and  C13_16 
REMARK       I    between atoms: N2_19  and  C14_20 
REMARK    4  A    between atoms: C14_20  and  O4_22 
REMARK    5  A    between atoms: O4_22  and  C15_23 
ROOT
HETATM    1  N1  UNL     1     -11.874  18.435 -10.510  1.00  0.00    -0.337 N 
ATOM      2  H1  UNL     1     -11.515  19.236  -9.989  1.00  0.00     0.168 HD
HETATM    3  C8  UNL     1     -12.545  18.642 -11.572  1.00  0.00     0.089 C 
HETATM    4  C9  UNL     1     -13.069  17.487 -12.330  1.00  0.00     0.077 C 
HETATM    5  C10 UNL     1     -13.849  17.845 -13.547  1.00  0.00     0.010 C 
HETATM    6  C11 UNL     1     -13.533  19.216 -14.095  1.00  0.00     0.037 C 
HETATM    7  C12 UNL     1     -13.815  20.203 -12.962  1.00  0.00     0.197 C 
HETATM    8  N2  UNL     1     -12.760  19.988 -11.982  1.00  0.00    -0.268 N 
HETATM    9  C14 UNL     1     -11.998  21.075 -11.473  1.00  0.00     0.369 C 
HETATM   10  O3  UNL     1     -12.269  22.225 -11.900  1.00  0.00    -0.238 OA
ENDROOT
BRANCH   1  11
HETATM   11  C7  UNL     1     -11.604  17.099 -10.017  1.00  0.00     0.115 A 
HETATM   12  C6  UNL     1     -12.499  16.231  -9.449  1.00  0.00     0.151 A 
HETATM   13  C5  UNL     1     -12.025  15.026  -9.057  1.00  0.00     0.060 A 
HETATM   14  F1  UNL     1     -13.842  16.561  -9.275  1.00  0.00    -0.203 F 
HETATM   15  C4  UNL     1     -10.696  14.784  -9.263  1.00  0.00    -0.009 A 
HETATM   16  S1  UNL     1     -10.147  16.219  -9.988  1.00  0.00    -0.073 SA
BRANCH  15  17
HETATM   17  C2  UNL     1      -9.959  13.517  -8.908  1.00  0.00     0.018 C 
HETATM   18  C1  UNL     1     -10.828  12.536  -8.203  1.00  0.00     0.015 C 
HETATM   19  C3  UNL     1      -9.498  12.903 -10.208  1.00  0.00     0.015 C 
ENDBRANCH  15  17
ENDBRANCH   1  11
BRANCH   7  20
HETATM   20  C13 UNL     1     -15.136  19.954 -12.350  1.00  0.00     0.197 C 
HETATM   21  O1  UNL     1     -16.115  19.697 -13.085  1.00  0.00    -0.646 OA
HETATM   22  O2  UNL     1     -15.304  19.996 -10.981  1.00  0.00    -0.646 OA
ENDBRANCH   7  20
BRANCH   9  23
HETATM   23  O4  UNL     1     -10.996  20.945 -10.553  1.00  0.00    -0.293 OA
BRANCH  23  24
HETATM   24  C15 UNL     1      -9.617  21.075 -10.857  1.00  0.00     0.061 C 
HETATM   25  C16 UNL     1      -9.307  20.681 -12.280  1.00  0.00     0.046 C 
HETATM   26  C17 UNL     1      -8.857  20.153  -9.932  1.00  0.00     0.046 C 
HETATM   27  C18 UNL     1      -9.123  22.482 -10.641  1.00  0.00     0.046 C 
ENDBRANCH  23  24
ENDBRANCH   9  23
TORSDOF 5
ENDMDL
MODEL 4
REMARK VINA RESULT: -5.292774246      1.394      1.583
REMARK  5 active torsions:
REMARK  status: ('A' for Active; 'I' for Inactive)
REMARK    1  A    between atoms: C2_2  and  C4_4 
REMARK    2  A    between atoms: C7_8  and  N1_9 
REMARK    3  A    between atoms: C12_15  and  C13_16 
REMARK       I    between atoms: N2_19  and  C14_20 
REMARK    4  A    between atoms: C14_20  and  O4_22 
REMARK    5  A    between atoms: O4_22  and  C15_23 
ROOT
HETATM    1  N1  UNL     1     -12.589  17.900  -9.509  1.00  0.00    -0.337 N 
ATOM      2  H1  UNL     1     -13.150  18.089 -10.340  1.00  0.00     0.168 HD
HETATM    3  C8  UNL     1     -12.522  18.785  -8.596  1.00  0.00     0.089 C 
HETATM    4  C9  UNL     1     -11.710  18.516  -7.390  1.00  0.00     0.077 C 
HETATM    5  C10 UNL     1     -11.693  19.624  -6.395  1.00  0.00     0.010 C 
HETATM    6  C11 UNL     1     -12.874  20.559  -6.498  1.00  0.00     0.037 C 
HETATM    7  C12 UNL     1     -12.856  21.112  -7.923  1.00  0.00     0.197 C 
HETATM    8  N2  UNL     1     -13.239  20.000  -8.782  1.00  0.00    -0.268 N 
HETATM    9  C14 UNL     1     -14.273  20.140  -9.747  1.00  0.00     0.369 C 
HETATM   10  O3  UNL     1     -14.842  21.257  -9.831  1.00  0.00    -0.238 OA
ENDROOT
BRANCH   1  11
HETATM   11  C7  UNL     1     -11.895  16.632  -9.405  1.00  0.00     0.115 A 
HETATM   12  C6  UNL     1     -12.356  15.482  -8.820  1.00  0.00     0.151 A 
HETATM   13  C5  UNL     1     -11.533  14.408  -8.837  1.00  0.00     0.060 A 
HETATM   14  F1  UNL     1     -13.616  15.407  -8.227  1.00  0.00    -0.203 F 
HETATM   15  C4  UNL     1     -10.316  14.568  -9.437  1.00  0.00    -0.009 A 
HETATM   16  S1  UNL     1     -10.347  16.186  -9.956  1.00  0.00    -0.073 SA
BRANCH  15  17
HETATM   17  C2  UNL     1      -9.248  13.512  -9.573  1.00  0.00     0.018 C 
HETATM   18  C1  UNL     1      -9.766  12.258 -10.185  1.00  0.00     0.015 C 
HETATM   19  C3  UNL     1      -8.183  14.084 -10.477  1.00  0.00     0.015 C 
ENDBRANCH  15  17
ENDBRANCH   1  11
BRANCH   7  20
HETATM   20  C13 UNL     1     -11.511  21.599  -8.292  1.00  0.00     0.197 C 
HETATM   21  O1  UNL     1     -10.879  22.323  -7.491  1.00  0.00    -0.646 OA
HETATM   22  O2  UNL     1     -10.943  21.266  -9.505  1.00  0.00    -0.646 OA
ENDBRANCH   7  20
BRANCH   9  23
HETATM   23  O4  UNL     1     -14.682  19.140 -10.584  1.00  0.00    -0.293 OA
BRANCH  23  24
HETATM   24  C15 UNL     1     -14.601  19.206 -11.998  1.00  0.00     0.061 C 
HETATM   25  C16 UNL     1     -15.771  19.942 -12.603  1.00  0.00     0.046 C 
HETATM   26  C17 UNL     1     -14.608  17.789 -12.523  1.00  0.00     0.046 C 
HETATM   27  C18 UNL     1     -13.335  19.880 -12.459  1.00  0.00     0.046 C 
ENDBRANCH  23  24
ENDBRANCH   9  23
TORSDOF 5
ENDMDL
MODEL 5
REMARK VINA RESULT: -5.227027246      1.984      4.397
REMARK  5 active torsions:
REMARK  status: ('A' for Active; 'I' for Inactive)
REMARK    1  A    between atoms: C2_2  and  C4_4 
REMARK    2  A    between atoms: C7_8  and  N1_9 
REMARK    3  A    between atoms: C12_15  and  C13_16 
REMARK       I    between atoms: N2_19  and  C14_20 
REMARK    4  A    between atoms: C14_20  and  O4_22 
REMARK    5  A    between atoms: O4_22  and  C15_23 
ROOT
HETATM    1  N1  UNL     1     -12.607  17.817  -9.748  1.00  0.00    -0.337 N 
ATOM      2  H1  UNL     1     -13.115  18.157  -8.931  1.00  0.00     0.168 HD
HETATM    3  C8  UNL     1     -12.834  18.352 -10.881  1.00  0.00     0.089 C 
HETATM    4  C9  UNL     1     -12.103  17.864 -12.069  1.00  0.00     0.077 C 
HETATM    5  C10 UNL     1     -12.456  18.552 -13.341  1.00  0.00     0.010 C 
HETATM    6  C11 UNL     1     -13.051  19.926 -13.150  1.00  0.00     0.037 C 
HETATM    7  C12 UNL     1     -14.291  19.736 -12.276  1.00  0.00     0.197 C 
HETATM    8  N2  UNL     1     -13.790  19.404 -10.949  1.00  0.00    -0.268 N 
HETATM    9  C14 UNL     1     -14.243  20.104  -9.797  1.00  0.00     0.369 C 
HETATM   10  O3  UNL     1     -15.090  21.017  -9.968  1.00  0.00    -0.238 OA
ENDROOT
BRANCH   1  11
HETATM   11  C7  UNL     1     -11.650  16.741  -9.582  1.00  0.00     0.115 A 
HETATM   12  C6  UNL     1     -10.285  16.833  -9.640  1.00  0.00     0.151 A 
HETATM   13  C5  UNL     1      -9.580  15.692  -9.456  1.00  0.00     0.060 A 
HETATM   14  F1  UNL     1      -9.634  18.043  -9.880  1.00  0.00    -0.203 F 
HETATM   15  C4  UNL     1     -10.297  14.551  -9.228  1.00  0.00    -0.009 A 
HETATM   16  S1  UNL     1     -11.908  15.087  -9.275  1.00  0.00    -0.073 SA
BRANCH  15  17
HETATM   17  C2  UNL     1      -9.724  13.175  -8.996  1.00  0.00     0.018 C 
HETATM   18  C1  UNL     1     -10.605  12.332  -8.142  1.00  0.00     0.015 C 
HETATM   19  C3  UNL     1      -9.600  12.522 -10.351  1.00  0.00     0.015 C 
ENDBRANCH  15  17
ENDBRANCH   1  11
BRANCH   7  20
HETATM   20  C13 UNL     1     -15.143  18.641 -12.785  1.00  0.00     0.197 C 
HETATM   21  O1  UNL     1     -15.440  18.608 -14.000  1.00  0.00    -0.646 OA
HETATM   22  O2  UNL     1     -15.612  17.655 -11.941  1.00  0.00    -0.646 OA
ENDBRANCH   7  20
BRANCH   9  23
HETATM   23  O4  UNL     1     -13.816  19.846  -8.525  1.00  0.00    -0.293 OA
BRANCH  23  24
HETATM   24  C15 UNL     1     -12.914  20.671  -7.807  1.00  0.00     0.061 C 
HETATM   25  C16 UNL     1     -11.919  21.352  -8.714  1.00  0.00     0.046 C 
HETATM   26  C17 UNL     1     -12.154  19.788  -6.845  1.00  0.00     0.046 C 
HETATM   27  C18 UNL     1     -13.632  21.733  -7.016  1.00  0.00     0.046 C 
ENDBRANCH  23  24
ENDBRANCH   9  23
TORSDOF 5
ENDMDL
