MODEL 1
REMARK VINA RESULT: -7.114046499      0.000      0.000
REMARK  3 active torsions:
REMARK  status: ('A' for Active; 'I' for Inactive)
REMARK    1  A    between atoms: C7_7  and  N1_8 
REMARK    2  A    between atoms: N1_8  and  C8_10 
REMARK    3  A    between atoms: N3_18  and  C13_19 
ROOT
HETATM    1  C8  UNL     1     -13.415  18.675 -10.233  1.00  0.00     0.125 A 
HETATM    2  N2  UNL     1     -12.145  18.922  -9.873  1.00  0.00    -0.325 N 
ATOM      3  H2  UNL     1     -11.857  19.897  -9.782  1.00  0.00     0.169 HD
HETATM    4  C9  UNL     1     -11.232  17.976  -9.627  1.00  0.00     0.140 A 
HETATM    5  C10 UNL     1     -11.587  16.646  -9.741  1.00  0.00     0.085 A 
HETATM    6  C11 UNL     1     -12.878  16.342 -10.107  1.00  0.00     0.061 A 
HETATM    7  C12 UNL     1     -13.781  17.350 -10.350  1.00  0.00     0.080 A 
HETATM    8 CL1  UNL     1     -15.437  16.936 -10.819  1.00  0.00    -0.080 Cl
HETATM    9  N3  UNL     1     -10.518  15.883  -9.447  1.00  0.00    -0.291 N 
HETATM   10  C19 UNL     1      -9.527  16.766  -9.159  1.00  0.00     0.331 A 
HETATM   11  O1  UNL     1      -8.337  16.449  -8.828  1.00  0.00    -0.246 OA
HETATM   12  N4  UNL     1      -9.931  18.025  -9.260  1.00  0.00    -0.288 N 
HETATM   13  C20 UNL     1      -9.137  19.221  -9.023  1.00  0.00     0.163 C 
ENDROOT
BRANCH   1  14
HETATM   14  N1  UNL     1     -14.371  19.685 -10.485  1.00  0.00    -0.370 N 
ATOM     15  H1  UNL     1     -15.318  19.534 -10.137  1.00  0.00     0.161 HD
BRANCH  14  16
HETATM   16  C7  UNL     1     -14.113  20.917 -11.198  1.00  0.00     0.086 C 
HETATM   17  C2  UNL     1     -15.389  21.711 -11.407  1.00  0.00     0.004 C 
HETATM   18  C1  UNL     1     -15.892  22.367 -10.165  1.00  0.00     0.012 C 
HETATM   19  C3  UNL     1     -16.423  20.828 -12.017  1.00  0.00     0.006 C 
HETATM   20  C4  UNL     1     -15.921  19.734 -12.890  1.00  0.00     0.001 C 
HETATM   21  C5  UNL     1     -14.555  19.896 -13.444  1.00  0.00     0.002 C 
HETATM   22  C6  UNL     1     -13.587  20.622 -12.573  1.00  0.00     0.025 C 
ENDBRANCH  14  16
ENDBRANCH   1  14
BRANCH   9  23
HETATM   23  C13 UNL     1     -10.416  14.449  -9.434  1.00  0.00     0.095 C 
HETATM   24  C14 UNL     1     -10.590  13.832  -8.074  1.00  0.00     0.026 C 
HETATM   25  C15 UNL     1     -10.643  12.338  -8.249  1.00  0.00     0.002 C 
HETATM   26  C16 UNL     1     -10.595  11.897  -9.681  1.00  0.00     0.000 C 
HETATM   27  C17 UNL     1      -9.455  12.468 -10.461  1.00  0.00     0.002 C 
HETATM   28  C18 UNL     1      -9.149  13.913 -10.046  1.00  0.00     0.026 C 
ENDBRANCH   9  23
TORSDOF 3
ENDMDL
MODEL 2
REMARK VINA RESULT: -6.992782459      1.225      1.246
REMARK  3 active torsions:
REMARK  status: ('A' for Active; 'I' for Inactive)
REMARK    1  A    between atoms: C7_7  and  N1_8 
REMARK    2  A    between atoms: N1_8  and  C8_10 
REMARK    3  A    between atoms: N3_18  and  C13_19 
ROOT
HETATM    1  C8  UNL     1     -13.955  18.858 -10.079  1.00  0.00     0.125 A 
HETATM    2  N2  UNL     1     -13.099  19.017  -9.057  1.00  0.00    -0.325 N 
ATOM      3  H2  UNL     1     -13.112  19.908  -8.559  1.00  0.00     0.169 HD
HETATM    4  C9  UNL     1     -12.232  18.084  -8.646  1.00  0.00     0.140 A 
HETATM    5  C10 UNL     1     -12.188  16.866  -9.296  1.00  0.00     0.085 A 
HETATM    6  C11 UNL     1     -13.045  16.656 -10.351  1.00  0.00     0.061 A 
HETATM    7  C12 UNL     1     -13.919  17.646 -10.736  1.00  0.00     0.080 A 
HETATM    8 CL1  UNL     1     -15.014  17.353 -12.097  1.00  0.00    -0.080 Cl
HETATM    9  N3  UNL     1     -11.250  16.096  -8.714  1.00  0.00    -0.291 N 
HETATM   10  C19 UNL     1     -10.738  16.862  -7.717  1.00  0.00     0.331 A 
HETATM   11  O1  UNL     1      -9.814  16.500  -6.916  1.00  0.00    -0.246 OA
HETATM   12  N4  UNL     1     -11.310  18.057  -7.656  1.00  0.00    -0.288 N 
HETATM   13  C20 UNL     1     -11.010  19.125  -6.715  1.00  0.00     0.163 C 
ENDROOT
BRANCH   1  14
HETATM   14  N1  UNL     1     -14.869  19.850 -10.500  1.00  0.00    -0.370 N 
ATOM     15  H1  UNL     1     -15.855  19.592 -10.542  1.00  0.00     0.161 HD
BRANCH  14  16
HETATM   16  C7  UNL     1     -14.518  21.202 -10.875  1.00  0.00     0.086 C 
HETATM   17  C2  UNL     1     -15.705  22.138 -10.740  1.00  0.00     0.004 C 
HETATM   18  C1  UNL     1     -16.046  22.466  -9.325  1.00  0.00     0.012 C 
HETATM   19  C3  UNL     1     -16.872  21.560 -11.465  1.00  0.00     0.006 C 
HETATM   20  C4  UNL     1     -16.558  20.711 -12.644  1.00  0.00     0.001 C 
HETATM   21  C5  UNL     1     -15.221  20.893 -13.260  1.00  0.00     0.002 C 
HETATM   22  C6  UNL     1     -14.121  21.254 -12.321  1.00  0.00     0.025 C 
ENDBRANCH  14  16
ENDBRANCH   1  14
BRANCH   9  23
HETATM   23  C13 UNL     1     -10.855  14.756  -9.052  1.00  0.00     0.095 C 
HETATM   24  C14 UNL     1     -11.103  13.748  -7.963  1.00  0.00     0.026 C 
HETATM   25  C15 UNL     1     -10.817  12.382  -8.526  1.00  0.00     0.002 C 
HETATM   26  C16 UNL     1     -10.459  12.392  -9.982  1.00  0.00     0.000 C 
HETATM   27  C17 UNL     1      -9.357  13.338 -10.336  1.00  0.00     0.002 C 
HETATM   28  C18 UNL     1      -9.425  14.628  -9.507  1.00  0.00     0.026 C 
ENDBRANCH   9  23
TORSDOF 3
ENDMDL
MODEL 3
REMARK VINA RESULT: -6.849329896      0.663      1.184
REMARK  3 active torsions:
REMARK  status: ('A' for Active; 'I' for Inactive)
REMARK    1  A    between atoms: C7_7  and  N1_8 
REMARK    2  A    between atoms: N1_8  and  C8_10 
REMARK    3  A    between atoms: N3_18  and  C13_19 
ROOT
HETATM    1  C8  UNL     1     -13.269  18.838 -10.602  1.00  0.00     0.125 A 
HETATM    2  N2  UNL     1     -12.006  19.059 -10.205  1.00  0.00    -0.325 N 
ATOM      3  H2  UNL     1     -11.685  20.026 -10.153  1.00  0.00     0.169 HD
HETATM    4  C9  UNL     1     -11.139  18.094  -9.874  1.00  0.00     0.140 A 
HETATM    5  C10 UNL     1     -11.540  16.774  -9.933  1.00  0.00     0.085 A 
HETATM    6  C11 UNL     1     -12.826  16.497 -10.335  1.00  0.00     0.061 A 
HETATM    7  C12 UNL     1     -13.680  17.523 -10.666  1.00  0.00     0.080 A 
HETATM    8 CL1  UNL     1     -15.332  17.144 -11.179  1.00  0.00    -0.080 Cl
HETATM    9  N3  UNL     1     -10.512  15.990  -9.559  1.00  0.00    -0.291 N 
HETATM   10  C19 UNL     1      -9.500  16.851  -9.277  1.00  0.00     0.331 A 
HETATM   11  O1  UNL     1      -8.336  16.510  -8.883  1.00  0.00    -0.246 OA
HETATM   12  N4  UNL     1      -9.852  18.117  -9.458  1.00  0.00    -0.288 N 
HETATM   13  C20 UNL     1      -9.023  19.294  -9.252  1.00  0.00     0.163 C 
ENDROOT
BRANCH   1  14
HETATM   14  N1  UNL     1     -14.176  19.867 -10.944  1.00  0.00    -0.370 N 
ATOM     15  H1  UNL     1     -14.920  20.078 -10.279  1.00  0.00     0.161 HD
BRANCH  14  16
HETATM   16  C7  UNL     1     -14.131  20.646 -12.163  1.00  0.00     0.086 C 
HETATM   17  C2  UNL     1     -14.157  22.134 -11.867  1.00  0.00     0.004 C 
HETATM   18  C1  UNL     1     -12.870  22.653 -11.319  1.00  0.00     0.012 C 
HETATM   19  C3  UNL     1     -15.301  22.436 -10.961  1.00  0.00     0.006 C 
HETATM   20  C4  UNL     1     -16.487  21.549 -11.083  1.00  0.00     0.001 C 
HETATM   21  C5  UNL     1     -16.626  20.790 -12.349  1.00  0.00     0.002 C 
HETATM   22  C6  UNL     1     -15.349  20.375 -12.997  1.00  0.00     0.025 C 
ENDBRANCH  14  16
ENDBRANCH   1  14
BRANCH   9  23
HETATM   23  C13 UNL     1     -10.464  14.556  -9.468  1.00  0.00     0.095 C 
HETATM   24  C14 UNL     1     -10.686  14.020  -8.081  1.00  0.00     0.026 C 
HETATM   25  C15 UNL     1     -10.793  12.521  -8.177  1.00  0.00     0.002 C 
HETATM   26  C16 UNL     1     -10.736  12.002  -9.582  1.00  0.00     0.000 C 
HETATM   27  C17 UNL     1      -9.562  12.488 -10.369  1.00  0.00     0.002 C 
HETATM   28  C18 UNL     1      -9.208  13.941 -10.025  1.00  0.00     0.026 C 
ENDBRANCH   9  23
TORSDOF 3
ENDMDL
MODEL 4
REMARK VINA RESULT: -6.602239632      1.376      1.658
REMARK  3 active torsions:
REMARK  status: ('A' for Active; 'I' for Inactive)
REMARK    1  A    between atoms: C7_7  and  N1_8 
REMARK    2  A    between atoms: N1_8  and  C8_10 
REMARK    3  A    between atoms: N3_18  and  C13_19 
ROOT
HETATM    1  C8  UNL     1     -13.877  18.890  -9.985  1.00  0.00     0.125 A 
HETATM    2  N2  UNL     1     -13.104  19.052  -8.899  1.00  0.00    -0.325 N 
ATOM      3  H2  UNL     1     -13.197  19.922  -8.374  1.00  0.00     0.169 HD
HETATM    4  C9  UNL     1     -12.220  18.149  -8.460  1.00  0.00     0.140 A 
HETATM    5  C10 UNL     1     -12.068  16.960  -9.147  1.00  0.00     0.085 A 
HETATM    6  C11 UNL     1     -12.838  16.748 -10.266  1.00  0.00     0.061 A 
HETATM    7  C12 UNL     1     -13.733  17.707 -10.679  1.00  0.00     0.080 A 
HETATM    8 CL1  UNL     1     -14.714  17.412 -12.124  1.00  0.00    -0.080 Cl
HETATM    9  N3  UNL     1     -11.134  16.216  -8.527  1.00  0.00    -0.291 N 
HETATM   10  C19 UNL     1     -10.733  16.968  -7.469  1.00  0.00     0.331 A 
HETATM   11  O1  UNL     1      -9.848  16.622  -6.618  1.00  0.00    -0.246 OA
HETATM   12  N4  UNL     1     -11.369  18.130  -7.408  1.00  0.00    -0.288 N 
HETATM   13  C20 UNL     1     -11.190  19.174  -6.413  1.00  0.00     0.163 C 
ENDROOT
BRANCH   1  14
HETATM   14  N1  UNL     1     -14.811  19.851 -10.435  1.00  0.00    -0.370 N 
ATOM     15  H1  UNL     1     -15.789  19.566 -10.490  1.00  0.00     0.161 HD
BRANCH  14  16
HETATM   16  C7  UNL     1     -14.490  21.207 -10.824  1.00  0.00     0.086 C 
HETATM   17  C2  UNL     1     -15.701  22.114 -10.712  1.00  0.00     0.004 C 
HETATM   18  C1  UNL     1     -16.064  22.451  -9.304  1.00  0.00     0.012 C 
HETATM   19  C3  UNL     1     -16.846  21.498 -11.441  1.00  0.00     0.006 C 
HETATM   20  C4  UNL     1     -16.499  20.643 -12.606  1.00  0.00     0.001 C 
HETATM   21  C5  UNL     1     -15.161  20.851 -13.211  1.00  0.00     0.002 C 
HETATM   22  C6  UNL     1     -14.080  21.251 -12.267  1.00  0.00     0.025 C 
ENDBRANCH  14  16
ENDBRANCH   1  14
BRANCH   9  23
HETATM   23  C13 UNL     1     -10.647  14.910  -8.881  1.00  0.00     0.095 C 
HETATM   24  C14 UNL     1      -9.623  14.913  -9.982  1.00  0.00     0.026 C 
HETATM   25  C15 UNL     1      -9.078  13.516 -10.109  1.00  0.00     0.002 C 
HETATM   26  C16 UNL     1      -9.622  12.562  -9.088  1.00  0.00     0.000 C 
HETATM   27  C17 UNL     1     -11.114  12.529  -9.012  1.00  0.00     0.002 C 
HETATM   28  C18 UNL     1     -11.726  13.920  -9.231  1.00  0.00     0.026 C 
ENDBRANCH   9  23
TORSDOF 3
ENDMDL
MODEL 5
REMARK VINA RESULT: -6.309764156      1.200      1.821
REMARK  3 active torsions:
REMARK  status: ('A' for Active; 'I' for Inactive)
REMARK    1  A    between atoms: C7_7  and  N1_8 
REMARK    2  A    between atoms: N1_8  and  C8_10 
REMARK    3  A    between atoms: N3_18  and  C13_19 
ROOT
HETATM    1  C8  UNL     1     -13.476  19.321 -10.753  1.00  0.00     0.125 A 
HETATM    2  N2  UNL     1     -12.356  19.524 -10.041  1.00  0.00    -0.325 N 
ATOM      3  H2  UNL     1     -12.071  20.487  -9.865  1.00  0.00     0.169 HD
HETATM    4  C9  UNL     1     -11.587  18.546  -9.546  1.00  0.00     0.140 A 
HETATM    5  C10 UNL     1     -11.943  17.229  -9.765  1.00  0.00     0.085 A 
HETATM    6  C11 UNL     1     -13.082  16.970 -10.490  1.00  0.00     0.061 A 
HETATM    7  C12 UNL     1     -13.840  18.009 -10.978  1.00  0.00     0.080 A 
HETATM    8 CL1  UNL     1     -15.304  17.652 -11.908  1.00  0.00    -0.080 Cl
HETATM    9  N3  UNL     1     -11.032  16.429  -9.180  1.00  0.00    -0.291 N 
HETATM   10  C19 UNL     1     -10.135  17.277  -8.613  1.00  0.00     0.331 A 
HETATM   11  O1  UNL     1      -9.104  16.920  -7.954  1.00  0.00    -0.246 OA
HETATM   12  N4  UNL     1     -10.447  18.550  -8.819  1.00  0.00    -0.288 N 
HETATM   13  C20 UNL     1      -9.712  19.717  -8.357  1.00  0.00     0.163 C 
ENDROOT
BRANCH   1  14
HETATM   14  N1  UNL     1     -14.280  20.363 -11.265  1.00  0.00    -0.370 N 
ATOM     15  H1  UNL     1     -14.034  20.740 -12.181  1.00  0.00     0.161 HD
BRANCH  14  16
HETATM   16  C7  UNL     1     -15.426  20.938 -10.595  1.00  0.00     0.086 C 
HETATM   17  C2  UNL     1     -16.205  21.853 -11.522  1.00  0.00     0.004 C 
HETATM   18  C1  UNL     1     -16.996  21.121 -12.554  1.00  0.00     0.012 C 
HETATM   19  C3  UNL     1     -15.272  22.836 -12.142  1.00  0.00     0.006 C 
HETATM   20  C4  UNL     1     -14.087  23.218 -11.331  1.00  0.00     0.001 C 
HETATM   21  C5  UNL     1     -14.175  22.984  -9.869  1.00  0.00     0.002 C 
HETATM   22  C6  UNL     1     -14.980  21.801  -9.451  1.00  0.00     0.025 C 
ENDBRANCH  14  16
ENDBRANCH   1  14
BRANCH   9  23
HETATM   23  C13 UNL     1     -10.990  14.993  -9.145  1.00  0.00     0.095 C 
HETATM   24  C14 UNL     1     -11.367  14.398  -7.816  1.00  0.00     0.026 C 
HETATM   25  C15 UNL     1     -11.456  12.905  -7.989  1.00  0.00     0.002 C 
HETATM   26  C16 UNL     1     -11.237  12.447  -9.399  1.00  0.00     0.000 C 
HETATM   27  C17 UNL     1      -9.982  12.964 -10.024  1.00  0.00     0.002 C 
HETATM   28  C18 UNL     1      -9.676  14.401  -9.581  1.00  0.00     0.026 C 
ENDBRANCH   9  23
TORSDOF 3
ENDMDL
