MODEL 1
REMARK VINA RESULT: -6.857564009      0.000      0.000
REMARK  3 active torsions:
REMARK  status: ('A' for Active; 'I' for Inactive)
REMARK    1  A    between atoms: O1_2  and  C2_3 
REMARK    2  A    between atoms: C6_7  and  C7_8 
REMARK    3  A    between atoms: C8_11  and  C9_12 
ROOT
HETATM    1  C7  UNL     1     -11.684  17.934  -9.551  1.00  0.00     0.065 A 
HETATM    2  N1  UNL     1     -12.335  18.296 -10.667  1.00  0.00    -0.356 N 
ATOM      3  H1  UNL     1     -12.417  17.603 -11.411  1.00  0.00     0.166 HD
HETATM    4  C8  UNL     1     -12.888  19.502 -10.878  1.00  0.00     0.036 A 
HETATM    5  C15 UNL     1     -12.792  20.457  -9.885  1.00  0.00     0.093 A 
HETATM    6  C16 UNL     1     -13.363  21.765 -10.033  1.00  0.00     0.103 C 
HETATM    7  N2  UNL     1     -13.831  22.815 -10.131  1.00  0.00    -0.191 NA
HETATM    8  C17 UNL     1     -12.118  20.104  -8.714  1.00  0.00     0.092 A 
HETATM    9  N3  UNL     1     -12.022  21.091  -7.701  1.00  0.00    -0.099 NA
HETATM   10  C18 UNL     1     -11.559  18.845  -8.536  1.00  0.00     0.098 A 
HETATM   11  C19 UNL     1     -10.861  18.545  -7.319  1.00  0.00     0.103 C 
HETATM   12  N4  UNL     1     -10.277  18.322  -6.326  1.00  0.00    -0.191 NA
ENDROOT
BRANCH   4  13
HETATM   13  C9  UNL     1     -13.591  19.771 -12.156  1.00  0.00     0.037 C 
HETATM   14  C10 UNL     1     -15.043  19.305 -11.985  1.00  0.00     0.011 C 
HETATM   15  C11 UNL     1     -15.017  17.792 -12.033  1.00  0.00     0.001 C 
HETATM   16  C12 UNL     1     -14.997  17.412 -13.504  1.00  0.00     0.000 C 
HETATM   17  C13 UNL     1     -14.175  18.429 -14.214  1.00  0.00     0.001 C 
HETATM   18  C14 UNL     1     -13.064  19.032 -13.341  1.00  0.00     0.011 C 
ENDBRANCH   4  13
BRANCH   1  19
HETATM   19  C6  UNL     1     -11.099  16.589  -9.424  1.00  0.00    -0.005 A 
HETATM   20  C5  UNL     1      -9.951  16.198 -10.069  1.00  0.00     0.023 A 
HETATM   21  C3  UNL     1      -9.500  14.901  -9.888  1.00  0.00    -0.026 A 
HETATM   22  C2  UNL     1     -10.194  14.038  -9.082  1.00  0.00     0.095 A 
HETATM   23  C4  UNL     1      -8.256  14.463 -10.578  1.00  0.00     0.051 C 
HETATM   24  C21 UNL     1     -11.335  14.451  -8.450  1.00  0.00     0.068 A 
HETATM   25  C20 UNL     1     -11.793  15.721  -8.614  1.00  0.00     0.040 A 
HETATM   26 CL1  UNL     1     -12.234  13.345  -7.406  1.00  0.00    -0.081 Cl
BRANCH  22  27
HETATM   27  O1  UNL     1      -9.790  12.728  -8.865  1.00  0.00    -0.354 OA
HETATM   28  C1  UNL     1     -10.296  11.631  -9.579  1.00  0.00     0.210 C 
ENDBRANCH  22  27
ENDBRANCH   1  19
TORSDOF 3
ENDMDL
MODEL 2
REMARK VINA RESULT: -6.795426468      1.092      1.703
REMARK  3 active torsions:
REMARK  status: ('A' for Active; 'I' for Inactive)
REMARK    1  A    between atoms: O1_2  and  C2_3 
REMARK    2  A    between atoms: C6_7  and  C7_8 
REMARK    3  A    between atoms: C8_11  and  C9_12 
ROOT
HETATM    1  C7  UNL     1     -11.920  17.863  -9.382  1.00  0.00     0.065 A 
HETATM    2  N1  UNL     1     -12.498  18.251 -10.530  1.00  0.00    -0.356 N 
ATOM      3  H1  UNL     1     -12.598  17.554 -11.267  1.00  0.00     0.166 HD
HETATM    4  C8  UNL     1     -12.955  19.490 -10.779  1.00  0.00     0.036 A 
HETATM    5  C15 UNL     1     -12.832  20.452  -9.796  1.00  0.00     0.093 A 
HETATM    6  C16 UNL     1     -13.302  21.794  -9.985  1.00  0.00     0.103 C 
HETATM    7  N2  UNL     1     -13.690  22.872 -10.116  1.00  0.00    -0.191 NA
HETATM    8  C17 UNL     1     -12.233  20.071  -8.593  1.00  0.00     0.092 A 
HETATM    9  N3  UNL     1     -12.109  21.065  -7.590  1.00  0.00    -0.099 NA
HETATM   10  C18 UNL     1     -11.773  18.779  -8.375  1.00  0.00     0.098 A 
HETATM   11  C19 UNL     1     -11.148  18.450  -7.126  1.00  0.00     0.103 C 
HETATM   12  N4  UNL     1     -10.622  18.202  -6.107  1.00  0.00    -0.191 NA
ENDROOT
BRANCH   4  13
HETATM   13  C9  UNL     1     -13.585  19.787 -12.088  1.00  0.00     0.037 C 
HETATM   14  C10 UNL     1     -15.050  19.342 -12.002  1.00  0.00     0.011 C 
HETATM   15  C11 UNL     1     -15.044  17.828 -12.070  1.00  0.00     0.001 C 
HETATM   16  C12 UNL     1     -14.951  17.469 -13.543  1.00  0.00     0.000 C 
HETATM   17  C13 UNL     1     -14.078  18.482 -14.194  1.00  0.00     0.001 C 
HETATM   18  C14 UNL     1     -13.006  19.056 -13.255  1.00  0.00     0.011 C 
ENDBRANCH   4  13
BRANCH   1  19
HETATM   19  C6  UNL     1     -11.438  16.482  -9.213  1.00  0.00    -0.005 A 
HETATM   20  C5  UNL     1     -12.057  15.556  -8.410  1.00  0.00     0.023 A 
HETATM   21  C3  UNL     1     -11.506  14.289  -8.315  1.00  0.00    -0.026 A 
HETATM   22  C2  UNL     1     -10.367  13.981  -9.009  1.00  0.00     0.095 A 
HETATM   23  C4  UNL     1     -12.168  13.274  -7.450  1.00  0.00     0.051 C 
HETATM   24  C21 UNL     1      -9.768  14.920  -9.804  1.00  0.00     0.068 A 
HETATM   25  C20 UNL     1     -10.295  16.169  -9.911  1.00  0.00     0.040 A 
HETATM   26 CL1  UNL     1      -8.300  14.529 -10.706  1.00  0.00    -0.081 Cl
BRANCH  22  27
HETATM   27  O1  UNL     1      -9.770  12.729  -8.951  1.00  0.00    -0.354 OA
HETATM   28  C1  UNL     1     -10.220  11.620  -9.682  1.00  0.00     0.210 C 
ENDBRANCH  22  27
ENDBRANCH   1  19
TORSDOF 3
ENDMDL
MODEL 3
REMARK VINA RESULT: -6.682140082      1.698      2.084
REMARK  3 active torsions:
REMARK  status: ('A' for Active; 'I' for Inactive)
REMARK    1  A    between atoms: O1_2  and  C2_3 
REMARK    2  A    between atoms: C6_7  and  C7_8 
REMARK    3  A    between atoms: C8_11  and  C9_12 
ROOT
HETATM    1  C7  UNL     1     -12.481  18.386  -9.572  1.00  0.00     0.065 A 
HETATM    2  N1  UNL     1     -13.017  18.731 -10.753  1.00  0.00    -0.356 N 
ATOM      3  H1  UNL     1     -12.776  18.164 -11.565  1.00  0.00     0.166 HD
HETATM    4  C8  UNL     1     -13.847  19.770 -10.944  1.00  0.00     0.036 A 
HETATM    5  C15 UNL     1     -14.190  20.554  -9.860  1.00  0.00     0.093 A 
HETATM    6  C16 UNL     1     -15.076  21.675  -9.984  1.00  0.00     0.103 C 
HETATM    7  N2  UNL     1     -15.800  22.570 -10.065  1.00  0.00    -0.191 NA
HETATM    8  C17 UNL     1     -13.643  20.213  -8.621  1.00  0.00     0.092 A 
HETATM    9  N3  UNL     1     -13.998  21.024  -7.513  1.00  0.00    -0.099 NA
HETATM   10  C18 UNL     1     -12.787  19.131  -8.464  1.00  0.00     0.098 A 
HETATM   11  C19 UNL     1     -12.241  18.840  -7.170  1.00  0.00     0.103 C 
HETATM   12  N4  UNL     1     -11.788  18.627  -6.110  1.00  0.00    -0.191 NA
ENDROOT
BRANCH   4  13
HETATM   13  C9  UNL     1     -14.380  20.039 -12.302  1.00  0.00     0.037 C 
HETATM   14  C10 UNL     1     -15.746  19.350 -12.402  1.00  0.00     0.011 C 
HETATM   15  C11 UNL     1     -15.470  17.866 -12.536  1.00  0.00     0.001 C 
HETATM   16  C12 UNL     1     -15.164  17.621 -14.004  1.00  0.00     0.000 C 
HETATM   17  C13 UNL     1     -14.417  18.806 -14.506  1.00  0.00     0.001 C 
HETATM   18  C14 UNL     1     -13.565  19.491 -13.427  1.00  0.00     0.011 C 
ENDBRANCH   4  13
BRANCH   1  19
HETATM   19  C6  UNL     1     -11.567  17.235  -9.469  1.00  0.00    -0.005 A 
HETATM   20  C5  UNL     1     -11.995  15.932  -9.393  1.00  0.00     0.023 A 
HETATM   21  C3  UNL     1     -11.045  14.931  -9.283  1.00  0.00    -0.026 A 
HETATM   22  C2  UNL     1      -9.714  15.246  -9.252  1.00  0.00     0.095 A 
HETATM   23  C4  UNL     1     -11.494  13.513  -9.203  1.00  0.00     0.051 C 
HETATM   24  C21 UNL     1      -9.311  16.551  -9.330  1.00  0.00     0.068 A 
HETATM   25  C20 UNL     1     -10.229  17.550  -9.439  1.00  0.00     0.040 A 
HETATM   26 CL1  UNL     1      -7.594  16.966  -9.293  1.00  0.00    -0.081 Cl
BRANCH  22  27
HETATM   27  O1  UNL     1      -8.718  14.284  -9.143  1.00  0.00    -0.354 OA
HETATM   28  C1  UNL     1      -8.042  13.738 -10.244  1.00  0.00     0.210 C 
ENDBRANCH  22  27
ENDBRANCH   1  19
TORSDOF 3
ENDMDL
MODEL 4
REMARK VINA RESULT: -6.626908079      2.992      6.455
REMARK  3 active torsions:
REMARK  status: ('A' for Active; 'I' for Inactive)
REMARK    1  A    between atoms: O1_2  and  C2_3 
REMARK    2  A    between atoms: C6_7  and  C7_8 
REMARK    3  A    between atoms: C8_11  and  C9_12 
ROOT
HETATM    1  C7  UNL     1     -12.466  17.597  -9.943  1.00  0.00     0.065 A 
HETATM    2  N1  UNL     1     -12.191  16.325  -9.612  1.00  0.00    -0.356 N 
ATOM      3  H1  UNL     1     -12.227  15.626 -10.354  1.00  0.00     0.166 HD
HETATM    4  C8  UNL     1     -11.873  15.904  -8.376  1.00  0.00     0.036 A 
HETATM    5  C15 UNL     1     -11.816  16.831  -7.355  1.00  0.00     0.093 A 
HETATM    6  C16 UNL     1     -11.476  16.460  -6.011  1.00  0.00     0.103 C 
HETATM    7  N2  UNL     1     -11.189  16.180  -4.930  1.00  0.00    -0.191 NA
HETATM    8  C17 UNL     1     -12.098  18.161  -7.675  1.00  0.00     0.092 A 
HETATM    9  N3  UNL     1     -12.040  19.106  -6.620  1.00  0.00    -0.099 NA
HETATM   10  C18 UNL     1     -12.425  18.556  -8.966  1.00  0.00     0.098 A 
HETATM   11  C19 UNL     1     -12.724  19.933  -9.232  1.00  0.00     0.103 C 
HETATM   12  N4  UNL     1     -12.984  21.060  -9.430  1.00  0.00    -0.191 NA
ENDROOT
BRANCH   4  13
HETATM   13  C9  UNL     1     -11.582  14.468  -8.146  1.00  0.00     0.037 C 
HETATM   14  C10 UNL     1     -10.056  14.304  -8.158  1.00  0.00     0.011 C 
HETATM   15  C11 UNL     1      -9.624  14.413  -9.605  1.00  0.00     0.001 C 
HETATM   16  C12 UNL     1      -9.844  13.041 -10.220  1.00  0.00     0.000 C 
HETATM   17  C13 UNL     1     -11.073  12.470  -9.605  1.00  0.00     0.001 C 
HETATM   18  C14 UNL     1     -12.099  13.537  -9.192  1.00  0.00     0.011 C 
ENDBRANCH   4  13
BRANCH   1  19
HETATM   19  C6  UNL     1     -12.820  17.954 -11.327  1.00  0.00    -0.005 A 
HETATM   20  C5  UNL     1     -13.996  17.579 -11.929  1.00  0.00     0.023 A 
HETATM   21  C3  UNL     1     -14.217  17.959 -13.242  1.00  0.00    -0.026 A 
HETATM   22  C2  UNL     1     -13.275  18.690 -13.914  1.00  0.00     0.095 A 
HETATM   23  C4  UNL     1     -15.489  17.563 -13.907  1.00  0.00     0.051 C 
HETATM   24  C21 UNL     1     -12.110  19.052 -13.293  1.00  0.00     0.068 A 
HETATM   25  C20 UNL     1     -11.875  18.689 -12.003  1.00  0.00     0.040 A 
HETATM   26 CL1  UNL     1     -10.890  19.998 -14.153  1.00  0.00    -0.081 Cl
BRANCH  22  27
HETATM   27  O1  UNL     1     -13.441  19.098 -15.230  1.00  0.00    -0.354 OA
HETATM   28  C1  UNL     1     -13.974  20.343 -15.596  1.00  0.00     0.210 C 
ENDBRANCH  22  27
ENDBRANCH   1  19
TORSDOF 3
ENDMDL
MODEL 5
REMARK VINA RESULT: -6.468713845      1.452      1.679
REMARK  3 active torsions:
REMARK  status: ('A' for Active; 'I' for Inactive)
REMARK    1  A    between atoms: O1_2  and  C2_3 
REMARK    2  A    between atoms: C6_7  and  C7_8 
REMARK    3  A    between atoms: C8_11  and  C9_12 
ROOT
HETATM    1  C7  UNL     1     -12.474  18.620  -9.549  1.00  0.00     0.065 A 
HETATM    2  N1  UNL     1     -13.028  18.908 -10.737  1.00  0.00    -0.356 N 
ATOM      3  H1  UNL     1     -12.706  18.380 -11.548  1.00  0.00     0.166 HD
HETATM    4  C8  UNL     1     -13.976  19.839 -10.936  1.00  0.00     0.036 A 
HETATM    5  C15 UNL     1     -14.430  20.566  -9.854  1.00  0.00     0.093 A 
HETATM    6  C16 UNL     1     -15.444  21.572  -9.987  1.00  0.00     0.103 C 
HETATM    7  N2  UNL     1     -16.270  22.371 -10.074  1.00  0.00    -0.191 NA
HETATM    8  C17 UNL     1     -13.867  20.284  -8.607  1.00  0.00     0.092 A 
HETATM    9  N3  UNL     1     -14.337  21.036  -7.501  1.00  0.00    -0.099 NA
HETATM   10  C18 UNL     1     -12.888  19.313  -8.442  1.00  0.00     0.098 A 
HETATM   11  C19 UNL     1     -12.332  19.080  -7.140  1.00  0.00     0.103 C 
HETATM   12  N4  UNL     1     -11.874  18.914  -6.073  1.00  0.00    -0.191 NA
ENDROOT
BRANCH   4  13
HETATM   13  C9  UNL     1     -14.514  20.052 -12.302  1.00  0.00     0.037 C 
HETATM   14  C10 UNL     1     -15.809  19.238 -12.416  1.00  0.00     0.011 C 
HETATM   15  C11 UNL     1     -15.393  17.787 -12.539  1.00  0.00     0.001 C 
HETATM   16  C12 UNL     1     -15.047  17.566 -14.002  1.00  0.00     0.000 C 
HETATM   17  C13 UNL     1     -14.408  18.814 -14.501  1.00  0.00     0.001 C 
HETATM   18  C14 UNL     1     -13.637  19.579 -13.414  1.00  0.00     0.011 C 
ENDBRANCH   4  13
BRANCH   1  19
HETATM   19  C6  UNL     1     -11.428  17.589  -9.437  1.00  0.00    -0.005 A 
HETATM   20  C5  UNL     1     -10.086  17.874  -9.376  1.00  0.00     0.023 A 
HETATM   21  C3  UNL     1      -9.190  16.822  -9.288  1.00  0.00    -0.026 A 
HETATM   22  C2  UNL     1      -9.645  15.532  -9.264  1.00  0.00     0.095 A 
HETATM   23  C4  UNL     1      -7.732  17.116  -9.218  1.00  0.00     0.051 C 
HETATM   24  C21 UNL     1     -10.987  15.272  -9.325  1.00  0.00     0.068 A 
HETATM   25  C20 UNL     1     -11.883  16.291  -9.411  1.00  0.00     0.040 A 
HETATM   26 CL1  UNL     1     -11.583  13.609  -9.292  1.00  0.00    -0.081 Cl
BRANCH  22  27
HETATM   27  O1  UNL     1      -8.794  14.438  -9.177  1.00  0.00    -0.354 OA
HETATM   28  C1  UNL     1      -8.228  13.804 -10.293  1.00  0.00     0.210 C 
ENDBRANCH  22  27
ENDBRANCH   1  19
TORSDOF 3
ENDMDL
