MODEL 1
REMARK VINA RESULT: -6.680380286      0.000      0.000
REMARK  2 active torsions:
REMARK  status: ('A' for Active; 'I' for Inactive)
REMARK    1  A    between atoms: C2_2  and  C3_3 
REMARK    2  A    between atoms: C11_14  and  C12_15 
ROOT
HETATM    1  C3  UNL     1     -12.797  21.437 -14.728  1.00  0.00     0.126 C 
HETATM    2  C4  UNL     1     -11.424  22.081 -14.475  1.00  0.00     0.070 C 
HETATM    3  N1  UNL     1     -13.106  20.637 -13.608  1.00  0.00    -0.383 N 
ATOM      4  H1  UNL     1     -12.707  20.837 -12.691  1.00  0.00     0.157 HD
HETATM    5  C5  UNL     1     -13.989  19.547 -13.799  1.00  0.00     0.033 C 
HETATM    6  C6  UNL     1     -15.273  19.881 -13.019  1.00  0.00     0.031 C 
HETATM    7  C7  UNL     1     -14.777  20.280 -11.637  1.00  0.00     0.006 C 
HETATM    8  C8  UNL     1     -14.347  19.011 -10.981  1.00  0.00     0.043 C 
HETATM    9  C9  UNL     1     -13.398  18.182 -11.747  1.00  0.00     0.120 C 
HETATM   10  C10 UNL     1     -11.999  18.399 -11.145  1.00  0.00     0.212 C 
HETATM   11  O1  UNL     1     -11.598  17.224 -10.501  1.00  0.00    -0.351 OA
HETATM   12  C11 UNL     1     -12.516  16.903  -9.507  1.00  0.00     0.330 C 
HETATM   13  O2  UNL     1     -13.764  16.803 -10.108  1.00  0.00    -0.202 OA
HETATM   14  O3  UNL     1     -13.680  16.829 -11.426  1.00  0.00    -0.224 OA
HETATM   15  C18 UNL     1     -13.365  18.313 -13.202  1.00  0.00     0.074 C 
HETATM   16  C19 UNL     1     -14.403  19.259 -15.193  1.00  0.00     0.057 C 
HETATM   17  C20 UNL     1     -13.879  20.194 -16.234  1.00  0.00     0.173 C 
HETATM   18  O4  UNL     1     -12.677  20.769 -15.928  1.00  0.00    -0.362 OA
ENDROOT
BRANCH  12  19
HETATM   19  C12 UNL     1     -12.187  15.624  -8.880  1.00  0.00     0.001 A 
HETATM   20  C13 UNL     1     -12.488  15.392  -7.559  1.00  0.00     0.012 A 
HETATM   21  C14 UNL     1     -12.181  14.175  -6.948  1.00  0.00     0.002 A 
HETATM   22  C15 UNL     1     -11.559  13.185  -7.683  1.00  0.00     0.024 A 
HETATM   23  C16 UNL     1     -11.249  13.403  -9.011  1.00  0.00     0.034 A 
HETATM   24 CL1  UNL     1     -10.465  12.145  -9.934  1.00  0.00    -0.084 Cl
HETATM   25  C17 UNL     1     -11.570  14.627  -9.592  1.00  0.00     0.036 A 
ENDBRANCH  12  19
BRANCH   1  26
HETATM   26  C2  UNL     1     -13.774  22.595 -14.802  1.00  0.00     0.056 C 
HETATM   27  C1  UNL     1     -13.823  23.369 -13.503  1.00  0.00     0.010 C 
ENDBRANCH   1  26
TORSDOF 2
ENDMDL
MODEL 2
REMARK VINA RESULT: -6.216888091      3.260      8.041
REMARK  2 active torsions:
REMARK  status: ('A' for Active; 'I' for Inactive)
REMARK    1  A    between atoms: C2_2  and  C3_3 
REMARK    2  A    between atoms: C11_14  and  C12_15 
ROOT
HETATM    1  C3  UNL     1     -10.920  15.271  -8.784  1.00  0.00     0.126 C 
HETATM    2  C4  UNL     1     -10.100  14.347  -9.699  1.00  0.00     0.070 C 
HETATM    3  N1  UNL     1     -11.854  15.953  -9.592  1.00  0.00    -0.383 N 
ATOM      4  H1  UNL     1     -12.178  15.555 -10.473  1.00  0.00     0.157 HD
HETATM    5  C5  UNL     1     -12.327  17.208  -9.138  1.00  0.00     0.033 C 
HETATM    6  C6  UNL     1     -13.820  17.021  -8.812  1.00  0.00     0.031 C 
HETATM    7  C7  UNL     1     -14.391  16.347 -10.051  1.00  0.00     0.006 C 
HETATM    8  C8  UNL     1     -14.443  17.407 -11.099  1.00  0.00     0.043 C 
HETATM    9  C9  UNL     1     -13.182  18.137 -11.336  1.00  0.00     0.120 C 
HETATM   10  C10 UNL     1     -12.553  17.574 -12.622  1.00  0.00     0.212 C 
HETATM   11  O1  UNL     1     -12.622  18.550 -13.621  1.00  0.00    -0.351 OA
HETATM   12  C11 UNL     1     -13.950  18.900 -13.838  1.00  0.00     0.330 C 
HETATM   13  O2  UNL     1     -14.474  19.320 -12.621  1.00  0.00    -0.202 OA
HETATM   14  O3  UNL     1     -13.535  19.461 -11.703  1.00  0.00    -0.224 OA
HETATM   15  C18 UNL     1     -12.196  18.204 -10.260  1.00  0.00     0.074 C 
HETATM   16  C19 UNL     1     -11.692  17.760  -7.918  1.00  0.00     0.057 C 
HETATM   17  C20 UNL     1     -10.658  16.895  -7.274  1.00  0.00     0.173 C 
HETATM   18  O4  UNL     1      -9.997  16.063  -8.134  1.00  0.00    -0.362 OA
ENDROOT
BRANCH  12  19
HETATM   19  C12 UNL     1     -14.056  19.993 -14.803  1.00  0.00     0.001 A 
HETATM   20  C13 UNL     1     -14.342  21.272 -14.387  1.00  0.00     0.012 A 
HETATM   21  C14 UNL     1     -14.445  22.325 -15.296  1.00  0.00     0.002 A 
HETATM   22  C15 UNL     1     -14.259  22.079 -16.643  1.00  0.00     0.024 A 
HETATM   23  C16 UNL     1     -13.971  20.800 -17.076  1.00  0.00     0.034 A 
HETATM   24 CL1  UNL     1     -13.735  20.498 -18.781  1.00  0.00    -0.084 Cl
HETATM   25  C17 UNL     1     -13.874  19.771 -16.145  1.00  0.00     0.036 A 
ENDBRANCH  12  19
BRANCH   1  26
HETATM   26  C2  UNL     1     -11.659  14.344  -7.838  1.00  0.00     0.056 C 
HETATM   27  C1  UNL     1     -11.358  12.890  -8.131  1.00  0.00     0.010 C 
ENDBRANCH   1  26
TORSDOF 2
ENDMDL
MODEL 3
REMARK VINA RESULT: -6.092710029      3.438      8.142
REMARK  2 active torsions:
REMARK  status: ('A' for Active; 'I' for Inactive)
REMARK    1  A    between atoms: C2_2  and  C3_3 
REMARK    2  A    between atoms: C11_14  and  C12_15 
ROOT
HETATM    1  C3  UNL     1     -10.783  15.365  -8.815  1.00  0.00     0.126 C 
HETATM    2  C4  UNL     1      -9.960  14.458  -9.744  1.00  0.00     0.070 C 
HETATM    3  N1  UNL     1     -11.739  16.033  -9.609  1.00  0.00    -0.383 N 
ATOM      4  H1  UNL     1     -12.069  15.632 -10.487  1.00  0.00     0.157 HD
HETATM    5  C5  UNL     1     -12.227  17.279  -9.145  1.00  0.00     0.033 C 
HETATM    6  C6  UNL     1     -13.712  17.067  -8.799  1.00  0.00     0.031 C 
HETATM    7  C7  UNL     1     -14.289  16.386 -10.032  1.00  0.00     0.006 C 
HETATM    8  C8  UNL     1     -14.373  17.447 -11.076  1.00  0.00     0.043 C 
HETATM    9  C9  UNL     1     -13.128  18.199 -11.328  1.00  0.00     0.120 C 
HETATM   10  C10 UNL     1     -12.507  17.651 -12.624  1.00  0.00     0.212 C 
HETATM   11  O1  UNL     1     -12.606  18.628 -13.620  1.00  0.00    -0.351 OA
HETATM   12  C11 UNL     1     -13.943  18.956 -13.817  1.00  0.00     0.330 C 
HETATM   13  O2  UNL     1     -14.457  19.363 -12.593  1.00  0.00    -0.202 OA
HETATM   14  O3  UNL     1     -13.509  19.518 -11.687  1.00  0.00    -0.224 OA
HETATM   15  C18 UNL     1     -12.128  18.281 -10.266  1.00  0.00     0.074 C 
HETATM   16  C19 UNL     1     -11.585  17.839  -7.932  1.00  0.00     0.057 C 
HETATM   17  C20 UNL     1     -10.528  16.989  -7.305  1.00  0.00     0.173 C 
HETATM   18  O4  UNL     1      -9.864  16.171  -8.177  1.00  0.00    -0.362 OA
ENDROOT
BRANCH  12  19
HETATM   19  C12 UNL     1     -14.081  20.050 -14.778  1.00  0.00     0.001 A 
HETATM   20  C13 UNL     1     -13.650  19.903 -16.075  1.00  0.00     0.012 A 
HETATM   21  C14 UNL     1     -13.776  20.938 -17.003  1.00  0.00     0.002 A 
HETATM   22  C15 UNL     1     -14.342  22.135 -16.610  1.00  0.00     0.024 A 
HETATM   23  C16 UNL     1     -14.778  22.298 -15.310  1.00  0.00     0.034 A 
HETATM   24 CL1  UNL     1     -15.494  23.815 -14.823  1.00  0.00    -0.084 Cl
HETATM   25  C17 UNL     1     -14.640  21.247 -14.409  1.00  0.00     0.036 A 
ENDBRANCH  12  19
BRANCH   1  26
HETATM   26  C2  UNL     1     -11.492  14.423  -7.862  1.00  0.00     0.056 C 
HETATM   27  C1  UNL     1     -11.394  12.985  -8.321  1.00  0.00     0.010 C 
ENDBRANCH   1  26
TORSDOF 2
ENDMDL
MODEL 4
REMARK VINA RESULT: -6.050312664      5.746      7.759
REMARK  2 active torsions:
REMARK  status: ('A' for Active; 'I' for Inactive)
REMARK    1  A    between atoms: C2_2  and  C3_3 
REMARK    2  A    between atoms: C11_14  and  C12_15 
ROOT
HETATM    1  C3  UNL     1     -13.865  20.511  -4.198  1.00  0.00     0.126 C 
HETATM    2  C4  UNL     1     -15.054  20.759  -5.141  1.00  0.00     0.070 C 
HETATM    3  N1  UNL     1     -12.815  19.968  -4.968  1.00  0.00    -0.383 N 
ATOM      4  H1  UNL     1     -12.747  20.150  -5.969  1.00  0.00     0.157 HD
HETATM    5  C5  UNL     1     -11.858  19.162  -4.304  1.00  0.00     0.033 C 
HETATM    6  C6  UNL     1     -10.530  19.938  -4.343  1.00  0.00     0.031 C 
HETATM    7  C7  UNL     1     -10.372  20.334  -5.804  1.00  0.00     0.006 C 
HETATM    8  C8  UNL     1     -10.009  19.080  -6.525  1.00  0.00     0.043 C 
HETATM    9  C9  UNL     1     -10.908  17.931  -6.305  1.00  0.00     0.120 C 
HETATM   10  C10 UNL     1     -11.814  17.806  -7.541  1.00  0.00     0.212 C 
HETATM   11  O1  UNL     1     -11.463  16.648  -8.242  1.00  0.00    -0.351 OA
HETATM   12  C11 UNL     1     -10.127  16.720  -8.619  1.00  0.00     0.330 C 
HETATM   13  O2  UNL     1      -9.378  16.914  -7.465  1.00  0.00    -0.202 OA
HETATM   14  O3  UNL     1     -10.106  16.762  -6.373  1.00  0.00    -0.224 OA
HETATM   15  C18 UNL     1     -11.694  17.879  -5.074  1.00  0.00     0.074 C 
HETATM   16  C19 UNL     1     -12.124  18.846  -2.880  1.00  0.00     0.057 C 
HETATM   17  C20 UNL     1     -13.350  19.466  -2.294  1.00  0.00     0.173 C 
HETATM   18  O4  UNL     1     -14.353  19.703  -3.192  1.00  0.00    -0.362 OA
ENDROOT
BRANCH  12  19
HETATM   19  C12 UNL     1      -9.694  15.481  -9.264  1.00  0.00     0.001 A 
HETATM   20  C13 UNL     1      -8.513  15.431  -9.966  1.00  0.00     0.012 A 
HETATM   21  C14 UNL     1      -8.087  14.255 -10.586  1.00  0.00     0.002 A 
HETATM   22  C15 UNL     1      -8.867  13.119 -10.494  1.00  0.00     0.024 A 
HETATM   23  C16 UNL     1     -10.056  13.154  -9.792  1.00  0.00     0.034 A 
HETATM   24 CL1  UNL     1     -11.036  11.712  -9.680  1.00  0.00    -0.084 Cl
HETATM   25  C17 UNL     1     -10.454  14.341  -9.185  1.00  0.00     0.036 A 
ENDBRANCH  12  19
BRANCH   1  26
HETATM   26  C2  UNL     1     -13.460  21.884  -3.696  1.00  0.00     0.056 C 
HETATM   27  C1  UNL     1     -13.026  22.788  -4.829  1.00  0.00     0.010 C 
ENDBRANCH   1  26
TORSDOF 2
ENDMDL
MODEL 5
REMARK VINA RESULT: -5.971930710      3.507      8.101
REMARK  2 active torsions:
REMARK  status: ('A' for Active; 'I' for Inactive)
REMARK    1  A    between atoms: C2_2  and  C3_3 
REMARK    2  A    between atoms: C11_14  and  C12_15 
ROOT
HETATM    1  C3  UNL     1     -10.294  15.504  -9.010  1.00  0.00     0.126 C 
HETATM    2  C4  UNL     1      -9.342  15.133 -10.159  1.00  0.00     0.070 C 
HETATM    3  N1  UNL     1     -11.442  16.094  -9.579  1.00  0.00    -0.383 N 
ATOM      4  H1  UNL     1     -11.725  15.881 -10.535  1.00  0.00     0.157 HD
HETATM    5  C5  UNL     1     -12.187  16.994  -8.779  1.00  0.00     0.033 C 
HETATM    6  C6  UNL     1     -13.543  16.317  -8.508  1.00  0.00     0.031 C 
HETATM    7  C7  UNL     1     -14.023  15.879  -9.885  1.00  0.00     0.006 C 
HETATM    8  C8  UNL     1     -14.444  17.129 -10.582  1.00  0.00     0.043 C 
HETATM    9  C9  UNL     1     -13.446  18.216 -10.608  1.00  0.00     0.120 C 
HETATM   10  C10 UNL     1     -12.806  18.226 -12.006  1.00  0.00     0.212 C 
HETATM   11  O1  UNL     1     -13.217  19.380 -12.681  1.00  0.00    -0.351 OA
HETATM   12  C11 UNL     1     -14.604  19.393 -12.777  1.00  0.00     0.330 C 
HETATM   13  O2  UNL     1     -15.111  19.299 -11.487  1.00  0.00    -0.202 OA
HETATM   14  O3  UNL     1     -14.167  19.437 -10.574  1.00  0.00    -0.224 OA
HETATM   15  C18 UNL     1     -12.422  18.256  -9.566  1.00  0.00     0.074 C 
HETATM   16  C19 UNL     1     -11.616  17.342  -7.456  1.00  0.00     0.057 C 
HETATM   17  C20 UNL     1     -10.338  16.656  -7.098  1.00  0.00     0.173 C 
HETATM   18  O4  UNL     1      -9.559  16.311  -8.167  1.00  0.00    -0.362 OA
ENDROOT
BRANCH  12  19
HETATM   19  C12 UNL     1     -15.079  20.636 -13.384  1.00  0.00     0.001 A 
HETATM   20  C13 UNL     1     -14.331  21.279 -14.341  1.00  0.00     0.012 A 
HETATM   21  C14 UNL     1     -14.771  22.466 -14.930  1.00  0.00     0.002 A 
HETATM   22  C15 UNL     1     -15.982  23.006 -14.543  1.00  0.00     0.024 A 
HETATM   23  C16 UNL     1     -16.745  22.371 -13.582  1.00  0.00     0.034 A 
HETATM   24 CL1  UNL     1     -18.275  23.061 -13.100  1.00  0.00    -0.084 Cl
HETATM   25  C17 UNL     1     -16.278  21.189 -13.014  1.00  0.00     0.036 A 
ENDBRANCH  12  19
BRANCH   1  26
HETATM   26  C2  UNL     1     -10.676  14.185  -8.366  1.00  0.00     0.056 C 
HETATM   27  C1  UNL     1     -11.352  13.257  -9.351  1.00  0.00     0.010 C 
ENDBRANCH   1  26
TORSDOF 2
ENDMDL
