MODEL 1
REMARK VINA RESULT: -5.790973211      0.000      0.000
REMARK  4 active torsions:
REMARK  status: ('A' for Active; 'I' for Inactive)
REMARK    1  A    between atoms: O1_2  and  C2_3 
REMARK    2  A    between atoms: C8_9  and  O2_10 
REMARK    3  A    between atoms: C18_23  and  N2_24 
REMARK    4  A    between atoms: N2_24  and  N3_25 
ROOT
HETATM    1  C2  UNL     1      -9.244  19.807  -9.522  1.00  0.00     0.102 A 
HETATM    2  C3  UNL     1      -8.844  18.514  -9.619  1.00  0.00     0.055 A 
HETATM    3  C4  UNL     1      -9.429  17.561  -8.814  1.00  0.00     0.023 A 
HETATM    4  C5  UNL     1     -10.436  17.905  -7.887  1.00  0.00     0.009 A 
HETATM    5  C6  UNL     1     -10.859  19.209  -7.776  1.00  0.00    -0.013 A 
HETATM    6  C7  UNL     1     -11.941  19.642  -6.911  1.00  0.00     0.052 C 
HETATM    7  C8  UNL     1     -10.225  20.131  -8.621  1.00  0.00     0.108 A 
HETATM    8  C10 UNL     1     -11.030  16.951  -6.968  1.00  0.00     0.017 C 
HETATM    9  C11 UNL     1     -11.542  17.306  -5.641  1.00  0.00     0.069 C 
HETATM   10  N1  UNL     1     -11.672  15.810  -7.601  1.00  0.00    -0.358 N 
ATOM     11  H1  UNL     1     -12.668  15.675  -7.431  1.00  0.00     0.166 HD
HETATM   12  C12 UNL     1     -11.005  14.854  -8.454  1.00  0.00     0.046 A 
HETATM   13  C13 UNL     1     -11.699  13.654  -8.592  1.00  0.00     0.033 A 
HETATM   14  C14 UNL     1     -11.160  12.661  -9.368  1.00  0.00     0.044 A 
HETATM   15  C15 UNL     1      -9.939  12.807 -10.026  1.00  0.00     0.117 A 
HETATM   16  F1  UNL     1      -9.421  11.797 -10.795  1.00  0.00    -0.206 F 
HETATM   17  C16 UNL     1      -9.261  13.998  -9.883  1.00  0.00     0.059 A 
HETATM   18  C17 UNL     1      -9.795  14.997  -9.108  1.00  0.00     0.037 A 
HETATM   19  C18 UNL     1      -8.904  16.199  -9.136  1.00  0.00     0.154 C 
ENDROOT
BRANCH  19  20
HETATM   20  N2  UNL     1      -7.761  16.104  -9.448  1.00  0.00    -0.327 NA
BRANCH  20  21
HETATM   21  N3  UNL     1      -6.506  15.972  -9.723  1.00  0.00    -0.263 N 
HETATM   22  C19 UNL     1      -5.690  14.820 -10.190  1.00  0.00     0.157 C 
HETATM   23  C20 UNL     1      -4.939  15.396 -11.363  1.00  0.00     0.024 C 
HETATM   24  C21 UNL     1      -4.822  16.863 -11.017  1.00  0.00     0.024 C 
HETATM   25  C22 UNL     1      -5.458  17.025  -9.642  1.00  0.00     0.157 C 
ENDBRANCH  20  21
ENDBRANCH  19  20
BRANCH   1  26
HETATM   26  O1  UNL     1      -8.646  20.776 -10.341  1.00  0.00    -0.353 OA
HETATM   27  C1  UNL     1      -8.874  20.770 -11.739  1.00  0.00     0.210 C 
ENDBRANCH   1  26
BRANCH   7  28
HETATM   28  O2  UNL     1     -10.643  21.448  -8.513  1.00  0.00    -0.353 OA
HETATM   29  C9  UNL     1     -11.571  22.042  -9.396  1.00  0.00     0.210 C 
ENDBRANCH   7  28
TORSDOF 4
ENDMDL
MODEL 2
REMARK VINA RESULT: -5.681297940      2.694      4.808
REMARK  4 active torsions:
REMARK  status: ('A' for Active; 'I' for Inactive)
REMARK    1  A    between atoms: O1_2  and  C2_3 
REMARK    2  A    between atoms: C8_9  and  O2_10 
REMARK    3  A    between atoms: C18_23  and  N2_24 
REMARK    4  A    between atoms: N2_24  and  N3_25 
ROOT
HETATM    1  C2  UNL     1      -6.860  17.335  -9.231  1.00  0.00     0.102 A 
HETATM    2  C3  UNL     1      -8.089  16.758  -9.251  1.00  0.00     0.055 A 
HETATM    3  C4  UNL     1      -9.133  17.365  -8.588  1.00  0.00     0.023 A 
HETATM    4  C5  UNL     1      -8.948  18.574  -7.883  1.00  0.00     0.009 A 
HETATM    5  C6  UNL     1      -7.712  19.177  -7.855  1.00  0.00    -0.013 A 
HETATM    6  C7  UNL     1      -7.448  20.459  -7.227  1.00  0.00     0.052 C 
HETATM    7  C8  UNL     1      -6.692  18.512  -8.548  1.00  0.00     0.108 A 
HETATM    8  C10 UNL     1      -9.998  19.212  -7.110  1.00  0.00     0.017 C 
HETATM    9  C11 UNL     1      -9.753  20.023  -5.914  1.00  0.00     0.069 C 
HETATM   10  N1  UNL     1     -11.191  19.559  -7.867  1.00  0.00    -0.358 N 
ATOM     11  H1  UNL     1     -11.456  20.543  -7.905  1.00  0.00     0.166 HD
HETATM   12  C12 UNL     1     -12.027  18.615  -8.570  1.00  0.00     0.046 A 
HETATM   13  C13 UNL     1     -13.300  19.105  -8.854  1.00  0.00     0.033 A 
HETATM   14  C14 UNL     1     -14.192  18.295  -9.509  1.00  0.00     0.044 A 
HETATM   15  C15 UNL     1     -13.873  16.996  -9.903  1.00  0.00     0.117 A 
HETATM   16  F1  UNL     1     -14.784  16.207 -10.555  1.00  0.00    -0.206 F 
HETATM   17  C16 UNL     1     -12.611  16.522  -9.618  1.00  0.00     0.059 A 
HETATM   18  C17 UNL     1     -11.712  17.328  -8.963  1.00  0.00     0.037 A 
HETATM   19  C18 UNL     1     -10.407  16.613  -8.802  1.00  0.00     0.154 C 
ENDROOT
BRANCH  19  20
HETATM   20  N2  UNL     1     -10.347  15.428  -8.875  1.00  0.00    -0.327 NA
BRANCH  20  21
HETATM   21  N3  UNL     1     -10.226  14.143  -8.908  1.00  0.00    -0.263 N 
HETATM   22  C19 UNL     1     -11.082  13.035  -8.406  1.00  0.00     0.157 C 
HETATM   23  C20 UNL     1     -11.196  12.130  -9.606  1.00  0.00     0.024 C 
HETATM   24  C21 UNL     1      -9.906  12.380 -10.355  1.00  0.00     0.024 C 
HETATM   25  C22 UNL     1      -9.110  13.365  -9.508  1.00  0.00     0.157 C 
ENDBRANCH  20  21
ENDBRANCH  19  20
BRANCH   1  26
HETATM   26  O1  UNL     1      -5.798  16.715  -9.906  1.00  0.00    -0.353 OA
HETATM   27  C1  UNL     1      -5.725  15.303  -9.979  1.00  0.00     0.210 C 
ENDBRANCH   1  26
BRANCH   7  28
HETATM   28  O2  UNL     1      -5.442  19.110  -8.521  1.00  0.00    -0.353 OA
HETATM   29  C9  UNL     1      -4.402  18.696  -7.661  1.00  0.00     0.210 C 
ENDBRANCH   7  28
TORSDOF 4
ENDMDL
MODEL 3
REMARK VINA RESULT: -5.608245602      0.749      1.061
REMARK  4 active torsions:
REMARK  status: ('A' for Active; 'I' for Inactive)
REMARK    1  A    between atoms: O1_2  and  C2_3 
REMARK    2  A    between atoms: C8_9  and  O2_10 
REMARK    3  A    between atoms: C18_23  and  N2_24 
REMARK    4  A    between atoms: N2_24  and  N3_25 
ROOT
HETATM    1  C2  UNL     1      -9.975  19.819  -9.247  1.00  0.00     0.102 A 
HETATM    2  C3  UNL     1      -9.513  18.554  -9.413  1.00  0.00     0.055 A 
HETATM    3  C4  UNL     1      -9.928  17.563  -8.550  1.00  0.00     0.023 A 
HETATM    4  C5  UNL     1     -10.821  17.840  -7.493  1.00  0.00     0.009 A 
HETATM    5  C6  UNL     1     -11.304  19.115  -7.310  1.00  0.00    -0.013 A 
HETATM    6  C7  UNL     1     -12.287  19.476  -6.305  1.00  0.00     0.052 C 
HETATM    7  C8  UNL     1     -10.846  20.078  -8.220  1.00  0.00     0.108 A 
HETATM    8  C10 UNL     1     -11.229  16.847  -6.515  1.00  0.00     0.017 C 
HETATM    9  C11 UNL     1     -11.582  17.164  -5.128  1.00  0.00     0.069 C 
HETATM   10  N1  UNL     1     -11.880  15.672  -7.073  1.00  0.00    -0.358 N 
ATOM     11  H1  UNL     1     -12.835  15.475  -6.774  1.00  0.00     0.166 HD
HETATM   12  C12 UNL     1     -11.275  14.763  -8.018  1.00  0.00     0.046 A 
HETATM   13  C13 UNL     1     -11.908  13.523  -8.079  1.00  0.00     0.033 A 
HETATM   14  C14 UNL     1     -11.417  12.568  -8.933  1.00  0.00     0.044 A 
HETATM   15  C15 UNL     1     -10.305  12.792  -9.744  1.00  0.00     0.117 A 
HETATM   16  F1  UNL     1      -9.834  11.820 -10.588  1.00  0.00    -0.206 F 
HETATM   17  C16 UNL     1      -9.688  14.022  -9.676  1.00  0.00     0.059 A 
HETATM   18  C17 UNL     1     -10.174  14.983  -8.825  1.00  0.00     0.037 A 
HETATM   19  C18 UNL     1      -9.369  16.237  -8.955  1.00  0.00     0.154 C 
ENDROOT
BRANCH  19  20
HETATM   20  N2  UNL     1      -8.273  16.214  -9.417  1.00  0.00    -0.327 NA
BRANCH  20  21
HETATM   21  N3  UNL     1      -7.064  16.147  -9.865  1.00  0.00    -0.263 N 
HETATM   22  C19 UNL     1      -5.886  17.045  -9.731  1.00  0.00     0.157 C 
HETATM   23  C20 UNL     1      -4.794  16.100  -9.296  1.00  0.00     0.024 C 
HETATM   24  C21 UNL     1      -5.211  14.781  -9.906  1.00  0.00     0.024 C 
HETATM   25  C22 UNL     1      -6.480  15.064 -10.700  1.00  0.00     0.157 C 
ENDBRANCH  20  21
ENDBRANCH  19  20
BRANCH   1  26
HETATM   26  O1  UNL     1      -9.550  20.827 -10.126  1.00  0.00    -0.353 OA
HETATM   27  C1  UNL     1      -9.594  20.620 -11.525  1.00  0.00     0.210 C 
ENDBRANCH   1  26
BRANCH   7  28
HETATM   28  O2  UNL     1     -11.324  21.366  -8.041  1.00  0.00    -0.353 OA
HETATM   29  C9  UNL     1     -12.348  21.930  -8.833  1.00  0.00     0.210 C 
ENDBRANCH   7  28
TORSDOF 4
ENDMDL
MODEL 4
REMARK VINA RESULT: -5.520191806      3.475      5.432
REMARK  4 active torsions:
REMARK  status: ('A' for Active; 'I' for Inactive)
REMARK    1  A    between atoms: O1_2  and  C2_3 
REMARK    2  A    between atoms: C8_9  and  O2_10 
REMARK    3  A    between atoms: C18_23  and  N2_24 
REMARK    4  A    between atoms: N2_24  and  N3_25 
ROOT
HETATM    1  C2  UNL     1     -14.000  18.051 -11.270  1.00  0.00     0.102 A 
HETATM    2  C3  UNL     1     -13.315  17.380 -10.310  1.00  0.00     0.055 A 
HETATM    3  C4  UNL     1     -12.554  18.084  -9.402  1.00  0.00     0.023 A 
HETATM    4  C5  UNL     1     -12.471  19.492  -9.454  1.00  0.00     0.009 A 
HETATM    5  C6  UNL     1     -13.162  20.192 -10.417  1.00  0.00    -0.013 A 
HETATM    6  C7  UNL     1     -13.202  21.641 -10.497  1.00  0.00     0.052 C 
HETATM    7  C8  UNL     1     -13.917  19.419 -11.310  1.00  0.00     0.108 A 
HETATM    8  C10 UNL     1     -11.627  20.272  -8.568  1.00  0.00     0.017 C 
HETATM    9  C11 UNL     1     -11.012  21.550  -8.940  1.00  0.00     0.069 C 
HETATM   10  N1  UNL     1     -11.909  20.104  -7.150  1.00  0.00    -0.358 N 
ATOM     11  H1  UNL     1     -12.188  20.932  -6.624  1.00  0.00     0.166 HD
HETATM   12  C12 UNL     1     -11.824  18.853  -6.434  1.00  0.00     0.046 A 
HETATM   13  C13 UNL     1     -11.726  19.010  -5.053  1.00  0.00     0.033 A 
HETATM   14  C14 UNL     1     -11.626  17.894  -4.263  1.00  0.00     0.044 A 
HETATM   15  C15 UNL     1     -11.619  16.604  -4.791  1.00  0.00     0.117 A 
HETATM   16  F1  UNL     1     -11.517  15.504  -3.979  1.00  0.00    -0.206 F 
HETATM   17  C16 UNL     1     -11.717  16.460  -6.158  1.00  0.00     0.059 A 
HETATM   18  C17 UNL     1     -11.818  17.573  -6.955  1.00  0.00     0.037 A 
HETATM   19  C18 UNL     1     -11.951  17.166  -8.388  1.00  0.00     0.154 C 
ENDROOT
BRANCH  19  20
HETATM   20  N2  UNL     1     -11.610  16.086  -8.751  1.00  0.00    -0.327 NA
BRANCH  20  21
HETATM   21  N3  UNL     1     -11.173  14.939  -9.151  1.00  0.00    -0.263 N 
HETATM   22  C19 UNL     1      -9.847  14.480  -9.644  1.00  0.00     0.157 C 
HETATM   23  C20 UNL     1      -9.588  13.251  -8.810  1.00  0.00     0.024 C 
HETATM   24  C21 UNL     1     -10.977  12.738  -8.503  1.00  0.00     0.024 C 
HETATM   25  C22 UNL     1     -11.941  13.668  -9.229  1.00  0.00     0.157 C 
ENDBRANCH  20  21
ENDBRANCH  19  20
BRANCH   1  26
HETATM   26  O1  UNL     1     -14.773  17.332 -12.194  1.00  0.00    -0.353 OA
HETATM   27  C1  UNL     1     -14.304  17.132 -13.515  1.00  0.00     0.210 C 
ENDBRANCH   1  26
BRANCH   7  28
HETATM   28  O2  UNL     1     -14.613  20.115 -12.285  1.00  0.00    -0.353 OA
HETATM   29  C9  UNL     1     -15.998  20.378 -12.210  1.00  0.00     0.210 C 
ENDBRANCH   7  28
TORSDOF 4
ENDMDL
MODEL 5
REMARK VINA RESULT: -5.464884963      2.427      5.157
REMARK  4 active torsions:
REMARK  status: ('A' for Active; 'I' for Inactive)
REMARK    1  A    between atoms: O1_2  and  C2_3 
REMARK    2  A    between atoms: C8_9  and  O2_10 
REMARK    3  A    between atoms: C18_23  and  N2_24 
REMARK    4  A    between atoms: N2_24  and  N3_25 
ROOT
HETATM    1  C2  UNL     1      -7.489  18.615  -7.932  1.00  0.00     0.102 A 
HETATM    2  C3  UNL     1      -8.518  17.898  -8.452  1.00  0.00     0.055 A 
HETATM    3  C4  UNL     1      -8.248  16.801  -9.240  1.00  0.00     0.023 A 
HETATM    4  C5  UNL     1      -6.921  16.409  -9.520  1.00  0.00     0.009 A 
HETATM    5  C6  UNL     1      -5.864  17.120  -8.998  1.00  0.00    -0.013 A 
HETATM    6  C7  UNL     1      -4.472  16.745  -9.165  1.00  0.00     0.052 C 
HETATM    7  C8  UNL     1      -6.204  18.225  -8.206  1.00  0.00     0.108 A 
HETATM    8  C10 UNL     1      -6.587  15.306 -10.402  1.00  0.00     0.017 C 
HETATM    9  C11 UNL     1      -5.366  15.249 -11.212  1.00  0.00     0.069 C 
HETATM   10  N1  UNL     1      -7.134  14.018 -10.005  1.00  0.00    -0.358 N 
ATOM     11  H1  UNL     1      -6.475  13.266  -9.809  1.00  0.00     0.166 HD
HETATM   12  C12 UNL     1      -8.542  13.726  -9.869  1.00  0.00     0.046 A 
HETATM   13  C13 UNL     1      -8.831  12.363  -9.895  1.00  0.00     0.033 A 
HETATM   14  C14 UNL     1     -10.137  11.959  -9.786  1.00  0.00     0.044 A 
HETATM   15  C15 UNL     1     -11.189  12.863  -9.650  1.00  0.00     0.117 A 
HETATM   16  F1  UNL     1     -12.486  12.432  -9.545  1.00  0.00    -0.206 F 
HETATM   17  C16 UNL     1     -10.893  14.208  -9.626  1.00  0.00     0.059 A 
HETATM   18  C17 UNL     1      -9.587  14.620  -9.733  1.00  0.00     0.037 A 
HETATM   19  C18 UNL     1      -9.512  16.111  -9.641  1.00  0.00     0.154 C 
ENDROOT
BRANCH  19  20
HETATM   20  N2  UNL     1     -10.468  16.785  -9.854  1.00  0.00    -0.327 NA
BRANCH  20  21
HETATM   21  N3  UNL     1     -11.544  17.457 -10.094  1.00  0.00    -0.263 N 
HETATM   22  C19 UNL     1     -12.007  18.234 -11.275  1.00  0.00     0.157 C 
HETATM   23  C20 UNL     1     -13.397  17.696 -11.504  1.00  0.00     0.024 C 
HETATM   24  C21 UNL     1     -13.839  17.272 -10.122  1.00  0.00     0.024 C 
HETATM   25  C22 UNL     1     -12.702  17.647  -9.180  1.00  0.00     0.157 C 
ENDBRANCH  20  21
ENDBRANCH  19  20
BRANCH   1  26
HETATM   26  O1  UNL     1      -7.766  19.733  -7.131  1.00  0.00    -0.353 OA
HETATM   27  C1  UNL     1      -8.300  20.910  -7.707  1.00  0.00     0.210 C 
ENDBRANCH   1  26
BRANCH   7  28
HETATM   28  O2  UNL     1      -5.145  18.949  -7.679  1.00  0.00    -0.353 OA
HETATM   29  C9  UNL     1      -4.659  20.142  -8.256  1.00  0.00     0.210 C 
ENDBRANCH   7  28
TORSDOF 4
ENDMDL
