MODEL 1
REMARK VINA RESULT: -7.609033579      0.000      0.000
REMARK  1 active torsions:
REMARK  status: ('A' for Active; 'I' for Inactive)
REMARK    1  A    between atoms: C3_3  and  C4_4 
ROOT
HETATM    1  C4  UNL     1      31.350  64.923  43.815  1.00  0.00    -0.026 A 
HETATM    2  C5  UNL     1      32.367  64.174  44.364  1.00  0.00     0.012 A 
HETATM    3  C6  UNL     1      33.697  64.348  43.977  1.00  0.00     0.001 A 
HETATM    4  C7  UNL     1      34.031  65.286  43.022  1.00  0.00     0.000 A 
HETATM    5  C8  UNL     1      32.996  66.026  42.484  1.00  0.00     0.001 A 
HETATM    6  C9  UNL     1      31.675  65.862  42.859  1.00  0.00     0.012 A 
ENDROOT
BRANCH   1   7
HETATM    7  C3  UNL     1      29.957  64.742  44.217  1.00  0.00    -0.026 A 
HETATM    8  C2  UNL     1      29.104  63.600  44.520  1.00  0.00     0.012 A 
HETATM    9  C1  UNL     1      28.062  64.372  44.771  1.00  0.00     0.002 A 
HETATM   10  C10 UNL     1      28.923  65.520  44.465  1.00  0.00     0.012 A 
ENDBRANCH   1   7
TORSDOF 1
ENDMDL
MODEL 2
REMARK VINA RESULT: -7.583757289      0.029      1.492
REMARK  1 active torsions:
REMARK  status: ('A' for Active; 'I' for Inactive)
REMARK    1  A    between atoms: C3_3  and  C4_4 
ROOT
HETATM    1  C4  UNL     1      31.347  64.920  43.807  1.00  0.00    -0.026 A 
HETATM    2  C5  UNL     1      31.699  65.858  42.863  1.00  0.00     0.012 A 
HETATM    3  C6  UNL     1      33.026  66.045  42.474  1.00  0.00     0.001 A 
HETATM    4  C7  UNL     1      34.033  65.283  43.032  1.00  0.00     0.000 A 
HETATM    5  C8  UNL     1      33.658  64.348  43.976  1.00  0.00     0.001 A 
HETATM    6  C9  UNL     1      32.346  64.155  44.370  1.00  0.00     0.012 A 
ENDROOT
BRANCH   1   7
HETATM    7  C3  UNL     1      29.958  64.723  44.217  1.00  0.00    -0.026 A 
HETATM    8  C2  UNL     1      29.117  63.572  44.515  1.00  0.00     0.012 A 
HETATM    9  C1  UNL     1      28.070  64.333  44.780  1.00  0.00     0.002 A 
HETATM   10  C10 UNL     1      28.919  65.491  44.479  1.00  0.00     0.012 A 
ENDBRANCH   1   7
TORSDOF 1
ENDMDL
MODEL 3
REMARK VINA RESULT: -7.281377909      3.333      4.774
REMARK  1 active torsions:
REMARK  status: ('A' for Active; 'I' for Inactive)
REMARK    1  A    between atoms: C3_3  and  C4_4 
ROOT
HETATM    1  C4  UNL     1      29.343  66.331  46.136  1.00  0.00    -0.026 A 
HETATM    2  C5  UNL     1      29.303  65.215  46.941  1.00  0.00     0.012 A 
HETATM    3  C6  UNL     1      28.961  63.959  46.437  1.00  0.00     0.001 A 
HETATM    4  C7  UNL     1      28.651  63.802  45.102  1.00  0.00     0.000 A 
HETATM    5  C8  UNL     1      28.698  64.934  44.312  1.00  0.00     0.001 A 
HETATM    6  C9  UNL     1      29.034  66.183  44.801  1.00  0.00     0.012 A 
ENDROOT
BRANCH   1   7
HETATM    7  C3  UNL     1      29.699  67.648  46.662  1.00  0.00    -0.026 A 
HETATM    8  C2  UNL     1      30.833  68.550  46.518  1.00  0.00     0.012 A 
HETATM    9  C1  UNL     1      30.293  69.450  47.322  1.00  0.00     0.002 A 
HETATM   10  C10 UNL     1      29.152  68.538  47.465  1.00  0.00     0.012 A 
ENDBRANCH   1   7
TORSDOF 1
ENDMDL
MODEL 4
REMARK VINA RESULT: -7.264571831      3.318      4.990
REMARK  1 active torsions:
REMARK  status: ('A' for Active; 'I' for Inactive)
REMARK    1  A    between atoms: C3_3  and  C4_4 
ROOT
HETATM    1  C4  UNL     1      29.427  66.345  46.107  1.00  0.00    -0.026 A 
HETATM    2  C5  UNL     1      29.076  66.128  44.794  1.00  0.00     0.012 A 
HETATM    3  C6  UNL     1      28.677  64.870  44.339  1.00  0.00     0.001 A 
HETATM    4  C7  UNL     1      28.623  63.798  45.206  1.00  0.00     0.000 A 
HETATM    5  C8  UNL     1      28.980  64.036  46.518  1.00  0.00     0.001 A 
HETATM    6  C9  UNL     1      29.377  65.278  46.980  1.00  0.00     0.012 A 
ENDROOT
BRANCH   1   7
HETATM    7  C3  UNL     1      29.847  67.661  46.585  1.00  0.00    -0.026 A 
HETATM    8  C2  UNL     1      29.280  68.674  47.465  1.00  0.00     0.012 A 
HETATM    9  C1  UNL     1      30.318  69.476  47.306  1.00  0.00     0.002 A 
HETATM   10  C10 UNL     1      30.886  68.453  46.419  1.00  0.00     0.012 A 
ENDBRANCH   1   7
TORSDOF 1
ENDMDL
MODEL 5
REMARK VINA RESULT: -7.254689846      1.235      4.439
REMARK  1 active torsions:
REMARK  status: ('A' for Active; 'I' for Inactive)
REMARK    1  A    between atoms: C3_3  and  C4_4 
ROOT
HETATM    1  C4  UNL     1      31.084  64.613  44.661  1.00  0.00    -0.026 A 
HETATM    2  C5  UNL     1      29.977  64.084  44.036  1.00  0.00     0.012 A 
HETATM    3  C6  UNL     1      28.776  63.882  44.718  1.00  0.00     0.001 A 
HETATM    4  C7  UNL     1      28.667  64.211  46.054  1.00  0.00     0.000 A 
HETATM    5  C8  UNL     1      29.789  64.739  46.661  1.00  0.00     0.001 A 
HETATM    6  C9  UNL     1      30.984  64.944  45.995  1.00  0.00     0.012 A 
ENDROOT
BRANCH   1   7
HETATM    7  C3  UNL     1      32.342  64.825  43.948  1.00  0.00    -0.026 A 
HETATM    8  C2  UNL     1      33.746  64.542  44.215  1.00  0.00     0.012 A 
HETATM    9  C1  UNL     1      34.130  65.064  43.064  1.00  0.00     0.002 A 
HETATM   10  C10 UNL     1      32.715  65.348  42.798  1.00  0.00     0.012 A 
ENDBRANCH   1   7
TORSDOF 1
ENDMDL
