MODEL 1
REMARK VINA RESULT: -7.473307953      0.000      0.000
REMARK  0 active torsions:
REMARK  status: ('A' for Active; 'I' for Inactive)
ROOT
HETATM    1  C1  UNL     1      28.817  64.886  44.456  1.00  0.00     0.001 A 
HETATM    2  C2  UNL     1      28.854  66.224  44.128  1.00  0.00     0.001 A 
HETATM    3  C3  UNL     1      30.031  66.802  43.697  1.00  0.00     0.012 A 
HETATM    4  C4  UNL     1      31.203  66.075  43.576  1.00  0.00    -0.026 A 
HETATM    5  C5  UNL     1      32.388  66.648  43.142  1.00  0.00     0.012 A 
HETATM    6  C6  UNL     1      33.556  65.926  43.022  1.00  0.00     0.001 A 
HETATM    7  C7  UNL     1      33.511  64.586  43.352  1.00  0.00     0.001 A 
HETATM    8  C8  UNL     1      32.335  64.017  43.781  1.00  0.00     0.012 A 
HETATM    9  C9  UNL     1      31.163  64.735  43.905  1.00  0.00    -0.026 A 
HETATM   10  C10 UNL     1      29.978  64.152  44.340  1.00  0.00     0.012 A 
ENDROOT
TORSDOF 0
ENDMDL
MODEL 2
REMARK VINA RESULT: -7.471662849      0.047      3.976
REMARK  0 active torsions:
REMARK  status: ('A' for Active; 'I' for Inactive)
ROOT
HETATM    1  C1  UNL     1      33.546  65.965  43.007  1.00  0.00     0.001 A 
HETATM    2  C2  UNL     1      33.507  64.626  43.329  1.00  0.00     0.001 A 
HETATM    3  C3  UNL     1      32.329  64.048  43.758  1.00  0.00     0.012 A 
HETATM    4  C4  UNL     1      31.158  64.775  43.880  1.00  0.00    -0.026 A 
HETATM    5  C5  UNL     1      29.972  64.201  44.310  1.00  0.00     0.012 A 
HETATM    6  C6  UNL     1      28.804  64.925  44.433  1.00  0.00     0.001 A 
HETATM    7  C7  UNL     1      28.851  66.266  44.108  1.00  0.00     0.001 A 
HETATM    8  C8  UNL     1      30.028  66.835  43.681  1.00  0.00     0.012 A 
HETATM    9  C9  UNL     1      31.200  66.116  43.558  1.00  0.00    -0.026 A 
HETATM   10  C10 UNL     1      32.386  66.700  43.125  1.00  0.00     0.012 A 
ENDROOT
TORSDOF 0
ENDMDL
MODEL 3
REMARK VINA RESULT: -7.456009160      0.044      2.024
REMARK  0 active torsions:
REMARK  status: ('A' for Active; 'I' for Inactive)
ROOT
HETATM    1  C1  UNL     1      28.849  66.246  44.115  1.00  0.00     0.001 A 
HETATM    2  C2  UNL     1      28.861  64.908  44.444  1.00  0.00     0.001 A 
HETATM    3  C3  UNL     1      30.028  64.177  44.340  1.00  0.00     0.012 A 
HETATM    4  C4  UNL     1      31.214  64.747  43.911  1.00  0.00    -0.026 A 
HETATM    5  C5  UNL     1      32.389  64.020  43.806  1.00  0.00     0.012 A 
HETATM    6  C6  UNL     1      33.571  64.587  43.378  1.00  0.00     0.001 A 
HETATM    7  C7  UNL     1      33.551  65.928  43.050  1.00  0.00     0.001 A 
HETATM    8  C8  UNL     1      32.385  66.649  43.156  1.00  0.00     0.012 A 
HETATM    9  C9  UNL     1      31.198  66.088  43.582  1.00  0.00    -0.026 A 
HETATM   10  C10 UNL     1      30.024  66.825  43.686  1.00  0.00     0.012 A 
ENDROOT
TORSDOF 0
ENDMDL
MODEL 4
REMARK VINA RESULT: -7.445875073      0.056      3.422
REMARK  0 active torsions:
REMARK  status: ('A' for Active; 'I' for Inactive)
ROOT
HETATM    1  C1  UNL     1      33.571  64.622  43.327  1.00  0.00     0.001 A 
HETATM    2  C2  UNL     1      33.547  65.964  43.016  1.00  0.00     0.001 A 
HETATM    3  C3  UNL     1      32.376  66.685  43.136  1.00  0.00     0.012 A 
HETATM    4  C4  UNL     1      31.197  66.101  43.568  1.00  0.00    -0.026 A 
HETATM    5  C5  UNL     1      30.018  66.818  43.692  1.00  0.00     0.012 A 
HETATM    6  C6  UNL     1      28.842  66.237  44.121  1.00  0.00     0.001 A 
HETATM    7  C7  UNL     1      28.875  64.892  44.431  1.00  0.00     0.001 A 
HETATM    8  C8  UNL     1      30.046  64.181  44.309  1.00  0.00     0.012 A 
HETATM    9  C9  UNL     1      31.225  64.756  43.878  1.00  0.00    -0.026 A 
HETATM   10  C10 UNL     1      32.404  64.029  43.758  1.00  0.00     0.012 A 
ENDROOT
TORSDOF 0
ENDMDL
MODEL 5
REMARK VINA RESULT: -7.123908421      1.660      2.081
REMARK  0 active torsions:
REMARK  status: ('A' for Active; 'I' for Inactive)
ROOT
HETATM    1  C1  UNL     1      28.413  64.290  45.257  1.00  0.00     0.001 A 
HETATM    2  C2  UNL     1      28.885  64.735  46.473  1.00  0.00     0.001 A 
HETATM    3  C3  UNL     1      30.233  64.972  46.651  1.00  0.00     0.012 A 
HETATM    4  C4  UNL     1      31.152  64.776  45.634  1.00  0.00    -0.026 A 
HETATM    5  C5  UNL     1      32.507  65.012  45.805  1.00  0.00     0.012 A 
HETATM    6  C6  UNL     1      33.424  64.817  44.794  1.00  0.00     0.001 A 
HETATM    7  C7  UNL     1      32.943  64.370  43.579  1.00  0.00     0.001 A 
HETATM    8  C8  UNL     1      31.599  64.137  43.409  1.00  0.00     0.012 A 
HETATM    9  C9  UNL     1      30.676  64.329  44.418  1.00  0.00    -0.026 A 
HETATM   10  C10 UNL     1      29.318  64.090  44.237  1.00  0.00     0.012 A 
ENDROOT
TORSDOF 0
ENDMDL
