MODEL 1
REMARK VINA RESULT: -9.690269018      0.000      0.000
REMARK  16 active torsions:
REMARK  status: ('A' for Active; 'I' for Inactive)
REMARK    1  A    between atoms: C2_2  and  N1_3 
REMARK    2  A    between atoms: C4_6  and  N2_7 
REMARK    3  A    between atoms: N2_7  and  C5_8 
REMARK    4  A    between atoms: C7_12  and  C8_13 
REMARK    5  A    between atoms: C8_13  and  C9_14 
REMARK    6  A    between atoms: C9_14  and  O2_16 
REMARK    7  A    between atoms: O2_16  and  C11_17 
REMARK    8  A    between atoms: C11_17  and  C12_19 
REMARK    9  A    between atoms: N4_24  and  N5_25 
REMARK   10  A    between atoms: N5_25  and  C15_26 
REMARK   11  A    between atoms: C15_26  and  O6_27 
REMARK   12  A    between atoms: C17_33  and  N7_34 
REMARK   13  A    between atoms: N7_34  and  N8_36 
REMARK   14  A    between atoms: N8_36  and  C18_37 
REMARK   15  A    between atoms: C18_37  and  O8_38 
REMARK   16  A    between atoms: C18_37  and  C19_40 
ROOT
HETATM    1  C5  UNL     1     -31.348  60.024 -23.955  1.00  0.00     0.215 C 
HETATM    2  N3  UNL     1     -30.553  58.916 -24.398  1.00  0.00    -0.352 N 
ATOM      3  H3  UNL     1     -29.541  59.043 -24.400  1.00  0.00     0.163 HD
HETATM    4  C6  UNL     1     -31.054  57.644 -24.841  1.00  0.00     0.119 A 
HETATM    5  C7  UNL     1     -29.978  56.630 -25.013  1.00  0.00     0.108 A 
HETATM    6  N6  UNL     1     -30.325  55.519 -24.157  1.00  0.00    -0.372 N 
ATOM      7  H6  UNL     1     -29.750  54.683 -24.046  1.00  0.00     0.161 HD
HETATM    8  C17 UNL     1     -31.414  55.705 -23.569  1.00  0.00     0.096 A 
HETATM    9  C20 UNL     1     -32.012  56.989 -23.926  1.00  0.00     0.088 A 
HETATM   10  C21 UNL     1     -32.306  57.712 -22.633  1.00  0.00     0.098 C 
HETATM   11  S1  UNL     1     -32.804  59.450 -22.987  1.00  0.00    -0.078 SA
ENDROOT
BRANCH   5  12
HETATM   12  C8  UNL     1     -29.724  56.065 -26.367  1.00  0.00     0.059 C 
BRANCH  12  13
HETATM   13  C9  UNL     1     -28.829  54.919 -26.550  1.00  0.00     0.130 C 
HETATM   14  C10 UNL     1     -27.514  54.909 -25.874  1.00  0.00     0.040 C 
BRANCH  13  15
HETATM   15  O2  UNL     1     -28.688  54.596 -27.936  1.00  0.00    -0.315 OA
BRANCH  15  16
HETATM   16  C11 UNL     1     -29.237  53.465 -28.491  1.00  0.00     0.280 C 
HETATM   17  O3  UNL     1     -29.223  52.399 -27.798  1.00  0.00    -0.264 OA
BRANCH  16  18
HETATM   18  C12 UNL     1     -29.816  53.514 -29.841  1.00  0.00     0.259 C 
HETATM   19  C13 UNL     1     -28.778  53.732 -30.863  1.00  0.00     0.241 C 
HETATM   20  O4  UNL     1     -27.560  53.506 -30.814  1.00  0.00    -0.286 OA
HETATM   21  C14 UNL     1     -29.481  54.294 -32.015  1.00  0.00     0.313 C 
HETATM   22  O5  UNL     1     -29.150  54.319 -33.224  1.00  0.00    -0.262 OA
HETATM   23  N4  UNL     1     -30.694  54.853 -31.506  1.00  0.00    -0.185 N 
HETATM   24  C16 UNL     1     -30.734  54.640 -30.080  1.00  0.00     0.264 C 
HETATM   25  O7  UNL     1     -31.435  55.329 -29.322  1.00  0.00    -0.270 OA
BRANCH  23  26
HETATM   26  N5  UNL     1     -31.691  55.504 -32.257  1.00  0.00    -0.102 NA
BRANCH  26  27
HETATM   27  C15 UNL     1     -32.700  54.560 -32.705  1.00  0.00     0.299 C 
BRANCH  27  28
HETATM   28  O6  UNL     1     -33.637  55.238 -33.451  1.00  0.00    -0.384 OA
ATOM     29  H6  UNL     1     -33.520  55.011 -34.365  1.00  0.00     0.211 HD
ENDBRANCH  27  28
ENDBRANCH  26  27
ENDBRANCH  23  26
ENDBRANCH  16  18
ENDBRANCH  15  16
ENDBRANCH  13  15
ENDBRANCH  12  13
ENDBRANCH   5  12
BRANCH   8  30
HETATM   30  N7  UNL     1     -32.014  54.768 -22.650  1.00  0.00    -0.290 N 
ATOM     31  H7  UNL     1     -32.435  55.115 -21.788  1.00  0.00     0.183 HD
BRANCH  30  32
HETATM   32  N8  UNL     1     -32.032  53.411 -22.910  1.00  0.00    -0.096 NA
BRANCH  32  33
HETATM   33  C18 UNL     1     -30.829  52.819 -22.328  1.00  0.00     0.333 C 
BRANCH  33  34
HETATM   34  O8  UNL     1     -31.193  51.914 -21.350  1.00  0.00    -0.369 OA
ATOM     35  H8  UNL     1     -30.433  51.702 -20.820  1.00  0.00     0.212 HD
ENDBRANCH  33  34
BRANCH  33  36
HETATM   36  C19 UNL     1     -30.138  52.139 -23.473  1.00  0.00     0.221 C 
HETATM   37  O9  UNL     1     -29.269  51.281 -23.179  1.00  0.00    -0.645 OA
HETATM   38  O10 UNL     1     -30.448  52.448 -24.790  1.00  0.00    -0.645 OA
ENDBRANCH  33  36
ENDBRANCH  32  33
ENDBRANCH  30  32
ENDBRANCH   8  30
BRANCH   1  39
HETATM   39  N2  UNL     1     -31.169  61.175 -24.138  1.00  0.00    -0.373 NA
BRANCH  39  40
HETATM   40  C4  UNL     1     -30.913  62.444 -24.381  1.00  0.00     0.200 A 
HETATM   41  C3  UNL     1     -29.754  63.152 -24.002  1.00  0.00     0.294 A 
HETATM   42  N1  UNL     1     -29.555  64.437 -24.282  1.00  0.00    -0.264 N 
HETATM   43  O1  UNL     1     -28.908  62.485 -23.375  1.00  0.00    -0.264 OA
HETATM   44  C25 UNL     1     -30.504  65.104 -24.961  1.00  0.00     0.331 A 
HETATM   45  N9  UNL     1     -31.643  64.522 -25.368  1.00  0.00    -0.304 N 
HETATM   46  O11 UNL     1     -30.306  66.305 -25.217  1.00  0.00    -0.246 OA
HETATM   47  C22 UNL     1     -31.846  63.229 -25.089  1.00  0.00     0.058 A 
HETATM   48  C24 UNL     1     -32.602  65.331 -26.096  1.00  0.00     0.161 C 
HETATM   49  C23 UNL     1     -33.104  62.592 -25.537  1.00  0.00     0.072 C 
BRANCH  42  50
HETATM   50  C2  UNL     1     -28.337  65.116 -23.865  1.00  0.00     0.133 C 
HETATM   51  C1  UNL     1     -28.434  65.686 -22.478  1.00  0.00     0.027 C 
ENDBRANCH  42  50
ENDBRANCH  39  40
ENDBRANCH   1  39
TORSDOF 16
ENDMDL
MODEL 2
REMARK VINA RESULT: -9.521862313      1.496      2.344
REMARK  16 active torsions:
REMARK  status: ('A' for Active; 'I' for Inactive)
REMARK    1  A    between atoms: C2_2  and  N1_3 
REMARK    2  A    between atoms: C4_6  and  N2_7 
REMARK    3  A    between atoms: N2_7  and  C5_8 
REMARK    4  A    between atoms: C7_12  and  C8_13 
REMARK    5  A    between atoms: C8_13  and  C9_14 
REMARK    6  A    between atoms: C9_14  and  O2_16 
REMARK    7  A    between atoms: O2_16  and  C11_17 
REMARK    8  A    between atoms: C11_17  and  C12_19 
REMARK    9  A    between atoms: N4_24  and  N5_25 
REMARK   10  A    between atoms: N5_25  and  C15_26 
REMARK   11  A    between atoms: C15_26  and  O6_27 
REMARK   12  A    between atoms: C17_33  and  N7_34 
REMARK   13  A    between atoms: N7_34  and  N8_36 
REMARK   14  A    between atoms: N8_36  and  C18_37 
REMARK   15  A    between atoms: C18_37  and  O8_38 
REMARK   16  A    between atoms: C18_37  and  C19_40 
ROOT
HETATM    1  C5  UNL     1     -31.583  60.954 -24.299  1.00  0.00     0.215 C 
HETATM    2  N3  UNL     1     -30.574  59.966 -24.047  1.00  0.00    -0.352 N 
ATOM      3  H3  UNL     1     -29.749  60.267 -23.529  1.00  0.00     0.163 HD
HETATM    4  C6  UNL     1     -30.622  58.591 -24.459  1.00  0.00     0.119 A 
HETATM    5  C7  UNL     1     -29.541  57.769 -23.850  1.00  0.00     0.108 A 
HETATM    6  N6  UNL     1     -30.196  56.698 -23.134  1.00  0.00    -0.372 N 
ATOM      7  H6  UNL     1     -29.704  55.990 -22.589  1.00  0.00     0.161 HD
HETATM    8  C17 UNL     1     -31.441  56.745 -23.263  1.00  0.00     0.096 A 
HETATM    9  C20 UNL     1     -31.859  57.865 -24.103  1.00  0.00     0.088 A 
HETATM   10  C21 UNL     1     -32.888  58.643 -23.317  1.00  0.00     0.098 C 
HETATM   11  S1  UNL     1     -33.268  60.226 -24.178  1.00  0.00    -0.078 SA
ENDROOT
BRANCH   5  12
HETATM   12  C8  UNL     1     -28.525  57.133 -24.735  1.00  0.00     0.059 C 
BRANCH  12  13
HETATM   13  C9  UNL     1     -28.881  56.009 -25.605  1.00  0.00     0.130 C 
HETATM   14  C10 UNL     1     -27.881  54.954 -25.874  1.00  0.00     0.040 C 
BRANCH  13  15
HETATM   15  O2  UNL     1     -29.469  56.472 -26.824  1.00  0.00    -0.315 OA
BRANCH  15  16
HETATM   16  C11 UNL     1     -30.271  55.676 -27.606  1.00  0.00     0.280 C 
HETATM   17  O3  UNL     1     -31.279  55.129 -27.056  1.00  0.00    -0.264 OA
BRANCH  16  18
HETATM   18  C12 UNL     1     -29.953  55.479 -29.027  1.00  0.00     0.259 C 
HETATM   19  C13 UNL     1     -31.135  55.699 -29.877  1.00  0.00     0.241 C 
HETATM   20  O4  UNL     1     -32.165  56.351 -29.648  1.00  0.00    -0.286 OA
HETATM   21  C14 UNL     1     -30.863  54.971 -31.116  1.00  0.00     0.313 C 
HETATM   22  O5  UNL     1     -31.351  55.121 -32.260  1.00  0.00    -0.262 OA
HETATM   23  N4  UNL     1     -29.879  53.986 -30.789  1.00  0.00    -0.185 N 
HETATM   24  C16 UNL     1     -29.557  54.107 -29.388  1.00  0.00     0.264 C 
HETATM   25  O7  UNL     1     -29.056  53.177 -28.736  1.00  0.00    -0.270 OA
BRANCH  23  26
HETATM   26  N5  UNL     1     -29.311  53.051 -31.674  1.00  0.00    -0.102 NA
BRANCH  26  27
HETATM   27  C15 UNL     1     -28.052  53.541 -32.207  1.00  0.00     0.299 C 
BRANCH  27  28
HETATM   28  O6  UNL     1     -28.318  54.546 -33.109  1.00  0.00    -0.384 OA
ATOM     29  H6  UNL     1     -27.568  55.127 -33.147  1.00  0.00     0.211 HD
ENDBRANCH  27  28
ENDBRANCH  26  27
ENDBRANCH  23  26
ENDBRANCH  16  18
ENDBRANCH  15  16
ENDBRANCH  13  15
ENDBRANCH  12  13
ENDBRANCH   5  12
BRANCH   8  30
HETATM   30  N7  UNL     1     -32.357  55.807 -22.662  1.00  0.00    -0.290 N 
ATOM     31  H7  UNL     1     -32.484  55.813 -21.649  1.00  0.00     0.183 HD
BRANCH  30  32
HETATM   32  N8  UNL     1     -33.067  54.900 -23.424  1.00  0.00    -0.096 NA
BRANCH  32  33
HETATM   33  C18 UNL     1     -32.255  53.696 -23.577  1.00  0.00     0.333 C 
BRANCH  33  34
HETATM   34  O8  UNL     1     -31.317  53.899 -24.571  1.00  0.00    -0.369 OA
ATOM     35  H8  UNL     1     -31.053  53.060 -24.930  1.00  0.00     0.212 HD
ENDBRANCH  33  34
BRANCH  33  36
HETATM   36  C19 UNL     1     -31.602  53.496 -22.241  1.00  0.00     0.221 C 
HETATM   37  O9  UNL     1     -30.350  53.597 -22.203  1.00  0.00    -0.645 OA
HETATM   38  O10 UNL     1     -32.349  53.214 -21.107  1.00  0.00    -0.645 OA
ENDBRANCH  33  36
ENDBRANCH  32  33
ENDBRANCH  30  32
ENDBRANCH   8  30
BRANCH   1  39
HETATM   39  N2  UNL     1     -31.442  62.096 -24.555  1.00  0.00    -0.373 NA
BRANCH  39  40
HETATM   40  C4  UNL     1     -31.236  63.355 -24.886  1.00  0.00     0.200 A 
HETATM   41  C3  UNL     1     -30.038  64.079 -24.719  1.00  0.00     0.294 A 
HETATM   42  N1  UNL     1     -29.894  65.351 -25.079  1.00  0.00    -0.264 N 
HETATM   43  O1  UNL     1     -29.101  63.439 -24.202  1.00  0.00    -0.264 OA
HETATM   44  C25 UNL     1     -30.941  65.988 -25.632  1.00  0.00     0.331 A 
HETATM   45  N9  UNL     1     -32.124  65.388 -25.834  1.00  0.00    -0.304 N 
HETATM   46  O11 UNL     1     -30.793  67.178 -25.963  1.00  0.00    -0.246 OA
HETATM   47  C22 UNL     1     -32.272  64.108 -25.474  1.00  0.00     0.058 A 
HETATM   48  C24 UNL     1     -33.189  66.165 -26.439  1.00  0.00     0.161 C 
HETATM   49  C23 UNL     1     -33.579  63.451 -25.698  1.00  0.00     0.072 C 
BRANCH  42  50
HETATM   50  C2  UNL     1     -28.632  66.048 -24.882  1.00  0.00     0.133 C 
HETATM   51  C1  UNL     1     -28.510  66.658 -23.514  1.00  0.00     0.027 C 
ENDBRANCH  42  50
ENDBRANCH  39  40
ENDBRANCH   1  39
TORSDOF 16
ENDMDL
MODEL 3
REMARK VINA RESULT: -9.516148981      3.907      7.701
REMARK  16 active torsions:
REMARK  status: ('A' for Active; 'I' for Inactive)
REMARK    1  A    between atoms: C2_2  and  N1_3 
REMARK    2  A    between atoms: C4_6  and  N2_7 
REMARK    3  A    between atoms: N2_7  and  C5_8 
REMARK    4  A    between atoms: C7_12  and  C8_13 
REMARK    5  A    between atoms: C8_13  and  C9_14 
REMARK    6  A    between atoms: C9_14  and  O2_16 
REMARK    7  A    between atoms: O2_16  and  C11_17 
REMARK    8  A    between atoms: C11_17  and  C12_19 
REMARK    9  A    between atoms: N4_24  and  N5_25 
REMARK   10  A    between atoms: N5_25  and  C15_26 
REMARK   11  A    between atoms: C15_26  and  O6_27 
REMARK   12  A    between atoms: C17_33  and  N7_34 
REMARK   13  A    between atoms: N7_34  and  N8_36 
REMARK   14  A    between atoms: N8_36  and  C18_37 
REMARK   15  A    between atoms: C18_37  and  O8_38 
REMARK   16  A    between atoms: C18_37  and  C19_40 
ROOT
HETATM    1  C5  UNL     1     -30.830  55.835 -26.697  1.00  0.00     0.215 C 
HETATM    2  N3  UNL     1     -30.806  56.225 -28.077  1.00  0.00    -0.352 N 
ATOM      3  H3  UNL     1     -30.791  57.225 -28.276  1.00  0.00     0.163 HD
HETATM    4  C6  UNL     1     -30.803  55.333 -29.204  1.00  0.00     0.119 A 
HETATM    5  C7  UNL     1     -30.542  56.033 -30.491  1.00  0.00     0.108 A 
HETATM    6  N6  UNL     1     -29.372  55.407 -31.065  1.00  0.00    -0.372 N 
ATOM      7  H6  UNL     1     -28.940  55.702 -31.941  1.00  0.00     0.161 HD
HETATM    8  C17 UNL     1     -28.955  54.462 -30.359  1.00  0.00     0.096 A 
HETATM    9  C20 UNL     1     -29.777  54.270 -29.167  1.00  0.00     0.088 A 
HETATM   10  C21 UNL     1     -28.841  54.284 -27.981  1.00  0.00     0.098 C 
HETATM   11  S1  UNL     1     -29.813  54.328 -26.417  1.00  0.00    -0.078 SA
ENDROOT
BRANCH   5  12
HETATM   12  C8  UNL     1     -31.593  56.027 -31.546  1.00  0.00     0.059 C 
BRANCH  12  13
HETATM   13  C9  UNL     1     -32.954  55.572 -31.252  1.00  0.00     0.130 C 
HETATM   14  C10 UNL     1     -33.407  54.259 -31.759  1.00  0.00     0.040 C 
BRANCH  13  15
HETATM   15  O2  UNL     1     -33.911  56.590 -31.559  1.00  0.00    -0.315 OA
BRANCH  15  16
HETATM   16  C11 UNL     1     -34.700  57.176 -30.599  1.00  0.00     0.280 C 
HETATM   17  O3  UNL     1     -35.604  56.461 -30.058  1.00  0.00    -0.264 OA
BRANCH  16  18
HETATM   18  C12 UNL     1     -34.488  58.581 -30.227  1.00  0.00     0.259 C 
HETATM   19  C13 UNL     1     -34.048  58.705 -28.826  1.00  0.00     0.241 C 
HETATM   20  O4  UNL     1     -33.496  57.872 -28.093  1.00  0.00    -0.286 OA
HETATM   21  C14 UNL     1     -34.398  60.069 -28.431  1.00  0.00     0.313 C 
HETATM   22  O5  UNL     1     -33.937  60.780 -27.507  1.00  0.00    -0.262 OA
HETATM   23  N4  UNL     1     -35.426  60.492 -29.329  1.00  0.00    -0.185 N 
HETATM   24  C16 UNL     1     -35.700  59.417 -30.251  1.00  0.00     0.264 C 
HETATM   25  O7  UNL     1     -36.770  59.328 -30.873  1.00  0.00    -0.270 OA
BRANCH  23  26
HETATM   26  N5  UNL     1     -36.070  61.743 -29.328  1.00  0.00    -0.102 NA
BRANCH  26  27
HETATM   27  C15 UNL     1     -35.241  62.753 -29.962  1.00  0.00     0.299 C 
BRANCH  27  28
HETATM   28  O6  UNL     1     -35.316  62.590 -31.327  1.00  0.00    -0.384 OA
ATOM     29  H6  UNL     1     -34.643  61.976 -31.596  1.00  0.00     0.211 HD
ENDBRANCH  27  28
ENDBRANCH  26  27
ENDBRANCH  23  26
ENDBRANCH  16  18
ENDBRANCH  15  16
ENDBRANCH  13  15
ENDBRANCH  12  13
ENDBRANCH   5  12
BRANCH   8  30
HETATM   30  N7  UNL     1     -27.803  53.654 -30.679  1.00  0.00    -0.290 N 
ATOM     31  H7  UNL     1     -27.647  52.785 -30.167  1.00  0.00     0.183 HD
BRANCH  30  32
HETATM   32  N8  UNL     1     -26.909  54.028 -31.663  1.00  0.00    -0.096 NA
BRANCH  32  33
HETATM   33  C18 UNL     1     -27.153  53.199 -32.841  1.00  0.00     0.333 C 
BRANCH  33  34
HETATM   34  O8  UNL     1     -26.149  53.412 -33.766  1.00  0.00    -0.369 OA
ATOM     35  H8  UNL     1     -26.324  54.215 -34.242  1.00  0.00     0.212 HD
ENDBRANCH  33  34
BRANCH  33  36
HETATM   36  C19 UNL     1     -27.140  51.789 -32.334  1.00  0.00     0.221 C 
HETATM   37  O9  UNL     1     -28.228  51.162 -32.375  1.00  0.00    -0.645 OA
HETATM   38  O10 UNL     1     -25.979  51.208 -31.843  1.00  0.00    -0.645 OA
ENDBRANCH  33  36
ENDBRANCH  32  33
ENDBRANCH  30  32
ENDBRANCH   8  30
BRANCH   1  39
HETATM   39  N2  UNL     1     -31.395  56.350 -25.799  1.00  0.00    -0.373 NA
BRANCH  39  40
HETATM   40  C4  UNL     1     -32.008  56.987 -24.823  1.00  0.00     0.200 A 
HETATM   41  C3  UNL     1     -32.118  58.385 -24.675  1.00  0.00     0.294 A 
HETATM   42  N1  UNL     1     -32.755  58.967 -23.663  1.00  0.00    -0.264 N 
HETATM   43  O1  UNL     1     -31.571  59.057 -25.572  1.00  0.00    -0.264 OA
HETATM   44  C25 UNL     1     -33.325  58.190 -22.726  1.00  0.00     0.331 A 
HETATM   45  N9  UNL     1     -33.277  56.849 -22.775  1.00  0.00    -0.304 N 
HETATM   46  O11 UNL     1     -33.917  58.747 -21.784  1.00  0.00    -0.246 OA
HETATM   47  C22 UNL     1     -32.639  56.260 -23.792  1.00  0.00     0.058 A 
HETATM   48  C24 UNL     1     -33.926  56.103 -21.714  1.00  0.00     0.161 C 
HETATM   49  C23 UNL     1     -32.586  54.782 -23.841  1.00  0.00     0.072 C 
BRANCH  42  50
HETATM   50  C2  UNL     1     -32.837  60.417 -23.563  1.00  0.00     0.133 C 
HETATM   51  C1  UNL     1     -31.659  61.019 -22.851  1.00  0.00     0.027 C 
ENDBRANCH  42  50
ENDBRANCH  39  40
ENDBRANCH   1  39
TORSDOF 16
ENDMDL
MODEL 4
REMARK VINA RESULT: -9.506018007      2.661     10.105
REMARK  16 active torsions:
REMARK  status: ('A' for Active; 'I' for Inactive)
REMARK    1  A    between atoms: C2_2  and  N1_3 
REMARK    2  A    between atoms: C4_6  and  N2_7 
REMARK    3  A    between atoms: N2_7  and  C5_8 
REMARK    4  A    between atoms: C7_12  and  C8_13 
REMARK    5  A    between atoms: C8_13  and  C9_14 
REMARK    6  A    between atoms: C9_14  and  O2_16 
REMARK    7  A    between atoms: O2_16  and  C11_17 
REMARK    8  A    between atoms: C11_17  and  C12_19 
REMARK    9  A    between atoms: N4_24  and  N5_25 
REMARK   10  A    between atoms: N5_25  and  C15_26 
REMARK   11  A    between atoms: C15_26  and  O6_27 
REMARK   12  A    between atoms: C17_33  and  N7_34 
REMARK   13  A    between atoms: N7_34  and  N8_36 
REMARK   14  A    between atoms: N8_36  and  C18_37 
REMARK   15  A    between atoms: C18_37  and  O8_38 
REMARK   16  A    between atoms: C18_37  and  C19_40 
ROOT
HETATM    1  C5  UNL     1     -30.895  55.959 -27.381  1.00  0.00     0.215 C 
HETATM    2  N3  UNL     1     -31.724  57.060 -26.984  1.00  0.00    -0.352 N 
ATOM      3  H3  UNL     1     -32.606  57.180 -27.483  1.00  0.00     0.163 HD
HETATM    4  C6  UNL     1     -31.423  58.008 -25.948  1.00  0.00     0.119 A 
HETATM    5  C7  UNL     1     -32.579  58.887 -25.619  1.00  0.00     0.108 A 
HETATM    6  N6  UNL     1     -32.841  58.704 -24.209  1.00  0.00    -0.372 N 
ATOM      7  H6  UNL     1     -33.602  59.161 -23.706  1.00  0.00     0.161 HD
HETATM    8  C17 UNL     1     -32.023  57.919 -23.680  1.00  0.00     0.096 A 
HETATM    9  C20 UNL     1     -31.044  57.423 -24.645  1.00  0.00     0.088 A 
HETATM   10  C21 UNL     1     -31.064  55.915 -24.557  1.00  0.00     0.098 C 
HETATM   11  S1  UNL     1     -30.066  55.195 -25.928  1.00  0.00    -0.078 SA
ENDROOT
BRANCH   5  12
HETATM   12  C8  UNL     1     -32.463  60.354 -25.846  1.00  0.00     0.059 C 
BRANCH  12  13
HETATM   13  C9  UNL     1     -33.657  61.192 -25.986  1.00  0.00     0.130 C 
HETATM   14  C10 UNL     1     -34.828  60.671 -26.722  1.00  0.00     0.040 C 
BRANCH  13  15
HETATM   15  O2  UNL     1     -33.312  62.502 -26.446  1.00  0.00    -0.315 OA
BRANCH  15  16
HETATM   16  C11 UNL     1     -32.802  63.468 -25.611  1.00  0.00     0.280 C 
HETATM   17  O3  UNL     1     -33.622  64.285 -25.082  1.00  0.00    -0.264 OA
BRANCH  16  18
HETATM   18  C12 UNL     1     -31.357  63.533 -25.355  1.00  0.00     0.259 C 
HETATM   19  C13 UNL     1     -31.046  63.219 -23.950  1.00  0.00     0.241 C 
HETATM   20  O4  UNL     1     -31.705  62.579 -23.117  1.00  0.00    -0.286 OA
HETATM   21  C14 UNL     1     -29.742  63.830 -23.697  1.00  0.00     0.313 C 
HETATM   22  O5  UNL     1     -28.889  63.566 -22.817  1.00  0.00    -0.262 OA
HETATM   23  N4  UNL     1     -29.585  64.853 -24.683  1.00  0.00    -0.185 N 
HETATM   24  C16 UNL     1     -30.760  64.869 -25.518  1.00  0.00     0.264 C 
HETATM   25  O7  UNL     1     -31.091  65.863 -26.185  1.00  0.00    -0.270 OA
BRANCH  23  26
HETATM   26  N5  UNL     1     -28.475  65.708 -24.826  1.00  0.00    -0.102 NA
BRANCH  26  27
HETATM   27  C15 UNL     1     -28.601  66.868 -23.962  1.00  0.00     0.299 C 
BRANCH  27  28
HETATM   28  O6  UNL     1     -29.375  67.810 -24.601  1.00  0.00    -0.384 OA
ATOM     29  H6  UNL     1     -29.203  68.659 -24.211  1.00  0.00     0.211 HD
ENDBRANCH  27  28
ENDBRANCH  26  27
ENDBRANCH  23  26
ENDBRANCH  16  18
ENDBRANCH  15  16
ENDBRANCH  13  15
ENDBRANCH  12  13
ENDBRANCH   5  12
BRANCH   8  30
HETATM   30  N7  UNL     1     -32.037  57.545 -22.287  1.00  0.00    -0.290 N 
ATOM     31  H7  UNL     1     -32.683  56.820 -21.972  1.00  0.00     0.183 HD
BRANCH  30  32
HETATM   32  N8  UNL     1     -31.197  58.145 -21.369  1.00  0.00    -0.096 NA
BRANCH  32  33
HETATM   33  C18 UNL     1     -31.981  59.101 -20.590  1.00  0.00     0.333 C 
BRANCH  33  34
HETATM   34  O8  UNL     1     -32.186  60.244 -21.339  1.00  0.00    -0.369 OA
ATOM     35  H8  UNL     1     -31.778  60.983 -20.904  1.00  0.00     0.212 HD
ENDBRANCH  33  34
BRANCH  33  36
HETATM   36  C19 UNL     1     -33.273  58.398 -20.299  1.00  0.00     0.221 C 
HETATM   37  O9  UNL     1     -34.303  58.855 -20.855  1.00  0.00    -0.645 OA
HETATM   38  O10 UNL     1     -33.323  57.298 -19.456  1.00  0.00    -0.645 OA
ENDBRANCH  33  36
ENDBRANCH  32  33
ENDBRANCH  30  32
ENDBRANCH   8  30
BRANCH   1  39
HETATM   39  N2  UNL     1     -30.712  55.533 -28.466  1.00  0.00    -0.373 NA
BRANCH  39  40
HETATM   40  C4  UNL     1     -30.489  54.996 -29.648  1.00  0.00     0.200 A 
HETATM   41  C3  UNL     1     -29.343  54.273 -30.037  1.00  0.00     0.294 A 
HETATM   42  N1  UNL     1     -29.180  53.753 -31.250  1.00  0.00    -0.264 N 
HETATM   43  O1  UNL     1     -28.471  54.148 -29.153  1.00  0.00    -0.264 OA
HETATM   44  C25 UNL     1     -30.154  53.922 -32.160  1.00  0.00     0.331 A 
HETATM   45  N9  UNL     1     -31.284  54.594 -31.890  1.00  0.00    -0.304 N 
HETATM   46  O11 UNL     1     -29.990  53.431 -33.291  1.00  0.00    -0.246 OA
HETATM   47  C22 UNL     1     -31.452  55.117 -30.671  1.00  0.00     0.058 A 
HETATM   48  C24 UNL     1     -32.274  54.717 -32.944  1.00  0.00     0.161 C 
HETATM   49  C23 UNL     1     -32.699  55.859 -30.378  1.00  0.00     0.072 C 
BRANCH  42  50
HETATM   50  C2  UNL     1     -27.974  53.016 -31.594  1.00  0.00     0.133 C 
HETATM   51  C1  UNL     1     -26.837  53.912 -31.997  1.00  0.00     0.027 C 
ENDBRANCH  42  50
ENDBRANCH  39  40
ENDBRANCH   1  39
TORSDOF 16
ENDMDL
MODEL 5
REMARK VINA RESULT: -9.488655810      3.302      8.392
REMARK  16 active torsions:
REMARK  status: ('A' for Active; 'I' for Inactive)
REMARK    1  A    between atoms: C2_2  and  N1_3 
REMARK    2  A    between atoms: C4_6  and  N2_7 
REMARK    3  A    between atoms: N2_7  and  C5_8 
REMARK    4  A    between atoms: C7_12  and  C8_13 
REMARK    5  A    between atoms: C8_13  and  C9_14 
REMARK    6  A    between atoms: C9_14  and  O2_16 
REMARK    7  A    between atoms: O2_16  and  C11_17 
REMARK    8  A    between atoms: C11_17  and  C12_19 
REMARK    9  A    between atoms: N4_24  and  N5_25 
REMARK   10  A    between atoms: N5_25  and  C15_26 
REMARK   11  A    between atoms: C15_26  and  O6_27 
REMARK   12  A    between atoms: C17_33  and  N7_34 
REMARK   13  A    between atoms: N7_34  and  N8_36 
REMARK   14  A    between atoms: N8_36  and  C18_37 
REMARK   15  A    between atoms: C18_37  and  O8_38 
REMARK   16  A    between atoms: C18_37  and  C19_40 
ROOT
HETATM    1  C5  UNL     1     -32.931  61.407 -26.342  1.00  0.00     0.215 C 
HETATM    2  N3  UNL     1     -32.109  60.530 -25.560  1.00  0.00    -0.352 N 
ATOM      3  H3  UNL     1     -31.723  59.712 -26.031  1.00  0.00     0.163 HD
HETATM    4  C6  UNL     1     -31.782  60.700 -24.171  1.00  0.00     0.119 A 
HETATM    5  C7  UNL     1     -30.728  59.756 -23.709  1.00  0.00     0.108 A 
HETATM    6  N6  UNL     1     -29.651  60.569 -23.192  1.00  0.00    -0.372 N 
ATOM      7  H6  UNL     1     -28.774  60.192 -22.829  1.00  0.00     0.161 HD
HETATM    8  C17 UNL     1     -29.922  61.790 -23.242  1.00  0.00     0.096 A 
HETATM    9  C20 UNL     1     -31.249  62.029 -23.804  1.00  0.00     0.088 A 
HETATM   10  C21 UNL     1     -31.076  63.016 -24.934  1.00  0.00     0.098 C 
HETATM   11  S1  UNL     1     -32.650  63.166 -25.881  1.00  0.00    -0.078 SA
ENDROOT
BRANCH   5  12
HETATM   12  C8  UNL     1     -31.058  58.761 -22.651  1.00  0.00     0.059 C 
BRANCH  12  13
HETATM   13  C9  UNL     1     -32.323  58.020 -22.681  1.00  0.00     0.130 C 
HETATM   14  C10 UNL     1     -33.393  58.371 -21.725  1.00  0.00     0.040 C 
BRANCH  13  15
HETATM   15  O2  UNL     1     -32.089  56.609 -22.683  1.00  0.00    -0.315 OA
BRANCH  15  16
HETATM   16  C11 UNL     1     -32.613  55.775 -23.642  1.00  0.00     0.280 C 
HETATM   17  O3  UNL     1     -33.807  55.990 -24.025  1.00  0.00    -0.264 OA
BRANCH  16  18
HETATM   18  C12 UNL     1     -31.802  54.679 -24.188  1.00  0.00     0.259 C 
HETATM   19  C13 UNL     1     -31.414  53.722 -23.137  1.00  0.00     0.241 C 
HETATM   20  O4  UNL     1     -31.942  53.496 -22.039  1.00  0.00    -0.286 OA
HETATM   21  C14 UNL     1     -30.225  53.044 -23.651  1.00  0.00     0.313 C 
HETATM   22  O5  UNL     1     -29.733  51.935 -23.334  1.00  0.00    -0.262 OA
HETATM   23  N4  UNL     1     -29.671  53.911 -24.644  1.00  0.00    -0.185 N 
HETATM   24  C16 UNL     1     -30.498  55.089 -24.737  1.00  0.00     0.264 C 
HETATM   25  O7  UNL     1     -30.081  56.162 -25.200  1.00  0.00    -0.270 OA
BRANCH  23  26
HETATM   26  N5  UNL     1     -28.515  53.668 -25.410  1.00  0.00    -0.102 NA
BRANCH  26  27
HETATM   27  C15 UNL     1     -28.716  52.544 -26.307  1.00  0.00     0.299 C 
BRANCH  27  28
HETATM   28  O6  UNL     1     -28.021  51.461 -25.818  1.00  0.00    -0.384 OA
ATOM     29  H6  UNL     1     -28.312  50.682 -26.275  1.00  0.00     0.211 HD
ENDBRANCH  27  28
ENDBRANCH  26  27
ENDBRANCH  23  26
ENDBRANCH  16  18
ENDBRANCH  15  16
ENDBRANCH  13  15
ENDBRANCH  12  13
ENDBRANCH   5  12
BRANCH   8  30
HETATM   30  N7  UNL     1     -29.038  62.839 -22.797  1.00  0.00    -0.290 N 
ATOM     31  H7  UNL     1     -28.094  62.600 -22.493  1.00  0.00     0.183 HD
BRANCH  30  32
HETATM   32  N8  UNL     1     -29.439  64.161 -22.774  1.00  0.00    -0.096 NA
BRANCH  32  33
HETATM   33  C18 UNL     1     -28.259  65.000 -22.967  1.00  0.00     0.333 C 
BRANCH  33  34
HETATM   34  O8  UNL     1     -27.267  64.261 -23.583  1.00  0.00    -0.369 OA
ATOM     35  H8  UNL     1     -27.284  64.429 -24.518  1.00  0.00     0.212 HD
ENDBRANCH  33  34
BRANCH  33  36
HETATM   36  C19 UNL     1     -28.723  66.128 -23.840  1.00  0.00     0.221 C 
HETATM   37  O9  UNL     1     -27.981  67.141 -23.897  1.00  0.00    -0.645 OA
HETATM   38  O10 UNL     1     -29.914  66.051 -24.547  1.00  0.00    -0.645 OA
ENDBRANCH  33  36
ENDBRANCH  32  33
ENDBRANCH  30  32
ENDBRANCH   8  30
BRANCH   1  39
HETATM   39  N2  UNL     1     -33.706  61.127 -27.186  1.00  0.00    -0.373 NA
BRANCH  39  40
HETATM   40  C4  UNL     1     -34.558  60.747 -28.116  1.00  0.00     0.200 A 
HETATM   41  C3  UNL     1     -34.704  59.445 -28.636  1.00  0.00     0.294 A 
HETATM   42  N1  UNL     1     -35.588  59.126 -29.576  1.00  0.00    -0.264 N 
HETATM   43  O1  UNL     1     -33.935  58.592 -28.150  1.00  0.00    -0.264 OA
HETATM   44  C25 UNL     1     -36.390  60.089 -30.062  1.00  0.00     0.331 A 
HETATM   45  N9  UNL     1     -36.330  61.360 -29.634  1.00  0.00    -0.304 N 
HETATM   46  O11 UNL     1     -37.213  59.778 -30.942  1.00  0.00    -0.246 OA
HETATM   47  C22 UNL     1     -35.443  61.684 -28.688  1.00  0.00     0.058 A 
HETATM   48  C24 UNL     1     -37.241  62.322 -30.223  1.00  0.00     0.161 C 
HETATM   49  C23 UNL     1     -35.380  63.087 -28.220  1.00  0.00     0.072 C 
BRANCH  42  50
HETATM   50  C2  UNL     1     -35.694  57.763 -30.076  1.00  0.00     0.133 C 
HETATM   51  C1  UNL     1     -34.628  57.426 -31.080  1.00  0.00     0.027 C 
ENDBRANCH  42  50
ENDBRANCH  39  40
ENDBRANCH   1  39
TORSDOF 16
ENDMDL
