MODEL 1
REMARK VINA RESULT: -9.702776911      0.000      0.000
REMARK  11 active torsions:
REMARK  status: ('A' for Active; 'I' for Inactive)
REMARK    1  A    between atoms: N3_9  and  C3_10 
REMARK    2  A    between atoms: N4_17  and  C7_18 
REMARK    3  A    between atoms: C8_19  and  C9_20 
REMARK    4  A    between atoms: C9_20  and  N5_21 
REMARK       I    between atoms: N5_21  and  C10_23 
REMARK    5  A    between atoms: C10_23  and  C11_25 
REMARK    6  A    between atoms: C13_27  and  O5_28 
REMARK    7  A    between atoms: O5_28  and  S2_29 
REMARK    8  A    between atoms: C14_33  and  O9_34 
REMARK    9  A    between atoms: O9_34  and  S3_35 
REMARK   10  A    between atoms: C15_40  and  O13_41 
REMARK   11  A    between atoms: C16_45  and  C17_46 
ROOT
HETATM    1  C3  UNL     1     -32.811  56.476 -22.448  1.00  0.00     0.171 C 
HETATM    2  C4  UNL     1     -32.780  57.500 -23.488  1.00  0.00     0.172 C 
HETATM    3  S1  UNL     1     -31.119  58.101 -23.946  1.00  0.00     0.157 S 
HETATM    4  O2  UNL     1     -31.282  58.999 -25.111  1.00  0.00    -0.227 OA
HETATM    5  O3  UNL     1     -30.449  58.720 -22.776  1.00  0.00    -0.227 OA
HETATM    6  C5  UNL     1     -30.142  56.608 -24.473  1.00  0.00     0.238 C 
HETATM    7  C6  UNL     1     -30.885  55.561 -23.929  1.00  0.00    -0.076 C 
HETATM    8  N4  UNL     1     -31.544  54.508 -23.416  1.00  0.00    -0.200 NA
HETATM    9  C15 UNL     1     -32.768  55.017 -22.734  1.00  0.00     0.234 C 
ENDROOT
BRANCH   8  10
HETATM   10  C7  UNL     1     -30.780  53.675 -22.521  1.00  0.00     0.077 C 
HETATM   11  C8  UNL     1     -30.562  52.294 -22.896  1.00  0.00     0.030 C 
BRANCH  11  12
HETATM   12  C9  UNL     1     -29.727  51.899 -24.037  1.00  0.00     0.092 C 
BRANCH  12  13
HETATM   13  N5  UNL     1     -29.824  52.426 -25.329  1.00  0.00    -0.333 N 
HETATM   14  C10 UNL     1     -28.945  53.207 -26.084  1.00  0.00     0.262 C 
HETATM   15  O4  UNL     1     -27.803  53.560 -25.690  1.00  0.00    -0.267 OA
ATOM     16  H5  UNL     1     -30.696  52.199 -25.807  1.00  0.00     0.168 HD
BRANCH  14  17
HETATM   17  C11 UNL     1     -29.312  53.688 -27.446  1.00  0.00     0.078 A 
HETATM   18  C12 UNL     1     -29.358  52.979 -28.610  1.00  0.00     0.066 A 
HETATM   19  C13 UNL     1     -29.720  53.632 -29.720  1.00  0.00     0.135 A 
HETATM   20  C14 UNL     1     -30.015  54.965 -29.595  1.00  0.00     0.168 A 
HETATM   21  S4  UNL     1     -29.776  55.254 -27.930  1.00  0.00    -0.056 SA
BRANCH  19  22
HETATM   22  O5  UNL     1     -29.812  53.022 -31.001  1.00  0.00    -0.211 OA
BRANCH  22  23
HETATM   23  S2  UNL     1     -28.480  53.234 -32.024  1.00  0.00     0.257 S 
HETATM   24  O6  UNL     1     -27.256  53.459 -31.182  1.00  0.00    -0.572 OA
HETATM   25  O7  UNL     1     -28.301  51.961 -32.809  1.00  0.00    -0.572 OA
HETATM   26  O8  UNL     1     -28.730  54.531 -33.068  1.00  0.00    -0.572 OA
ENDBRANCH  22  23
ENDBRANCH  19  22
BRANCH  20  27
HETATM   27  O9  UNL     1     -30.419  55.861 -30.610  1.00  0.00    -0.204 OA
BRANCH  27  28
HETATM   28  S3  UNL     1     -31.991  55.691 -31.204  1.00  0.00     0.257 S 
HETATM   29  O10 UNL     1     -31.960  55.293 -32.657  1.00  0.00    -0.572 OA
HETATM   30  O11 UNL     1     -32.719  54.598 -30.468  1.00  0.00    -0.572 OA
HETATM   31  O12 UNL     1     -32.805  57.132 -31.033  1.00  0.00    -0.572 OA
ENDBRANCH  27  28
ENDBRANCH  20  27
ENDBRANCH  14  17
ENDBRANCH  12  13
ENDBRANCH  11  12
ENDBRANCH   8  10
BRANCH   9  32
HETATM   32  O13 UNL     1     -33.786  54.776 -23.686  1.00  0.00    -0.378 OA
ATOM     33  H13 UNL     1     -34.179  53.946 -23.445  1.00  0.00     0.211 HD
ENDBRANCH   9  32
BRANCH   1  34
HETATM   34  N3  UNL     1     -34.036  56.606 -21.617  1.00  0.00    -0.232 N 
HETATM   35  C2  UNL     1     -34.020  56.995 -20.348  1.00  0.00     0.343 A 
HETATM   36  N2  UNL     1     -35.155  57.098 -19.653  1.00  0.00    -0.292 N 
HETATM   37  O1  UNL     1     -32.955  57.268 -19.792  1.00  0.00    -0.245 OA
HETATM   38  C1  UNL     1     -36.395  56.814 -20.192  1.00  0.00     0.134 A 
ATOM     39  H2  UNL     1     -35.104  57.400 -18.680  1.00  0.00     0.172 HD
HETATM   40  N1  UNL     1     -37.425  56.929 -19.491  1.00  0.00    -0.383 N 
HETATM   41  C16 UNL     1     -36.397  56.417 -21.491  1.00  0.00     0.130 A 
ATOM     42  H12 UNL     1     -37.423  57.227 -18.516  1.00  0.00     0.157 HD
ATOM     43  H11 UNL     1     -38.340  56.719 -19.890  1.00  0.00     0.157 HD
HETATM   44  N6  UNL     1     -35.220  56.332 -22.144  1.00  0.00    -0.288 N 
ATOM     45  H6  UNL     1     -35.243  56.032 -23.119  1.00  0.00     0.187 HD
BRANCH  41  46
HETATM   46  C17 UNL     1     -37.584  56.073 -22.246  1.00  0.00     0.293 C 
HETATM   47  O14 UNL     1     -38.688  56.612 -22.053  1.00  0.00    -0.300 OA
ENDBRANCH  41  46
ENDBRANCH   1  34
TORSDOF 11
ENDMDL
MODEL 2
REMARK VINA RESULT: -9.576585508      0.750      1.031
REMARK  11 active torsions:
REMARK  status: ('A' for Active; 'I' for Inactive)
REMARK    1  A    between atoms: N3_9  and  C3_10 
REMARK    2  A    between atoms: N4_17  and  C7_18 
REMARK    3  A    between atoms: C8_19  and  C9_20 
REMARK    4  A    between atoms: C9_20  and  N5_21 
REMARK       I    between atoms: N5_21  and  C10_23 
REMARK    5  A    between atoms: C10_23  and  C11_25 
REMARK    6  A    between atoms: C13_27  and  O5_28 
REMARK    7  A    between atoms: O5_28  and  S2_29 
REMARK    8  A    between atoms: C14_33  and  O9_34 
REMARK    9  A    between atoms: O9_34  and  S3_35 
REMARK   10  A    between atoms: C15_40  and  O13_41 
REMARK   11  A    between atoms: C16_45  and  C17_46 
ROOT
HETATM    1  C3  UNL     1     -32.995  56.676 -22.574  1.00  0.00     0.171 C 
HETATM    2  C4  UNL     1     -33.033  57.614 -23.692  1.00  0.00     0.172 C 
HETATM    3  S1  UNL     1     -31.415  58.286 -24.204  1.00  0.00     0.157 S 
HETATM    4  O2  UNL     1     -31.637  59.075 -25.436  1.00  0.00    -0.227 OA
HETATM    5  O3  UNL     1     -30.790  59.041 -23.090  1.00  0.00    -0.227 OA
HETATM    6  C5  UNL     1     -30.340  56.825 -24.614  1.00  0.00     0.238 C 
HETATM    7  C6  UNL     1     -31.010  55.777 -23.986  1.00  0.00    -0.076 C 
HETATM    8  N4  UNL     1     -31.598  54.726 -23.387  1.00  0.00    -0.200 NA
HETATM    9  C15 UNL     1     -32.854  55.205 -22.742  1.00  0.00     0.234 C 
ENDROOT
BRANCH   8  10
HETATM   10  C7  UNL     1     -30.781  54.021 -22.432  1.00  0.00     0.077 C 
HETATM   11  C8  UNL     1     -30.686  52.581 -22.549  1.00  0.00     0.030 C 
BRANCH  11  12
HETATM   12  C9  UNL     1     -30.016  51.913 -23.672  1.00  0.00     0.092 C 
BRANCH  12  13
HETATM   13  N5  UNL     1     -29.966  52.397 -24.984  1.00  0.00    -0.333 N 
HETATM   14  C10 UNL     1     -29.009  52.251 -25.992  1.00  0.00     0.262 C 
HETATM   15  O4  UNL     1     -27.961  51.565 -25.874  1.00  0.00    -0.267 OA
ATOM     16  H5  UNL     1     -30.774  52.957 -25.253  1.00  0.00     0.168 HD
BRANCH  14  17
HETATM   17  C11 UNL     1     -29.172  52.918 -27.315  1.00  0.00     0.078 A 
HETATM   18  C12 UNL     1     -29.284  52.341 -28.546  1.00  0.00     0.066 A 
HETATM   19  C13 UNL     1     -29.425  53.152 -29.601  1.00  0.00     0.135 A 
HETATM   20  C14 UNL     1     -29.444  54.501 -29.356  1.00  0.00     0.168 A 
HETATM   21  S4  UNL     1     -29.266  54.584 -27.661  1.00  0.00    -0.056 SA
BRANCH  19  22
HETATM   22  O5  UNL     1     -29.552  52.691 -30.940  1.00  0.00    -0.211 OA
BRANCH  22  23
HETATM   23  S2  UNL     1     -28.108  52.491 -31.800  1.00  0.00     0.257 S 
HETATM   24  O6  UNL     1     -27.464  51.204 -31.368  1.00  0.00    -0.572 OA
HETATM   25  O7  UNL     1     -28.457  52.391 -33.261  1.00  0.00    -0.572 OA
HETATM   26  O8  UNL     1     -27.072  53.792 -31.537  1.00  0.00    -0.572 OA
ENDBRANCH  22  23
ENDBRANCH  19  22
BRANCH  20  27
HETATM   27  O9  UNL     1     -29.581  55.548 -30.295  1.00  0.00    -0.204 OA
BRANCH  27  28
HETATM   28  S3  UNL     1     -31.053  55.656 -31.116  1.00  0.00     0.257 S 
HETATM   29  O10 UNL     1     -31.406  57.098 -31.367  1.00  0.00    -0.572 OA
HETATM   30  O11 UNL     1     -30.956  54.990 -32.463  1.00  0.00    -0.572 OA
HETATM   31  O12 UNL     1     -32.246  54.934 -30.208  1.00  0.00    -0.572 OA
ENDBRANCH  27  28
ENDBRANCH  20  27
ENDBRANCH  14  17
ENDBRANCH  12  13
ENDBRANCH  11  12
ENDBRANCH   8  10
BRANCH   9  32
HETATM   32  O13 UNL     1     -33.853  54.821 -23.668  1.00  0.00    -0.378 OA
ATOM     33  H13 UNL     1     -33.601  53.962 -23.984  1.00  0.00     0.211 HD
ENDBRANCH   9  32
BRANCH   1  34
HETATM   34  N3  UNL     1     -34.227  56.790 -21.750  1.00  0.00    -0.232 N 
HETATM   35  C2  UNL     1     -34.213  56.983 -20.438  1.00  0.00     0.343 A 
HETATM   36  N2  UNL     1     -35.353  57.083 -19.751  1.00  0.00    -0.292 N 
HETATM   37  O1  UNL     1     -33.144  57.076 -19.832  1.00  0.00    -0.245 OA
HETATM   38  C1  UNL     1     -36.598  56.992 -20.344  1.00  0.00     0.134 A 
ATOM     39  H2  UNL     1     -35.304  57.231 -18.743  1.00  0.00     0.172 HD
HETATM   40  N1  UNL     1     -37.634  57.093 -19.649  1.00  0.00    -0.383 N 
HETATM   41  C16 UNL     1     -36.599  56.794 -21.688  1.00  0.00     0.130 A 
ATOM     42  H12 UNL     1     -37.633  57.242 -18.640  1.00  0.00     0.157 HD
ATOM     43  H11 UNL     1     -38.552  57.026 -20.088  1.00  0.00     0.157 HD
HETATM   44  N6  UNL     1     -35.415  56.702 -22.329  1.00  0.00    -0.288 N 
ATOM     45  H6  UNL     1     -35.437  56.553 -23.338  1.00  0.00     0.187 HD
BRANCH  41  46
HETATM   46  C17 UNL     1     -37.789  56.671 -22.503  1.00  0.00     0.293 C 
HETATM   47  O14 UNL     1     -38.787  56.020 -22.149  1.00  0.00    -0.300 OA
ENDBRANCH  41  46
ENDBRANCH   1  34
TORSDOF 11
ENDMDL
MODEL 3
REMARK VINA RESULT: -9.500777177      2.561      4.784
REMARK  11 active torsions:
REMARK  status: ('A' for Active; 'I' for Inactive)
REMARK    1  A    between atoms: N3_9  and  C3_10 
REMARK    2  A    between atoms: N4_17  and  C7_18 
REMARK    3  A    between atoms: C8_19  and  C9_20 
REMARK    4  A    between atoms: C9_20  and  N5_21 
REMARK       I    between atoms: N5_21  and  C10_23 
REMARK    5  A    between atoms: C10_23  and  C11_25 
REMARK    6  A    between atoms: C13_27  and  O5_28 
REMARK    7  A    between atoms: O5_28  and  S2_29 
REMARK    8  A    between atoms: C14_33  and  O9_34 
REMARK    9  A    between atoms: O9_34  and  S3_35 
REMARK   10  A    between atoms: C15_40  and  O13_41 
REMARK   11  A    between atoms: C16_45  and  C17_46 
ROOT
HETATM    1  C3  UNL     1     -32.616  56.089 -23.537  1.00  0.00     0.171 C 
HETATM    2  C4  UNL     1     -34.055  56.141 -23.776  1.00  0.00     0.172 C 
HETATM    3  S1  UNL     1     -34.822  57.786 -23.579  1.00  0.00     0.157 S 
HETATM    4  O2  UNL     1     -36.231  57.669 -24.017  1.00  0.00    -0.227 OA
HETATM    5  O3  UNL     1     -34.645  58.279 -22.191  1.00  0.00    -0.227 OA
HETATM    6  C5  UNL     1     -33.927  58.931 -24.739  1.00  0.00     0.238 C 
HETATM    7  C6  UNL     1     -32.754  58.226 -25.007  1.00  0.00    -0.076 C 
HETATM    8  N4  UNL     1     -31.596  57.607 -25.290  1.00  0.00    -0.200 NA
HETATM    9  C15 UNL     1     -31.600  56.282 -24.607  1.00  0.00     0.234 C 
ENDROOT
BRANCH   8  10
HETATM   10  C7  UNL     1     -30.402  58.342 -24.952  1.00  0.00     0.077 C 
HETATM   11  C8  UNL     1     -29.294  57.611 -24.373  1.00  0.00     0.030 C 
BRANCH  11  12
HETATM   12  C9  UNL     1     -28.516  56.616 -25.121  1.00  0.00     0.092 C 
BRANCH  12  13
HETATM   13  N5  UNL     1     -28.816  56.158 -26.408  1.00  0.00    -0.333 N 
HETATM   14  C10 UNL     1     -28.663  54.906 -27.009  1.00  0.00     0.262 C 
HETATM   15  O4  UNL     1     -28.220  53.889 -26.414  1.00  0.00    -0.267 OA
ATOM     16  H5  UNL     1     -29.220  56.867 -27.019  1.00  0.00     0.168 HD
BRANCH  14  17
HETATM   17  C11 UNL     1     -29.024  54.684 -28.438  1.00  0.00     0.078 A 
HETATM   18  C12 UNL     1     -30.174  54.156 -28.948  1.00  0.00     0.066 A 
HETATM   19  C13 UNL     1     -30.273  54.056 -30.279  1.00  0.00     0.135 A 
HETATM   20  C14 UNL     1     -29.206  54.492 -31.022  1.00  0.00     0.168 A 
HETATM   21  S4  UNL     1     -28.105  55.027 -29.832  1.00  0.00    -0.056 SA
BRANCH  19  22
HETATM   22  O5  UNL     1     -31.410  53.527 -30.949  1.00  0.00    -0.211 OA
BRANCH  22  23
HETATM   23  S2  UNL     1     -32.507  54.660 -31.564  1.00  0.00     0.257 S 
HETATM   24  O6  UNL     1     -33.819  54.497 -30.851  1.00  0.00    -0.572 OA
HETATM   25  O7  UNL     1     -31.961  56.032 -31.267  1.00  0.00    -0.572 OA
HETATM   26  O8  UNL     1     -32.703  54.460 -33.224  1.00  0.00    -0.572 OA
ENDBRANCH  22  23
ENDBRANCH  19  22
BRANCH  20  27
HETATM   27  O9  UNL     1     -29.072  54.490 -32.428  1.00  0.00    -0.204 OA
BRANCH  27  28
HETATM   28  S3  UNL     1     -28.560  53.052 -33.150  1.00  0.00     0.257 S 
HETATM   29  O10 UNL     1     -29.587  52.568 -34.139  1.00  0.00    -0.572 OA
HETATM   30  O11 UNL     1     -27.284  53.272 -33.919  1.00  0.00    -0.572 OA
HETATM   31  O12 UNL     1     -28.323  51.898 -31.974  1.00  0.00    -0.572 OA
ENDBRANCH  27  28
ENDBRANCH  20  27
ENDBRANCH  14  17
ENDBRANCH  12  13
ENDBRANCH  11  12
ENDBRANCH   8  10
BRANCH   9  32
HETATM   32  O13 UNL     1     -31.955  55.389 -25.646  1.00  0.00    -0.378 OA
ATOM     33  H13 UNL     1     -32.882  55.526 -25.803  1.00  0.00     0.211 HD
ENDBRANCH   9  32
BRANCH   1  34
HETATM   34  N3  UNL     1     -32.226  54.779 -22.954  1.00  0.00    -0.232 N 
HETATM   35  C2  UNL     1     -32.721  54.311 -21.815  1.00  0.00     0.343 A 
HETATM   36  N2  UNL     1     -32.337  53.123 -21.343  1.00  0.00    -0.292 N 
HETATM   37  O1  UNL     1     -33.546  54.966 -21.176  1.00  0.00    -0.245 OA
HETATM   38  C1  UNL     1     -31.419  52.319 -21.990  1.00  0.00     0.134 A 
ATOM     39  H2  UNL     1     -32.738  52.795 -20.464  1.00  0.00     0.172 HD
HETATM   40  N1  UNL     1     -31.095  51.214 -21.499  1.00  0.00    -0.383 N 
HETATM   41  C16 UNL     1     -30.919  52.810 -23.155  1.00  0.00     0.130 A 
ATOM     42  H12 UNL     1     -31.470  50.845 -20.625  1.00  0.00     0.157 HD
ATOM     43  H11 UNL     1     -30.418  50.620 -21.977  1.00  0.00     0.157 HD
HETATM   44  N6  UNL     1     -31.346  54.016 -23.583  1.00  0.00    -0.288 N 
ATOM     45  H6  UNL     1     -30.960  54.367 -24.460  1.00  0.00     0.187 HD
BRANCH  41  46
HETATM   46  C17 UNL     1     -29.950  52.131 -23.988  1.00  0.00     0.293 C 
HETATM   47  O14 UNL     1     -29.124  51.317 -23.539  1.00  0.00    -0.300 OA
ENDBRANCH  41  46
ENDBRANCH   1  34
TORSDOF 11
ENDMDL
MODEL 4
REMARK VINA RESULT: -9.488337608      1.659      3.057
REMARK  11 active torsions:
REMARK  status: ('A' for Active; 'I' for Inactive)
REMARK    1  A    between atoms: N3_9  and  C3_10 
REMARK    2  A    between atoms: N4_17  and  C7_18 
REMARK    3  A    between atoms: C8_19  and  C9_20 
REMARK    4  A    between atoms: C9_20  and  N5_21 
REMARK       I    between atoms: N5_21  and  C10_23 
REMARK    5  A    between atoms: C10_23  and  C11_25 
REMARK    6  A    between atoms: C13_27  and  O5_28 
REMARK    7  A    between atoms: O5_28  and  S2_29 
REMARK    8  A    between atoms: C14_33  and  O9_34 
REMARK    9  A    between atoms: O9_34  and  S3_35 
REMARK   10  A    between atoms: C15_40  and  O13_41 
REMARK   11  A    between atoms: C16_45  and  C17_46 
ROOT
HETATM    1  C3  UNL     1     -33.107  56.712 -22.662  1.00  0.00     0.171 C 
HETATM    2  C4  UNL     1     -32.804  58.118 -22.912  1.00  0.00     0.172 C 
HETATM    3  S1  UNL     1     -31.193  58.696 -22.277  1.00  0.00     0.157 S 
HETATM    4  O2  UNL     1     -30.999  60.080 -22.764  1.00  0.00    -0.227 OA
HETATM    5  O3  UNL     1     -31.132  58.546 -20.802  1.00  0.00    -0.227 OA
HETATM    6  C5  UNL     1     -29.898  57.604 -23.043  1.00  0.00     0.238 C 
HETATM    7  C6  UNL     1     -30.647  56.509 -23.470  1.00  0.00    -0.076 C 
HETATM    8  N4  UNL     1     -31.309  55.416 -23.889  1.00  0.00    -0.200 NA
HETATM    9  C15 UNL     1     -32.759  55.618 -23.608  1.00  0.00     0.234 C 
ENDROOT
BRANCH   8  10
HETATM   10  C7  UNL     1     -30.859  54.166 -23.328  1.00  0.00     0.077 C 
HETATM   11  C8  UNL     1     -30.486  53.106 -24.240  1.00  0.00     0.030 C 
BRANCH  11  12
HETATM   12  C9  UNL     1     -29.309  53.181 -25.114  1.00  0.00     0.092 C 
BRANCH  12  13
HETATM   13  N5  UNL     1     -29.343  53.359 -26.500  1.00  0.00    -0.333 N 
HETATM   14  C10 UNL     1     -29.433  54.509 -27.289  1.00  0.00     0.262 C 
HETATM   15  O4  UNL     1     -29.464  55.679 -26.826  1.00  0.00    -0.267 OA
ATOM     16  H5  UNL     1     -29.294  52.491 -27.034  1.00  0.00     0.168 HD
BRANCH  14  17
HETATM   17  C11 UNL     1     -29.500  54.425 -28.775  1.00  0.00     0.078 A 
HETATM   18  C12 UNL     1     -30.569  54.099 -29.557  1.00  0.00     0.066 A 
HETATM   19  C13 UNL     1     -30.388  54.091 -30.883  1.00  0.00     0.135 A 
HETATM   20  C14 UNL     1     -29.139  54.413 -31.347  1.00  0.00     0.168 A 
HETATM   21  S4  UNL     1     -28.265  54.714 -29.913  1.00  0.00    -0.056 SA
BRANCH  19  22
HETATM   22  O5  UNL     1     -31.410  53.771 -31.818  1.00  0.00    -0.211 OA
BRANCH  22  23
HETATM   23  S2  UNL     1     -32.666  54.897 -31.967  1.00  0.00     0.257 S 
HETATM   24  O6  UNL     1     -32.090  56.280 -31.843  1.00  0.00    -0.572 OA
HETATM   25  O7  UNL     1     -33.259  54.741 -33.342  1.00  0.00    -0.572 OA
HETATM   26  O8  UNL     1     -33.843  54.636 -30.792  1.00  0.00    -0.572 OA
ENDBRANCH  22  23
ENDBRANCH  19  22
BRANCH  20  27
HETATM   27  O9  UNL     1     -28.704  54.474 -32.690  1.00  0.00    -0.204 OA
BRANCH  27  28
HETATM   28  S3  UNL     1     -28.408  53.006 -33.470  1.00  0.00     0.257 S 
HETATM   29  O10 UNL     1     -28.114  51.928 -32.461  1.00  0.00    -0.572 OA
HETATM   30  O11 UNL     1     -29.623  52.562 -34.240  1.00  0.00    -0.572 OA
HETATM   31  O12 UNL     1     -27.113  53.180 -34.501  1.00  0.00    -0.572 OA
ENDBRANCH  27  28
ENDBRANCH  20  27
ENDBRANCH  14  17
ENDBRANCH  12  13
ENDBRANCH  11  12
ENDBRANCH   8  10
BRANCH   9  32
HETATM   32  O13 UNL     1     -33.274  56.013 -24.866  1.00  0.00    -0.378 OA
ATOM     33  H13 UNL     1     -32.900  56.867 -25.046  1.00  0.00     0.211 HD
ENDBRANCH   9  32
BRANCH   1  34
HETATM   34  N3  UNL     1     -34.567  56.516 -22.464  1.00  0.00    -0.232 N 
HETATM   35  C2  UNL     1     -35.106  56.171 -21.302  1.00  0.00     0.343 A 
HETATM   36  N2  UNL     1     -36.426  56.014 -21.183  1.00  0.00    -0.292 N 
HETATM   37  O1  UNL     1     -34.395  55.993 -20.312  1.00  0.00    -0.245 OA
HETATM   38  C1  UNL     1     -37.302  56.194 -22.236  1.00  0.00     0.134 A 
ATOM     39  H2  UNL     1     -36.805  55.749 -20.274  1.00  0.00     0.172 HD
HETATM   40  N1  UNL     1     -38.531  56.032 -22.065  1.00  0.00    -0.383 N 
HETATM   41  C16 UNL     1     -36.737  56.546 -23.421  1.00  0.00     0.130 A 
ATOM     42  H12 UNL     1     -38.955  55.768 -21.176  1.00  0.00     0.157 HD
ATOM     43  H11 UNL     1     -39.177  56.165 -22.843  1.00  0.00     0.157 HD
HETATM   44  N6  UNL     1     -35.397  56.691 -23.481  1.00  0.00    -0.288 N 
ATOM     45  H6  UNL     1     -34.993  56.956 -24.379  1.00  0.00     0.187 HD
BRANCH  41  46
HETATM   46  C17 UNL     1     -37.471  56.783 -24.646  1.00  0.00     0.293 C 
HETATM   47  O14 UNL     1     -38.004  55.871 -25.303  1.00  0.00    -0.300 OA
ENDBRANCH  41  46
ENDBRANCH   1  34
TORSDOF 11
ENDMDL
MODEL 5
REMARK VINA RESULT: -9.488260751      1.289      1.609
REMARK  11 active torsions:
REMARK  status: ('A' for Active; 'I' for Inactive)
REMARK    1  A    between atoms: N3_9  and  C3_10 
REMARK    2  A    between atoms: N4_17  and  C7_18 
REMARK    3  A    between atoms: C8_19  and  C9_20 
REMARK    4  A    between atoms: C9_20  and  N5_21 
REMARK       I    between atoms: N5_21  and  C10_23 
REMARK    5  A    between atoms: C10_23  and  C11_25 
REMARK    6  A    between atoms: C13_27  and  O5_28 
REMARK    7  A    between atoms: O5_28  and  S2_29 
REMARK    8  A    between atoms: C14_33  and  O9_34 
REMARK    9  A    between atoms: O9_34  and  S3_35 
REMARK   10  A    between atoms: C15_40  and  O13_41 
REMARK   11  A    between atoms: C16_45  and  C17_46 
ROOT
HETATM    1  C3  UNL     1     -32.989  56.706 -22.764  1.00  0.00     0.171 C 
HETATM    2  C4  UNL     1     -32.752  57.933 -23.519  1.00  0.00     0.172 C 
HETATM    3  S1  UNL     1     -31.184  58.790 -23.146  1.00  0.00     0.157 S 
HETATM    4  O2  UNL     1     -31.050  59.902 -24.113  1.00  0.00    -0.227 OA
HETATM    5  O3  UNL     1     -31.142  59.200 -21.720  1.00  0.00    -0.227 OA
HETATM    6  C5  UNL     1     -29.822  57.561 -23.454  1.00  0.00     0.238 C 
HETATM    7  C6  UNL     1     -30.509  56.348 -23.442  1.00  0.00    -0.076 C 
HETATM    8  N4  UNL     1     -31.107  55.144 -23.424  1.00  0.00    -0.200 NA
HETATM    9  C15 UNL     1     -32.571  55.359 -23.237  1.00  0.00     0.234 C 
ENDROOT
BRANCH   8  10
HETATM   10  C7  UNL     1     -30.606  54.218 -22.440  1.00  0.00     0.077 C 
HETATM   11  C8  UNL     1     -30.778  52.802 -22.689  1.00  0.00     0.030 C 
BRANCH  11  12
HETATM   12  C9  UNL     1     -30.083  52.090 -23.768  1.00  0.00     0.092 C 
BRANCH  12  13
HETATM   13  N5  UNL     1     -30.007  52.517 -25.098  1.00  0.00    -0.333 N 
HETATM   14  C10 UNL     1     -29.051  52.295 -26.093  1.00  0.00     0.262 C 
HETATM   15  O4  UNL     1     -28.030  51.575 -25.939  1.00  0.00    -0.267 OA
ATOM     16  H5  UNL     1     -30.791  53.097 -25.395  1.00  0.00     0.168 HD
BRANCH  14  17
HETATM   17  C11 UNL     1     -29.181  52.913 -27.443  1.00  0.00     0.078 A 
HETATM   18  C12 UNL     1     -29.178  52.297 -28.660  1.00  0.00     0.066 A 
HETATM   19  C13 UNL     1     -29.313  53.068 -29.745  1.00  0.00     0.135 A 
HETATM   20  C14 UNL     1     -29.442  54.418 -29.543  1.00  0.00     0.168 A 
HETATM   21  S4  UNL     1     -29.372  54.558 -27.844  1.00  0.00    -0.056 SA
BRANCH  19  22
HETATM   22  O5  UNL     1     -29.327  52.564 -31.075  1.00  0.00    -0.211 OA
BRANCH  22  23
HETATM   23  S2  UNL     1     -27.819  52.408 -31.829  1.00  0.00     0.257 S 
HETATM   24  O6  UNL     1     -27.168  51.141 -31.348  1.00  0.00    -0.572 OA
HETATM   25  O7  UNL     1     -28.060  52.297 -33.311  1.00  0.00    -0.572 OA
HETATM   26  O8  UNL     1     -26.845  53.740 -31.496  1.00  0.00    -0.572 OA
ENDBRANCH  22  23
ENDBRANCH  19  22
BRANCH  20  27
HETATM   27  O9  UNL     1     -29.596  55.428 -30.520  1.00  0.00    -0.204 OA
BRANCH  27  28
HETATM   28  S3  UNL     1     -31.137  55.628 -31.181  1.00  0.00     0.257 S 
HETATM   29  O10 UNL     1     -32.183  55.096 -30.238  1.00  0.00    -0.572 OA
HETATM   30  O11 UNL     1     -31.438  57.089 -31.387  1.00  0.00    -0.572 OA
HETATM   31  O12 UNL     1     -31.225  54.819 -32.632  1.00  0.00    -0.572 OA
ENDBRANCH  27  28
ENDBRANCH  20  27
ENDBRANCH  14  17
ENDBRANCH  12  13
ENDBRANCH  11  12
ENDBRANCH   8  10
BRANCH   9  32
HETATM   32  O13 UNL     1     -33.081  55.231 -24.550  1.00  0.00    -0.378 OA
ATOM     33  H13 UNL     1     -32.360  54.917 -25.082  1.00  0.00     0.211 HD
ENDBRANCH   9  32
BRANCH   1  34
HETATM   34  N3  UNL     1     -34.441  56.520 -22.505  1.00  0.00    -0.232 N 
HETATM   35  C2  UNL     1     -34.934  56.186 -21.319  1.00  0.00     0.343 A 
HETATM   36  N2  UNL     1     -36.249  56.038 -21.145  1.00  0.00    -0.292 N 
HETATM   37  O1  UNL     1     -34.184  56.008 -20.358  1.00  0.00    -0.245 OA
HETATM   38  C1  UNL     1     -37.166  56.218 -22.163  1.00  0.00     0.134 A 
ATOM     39  H2  UNL     1     -36.592  55.781 -20.220  1.00  0.00     0.172 HD
HETATM   40  N1  UNL     1     -38.388  56.065 -21.941  1.00  0.00    -0.383 N 
HETATM   41  C16 UNL     1     -36.648  56.559 -23.372  1.00  0.00     0.130 A 
ATOM     42  H12 UNL     1     -38.777  55.809 -21.033  1.00  0.00     0.157 HD
ATOM     43  H11 UNL     1     -39.065  56.197 -22.692  1.00  0.00     0.157 HD
HETATM   44  N6  UNL     1     -35.311  56.695 -23.487  1.00  0.00    -0.288 N 
ATOM     45  H6  UNL     1     -34.943  56.952 -24.403  1.00  0.00     0.187 HD
BRANCH  41  46
HETATM   46  C17 UNL     1     -37.430  56.794 -24.567  1.00  0.00     0.293 C 
HETATM   47  O14 UNL     1     -38.057  55.894 -25.154  1.00  0.00    -0.300 OA
ENDBRANCH  41  46
ENDBRANCH   1  34
TORSDOF 11
ENDMDL
