MODEL 1
REMARK VINA RESULT: -5.396066067      0.000      0.000
REMARK  3 active torsions:
REMARK  status: ('A' for Active; 'I' for Inactive)
REMARK    1  A    between atoms: C4_6  and  C5_7 
REMARK    2  A    between atoms: N3_14  and  C7_15 
REMARK    3  A    between atoms: C7_15  and  C8_16 
ROOT
HETATM    1  C5  UNL     1     -11.531  17.386  -7.969  1.00  0.00     0.121 A 
HETATM    2  N1  UNL     1     -11.141  17.949  -6.812  1.00  0.00    -0.293 N 
ATOM      3  H1  UNL     1     -10.403  17.503  -6.267  1.00  0.00     0.187 HD
HETATM    4  N2  UNL     1     -11.691  19.073  -6.359  1.00  0.00    -0.275 N 
ATOM      5  H2  UNL     1     -11.355  19.454  -5.474  1.00  0.00     0.189 HD
HETATM    6  C6  UNL     1     -12.665  19.729  -7.007  1.00  0.00     0.194 A 
HETATM    7  S1  UNL     1     -13.334  21.109  -6.442  1.00  0.00    -0.039 SA
HETATM    8  N3  UNL     1     -13.079  19.177  -8.187  1.00  0.00    -0.311 N 
HETATM    9  C11 UNL     1     -12.534  18.040  -8.660  1.00  0.00     0.136 A 
HETATM   10  S2  UNL     1     -13.052  17.347 -10.068  1.00  0.00    -0.058 SA
ENDROOT
BRANCH   1  11
HETATM   11  C4  UNL     1     -10.941  16.156  -8.481  1.00  0.00     0.114 A 
HETATM   12  O1  UNL     1      -9.950  15.995  -9.319  1.00  0.00    -0.300 OA
HETATM   13  C3  UNL     1      -9.693  14.731  -9.551  1.00  0.00     0.129 A 
HETATM   14  C2  UNL     1     -10.570  13.965  -8.817  1.00  0.00    -0.012 A 
HETATM   15 BR1  UNL     1      -8.335  14.008 -10.706  1.00  0.00    -0.022 Br
HETATM   16  C1  UNL     1     -10.630  12.488  -8.783  1.00  0.00     0.052 C 
HETATM   17  C12 UNL     1     -11.356  14.875  -8.143  1.00  0.00    -0.016 A 
HETATM   18  C13 UNL     1     -12.457  14.574  -7.216  1.00  0.00     0.052 C 
ENDBRANCH   1  11
BRANCH   8  19
HETATM   19  C7  UNL     1     -14.131  19.872  -8.862  1.00  0.00     0.136 C 
BRANCH  19  20
HETATM   20  C8  UNL     1     -13.787  20.432 -10.194  1.00  0.00    -0.004 C 
HETATM   21  C9  UNL     1     -14.903  20.488 -11.198  1.00  0.00     0.011 C 
HETATM   22  C10 UNL     1     -13.303  21.876 -10.004  1.00  0.00     0.011 C 
ENDBRANCH  19  20
ENDBRANCH   8  19
TORSDOF 3
ENDMDL
MODEL 2
REMARK VINA RESULT: -5.362539288      1.139      1.564
REMARK  3 active torsions:
REMARK  status: ('A' for Active; 'I' for Inactive)
REMARK    1  A    between atoms: C4_6  and  C5_7 
REMARK    2  A    between atoms: N3_14  and  C7_15 
REMARK    3  A    between atoms: C7_15  and  C8_16 
ROOT
HETATM    1  C5  UNL     1     -12.113  17.375  -8.832  1.00  0.00     0.121 A 
HETATM    2  N1  UNL     1     -12.541  17.755  -7.615  1.00  0.00    -0.293 N 
ATOM      3  H1  UNL     1     -12.290  17.192  -6.803  1.00  0.00     0.187 HD
HETATM    4  N2  UNL     1     -13.282  18.846  -7.442  1.00  0.00    -0.275 N 
ATOM      5  H2  UNL     1     -13.579  19.086  -6.496  1.00  0.00     0.189 HD
HETATM    6  C6  UNL     1     -13.659  19.647  -8.450  1.00  0.00     0.194 A 
HETATM    7  S1  UNL     1     -14.569  20.986  -8.228  1.00  0.00    -0.039 SA
HETATM    8  N3  UNL     1     -13.236  19.282  -9.698  1.00  0.00    -0.311 N 
HETATM    9  C11 UNL     1     -12.486  18.181  -9.891  1.00  0.00     0.136 A 
HETATM   10  S2  UNL     1     -11.998  17.714 -11.399  1.00  0.00    -0.058 SA
ENDROOT
BRANCH   1  11
HETATM   11  C4  UNL     1     -11.300  16.183  -9.040  1.00  0.00     0.114 A 
HETATM   12  O1  UNL     1     -10.230  16.023  -9.773  1.00  0.00    -0.300 OA
HETATM   13  C3  UNL     1      -9.764  14.800  -9.717  1.00  0.00     0.129 A 
HETATM   14  C2  UNL     1     -10.573  14.062  -8.884  1.00  0.00    -0.012 A 
HETATM   15 BR1  UNL     1      -8.219  14.096 -10.622  1.00  0.00    -0.022 Br
HETATM   16  C1  UNL     1     -10.410  12.633  -8.540  1.00  0.00     0.052 C 
HETATM   17  C12 UNL     1     -11.543  14.944  -8.460  1.00  0.00    -0.016 A 
HETATM   18  C13 UNL     1     -12.660  14.657  -7.547  1.00  0.00     0.052 C 
ENDBRANCH   1  11
BRANCH   8  19
HETATM   19  C7  UNL     1     -13.658  20.131 -10.770  1.00  0.00     0.136 C 
BRANCH  19  20
HETATM   20  C8  UNL     1     -15.009  19.854 -11.320  1.00  0.00    -0.004 C 
HETATM   21  C9  UNL     1     -15.865  21.054 -11.611  1.00  0.00     0.011 C 
HETATM   22  C10 UNL     1     -14.849  19.105 -12.650  1.00  0.00     0.011 C 
ENDBRANCH  19  20
ENDBRANCH   8  19
TORSDOF 3
ENDMDL
MODEL 3
REMARK VINA RESULT: -5.324104983      1.656      2.843
REMARK  3 active torsions:
REMARK  status: ('A' for Active; 'I' for Inactive)
REMARK    1  A    between atoms: C4_6  and  C5_7 
REMARK    2  A    between atoms: N3_14  and  C7_15 
REMARK    3  A    between atoms: C7_15  and  C8_16 
ROOT
HETATM    1  C5  UNL     1     -12.122  17.428  -9.385  1.00  0.00     0.121 A 
HETATM    2  N1  UNL     1     -13.110  17.646 -10.270  1.00  0.00    -0.293 N 
ATOM      3  H1  UNL     1     -13.292  16.950 -10.992  1.00  0.00     0.187 HD
HETATM    4  N2  UNL     1     -13.857  18.747 -10.230  1.00  0.00    -0.275 N 
ATOM      5  H2  UNL     1     -14.593  18.859 -10.928  1.00  0.00     0.189 HD
HETATM    6  C6  UNL     1     -13.691  19.715  -9.317  1.00  0.00     0.194 A 
HETATM    7  S1  UNL     1     -14.614  21.064  -9.275  1.00  0.00    -0.039 SA
HETATM    8  N3  UNL     1     -12.692  19.516  -8.405  1.00  0.00    -0.311 N 
HETATM    9  C11 UNL     1     -11.927  18.410  -8.431  1.00  0.00     0.136 A 
HETATM   10  S2  UNL     1     -10.696  18.176  -7.353  1.00  0.00    -0.058 SA
ENDROOT
BRANCH   1  11
HETATM   11  C4  UNL     1     -11.294  16.229  -9.414  1.00  0.00     0.114 A 
HETATM   12  O1  UNL     1     -10.196  15.991 -10.084  1.00  0.00    -0.300 OA
HETATM   13  C3  UNL     1      -9.724  14.790  -9.859  1.00  0.00     0.129 A 
HETATM   14  C2  UNL     1     -10.557  14.153  -8.968  1.00  0.00    -0.012 A 
HETATM   15 BR1  UNL     1      -8.143  13.997 -10.614  1.00  0.00    -0.022 Br
HETATM   16  C1  UNL     1     -10.396  12.781  -8.442  1.00  0.00     0.052 C 
HETATM   17  C12 UNL     1     -11.548  15.070  -8.692  1.00  0.00    -0.016 A 
HETATM   18  C13 UNL     1     -12.695  14.886  -7.790  1.00  0.00     0.052 C 
ENDBRANCH   1  11
BRANCH   8  19
HETATM   19  C7  UNL     1     -12.510  20.563  -7.447  1.00  0.00     0.136 C 
BRANCH  19  20
HETATM   20  C8  UNL     1     -12.922  20.246  -6.055  1.00  0.00    -0.004 C 
HETATM   21  C9  UNL     1     -11.984  20.689  -4.969  1.00  0.00     0.011 C 
HETATM   22  C10 UNL     1     -14.263  20.938  -5.777  1.00  0.00     0.011 C 
ENDBRANCH  19  20
ENDBRANCH   8  19
TORSDOF 3
ENDMDL
MODEL 4
REMARK VINA RESULT: -5.313377679      1.468      1.875
REMARK  3 active torsions:
REMARK  status: ('A' for Active; 'I' for Inactive)
REMARK    1  A    between atoms: C4_6  and  C5_7 
REMARK    2  A    between atoms: N3_14  and  C7_15 
REMARK    3  A    between atoms: C7_15  and  C8_16 
ROOT
HETATM    1  C5  UNL     1     -11.605  18.141  -9.308  1.00  0.00     0.121 A 
HETATM    2  N1  UNL     1     -11.433  18.919  -8.225  1.00  0.00    -0.293 N 
ATOM      3  H1  UNL     1     -10.921  18.549  -7.424  1.00  0.00     0.187 HD
HETATM    4  N2  UNL     1     -11.911  20.159  -8.170  1.00  0.00    -0.275 N 
ATOM      5  H2  UNL     1     -11.750  20.704  -7.323  1.00  0.00     0.189 HD
HETATM    6  C6  UNL     1     -12.595  20.729  -9.174  1.00  0.00     0.194 A 
HETATM    7  S1  UNL     1     -13.179  22.254  -9.098  1.00  0.00    -0.039 SA
HETATM    8  N3  UNL     1     -12.783  19.958 -10.287  1.00  0.00    -0.311 N 
HETATM    9  C11 UNL     1     -12.306  18.701 -10.359  1.00  0.00     0.136 A 
HETATM   10  S2  UNL     1     -12.558  17.750 -11.687  1.00  0.00    -0.058 SA
ENDROOT
BRANCH   1  11
HETATM   11  C4  UNL     1     -11.088  16.780  -9.386  1.00  0.00     0.114 A 
HETATM   12  O1  UNL     1     -10.024  16.328  -9.997  1.00  0.00    -0.300 OA
HETATM   13  C3  UNL     1      -9.874  15.035  -9.847  1.00  0.00     0.129 A 
HETATM   14  C2  UNL     1     -10.911  14.561  -9.076  1.00  0.00    -0.012 A 
HETATM   15 BR1  UNL     1      -8.467  13.933 -10.559  1.00  0.00    -0.022 Br
HETATM   16  C1  UNL     1     -11.129  13.158  -8.664  1.00  0.00     0.052 C 
HETATM   17  C12 UNL     1     -11.674  15.672  -8.788  1.00  0.00    -0.016 A 
HETATM   18  C13 UNL     1     -12.907  15.713  -7.988  1.00  0.00     0.052 C 
ENDBRANCH   1  11
BRANCH   8  19
HETATM   19  C7  UNL     1     -13.529  20.567 -11.345  1.00  0.00     0.136 C 
BRANCH  19  20
HETATM   20  C8  UNL     1     -14.974  20.227 -11.396  1.00  0.00    -0.004 C 
HETATM   21  C9  UNL     1     -15.930  21.353 -11.128  1.00  0.00     0.011 C 
HETATM   22  C10 UNL     1     -15.301  19.707 -12.803  1.00  0.00     0.011 C 
ENDBRANCH  19  20
ENDBRANCH   8  19
TORSDOF 3
ENDMDL
MODEL 5
REMARK VINA RESULT: -5.238882907      1.747      2.488
REMARK  3 active torsions:
REMARK  status: ('A' for Active; 'I' for Inactive)
REMARK    1  A    between atoms: C4_6  and  C5_7 
REMARK    2  A    between atoms: N3_14  and  C7_15 
REMARK    3  A    between atoms: C7_15  and  C8_16 
ROOT
HETATM    1  C5  UNL     1     -12.494  17.823  -8.714  1.00  0.00     0.121 A 
HETATM    2  N1  UNL     1     -13.010  18.348  -7.589  1.00  0.00    -0.293 N 
ATOM      3  H1  UNL     1     -12.806  17.903  -6.695  1.00  0.00     0.187 HD
HETATM    4  N2  UNL     1     -13.780  19.433  -7.611  1.00  0.00    -0.275 N 
ATOM      5  H2  UNL     1     -14.145  19.786  -6.726  1.00  0.00     0.189 HD
HETATM    6  C6  UNL     1     -14.102  20.084  -8.738  1.00  0.00     0.194 A 
HETATM    7  S1  UNL     1     -15.049  21.417  -8.755  1.00  0.00    -0.039 SA
HETATM    8  N3  UNL     1     -13.589  19.570  -9.896  1.00  0.00    -0.311 N 
HETATM    9  C11 UNL     1     -12.808  18.474  -9.893  1.00  0.00     0.136 A 
HETATM   10  S2  UNL     1     -12.211  17.826 -11.291  1.00  0.00    -0.058 SA
ENDROOT
BRANCH   1  11
HETATM   11  C4  UNL     1     -11.649  16.636  -8.710  1.00  0.00     0.114 A 
HETATM   12  O1  UNL     1     -11.983  15.376  -8.821  1.00  0.00    -0.300 OA
HETATM   13  C3  UNL     1     -10.944  14.579  -8.773  1.00  0.00     0.129 A 
HETATM   14  C2  UNL     1      -9.811  15.345  -8.618  1.00  0.00    -0.012 A 
HETATM   15 BR1  UNL     1     -10.939  12.659  -8.894  1.00  0.00    -0.022 Br
HETATM   16  C1  UNL     1      -8.422  14.849  -8.519  1.00  0.00     0.052 C 
HETATM   17  C12 UNL     1     -10.266  16.645  -8.579  1.00  0.00    -0.016 A 
HETATM   18  C13 UNL     1      -9.453  17.861  -8.425  1.00  0.00     0.052 C 
ENDBRANCH   1  11
BRANCH   8  19
HETATM   19  C7  UNL     1     -13.952  20.260 -11.096  1.00  0.00     0.136 C 
BRANCH  19  20
HETATM   20  C8  UNL     1     -15.235  19.844 -11.719  1.00  0.00    -0.004 C 
HETATM   21  C9  UNL     1     -16.156  20.952 -12.144  1.00  0.00     0.011 C 
HETATM   22  C10 UNL     1     -14.920  19.034 -12.984  1.00  0.00     0.011 C 
ENDBRANCH  19  20
ENDBRANCH   8  19
TORSDOF 3
ENDMDL
