MODEL 1
REMARK VINA RESULT: -6.086038804      0.000      0.000
REMARK  4 active torsions:
REMARK  status: ('A' for Active; 'I' for Inactive)
REMARK    1  A    between atoms: O1_2  and  C2_3 
REMARK    2  A    between atoms: C9_10  and  O2_11 
REMARK    3  A    between atoms: C11_15  and  O3_16 
REMARK    4  A    between atoms: C13_18  and  O4_19 
ROOT
HETATM    1  C2  UNL     1     -12.599  18.928 -11.815  1.00  0.00     0.046 C 
HETATM    2  C3  UNL     1     -11.413  19.115 -11.324  1.00  0.00     0.038 C 
HETATM    3  C4  UNL     1     -10.809  19.411 -10.054  1.00  0.00    -0.059 C 
HETATM    4  C5  UNL     1     -10.488  20.874  -9.778  1.00  0.00     0.048 C 
HETATM    5  C6  UNL     1     -10.417  18.585  -9.065  1.00  0.00     0.022 C 
HETATM    6  C7  UNL     1     -10.463  17.154  -8.912  1.00  0.00     0.010 A 
HETATM    7  C8  UNL     1     -11.546  16.335  -8.592  1.00  0.00    -0.003 A 
HETATM    8  C9  UNL     1     -11.415  14.938  -8.484  1.00  0.00     0.098 A 
HETATM    9  C10 UNL     1     -10.187  14.341  -8.691  1.00  0.00     0.103 A 
HETATM   10 CL1  UNL     1     -10.046  12.579  -8.552  1.00  0.00    -0.078 Cl
HETATM   11  C11 UNL     1      -9.108  15.114  -8.999  1.00  0.00     0.127 A 
HETATM   12  C13 UNL     1      -9.248  16.463  -9.101  1.00  0.00     0.114 A 
HETATM   13  C15 UNL     1     -12.875  16.825  -8.222  1.00  0.00     0.120 C 
HETATM   14  C16 UNL     1     -14.010  16.498  -9.048  1.00  0.00     0.131 C 
HETATM   15  O5  UNL     1     -15.116  16.446  -8.468  1.00  0.00    -0.298 OA
HETATM   16  C17 UNL     1     -14.089  16.207 -10.492  1.00  0.00     0.078 C 
HETATM   17  C18 UNL     1     -15.312  16.920 -11.022  1.00  0.00     0.008 C 
HETATM   18  C19 UNL     1     -14.918  18.065 -11.893  1.00  0.00     0.007 C 
HETATM   19  C20 UNL     1     -13.941  18.963 -11.170  1.00  0.00     0.064 C 
ENDROOT
BRANCH   1  20
HETATM   20  O1  UNL     1     -12.711  18.639 -13.206  1.00  0.00    -0.360 OA
HETATM   21  C1  UNL     1     -12.393  19.511 -14.231  1.00  0.00     0.209 C 
ENDBRANCH   1  20
BRANCH  12  22
HETATM   22  O4  UNL     1      -8.056  17.161  -9.412  1.00  0.00    -0.352 OA
HETATM   23  C14 UNL     1      -7.267  17.543  -8.316  1.00  0.00     0.210 C 
ENDBRANCH  12  22
BRANCH   8  24
HETATM   24  O2  UNL     1     -12.447  14.093  -8.173  1.00  0.00    -0.358 OA
ATOM     25  H2  UNL     1     -12.372  13.147  -8.149  1.00  0.00     0.217 HD
ENDBRANCH   8  24
BRANCH  11  26
HETATM   26  O3  UNL     1      -7.879  14.478  -9.201  1.00  0.00    -0.351 OA
HETATM   27  C12 UNL     1      -7.459  14.209 -10.523  1.00  0.00     0.210 C 
ENDBRANCH  11  26
TORSDOF 4
ENDMDL
MODEL 2
REMARK VINA RESULT: -5.541356895      1.106      1.326
REMARK  4 active torsions:
REMARK  status: ('A' for Active; 'I' for Inactive)
REMARK    1  A    between atoms: O1_2  and  C2_3 
REMARK    2  A    between atoms: C9_10  and  O2_11 
REMARK    3  A    between atoms: C11_15  and  O3_16 
REMARK    4  A    between atoms: C13_18  and  O4_19 
ROOT
HETATM    1  C2  UNL     1     -11.992  19.775 -10.183  1.00  0.00     0.046 C 
HETATM    2  C3  UNL     1     -10.877  19.712  -9.524  1.00  0.00     0.038 C 
HETATM    3  C4  UNL     1     -10.434  19.455  -8.181  1.00  0.00    -0.059 C 
HETATM    4  C5  UNL     1     -10.174  20.673  -7.306  1.00  0.00     0.048 C 
HETATM    5  C6  UNL     1     -10.149  18.289  -7.569  1.00  0.00     0.022 C 
HETATM    6  C7  UNL     1     -10.187  16.919  -8.011  1.00  0.00     0.010 A 
HETATM    7  C8  UNL     1     -11.285  16.076  -8.175  1.00  0.00    -0.003 A 
HETATM    8  C9  UNL     1     -11.144  14.749  -8.623  1.00  0.00     0.098 A 
HETATM    9  C10 UNL     1      -9.890  14.245  -8.908  1.00  0.00     0.103 A 
HETATM   10 CL1  UNL     1      -9.735  12.572  -9.473  1.00  0.00    -0.078 Cl
HETATM   11  C11 UNL     1      -8.796  15.043  -8.752  1.00  0.00     0.127 A 
HETATM   12  C13 UNL     1      -8.946  16.323  -8.319  1.00  0.00     0.114 A 
HETATM   13  C15 UNL     1     -12.657  16.419  -7.796  1.00  0.00     0.120 C 
HETATM   14  C16 UNL     1     -13.680  16.486  -8.809  1.00  0.00     0.131 C 
HETATM   15  O5  UNL     1     -14.846  16.241  -8.432  1.00  0.00    -0.298 OA
HETATM   16  C17 UNL     1     -13.582  16.801 -10.248  1.00  0.00     0.078 C 
HETATM   17  C18 UNL     1     -14.746  17.705 -10.584  1.00  0.00     0.008 C 
HETATM   18  C19 UNL     1     -14.271  19.090 -10.869  1.00  0.00     0.007 C 
HETATM   19  C20 UNL     1     -13.402  19.591  -9.739  1.00  0.00     0.064 C 
ENDROOT
BRANCH   1  20
HETATM   20  O1  UNL     1     -11.933  20.072 -11.575  1.00  0.00    -0.360 OA
HETATM   21  C1  UNL     1     -10.847  19.836 -12.397  1.00  0.00     0.209 C 
ENDBRANCH   1  20
BRANCH  12  22
HETATM   22  O4  UNL     1      -7.738  17.049  -8.183  1.00  0.00    -0.352 OA
HETATM   23  C14 UNL     1      -7.395  17.875  -9.264  1.00  0.00     0.210 C 
ENDBRANCH  12  22
BRANCH   8  24
HETATM   24  O2  UNL     1     -12.191  13.884  -8.800  1.00  0.00    -0.358 OA
ATOM     25  H2  UNL     1     -12.613  13.722  -9.635  1.00  0.00     0.217 HD
ENDBRANCH   8  24
BRANCH  11  26
HETATM   26  O3  UNL     1      -7.540  14.503  -9.048  1.00  0.00    -0.351 OA
HETATM   27  C12 UNL     1      -7.109  14.474 -10.394  1.00  0.00     0.210 C 
ENDBRANCH  11  26
TORSDOF 4
ENDMDL
MODEL 3
REMARK VINA RESULT: -5.497785766      1.818      2.113
REMARK  4 active torsions:
REMARK  status: ('A' for Active; 'I' for Inactive)
REMARK    1  A    between atoms: O1_2  and  C2_3 
REMARK    2  A    between atoms: C9_10  and  O2_11 
REMARK    3  A    between atoms: C11_15  and  O3_16 
REMARK    4  A    between atoms: C13_18  and  O4_19 
ROOT
HETATM    1  C2  UNL     1     -11.073  20.034 -10.979  1.00  0.00     0.046 C 
HETATM    2  C3  UNL     1      -9.888  19.522 -10.860  1.00  0.00     0.038 C 
HETATM    3  C4  UNL     1      -8.885  19.355  -9.843  1.00  0.00    -0.059 C 
HETATM    4  C5  UNL     1      -7.772  20.393  -9.810  1.00  0.00     0.048 C 
HETATM    5  C6  UNL     1      -8.730  18.378  -8.929  1.00  0.00     0.022 C 
HETATM    6  C7  UNL     1      -9.484  17.188  -8.633  1.00  0.00     0.010 A 
HETATM    7  C8  UNL     1     -10.691  17.056  -7.946  1.00  0.00    -0.003 A 
HETATM    8  C9  UNL     1     -11.300  15.803  -7.746  1.00  0.00     0.098 A 
HETATM    9  C10 UNL     1     -10.698  14.657  -8.229  1.00  0.00     0.103 A 
HETATM   10 CL1  UNL     1     -11.484  13.089  -7.967  1.00  0.00    -0.078 Cl
HETATM   11  C11 UNL     1      -9.516  14.752  -8.899  1.00  0.00     0.127 A 
HETATM   12  C13 UNL     1      -8.939  15.969  -9.087  1.00  0.00     0.114 A 
HETATM   13  C15 UNL     1     -11.383  18.154  -7.268  1.00  0.00     0.120 C 
HETATM   14  C16 UNL     1     -12.698  18.547  -7.708  1.00  0.00     0.131 C 
HETATM   15  O5  UNL     1     -13.440  19.054  -6.840  1.00  0.00    -0.298 OA
HETATM   16  C17 UNL     1     -13.330  18.449  -9.038  1.00  0.00     0.078 C 
HETATM   17  C18 UNL     1     -14.076  19.743  -9.270  1.00  0.00     0.008 C 
HETATM   18  C19 UNL     1     -13.403  20.557 -10.322  1.00  0.00     0.007 C 
HETATM   19  C20 UNL     1     -11.939  20.737  -9.992  1.00  0.00     0.064 C 
ENDROOT
BRANCH   1  20
HETATM   20  O1  UNL     1     -11.715  19.953 -12.249  1.00  0.00    -0.360 OA
HETATM   21  C1  UNL     1     -11.939  18.788 -12.958  1.00  0.00     0.209 C 
ENDBRANCH   1  20
BRANCH  12  22
HETATM   22  O4  UNL     1      -7.707  15.940  -9.784  1.00  0.00    -0.352 OA
HETATM   23  C14 UNL     1      -6.565  15.711  -9.000  1.00  0.00     0.210 C 
ENDBRANCH  12  22
BRANCH   8  24
HETATM   24  O2  UNL     1     -12.482  15.623  -7.079  1.00  0.00    -0.358 OA
ATOM     25  H2  UNL     1     -12.587  15.732  -6.141  1.00  0.00     0.217 HD
ENDBRANCH   8  24
BRANCH  11  26
HETATM   26  O3  UNL     1      -8.933  13.573  -9.375  1.00  0.00    -0.351 OA
HETATM   27  C12 UNL     1      -9.315  13.087 -10.646  1.00  0.00     0.210 C 
ENDBRANCH  11  26
TORSDOF 4
ENDMDL
MODEL 4
REMARK VINA RESULT: -4.849164130      2.651      6.496
REMARK  4 active torsions:
REMARK  status: ('A' for Active; 'I' for Inactive)
REMARK    1  A    between atoms: O1_2  and  C2_3 
REMARK    2  A    between atoms: C9_10  and  O2_11 
REMARK    3  A    between atoms: C11_15  and  O3_16 
REMARK    4  A    between atoms: C13_18  and  O4_19 
ROOT
HETATM    1  C2  UNL     1      -9.156  15.333  -9.321  1.00  0.00     0.046 C 
HETATM    2  C3  UNL     1     -10.411  15.022  -9.417  1.00  0.00     0.038 C 
HETATM    3  C4  UNL     1     -11.584  15.012  -8.586  1.00  0.00    -0.059 C 
HETATM    4  C5  UNL     1     -11.936  13.686  -7.925  1.00  0.00     0.048 C 
HETATM    5  C6  UNL     1     -12.477  15.987  -8.333  1.00  0.00     0.022 C 
HETATM    6  C7  UNL     1     -12.583  17.353  -8.775  1.00  0.00     0.010 A 
HETATM    7  C8  UNL     1     -11.874  18.476  -8.350  1.00  0.00    -0.003 A 
HETATM    8  C9  UNL     1     -12.105  19.753  -8.896  1.00  0.00     0.098 A 
HETATM    9  C10 UNL     1     -13.061  19.922  -9.879  1.00  0.00     0.103 A 
HETATM   10 CL1  UNL     1     -13.333  21.538 -10.555  1.00  0.00    -0.078 Cl
HETATM   11  C11 UNL     1     -13.775  18.845 -10.312  1.00  0.00     0.127 A 
HETATM   12  C13 UNL     1     -13.542  17.617  -9.776  1.00  0.00     0.114 A 
HETATM   13  C15 UNL     1     -10.925  18.483  -7.235  1.00  0.00     0.120 C 
HETATM   14  C16 UNL     1      -9.540  18.800  -7.481  1.00  0.00     0.131 C 
HETATM   15  O5  UNL     1      -8.915  19.314  -6.529  1.00  0.00    -0.298 OA
HETATM   16  C17 UNL     1      -8.719  18.618  -8.694  1.00  0.00     0.078 C 
HETATM   17  C18 UNL     1      -7.371  18.104  -8.242  1.00  0.00     0.008 C 
HETATM   18  C19 UNL     1      -7.190  16.678  -8.643  1.00  0.00     0.007 C 
HETATM   19  C20 UNL     1      -8.361  15.847  -8.171  1.00  0.00     0.064 C 
ENDROOT
BRANCH   1  20
HETATM   20  O1  UNL     1      -8.334  15.174 -10.474  1.00  0.00    -0.360 OA
HETATM   21  C1  UNL     1      -7.779  13.982 -10.902  1.00  0.00     0.209 C 
ENDBRANCH   1  20
BRANCH  12  22
HETATM   22  O4  UNL     1     -14.354  16.580 -10.295  1.00  0.00    -0.352 OA
HETATM   23  C14 UNL     1     -15.623  16.446  -9.711  1.00  0.00     0.210 C 
ENDBRANCH  12  22
BRANCH   8  24
HETATM   24  O2  UNL     1     -11.434  20.883  -8.512  1.00  0.00    -0.358 OA
ATOM     25  H2  UNL     1     -11.796  21.548  -7.938  1.00  0.00     0.217 HD
ENDBRANCH   8  24
BRANCH  11  26
HETATM   26  O3  UNL     1     -14.736  19.050 -11.307  1.00  0.00    -0.351 OA
HETATM   27  C12 UNL     1     -14.352  18.930 -12.662  1.00  0.00     0.210 C 
ENDBRANCH  11  26
TORSDOF 4
ENDMDL
MODEL 5
REMARK VINA RESULT: -4.843587515      2.378      3.202
REMARK  4 active torsions:
REMARK  status: ('A' for Active; 'I' for Inactive)
REMARK    1  A    between atoms: O1_2  and  C2_3 
REMARK    2  A    between atoms: C9_10  and  O2_11 
REMARK    3  A    between atoms: C11_15  and  O3_16 
REMARK    4  A    between atoms: C13_18  and  O4_19 
ROOT
HETATM    1  C2  UNL     1     -14.258  20.716 -11.595  1.00  0.00     0.046 C 
HETATM    2  C3  UNL     1     -13.756  21.198 -10.501  1.00  0.00     0.038 C 
HETATM    3  C4  UNL     1     -14.012  21.151  -9.087  1.00  0.00    -0.059 C 
HETATM    4  C5  UNL     1     -14.817  22.304  -8.503  1.00  0.00     0.048 C 
HETATM    5  C6  UNL     1     -13.602  20.265  -8.159  1.00  0.00     0.022 C 
HETATM    6  C7  UNL     1     -12.793  19.076  -8.235  1.00  0.00     0.010 A 
HETATM    7  C8  UNL     1     -13.136  17.802  -8.686  1.00  0.00    -0.003 A 
HETATM    8  C9  UNL     1     -12.211  16.741  -8.694  1.00  0.00     0.098 A 
HETATM    9  C10 UNL     1     -10.922  16.944  -8.239  1.00  0.00     0.103 A 
HETATM   10 CL1  UNL     1      -9.772  15.595  -8.260  1.00  0.00    -0.078 Cl
HETATM   11  C11 UNL     1     -10.557  18.177  -7.786  1.00  0.00     0.127 A 
HETATM   12  C13 UNL     1     -11.461  19.193  -7.785  1.00  0.00     0.114 A 
HETATM   13  C15 UNL     1     -14.487  17.398  -9.077  1.00  0.00     0.120 C 
HETATM   14  C16 UNL     1     -14.741  16.979 -10.433  1.00  0.00     0.131 C 
HETATM   15  O5  UNL     1     -15.680  16.170 -10.593  1.00  0.00    -0.298 OA
HETATM   16  C17 UNL     1     -14.065  17.351 -11.691  1.00  0.00     0.078 C 
HETATM   17  C18 UNL     1     -15.144  17.561 -12.728  1.00  0.00     0.008 C 
HETATM   18  C19 UNL     1     -15.264  19.007 -13.076  1.00  0.00     0.007 C 
HETATM   19  C20 UNL     1     -15.437  19.836 -11.825  1.00  0.00     0.064 C 
ENDROOT
BRANCH   1  20
HETATM   20  O1  UNL     1     -13.627  21.052 -12.827  1.00  0.00    -0.360 OA
HETATM   21  C1  UNL     1     -12.313  21.457 -12.968  1.00  0.00     0.209 C 
ENDBRANCH   1  20
BRANCH  12  22
HETATM   22  O4  UNL     1     -10.971  20.421  -7.278  1.00  0.00    -0.352 OA
HETATM   23  C14 UNL     1     -11.040  20.580  -5.885  1.00  0.00     0.210 C 
ENDBRANCH  12  22
BRANCH   8  24
HETATM   24  O2  UNL     1     -12.500  15.475  -9.127  1.00  0.00    -0.358 OA
ATOM     25  H2  UNL     1     -12.143  14.685  -8.740  1.00  0.00     0.217 HD
ENDBRANCH   8  24
BRANCH  11  26
HETATM   26  O3  UNL     1      -9.246  18.349  -7.332  1.00  0.00    -0.351 OA
HETATM   27  C12 UNL     1      -8.243  18.708  -8.261  1.00  0.00     0.210 C 
ENDBRANCH  11  26
TORSDOF 4
ENDMDL
