MODEL 1
REMARK VINA RESULT: -7.004187340      0.000      0.000
REMARK  3 active torsions:
REMARK  status: ('A' for Active; 'I' for Inactive)
REMARK    1  A    between atoms: C4_6  and  N1_7 
REMARK    2  A    between atoms: C11_20  and  C12_21 
REMARK    3  A    between atoms: C12_21  and  C13_22 
ROOT
HETATM    1  N1  UNL     1      -9.209  17.485  -8.633  1.00  0.00    -0.322 N 
HETATM    2  C5  UNL     1      -9.988  18.460  -7.859  1.00  0.00     0.099 C 
HETATM    3  N2  UNL     1      -9.534  19.011  -6.811  1.00  0.00    -0.388 N 
ATOM      4  H21 UNL     1     -10.075  19.688  -6.274  1.00  0.00     0.157 HD
ATOM      5  H22 UNL     1      -8.637  18.903  -6.336  1.00  0.00     0.157 HD
HETATM    6  C6  UNL     1     -11.291  18.616  -8.549  1.00  0.00     0.199 C 
HETATM    7  C7  UNL     1     -12.374  18.797  -7.579  1.00  0.00     0.074 C 
HETATM    8  N3  UNL     1     -13.206  18.939  -6.816  1.00  0.00    -0.196 NA
HETATM    9  C8  UNL     1     -11.409  17.369  -9.352  1.00  0.00     0.180 C 
HETATM   10  C9  UNL     1     -11.635  17.655 -10.740  1.00  0.00     0.088 C 
HETATM   11  N4  UNL     1     -11.799  17.877 -11.864  1.00  0.00    -0.195 NA
HETATM   12  C10 UNL     1     -12.596  16.653  -8.804  1.00  0.00     0.088 C 
HETATM   13  N5  UNL     1     -13.532  16.103  -8.395  1.00  0.00    -0.195 NA
HETATM   14  C11 UNL     1     -10.131  16.519  -9.107  1.00  0.00     0.131 C 
ENDROOT
BRANCH   1  15
HETATM   15  C4  UNL     1      -7.799  17.729  -8.819  1.00  0.00     0.086 A 
HETATM   16  S1  UNL     1      -6.473  16.794  -8.324  1.00  0.00    -0.059 SA
HETATM   17  C3  UNL     1      -5.196  17.744  -8.912  1.00  0.00     0.083 A 
HETATM   18  C2  UNL     1      -5.851  18.792  -9.494  1.00  0.00    -0.025 A 
HETATM   19 CL1  UNL     1      -3.443  17.473  -8.814  1.00  0.00    -0.076 Cl
HETATM   20  C1  UNL     1      -5.045  19.896 -10.156  1.00  0.00     0.051 C 
HETATM   21  C18 UNL     1      -7.188  18.794  -9.452  1.00  0.00    -0.020 A 
HETATM   22  C19 UNL     1      -8.058  19.888 -10.051  1.00  0.00     0.052 C 
ENDBRANCH   1  15
BRANCH  14  23
HETATM   23  C12 UNL     1     -10.544  15.340  -8.356  1.00  0.00     0.033 C 
BRANCH  23  24
HETATM   24  C13 UNL     1      -9.927  13.996  -8.557  1.00  0.00    -0.013 C 
HETATM   25  C14 UNL     1      -9.538  13.874 -10.074  1.00  0.00     0.005 C 
HETATM   26  C15 UNL     1      -9.646  12.419 -10.381  1.00  0.00     0.000 C 
HETATM   27  C16 UNL     1     -10.941  12.062  -9.686  1.00  0.00     0.000 C 
HETATM   28  C17 UNL     1     -10.854  12.836  -8.426  1.00  0.00     0.005 C 
ENDBRANCH  23  24
ENDBRANCH  14  23
TORSDOF 3
ENDMDL
MODEL 2
REMARK VINA RESULT: -6.954329729      3.167      5.128
REMARK  3 active torsions:
REMARK  status: ('A' for Active; 'I' for Inactive)
REMARK    1  A    between atoms: C4_6  and  N1_7 
REMARK    2  A    between atoms: C11_20  and  C12_21 
REMARK    3  A    between atoms: C12_21  and  C13_22 
ROOT
HETATM    1  N1  UNL     1     -12.012  16.920  -8.776  1.00  0.00    -0.322 N 
HETATM    2  C5  UNL     1     -12.101  17.386  -7.386  1.00  0.00     0.099 C 
HETATM    3  N2  UNL     1     -12.320  16.595  -6.419  1.00  0.00    -0.388 N 
ATOM      4  H21 UNL     1     -12.382  16.919  -5.454  1.00  0.00     0.157 HD
ATOM      5  H22 UNL     1     -12.468  15.586  -6.404  1.00  0.00     0.157 HD
HETATM    6  C6  UNL     1     -11.886  18.853  -7.409  1.00  0.00     0.199 C 
HETATM    7  C7  UNL     1     -12.729  19.516  -6.411  1.00  0.00     0.074 C 
HETATM    8  N3  UNL     1     -13.387  20.020  -5.631  1.00  0.00    -0.196 NA
HETATM    9  C8  UNL     1     -12.211  19.228  -8.811  1.00  0.00     0.180 C 
HETATM   10  C9  UNL     1     -11.131  19.945  -9.428  1.00  0.00     0.088 C 
HETATM   11  N4  UNL     1     -10.258  20.507  -9.939  1.00  0.00    -0.195 NA
HETATM   12  C10 UNL     1     -13.398  20.124  -8.720  1.00  0.00     0.088 C 
HETATM   13  N5  UNL     1     -14.310  20.839  -8.652  1.00  0.00    -0.195 NA
HETATM   14  C11 UNL     1     -12.596  17.932  -9.578  1.00  0.00     0.131 C 
ENDROOT
BRANCH   1  15
HETATM   15  C4  UNL     1     -11.328  15.677  -9.038  1.00  0.00     0.086 A 
HETATM   16  S1  UNL     1     -11.889  14.085  -8.865  1.00  0.00    -0.059 SA
HETATM   17  C3  UNL     1     -10.516  13.224  -9.365  1.00  0.00     0.083 A 
HETATM   18  C2  UNL     1      -9.632  14.222  -9.662  1.00  0.00    -0.025 A 
HETATM   19 CL1  UNL     1     -10.260  11.470  -9.486  1.00  0.00    -0.076 Cl
HETATM   20  C1  UNL     1      -8.244  13.861 -10.160  1.00  0.00     0.051 C 
HETATM   21  C18 UNL     1     -10.039  15.485  -9.497  1.00  0.00    -0.020 A 
HETATM   22  C19 UNL     1      -9.174  16.703  -9.781  1.00  0.00     0.052 C 
ENDBRANCH   1  15
BRANCH  14  23
HETATM   23  C12 UNL     1     -14.019  18.024  -9.877  1.00  0.00     0.033 C 
BRANCH  23  24
HETATM   24  C13 UNL     1     -14.540  18.370 -11.232  1.00  0.00    -0.013 C 
HETATM   25  C14 UNL     1     -15.257  17.095 -11.805  1.00  0.00     0.005 C 
HETATM   26  C15 UNL     1     -15.090  17.194 -13.284  1.00  0.00     0.000 C 
HETATM   27  C16 UNL     1     -13.641  17.617 -13.393  1.00  0.00     0.000 C 
HETATM   28  C17 UNL     1     -13.505  18.588 -12.282  1.00  0.00     0.005 C 
ENDBRANCH  23  24
ENDBRANCH  14  23
TORSDOF 3
ENDMDL
MODEL 3
REMARK VINA RESULT: -6.533881118      3.103      5.217
REMARK  3 active torsions:
REMARK  status: ('A' for Active; 'I' for Inactive)
REMARK    1  A    between atoms: C4_6  and  N1_7 
REMARK    2  A    between atoms: C11_20  and  C12_21 
REMARK    3  A    between atoms: C12_21  and  C13_22 
ROOT
HETATM    1  N1  UNL     1     -11.980  17.496  -8.804  1.00  0.00    -0.322 N 
HETATM    2  C5  UNL     1     -12.154  17.923  -7.410  1.00  0.00     0.099 C 
HETATM    3  N2  UNL     1     -12.267  17.095  -6.456  1.00  0.00    -0.388 N 
ATOM      4  H21 UNL     1     -12.388  17.392  -5.488  1.00  0.00     0.157 HD
ATOM      5  H22 UNL     1     -12.267  16.075  -6.456  1.00  0.00     0.157 HD
HETATM    6  C6  UNL     1     -12.154  19.406  -7.411  1.00  0.00     0.199 C 
HETATM    7  C7  UNL     1     -13.097  19.925  -6.416  1.00  0.00     0.074 C 
HETATM    8  N3  UNL     1     -13.831  20.316  -5.639  1.00  0.00    -0.196 NA
HETATM    9  C8  UNL     1     -12.512  19.751  -8.812  1.00  0.00     0.180 C 
HETATM   10  C9  UNL     1     -11.540  20.627  -9.404  1.00  0.00     0.088 C 
HETATM   11  N4  UNL     1     -10.753  21.317  -9.895  1.00  0.00    -0.195 NA
HETATM   12  C10 UNL     1     -13.819  20.464  -8.727  1.00  0.00     0.088 C 
HETATM   13  N5  UNL     1     -14.825  21.037  -8.663  1.00  0.00    -0.195 NA
HETATM   14  C11 UNL     1     -12.695  18.424  -9.601  1.00  0.00     0.131 C 
ENDROOT
BRANCH   1  15
HETATM   15  C4  UNL     1     -11.120  16.369  -9.071  1.00  0.00     0.086 A 
HETATM   16  S1  UNL     1      -9.555  16.344  -9.724  1.00  0.00    -0.059 SA
HETATM   17  C3  UNL     1      -9.249  14.675  -9.714  1.00  0.00     0.083 A 
HETATM   18  C2  UNL     1     -10.402  14.165  -9.189  1.00  0.00    -0.025 A 
HETATM   19 CL1  UNL     1      -7.806  13.784 -10.243  1.00  0.00    -0.076 Cl
HETATM   20  C1  UNL     1     -10.537  12.664  -9.008  1.00  0.00     0.051 C 
HETATM   21  C18 UNL     1     -11.370  15.027  -8.855  1.00  0.00    -0.020 A 
HETATM   22  C19 UNL     1     -12.709  14.617  -8.264  1.00  0.00     0.052 C 
ENDBRANCH   1  15
BRANCH  14  23
HETATM   23  C12 UNL     1     -14.113  18.313  -9.920  1.00  0.00     0.033 C 
BRANCH  23  24
HETATM   24  C13 UNL     1     -14.649  18.503 -11.299  1.00  0.00    -0.013 C 
HETATM   25  C14 UNL     1     -15.239  17.127 -11.774  1.00  0.00     0.005 C 
HETATM   26  C15 UNL     1     -15.066  17.126 -13.255  1.00  0.00     0.000 C 
HETATM   27  C16 UNL     1     -13.662  17.672 -13.392  1.00  0.00     0.000 C 
HETATM   28  C17 UNL     1     -13.628  18.735 -12.360  1.00  0.00     0.005 C 
ENDBRANCH  23  24
ENDBRANCH  14  23
TORSDOF 3
ENDMDL
MODEL 4
REMARK VINA RESULT: -6.462303415      4.194      5.970
REMARK  3 active torsions:
REMARK  status: ('A' for Active; 'I' for Inactive)
REMARK    1  A    between atoms: C4_6  and  N1_7 
REMARK    2  A    between atoms: C11_20  and  C12_21 
REMARK    3  A    between atoms: C12_21  and  C13_22 
ROOT
HETATM    1  N1  UNL     1     -12.767  18.914  -9.834  1.00  0.00    -0.322 N 
HETATM    2  C5  UNL     1     -11.707  19.882  -9.525  1.00  0.00     0.099 C 
HETATM    3  N2  UNL     1     -10.729  20.086 -10.306  1.00  0.00    -0.388 N 
ATOM      4  H21 UNL     1      -9.992  20.759 -10.091  1.00  0.00     0.157 HD
ATOM      5  H22 UNL     1     -10.495  19.667 -11.206  1.00  0.00     0.157 HD
HETATM    6  C6  UNL     1     -12.047  20.491  -8.217  1.00  0.00     0.199 C 
HETATM    7  C7  UNL     1     -10.836  20.745  -7.432  1.00  0.00     0.074 C 
HETATM    8  N3  UNL     1      -9.888  20.939  -6.834  1.00  0.00    -0.196 NA
HETATM    9  C8  UNL     1     -12.963  19.495  -7.599  1.00  0.00     0.180 C 
HETATM   10  C9  UNL     1     -14.208  20.094  -7.210  1.00  0.00     0.088 C 
HETATM   11  N4  UNL     1     -15.221  20.565  -6.910  1.00  0.00    -0.195 NA
HETATM   12  C10 UNL     1     -12.257  19.006  -6.381  1.00  0.00     0.088 C 
HETATM   13  N5  UNL     1     -11.721  18.639  -5.420  1.00  0.00    -0.195 NA
HETATM   14  C11 UNL     1     -13.141  18.321  -8.602  1.00  0.00     0.131 C 
ENDROOT
BRANCH   1  15
HETATM   15  C4  UNL     1     -13.240  18.828 -11.194  1.00  0.00     0.086 A 
HETATM   16  S1  UNL     1     -12.746  19.703 -12.560  1.00  0.00    -0.059 SA
HETATM   17  C3  UNL     1     -13.763  19.026 -13.738  1.00  0.00     0.083 A 
HETATM   18  C2  UNL     1     -14.481  18.112 -13.020  1.00  0.00    -0.025 A 
HETATM   19 CL1  UNL     1     -13.887  19.389 -15.472  1.00  0.00    -0.076 Cl
HETATM   20  C1  UNL     1     -15.528  17.270 -13.725  1.00  0.00     0.051 C 
HETATM   21  C18 UNL     1     -14.220  18.002 -11.712  1.00  0.00    -0.020 A 
HETATM   22  C19 UNL     1     -14.933  17.035 -10.780  1.00  0.00     0.052 C 
ENDBRANCH   1  15
BRANCH  14  23
HETATM   23  C12 UNL     1     -12.483  17.160  -8.016  1.00  0.00     0.033 C 
BRANCH  23  24
HETATM   24  C13 UNL     1     -12.332  15.864  -8.741  1.00  0.00    -0.013 C 
HETATM   25  C14 UNL     1     -12.337  14.717  -7.668  1.00  0.00     0.005 C 
HETATM   26  C15 UNL     1     -11.491  13.639  -8.256  1.00  0.00     0.000 C 
HETATM   27  C16 UNL     1     -10.332  14.438  -8.810  1.00  0.00     0.000 C 
HETATM   28  C17 UNL     1     -11.003  15.632  -9.373  1.00  0.00     0.005 C 
ENDBRANCH  23  24
ENDBRANCH  14  23
TORSDOF 3
ENDMDL
MODEL 5
REMARK VINA RESULT: -6.456367340      3.228      5.652
REMARK  3 active torsions:
REMARK  status: ('A' for Active; 'I' for Inactive)
REMARK    1  A    between atoms: C4_6  and  N1_7 
REMARK    2  A    between atoms: C11_20  and  C12_21 
REMARK    3  A    between atoms: C12_21  and  C13_22 
ROOT
HETATM    1  N1  UNL     1     -12.527  18.712  -9.042  1.00  0.00    -0.322 N 
HETATM    2  C5  UNL     1     -12.751  19.549  -7.856  1.00  0.00     0.099 C 
HETATM    3  N2  UNL     1     -12.995  19.053  -6.714  1.00  0.00    -0.388 N 
ATOM      4  H21 UNL     1     -13.151  19.634  -5.890  1.00  0.00     0.157 HD
ATOM      5  H22 UNL     1     -13.083  18.082  -6.414  1.00  0.00     0.157 HD
HETATM    6  C6  UNL     1     -12.625  20.960  -8.293  1.00  0.00     0.199 C 
HETATM    7  C7  UNL     1     -13.581  21.811  -7.581  1.00  0.00     0.074 C 
HETATM    8  N3  UNL     1     -14.327  22.462  -7.020  1.00  0.00    -0.196 NA
HETATM    9  C8  UNL     1     -12.862  20.890  -9.760  1.00  0.00     0.180 C 
HETATM   10  C9  UNL     1     -11.783  21.485 -10.497  1.00  0.00     0.088 C 
HETATM   11  N4  UNL     1     -10.910  21.945 -11.099  1.00  0.00    -0.195 NA
HETATM   12  C10 UNL     1     -14.105  21.676 -10.000  1.00  0.00     0.088 C 
HETATM   13  N5  UNL     1     -15.061  22.304 -10.195  1.00  0.00    -0.195 NA
HETATM   14  C11 UNL     1     -13.107  19.402 -10.135  1.00  0.00     0.131 C 
ENDROOT
BRANCH   1  15
HETATM   15  C4  UNL     1     -11.751  17.506  -8.891  1.00  0.00     0.086 A 
HETATM   16  S1  UNL     1     -10.066  17.306  -8.879  1.00  0.00    -0.059 SA
HETATM   17  C3  UNL     1      -9.962  15.627  -8.659  1.00  0.00     0.083 A 
HETATM   18  C2  UNL     1     -11.274  15.253  -8.598  1.00  0.00    -0.025 A 
HETATM   19 CL1  UNL     1      -8.526  14.587  -8.534  1.00  0.00    -0.076 Cl
HETATM   20  C1  UNL     1     -11.622  13.789  -8.402  1.00  0.00     0.051 C 
HETATM   21  C18 UNL     1     -12.201  16.211  -8.716  1.00  0.00    -0.020 A 
HETATM   22  C19 UNL     1     -13.699  15.956  -8.671  1.00  0.00     0.052 C 
ENDBRANCH   1  15
BRANCH  14  23
HETATM   23  C12 UNL     1     -14.506  19.289 -10.528  1.00  0.00     0.033 C 
BRANCH  23  24
HETATM   24  C13 UNL     1     -14.931  18.971 -11.923  1.00  0.00    -0.013 C 
HETATM   25  C14 UNL     1     -15.213  17.427 -11.992  1.00  0.00     0.005 C 
HETATM   26  C15 UNL     1     -14.900  17.043 -13.399  1.00  0.00     0.000 C 
HETATM   27  C16 UNL     1     -13.612  17.801 -13.635  1.00  0.00     0.000 C 
HETATM   28  C17 UNL     1     -13.871  19.095 -12.963  1.00  0.00     0.005 C 
ENDBRANCH  23  24
ENDBRANCH  14  23
TORSDOF 3
ENDMDL
