MODEL 1
REMARK VINA RESULT: -7.282743719      0.000      0.000
REMARK  3 active torsions:
REMARK  status: ('A' for Active; 'I' for Inactive)
REMARK    1  A    between atoms: C6_6  and  C7_7 
REMARK    2  A    between atoms: C12_18  and  C13_19 
REMARK    3  A    between atoms: N3_20  and  C14_22 
ROOT
HETATM    1  C1  UNL     1     -11.929  22.009  -6.709  1.00  0.00     0.015 C 
HETATM    2  C2  UNL     1     -11.086  20.720  -6.875  1.00  0.00    -0.042 C 
HETATM    3  C3  UNL     1      -9.915  20.849  -5.982  1.00  0.00     0.009 C 
HETATM    4  C4  UNL     1      -8.578  20.869  -6.647  1.00  0.00     0.002 C 
HETATM    5  C5  UNL     1      -8.010  19.532  -6.939  1.00  0.00     0.021 C 
HETATM    6  C6  UNL     1      -8.399  18.852  -8.187  1.00  0.00     0.064 C 
HETATM    7  C9  UNL     1      -8.815  19.697  -9.318  1.00  0.00     0.029 C 
HETATM    8  C10 UNL     1     -10.274  19.442  -8.918  1.00  0.00     0.029 C 
HETATM    9  C11 UNL     1     -10.829  20.635  -8.324  1.00  0.00     0.017 C 
HETATM   10  C12 UNL     1      -9.812  18.319  -8.115  1.00  0.00     0.111 C 
HETATM   11  O3  UNL     1     -10.297  18.142  -6.864  1.00  0.00    -0.373 OA
HETATM   12  C20 UNL     1     -11.660  18.256  -6.856  1.00  0.00     0.170 C 
HETATM   13  C21 UNL     1     -12.053  19.619  -6.418  1.00  0.00     0.035 C 
ENDROOT
BRANCH  10  14
HETATM   14  C13 UNL     1      -9.867  17.017  -8.878  1.00  0.00     0.100 C 
HETATM   15  N3  UNL     1     -10.187  15.939  -8.262  1.00  0.00    -0.367 N 
ATOM     16  H3  UNL     1     -10.391  16.029  -7.267  1.00  0.00     0.165 HD
BRANCH  15  17
HETATM   17  C14 UNL     1     -10.288  14.653  -8.804  1.00  0.00     0.031 A 
HETATM   18  C15 UNL     1     -11.259  13.744  -8.390  1.00  0.00     0.032 A 
HETATM   19  C16 UNL     1     -11.389  12.479  -8.901  1.00  0.00     0.044 A 
HETATM   20  C17 UNL     1     -10.520  12.060  -9.884  1.00  0.00     0.116 A 
HETATM   21  F1  UNL     1     -10.661  10.812 -10.385  1.00  0.00    -0.206 F 
HETATM   22  C18 UNL     1      -9.538  12.930 -10.326  1.00  0.00     0.044 A 
HETATM   23  C19 UNL     1      -9.423  14.215  -9.790  1.00  0.00     0.032 A 
ENDBRANCH  15  17
ENDBRANCH  10  14
BRANCH   6  24
HETATM   24  C7  UNL     1      -7.383  17.819  -8.544  1.00  0.00     0.156 A 
HETATM   25  N1  UNL     1      -6.461  17.902  -9.544  1.00  0.00    -0.278 N 
HETATM   26  N2  UNL     1      -5.723  16.807  -9.576  1.00  0.00    -0.243 N 
ATOM     27  H1  UNL     1      -6.357  18.695 -10.177  1.00  0.00     0.189 HD
HETATM   28  C8  UNL     1      -6.171  16.027  -8.598  1.00  0.00     0.385 A 
ATOM     29  H2  UNL     1      -4.961  16.602 -10.222  1.00  0.00     0.192 HD
HETATM   30  O1  UNL     1      -5.687  14.890  -8.340  1.00  0.00    -0.236 OA
HETATM   31  O2  UNL     1      -7.170  16.655  -7.988  1.00  0.00    -0.244 OA
ENDBRANCH   6  24
TORSDOF 3
ENDMDL
MODEL 2
REMARK VINA RESULT: -7.263437293      2.224      4.387
REMARK  3 active torsions:
REMARK  status: ('A' for Active; 'I' for Inactive)
REMARK    1  A    between atoms: C6_6  and  C7_7 
REMARK    2  A    between atoms: C12_18  and  C13_19 
REMARK    3  A    between atoms: N3_20  and  C14_22 
ROOT
HETATM    1  C1  UNL     1      -8.045  22.047  -7.223  1.00  0.00     0.015 C 
HETATM    2  C2  UNL     1      -8.899  20.934  -7.880  1.00  0.00    -0.042 C 
HETATM    3  C3  UNL     1      -9.821  21.596  -8.828  1.00  0.00     0.009 C 
HETATM    4  C4  UNL     1     -11.278  21.454  -8.536  1.00  0.00     0.002 C 
HETATM    5  C5  UNL     1     -11.896  20.209  -9.051  1.00  0.00     0.021 C 
HETATM    6  C6  UNL     1     -11.816  18.986  -8.233  1.00  0.00     0.064 C 
HETATM    7  C9  UNL     1     -11.687  19.152  -6.775  1.00  0.00     0.029 C 
HETATM    8  C10 UNL     1     -10.174  18.951  -6.929  1.00  0.00     0.029 C 
HETATM    9  C11 UNL     1      -9.496  20.211  -6.743  1.00  0.00     0.017 C 
HETATM   10  C12 UNL     1     -10.425  18.392  -8.250  1.00  0.00     0.111 C 
HETATM   11  O3  UNL     1      -9.654  18.767  -9.296  1.00  0.00    -0.373 OA
HETATM   12  C20 UNL     1      -8.329  18.716  -8.958  1.00  0.00     0.170 C 
HETATM   13  C21 UNL     1      -7.847  20.072  -8.592  1.00  0.00     0.035 C 
ENDROOT
BRANCH  10  14
HETATM   14  C13 UNL     1     -10.552  16.888  -8.214  1.00  0.00     0.100 C 
HETATM   15  N3  UNL     1     -10.232  16.205  -9.250  1.00  0.00    -0.367 N 
ATOM     16  H3  UNL     1      -9.903  16.733 -10.058  1.00  0.00     0.165 HD
BRANCH  15  17
HETATM   17  C14 UNL     1     -10.285  14.814  -9.395  1.00  0.00     0.031 A 
HETATM   18  C15 UNL     1      -9.424  14.120 -10.243  1.00  0.00     0.032 A 
HETATM   19  C16 UNL     1      -9.445  12.760 -10.407  1.00  0.00     0.044 A 
HETATM   20  C17 UNL     1     -10.363  12.014  -9.702  1.00  0.00     0.116 A 
HETATM   21  F1  UNL     1     -10.371  10.671  -9.868  1.00  0.00    -0.206 F 
HETATM   22  C18 UNL     1     -11.239  12.661  -8.849  1.00  0.00     0.044 A 
HETATM   23  C19 UNL     1     -11.201  14.050  -8.697  1.00  0.00     0.032 A 
ENDBRANCH  15  17
ENDBRANCH  10  14
BRANCH   6  24
HETATM   24  C7  UNL     1     -12.885  18.029  -8.641  1.00  0.00     0.156 A 
HETATM   25  N1  UNL     1     -13.398  17.017  -7.886  1.00  0.00    -0.278 N 
HETATM   26  N2  UNL     1     -14.329  16.368  -8.562  1.00  0.00    -0.243 N 
ATOM     27  H1  UNL     1     -13.105  16.794  -6.934  1.00  0.00     0.189 HD
HETATM   28  C8  UNL     1     -14.411  16.964  -9.747  1.00  0.00     0.385 A 
ATOM     29  H2  UNL     1     -14.875  15.570  -8.239  1.00  0.00     0.192 HD
HETATM   30  O1  UNL     1     -15.209  16.598 -10.654  1.00  0.00    -0.236 OA
HETATM   31  O2  UNL     1     -13.533  17.961  -9.775  1.00  0.00    -0.244 OA
ENDBRANCH   6  24
TORSDOF 3
ENDMDL
MODEL 3
REMARK VINA RESULT: -6.878628392      2.446      4.401
REMARK  3 active torsions:
REMARK  status: ('A' for Active; 'I' for Inactive)
REMARK    1  A    between atoms: C6_6  and  C7_7 
REMARK    2  A    between atoms: C12_18  and  C13_19 
REMARK    3  A    between atoms: N3_20  and  C14_22 
ROOT
HETATM    1  C1  UNL     1      -9.398  21.798  -5.508  1.00  0.00     0.015 C 
HETATM    2  C2  UNL     1      -9.924  20.830  -6.597  1.00  0.00    -0.042 C 
HETATM    3  C3  UNL     1     -10.329  21.656  -7.754  1.00  0.00     0.009 C 
HETATM    4  C4  UNL     1     -11.775  21.606  -8.124  1.00  0.00     0.002 C 
HETATM    5  C5  UNL     1     -12.151  20.473  -9.003  1.00  0.00     0.021 C 
HETATM    6  C6  UNL     1     -12.468  19.172  -8.387  1.00  0.00     0.064 C 
HETATM    7  C9  UNL     1     -12.971  19.180  -7.003  1.00  0.00     0.029 C 
HETATM    8  C10 UNL     1     -11.545  18.873  -6.528  1.00  0.00     0.029 C 
HETATM    9  C11 UNL     1     -10.973  20.049  -5.918  1.00  0.00     0.017 C 
HETATM   10  C12 UNL     1     -11.223  18.471  -7.891  1.00  0.00     0.111 C 
HETATM   11  O3  UNL     1     -10.067  18.884  -8.458  1.00  0.00    -0.373 OA
HETATM   12  C20 UNL     1      -9.016  18.692  -7.602  1.00  0.00     0.170 C 
HETATM   13  C21 UNL     1      -8.695  19.961  -6.901  1.00  0.00     0.035 C 
ENDROOT
BRANCH  10  14
HETATM   14  C13 UNL     1     -11.400  16.986  -8.100  1.00  0.00     0.100 C 
HETATM   15  N3  UNL     1     -10.523  16.337  -8.772  1.00  0.00    -0.367 N 
ATOM     16  H3  UNL     1      -9.738  16.877  -9.135  1.00  0.00     0.165 HD
BRANCH  15  17
HETATM   17  C14 UNL     1     -10.524  14.968  -9.064  1.00  0.00     0.031 A 
HETATM   18  C15 UNL     1      -9.651  14.403  -9.991  1.00  0.00     0.032 A 
HETATM   19  C16 UNL     1      -9.621  13.068 -10.298  1.00  0.00     0.044 A 
HETATM   20  C17 UNL     1     -10.497  12.215  -9.664  1.00  0.00     0.116 A 
HETATM   21  F1  UNL     1     -10.456  10.898  -9.971  1.00  0.00    -0.206 F 
HETATM   22  C18 UNL     1     -11.383  12.732  -8.736  1.00  0.00     0.044 A 
HETATM   23  C19 UNL     1     -11.397  14.098  -8.439  1.00  0.00     0.032 A 
ENDBRANCH  15  17
ENDBRANCH  10  14
BRANCH   6  24
HETATM   24  C7  UNL     1     -13.288  18.350  -9.324  1.00  0.00     0.156 A 
HETATM   25  N1  UNL     1     -13.168  18.306 -10.681  1.00  0.00    -0.278 N 
HETATM   26  N2  UNL     1     -14.056  17.473 -11.192  1.00  0.00    -0.243 N 
ATOM     27  H1  UNL     1     -12.489  18.840 -11.224  1.00  0.00     0.189 HD
HETATM   28  C8  UNL     1     -14.744  16.985 -10.164  1.00  0.00     0.385 A 
ATOM     29  H2  UNL     1     -14.189  17.248 -12.178  1.00  0.00     0.192 HD
HETATM   30  O1  UNL     1     -15.682  16.150 -10.289  1.00  0.00    -0.236 OA
HETATM   31  O2  UNL     1     -14.265  17.526  -9.048  1.00  0.00    -0.244 OA
ENDBRANCH   6  24
TORSDOF 3
ENDMDL
MODEL 4
REMARK VINA RESULT: -6.789726799      2.817      4.077
REMARK  3 active torsions:
REMARK  status: ('A' for Active; 'I' for Inactive)
REMARK    1  A    between atoms: C6_6  and  C7_7 
REMARK    2  A    between atoms: C12_18  and  C13_19 
REMARK    3  A    between atoms: N3_20  and  C14_22 
ROOT
HETATM    1  C1  UNL     1     -12.030  21.657  -5.177  1.00  0.00     0.015 C 
HETATM    2  C2  UNL     1     -11.717  20.831  -6.449  1.00  0.00    -0.042 C 
HETATM    3  C3  UNL     1     -11.254  21.782  -7.482  1.00  0.00     0.009 C 
HETATM    4  C4  UNL     1     -12.099  21.885  -8.709  1.00  0.00     0.002 C 
HETATM    5  C5  UNL     1     -11.814  20.865  -9.746  1.00  0.00     0.021 C 
HETATM    6  C6  UNL     1     -12.468  19.548  -9.646  1.00  0.00     0.064 C 
HETATM    7  C9  UNL     1     -13.757  19.483  -8.938  1.00  0.00     0.029 C 
HETATM    8  C10 UNL     1     -12.999  19.018  -7.688  1.00  0.00     0.029 C 
HETATM    9  C11 UNL     1     -12.960  20.087  -6.719  1.00  0.00     0.017 C 
HETATM   10  C12 UNL     1     -11.864  18.706  -8.545  1.00  0.00     0.111 C 
HETATM   11  O3  UNL     1     -10.616  19.067  -8.165  1.00  0.00    -0.373 OA
HETATM   12  C20 UNL     1     -10.390  18.715  -6.862  1.00  0.00     0.170 C 
HETATM   13  C21 UNL     1     -10.599  19.890  -5.978  1.00  0.00     0.035 C 
ENDROOT
BRANCH  10  14
HETATM   14  C13 UNL     1     -11.872  17.264  -8.992  1.00  0.00     0.100 C 
HETATM   15  N3  UNL     1     -10.886  16.505  -8.685  1.00  0.00    -0.367 N 
ATOM     16  H3  UNL     1     -10.135  16.932  -8.142  1.00  0.00     0.165 HD
BRANCH  15  17
HETATM   17  C14 UNL     1     -10.725  15.153  -9.012  1.00  0.00     0.031 A 
HETATM   18  C15 UNL     1     -11.532  14.155  -8.472  1.00  0.00     0.032 A 
HETATM   19  C16 UNL     1     -11.406  12.824  -8.771  1.00  0.00     0.044 A 
HETATM   20  C17 UNL     1     -10.429  12.426  -9.658  1.00  0.00     0.116 A 
HETATM   21  F1  UNL     1     -10.316  11.110  -9.950  1.00  0.00    -0.206 F 
HETATM   22  C18 UNL     1      -9.603  13.384 -10.219  1.00  0.00     0.044 A 
HETATM   23  C19 UNL     1      -9.749  14.737  -9.898  1.00  0.00     0.032 A 
ENDBRANCH  15  17
ENDBRANCH  10  14
BRANCH   6  24
HETATM   24  C7  UNL     1     -12.476  18.880 -10.980  1.00  0.00     0.156 A 
HETATM   25  N1  UNL     1     -11.399  18.670 -11.788  1.00  0.00    -0.278 N 
HETATM   26  N2  UNL     1     -11.770  18.051 -12.893  1.00  0.00    -0.243 N 
ATOM     27  H1  UNL     1     -10.443  18.952 -11.569  1.00  0.00     0.189 HD
HETATM   28  C8  UNL     1     -13.082  17.864 -12.793  1.00  0.00     0.385 A 
ATOM     29  H2  UNL     1     -11.170  17.772 -13.669  1.00  0.00     0.192 HD
HETATM   30  O1  UNL     1     -13.772  17.294 -13.683  1.00  0.00    -0.236 OA
HETATM   31  O2  UNL     1     -13.488  18.370 -11.633  1.00  0.00    -0.244 OA
ENDBRANCH   6  24
TORSDOF 3
ENDMDL
MODEL 5
REMARK VINA RESULT: -6.626999726      3.028      4.811
REMARK  3 active torsions:
REMARK  status: ('A' for Active; 'I' for Inactive)
REMARK    1  A    between atoms: C6_6  and  C7_7 
REMARK    2  A    between atoms: C12_18  and  C13_19 
REMARK    3  A    between atoms: N3_20  and  C14_22 
ROOT
HETATM    1  C1  UNL     1      -9.577  21.964  -7.074  1.00  0.00     0.015 C 
HETATM    2  C2  UNL     1     -10.224  21.010  -8.109  1.00  0.00    -0.042 C 
HETATM    3  C3  UNL     1     -10.999  21.850  -9.048  1.00  0.00     0.009 C 
HETATM    4  C4  UNL     1     -12.473  21.612  -9.079  1.00  0.00     0.002 C 
HETATM    5  C5  UNL     1     -12.904  20.503  -9.963  1.00  0.00     0.021 C 
HETATM    6  C6  UNL     1     -12.894  19.128  -9.433  1.00  0.00     0.064 C 
HETATM    7  C9  UNL     1     -13.044  18.961  -7.978  1.00  0.00     0.029 C 
HETATM    8  C10 UNL     1     -11.518  18.834  -7.879  1.00  0.00     0.029 C 
HETATM    9  C11 UNL     1     -10.969  20.035  -7.295  1.00  0.00     0.017 C 
HETATM   10  C12 UNL     1     -11.488  18.586  -9.313  1.00  0.00     0.111 C 
HETATM   11  O3  UNL     1     -10.565  19.206 -10.084  1.00  0.00    -0.373 OA
HETATM   12  C20 UNL     1      -9.324  19.110  -9.518  1.00  0.00     0.170 C 
HETATM   13  C21 UNL     1      -9.005  20.358  -8.778  1.00  0.00     0.035 C 
ENDROOT
BRANCH  10  14
HETATM   14  C13 UNL     1     -11.520  17.110  -9.632  1.00  0.00     0.100 C 
HETATM   15  N3  UNL     1     -10.697  16.322  -9.046  1.00  0.00    -0.367 N 
ATOM     16  H3  UNL     1     -10.053  16.750  -8.381  1.00  0.00     0.165 HD
BRANCH  15  17
HETATM   17  C14 UNL     1     -10.585  14.937  -9.217  1.00  0.00     0.031 A 
HETATM   18  C15 UNL     1     -11.416  14.035  -8.557  1.00  0.00     0.032 A 
HETATM   19  C16 UNL     1     -11.337  12.675  -8.703  1.00  0.00     0.044 A 
HETATM   20  C17 UNL     1     -10.387  12.146  -9.549  1.00  0.00     0.116 A 
HETATM   21  F1  UNL     1     -10.321  10.802  -9.690  1.00  0.00    -0.206 F 
HETATM   22  C18 UNL     1      -9.539  13.005 -10.226  1.00  0.00     0.044 A 
HETATM   23  C19 UNL     1      -9.637  14.389 -10.061  1.00  0.00     0.032 A 
ENDBRANCH  15  17
ENDBRANCH  10  14
BRANCH   6  24
HETATM   24  C7  UNL     1     -13.807  18.265 -10.238  1.00  0.00     0.156 A 
HETATM   25  N1  UNL     1     -14.552  17.222  -9.776  1.00  0.00    -0.278 N 
HETATM   26  N2  UNL     1     -15.243  16.681 -10.763  1.00  0.00    -0.243 N 
ATOM     27  H1  UNL     1     -14.574  16.905  -8.807  1.00  0.00     0.189 HD
HETATM   28  C8  UNL     1     -14.939  17.377 -11.855  1.00  0.00     0.385 A 
ATOM     29  H2  UNL     1     -15.881  15.888 -10.701  1.00  0.00     0.192 HD
HETATM   30  O1  UNL     1     -15.426  17.129 -12.993  1.00  0.00    -0.236 OA
HETATM   31  O2  UNL     1     -14.074  18.326 -11.517  1.00  0.00    -0.244 OA
ENDBRANCH   6  24
TORSDOF 3
ENDMDL
