MODEL 1
REMARK VINA RESULT: -7.488524268      0.000      0.000
REMARK  3 active torsions:
REMARK  status: ('A' for Active; 'I' for Inactive)
REMARK    1  A    between atoms: C4_5  and  C5_6 
REMARK    2  A    between atoms: C12_13  and  O1_14 
REMARK    3  A    between atoms: O1_14  and  C13_15 
ROOT
HETATM    1  C5  UNL     1     -12.579  20.168 -10.770  1.00  0.00     0.038 C 
HETATM    2  C6  UNL     1     -12.312  19.469 -12.070  1.00  0.00     0.011 C 
HETATM    3  C7  UNL     1     -12.402  17.988 -12.028  1.00  0.00     0.001 C 
HETATM    4  C8  UNL     1     -11.495  17.515 -10.913  1.00  0.00     0.009 C 
HETATM    5  C9  UNL     1     -12.069  17.952  -9.609  1.00  0.00    -0.040 C 
HETATM    6  C10 UNL     1     -13.329  17.162  -9.261  1.00  0.00     0.012 C 
HETATM    7  C11 UNL     1     -13.005  15.742  -8.854  1.00  0.00     0.033 C 
HETATM    8  C12 UNL     1     -12.304  15.681  -7.493  1.00  0.00     0.129 C 
HETATM    9  C19 UNL     1     -11.783  17.111  -7.263  1.00  0.00     0.033 C 
HETATM   10  C20 UNL     1     -11.068  17.561  -8.510  1.00  0.00     0.012 C 
HETATM   11  C21 UNL     1     -12.282  19.409  -9.536  1.00  0.00     0.020 C 
ENDROOT
BRANCH   1  12
HETATM   12  C4  UNL     1     -13.975  20.669 -10.798  1.00  0.00     0.030 A 
HETATM   13  C3  UNL     1     -14.779  20.463 -11.901  1.00  0.00     0.031 A 
HETATM   14  C2  UNL     1     -16.075  20.911 -11.964  1.00  0.00     0.065 A 
HETATM   15  C1  UNL     1     -16.598  21.585 -10.898  1.00  0.00     0.202 A 
HETATM   16  F1  UNL     1     -17.872  22.058 -10.886  1.00  0.00    -0.185 F 
HETATM   17  N5  UNL     1     -15.804  21.782  -9.819  1.00  0.00    -0.276 N 
HETATM   18  N4  UNL     1     -14.546  21.341  -9.776  1.00  0.00    -0.302 N 
ATOM     19  H5  UNL     1     -16.179  22.285  -9.014  1.00  0.00     0.189 HD
ATOM     20  H4  UNL     1     -13.994  21.518  -8.937  1.00  0.00     0.186 HD
ENDBRANCH   1  12
BRANCH   8  21
HETATM   21  O1  UNL     1     -11.193  14.876  -7.500  1.00  0.00    -0.343 OA
BRANCH  21  22
HETATM   22  C13 UNL     1     -10.618  14.067  -8.402  1.00  0.00     0.101 A 
HETATM   23  C14 UNL     1     -11.334  12.910  -8.747  1.00  0.00     0.056 A 
HETATM   24  C15 UNL     1     -10.866  11.995  -9.656  1.00  0.00     0.092 A 
HETATM   25  N1  UNL     1      -9.692  12.193 -10.245  1.00  0.00    -0.350 N 
HETATM   26  C16 UNL     1      -8.976  13.291  -9.941  1.00  0.00     0.136 A 
ATOM     27  H1  UNL     1      -9.336  11.518 -10.922  1.00  0.00     0.166 HD
HETATM   28  N2  UNL     1      -7.773  13.732 -10.384  1.00  0.00    -0.337 N 
HETATM   29  C18 UNL     1      -9.418  14.235  -9.029  1.00  0.00     0.111 A 
HETATM   30  C17 UNL     1      -7.501  14.894  -9.763  1.00  0.00     0.182 A 
ATOM     31  H2  UNL     1      -7.179  13.265 -11.068  1.00  0.00     0.168 HD
HETATM   32  N3  UNL     1      -8.516  15.201  -8.929  1.00  0.00    -0.347 N 
ATOM     33  H3  UNL     1      -8.578  16.025  -8.333  1.00  0.00     0.167 HD
ENDBRANCH  21  22
ENDBRANCH   8  21
TORSDOF 3
ENDMDL
MODEL 2
REMARK VINA RESULT: -7.484249298      5.594      8.325
REMARK  3 active torsions:
REMARK  status: ('A' for Active; 'I' for Inactive)
REMARK    1  A    between atoms: C4_5  and  C5_6 
REMARK    2  A    between atoms: C12_13  and  O1_14 
REMARK    3  A    between atoms: O1_14  and  C13_15 
ROOT
HETATM    1  C5  UNL     1     -14.971  18.020 -11.066  1.00  0.00     0.038 C 
HETATM    2  C6  UNL     1     -15.345  16.920 -12.013  1.00  0.00     0.011 C 
HETATM    3  C7  UNL     1     -14.583  16.887 -13.286  1.00  0.00     0.001 C 
HETATM    4  C8  UNL     1     -14.696  18.261 -13.912  1.00  0.00     0.009 C 
HETATM    5  C9  UNL     1     -13.952  19.236 -13.066  1.00  0.00    -0.040 C 
HETATM    6  C10 UNL     1     -12.442  19.032 -13.177  1.00  0.00     0.012 C 
HETATM    7  C11 UNL     1     -11.910  19.502 -14.512  1.00  0.00     0.033 C 
HETATM    8  C12 UNL     1     -11.953  21.027 -14.643  1.00  0.00     0.129 C 
HETATM    9  C19 UNL     1     -12.942  21.480 -13.555  1.00  0.00     0.033 C 
HETATM   10  C20 UNL     1     -14.184  20.634 -13.661  1.00  0.00     0.012 C 
HETATM   11  C21 UNL     1     -14.415  19.252 -11.667  1.00  0.00     0.020 C 
ENDROOT
BRANCH   1  12
HETATM   12  C4  UNL     1     -14.075  17.448 -10.030  1.00  0.00     0.030 A 
HETATM   13  C3  UNL     1     -12.709  17.632 -10.097  1.00  0.00     0.031 A 
HETATM   14  C2  UNL     1     -11.849  17.120  -9.158  1.00  0.00     0.065 A 
HETATM   15  C1  UNL     1     -12.355  16.400  -8.114  1.00  0.00     0.202 A 
HETATM   16  F1  UNL     1     -11.568  15.862  -7.146  1.00  0.00    -0.185 F 
HETATM   17  N5  UNL     1     -13.697  16.225  -8.055  1.00  0.00    -0.276 N 
HETATM   18  N4  UNL     1     -14.518  16.730  -8.977  1.00  0.00    -0.302 N 
ATOM     19  H5  UNL     1     -14.092  15.689  -7.282  1.00  0.00     0.189 HD
ATOM     20  H4  UNL     1     -15.521  16.567  -8.882  1.00  0.00     0.186 HD
ENDBRANCH   1  12
BRANCH   8  21
HETATM   21  O1  UNL     1     -12.491  21.446 -15.834  1.00  0.00    -0.343 OA
BRANCH  21  22
HETATM   22  C13 UNL     1     -12.622  20.904 -17.053  1.00  0.00     0.101 A 
HETATM   23  C14 UNL     1     -13.924  20.541 -17.437  1.00  0.00     0.056 A 
HETATM   24  C15 UNL     1     -14.204  19.976 -18.655  1.00  0.00     0.092 A 
HETATM   25  N1  UNL     1     -13.221  19.757 -19.521  1.00  0.00    -0.350 N 
HETATM   26  C16 UNL     1     -11.960  20.092 -19.190  1.00  0.00     0.136 A 
ATOM     27  H1  UNL     1     -13.420  19.338 -20.429  1.00  0.00     0.166 HD
HETATM   28  N2  UNL     1     -10.792  19.982 -19.870  1.00  0.00    -0.337 N 
HETATM   29  C18 UNL     1     -11.642  20.664 -17.970  1.00  0.00     0.111 A 
HETATM   30  C17 UNL     1      -9.810  20.466 -19.090  1.00  0.00     0.182 A 
ATOM     31  H2  UNL     1     -10.679  19.599 -20.808  1.00  0.00     0.168 HD
HETATM   32  N3  UNL     1     -10.335  20.886 -17.921  1.00  0.00    -0.347 N 
ATOM     33  H3  UNL     1      -9.823  21.298 -17.142  1.00  0.00     0.167 HD
ENDBRANCH  21  22
ENDBRANCH   8  21
TORSDOF 3
ENDMDL
MODEL 3
REMARK VINA RESULT: -7.446317707      3.667      8.736
REMARK  3 active torsions:
REMARK  status: ('A' for Active; 'I' for Inactive)
REMARK    1  A    between atoms: C4_5  and  C5_6 
REMARK    2  A    between atoms: C12_13  and  O1_14 
REMARK    3  A    between atoms: O1_14  and  C13_15 
ROOT
HETATM    1  C5  UNL     1     -10.418  16.364  -9.133  1.00  0.00     0.038 C 
HETATM    2  C6  UNL     1     -10.979  16.659  -7.773  1.00  0.00     0.011 C 
HETATM    3  C7  UNL     1     -12.398  17.093  -7.750  1.00  0.00     0.001 C 
HETATM    4  C8  UNL     1     -12.525  18.264  -8.701  1.00  0.00     0.009 C 
HETATM    5  C9  UNL     1     -12.315  17.777 -10.093  1.00  0.00    -0.040 C 
HETATM    6  C10 UNL     1     -13.496  16.935 -10.572  1.00  0.00     0.012 C 
HETATM    7  C11 UNL     1     -14.713  17.786 -10.856  1.00  0.00     0.033 C 
HETATM    8  C12 UNL     1     -14.525  18.660 -12.099  1.00  0.00     0.129 C 
HETATM    9  C19 UNL     1     -13.004  18.683 -12.329  1.00  0.00     0.033 C 
HETATM   10  C20 UNL     1     -12.332  19.003 -11.019  1.00  0.00     0.012 C 
HETATM   11  C21 UNL     1     -11.025  17.087 -10.272  1.00  0.00     0.020 C 
ENDROOT
BRANCH   1  12
HETATM   12  C4  UNL     1     -10.436  14.894  -9.327  1.00  0.00     0.030 A 
HETATM   13  C3  UNL     1     -11.302  14.096  -8.607  1.00  0.00     0.031 A 
HETATM   14  C2  UNL     1     -11.349  12.732  -8.759  1.00  0.00     0.065 A 
HETATM   15  C1  UNL     1     -10.512  12.134  -9.657  1.00  0.00     0.202 A 
HETATM   16  F1  UNL     1     -10.501  10.791  -9.864  1.00  0.00    -0.185 F 
HETATM   17  N5  UNL     1      -9.666  12.924 -10.360  1.00  0.00    -0.276 N 
HETATM   18  N4  UNL     1      -9.634  14.247 -10.199  1.00  0.00    -0.302 N 
ATOM     19  H5  UNL     1      -9.033  12.493 -11.035  1.00  0.00     0.189 HD
ATOM     20  H4  UNL     1      -8.976  14.793 -10.756  1.00  0.00     0.186 HD
ENDBRANCH   1  12
BRANCH   8  21
HETATM   21  O1  UNL     1     -14.891  19.967 -11.895  1.00  0.00    -0.343 OA
BRANCH  21  22
HETATM   22  C13 UNL     1     -15.551  20.886 -12.614  1.00  0.00     0.101 A 
HETATM   23  C14 UNL     1     -16.812  21.270 -12.130  1.00  0.00     0.056 A 
HETATM   24  C15 UNL     1     -17.595  22.201 -12.765  1.00  0.00     0.092 A 
HETATM   25  N1  UNL     1     -17.163  22.773 -13.883  1.00  0.00    -0.350 N 
HETATM   26  C16 UNL     1     -15.959  22.431 -14.378  1.00  0.00     0.136 A 
ATOM     27  H1  UNL     1     -17.738  23.465 -14.362  1.00  0.00     0.166 HD
HETATM   28  N2  UNL     1     -15.287  22.851 -15.478  1.00  0.00    -0.337 N 
HETATM   29  C18 UNL     1     -15.142  21.497 -13.763  1.00  0.00     0.111 A 
HETATM   30  C17 UNL     1     -14.114  22.195 -15.525  1.00  0.00     0.182 A 
ATOM     31  H2  UNL     1     -15.614  23.542 -16.152  1.00  0.00     0.168 HD
HETATM   32  N3  UNL     1     -14.027  21.362 -14.468  1.00  0.00    -0.347 N 
ATOM     33  H3  UNL     1     -13.247  20.743 -14.250  1.00  0.00     0.167 HD
ENDBRANCH  21  22
ENDBRANCH   8  21
TORSDOF 3
ENDMDL
MODEL 4
REMARK VINA RESULT: -7.369701417      3.248      8.676
REMARK  3 active torsions:
REMARK  status: ('A' for Active; 'I' for Inactive)
REMARK    1  A    between atoms: C4_5  and  C5_6 
REMARK    2  A    between atoms: C12_13  and  O1_14 
REMARK    3  A    between atoms: O1_14  and  C13_15 
ROOT
HETATM    1  C5  UNL     1     -10.359  16.332  -8.882  1.00  0.00     0.038 C 
HETATM    2  C6  UNL     1     -11.066  16.557  -7.579  1.00  0.00     0.011 C 
HETATM    3  C7  UNL     1     -12.448  17.086  -7.686  1.00  0.00     0.001 C 
HETATM    4  C8  UNL     1     -12.386  18.334  -8.540  1.00  0.00     0.009 C 
HETATM    5  C9  UNL     1     -12.035  17.945  -9.935  1.00  0.00    -0.040 C 
HETATM    6  C10 UNL     1     -13.196  17.227 -10.622  1.00  0.00     0.012 C 
HETATM    7  C11 UNL     1     -14.315  18.181 -10.972  1.00  0.00     0.033 C 
HETATM    8  C12 UNL     1     -13.924  19.135 -12.105  1.00  0.00     0.129 C 
HETATM    9  C19 UNL     1     -12.386  19.070 -12.149  1.00  0.00     0.033 C 
HETATM   10  C20 UNL     1     -11.864  19.238 -10.747  1.00  0.00     0.012 C 
HETATM   11  C21 UNL     1     -10.776  17.183 -10.018  1.00  0.00     0.020 C 
ENDROOT
BRANCH   1  12
HETATM   12  C4  UNL     1     -10.440  14.887  -9.204  1.00  0.00     0.030 A 
HETATM   13  C3  UNL     1     -11.335  14.066  -8.549  1.00  0.00     0.031 A 
HETATM   14  C2  UNL     1     -11.441  12.724  -8.819  1.00  0.00     0.065 A 
HETATM   15  C1  UNL     1     -10.634  12.172  -9.773  1.00  0.00     0.202 A 
HETATM   16  F1  UNL     1     -10.681  10.853 -10.096  1.00  0.00    -0.185 F 
HETATM   17  N5  UNL     1      -9.759  12.984 -10.412  1.00  0.00    -0.276 N 
HETATM   18  N4  UNL     1      -9.670  14.286 -10.136  1.00  0.00    -0.302 N 
ATOM     19  H5  UNL     1      -9.149  12.588 -11.127  1.00  0.00     0.189 HD
ATOM     20  H4  UNL     1      -8.993  14.850 -10.649  1.00  0.00     0.186 HD
ENDBRANCH   1  12
BRANCH   8  21
HETATM   21  O1  UNL     1     -14.234  20.443 -11.833  1.00  0.00    -0.343 OA
BRANCH  21  22
HETATM   22  C13 UNL     1     -15.151  21.057 -11.072  1.00  0.00     0.101 A 
HETATM   23  C14 UNL     1     -14.773  21.347  -9.751  1.00  0.00     0.056 A 
HETATM   24  C15 UNL     1     -15.611  21.973  -8.863  1.00  0.00     0.092 A 
HETATM   25  N1  UNL     1     -16.832  22.326  -9.247  1.00  0.00    -0.350 N 
HETATM   26  C16 UNL     1     -17.232  22.066 -10.506  1.00  0.00     0.136 A 
ATOM     27  H1  UNL     1     -17.463  22.791  -8.593  1.00  0.00     0.166 HD
HETATM   28  N2  UNL     1     -18.399  22.314 -11.148  1.00  0.00    -0.337 N 
HETATM   29  C18 UNL     1     -16.412  21.437 -11.428  1.00  0.00     0.111 A 
HETATM   30  C17 UNL     1     -18.288  21.852 -12.406  1.00  0.00     0.182 A 
ATOM     31  H2  UNL     1     -19.218  22.770 -10.748  1.00  0.00     0.168 HD
HETATM   32  N3  UNL     1     -17.063  21.313 -12.576  1.00  0.00    -0.347 N 
ATOM     33  H3  UNL     1     -16.704  20.888 -13.430  1.00  0.00     0.167 HD
ENDBRANCH  21  22
ENDBRANCH   8  21
TORSDOF 3
ENDMDL
MODEL 5
REMARK VINA RESULT: -7.343835086      3.198      8.425
REMARK  3 active torsions:
REMARK  status: ('A' for Active; 'I' for Inactive)
REMARK    1  A    between atoms: C4_5  and  C5_6 
REMARK    2  A    between atoms: C12_13  and  O1_14 
REMARK    3  A    between atoms: O1_14  and  C13_15 
ROOT
HETATM    1  C5  UNL     1     -10.409  16.367  -8.854  1.00  0.00     0.038 C 
HETATM    2  C6  UNL     1     -11.183  16.620  -7.594  1.00  0.00     0.011 C 
HETATM    3  C7  UNL     1     -12.565  17.126  -7.785  1.00  0.00     0.001 C 
HETATM    4  C8  UNL     1     -12.476  18.350  -8.672  1.00  0.00     0.009 C 
HETATM    5  C9  UNL     1     -12.051  17.925 -10.035  1.00  0.00    -0.040 C 
HETATM    6  C10 UNL     1     -13.167  17.172 -10.757  1.00  0.00     0.012 C 
HETATM    7  C11 UNL     1     -14.279  18.100 -11.191  1.00  0.00     0.033 C 
HETATM    8  C12 UNL     1     -13.843  19.026 -12.330  1.00  0.00     0.129 C 
HETATM    9  C19 UNL     1     -12.305  18.981 -12.297  1.00  0.00     0.033 C 
HETATM   10  C20 UNL     1     -11.855  19.197 -10.876  1.00  0.00     0.012 C 
HETATM   11  C21 UNL     1     -10.779  17.179 -10.034  1.00  0.00     0.020 C 
ENDROOT
BRANCH   1  12
HETATM   12  C4  UNL     1     -10.457  14.912  -9.137  1.00  0.00     0.030 A 
HETATM   13  C3  UNL     1     -11.278  14.076  -8.407  1.00  0.00     0.031 A 
HETATM   14  C2  UNL     1     -11.350  12.725  -8.639  1.00  0.00     0.065 A 
HETATM   15  C1  UNL     1     -10.585  12.178  -9.629  1.00  0.00     0.202 A 
HETATM   16  F1  UNL     1     -10.602  10.851  -9.918  1.00  0.00    -0.185 F 
HETATM   17  N5  UNL     1      -9.782  13.005 -10.341  1.00  0.00    -0.276 N 
HETATM   18  N4  UNL     1      -9.724  14.316 -10.101  1.00  0.00    -0.302 N 
ATOM     19  H5  UNL     1      -9.203  12.613 -11.084  1.00  0.00     0.189 HD
ATOM     20  H4  UNL     1      -9.102  14.891 -10.669  1.00  0.00     0.186 HD
ENDBRANCH   1  12
BRANCH   8  21
HETATM   21  O1  UNL     1     -14.182  20.337 -12.113  1.00  0.00    -0.343 OA
BRANCH  21  22
HETATM   22  C13 UNL     1     -15.218  20.961 -11.532  1.00  0.00     0.101 A 
HETATM   23  C14 UNL     1     -16.381  21.091 -12.308  1.00  0.00     0.056 A 
HETATM   24  C15 UNL     1     -17.515  21.706 -11.841  1.00  0.00     0.092 A 
HETATM   25  N1  UNL     1     -17.535  22.204 -10.610  1.00  0.00    -0.350 N 
HETATM   26  C16 UNL     1     -16.440  22.098  -9.835  1.00  0.00     0.136 A 
ATOM     27  H1  UNL     1     -18.374  22.664 -10.255  1.00  0.00     0.166 HD
HETATM   28  N2  UNL     1     -16.191  22.508  -8.568  1.00  0.00    -0.337 N 
HETATM   29  C18 UNL     1     -15.279  21.484 -10.274  1.00  0.00     0.111 A 
HETATM   30  C17 UNL     1     -14.932  22.157  -8.255  1.00  0.00     0.182 A 
ATOM     31  H2  UNL     1     -16.845  22.998  -7.958  1.00  0.00     0.168 HD
HETATM   32  N3  UNL     1     -14.372  21.525  -9.308  1.00  0.00    -0.347 N 
ATOM     33  H3  UNL     1     -13.425  21.149  -9.352  1.00  0.00     0.167 HD
ENDBRANCH  21  22
ENDBRANCH   8  21
TORSDOF 3
ENDMDL
