MODEL 1
REMARK VINA RESULT: -7.570027473      0.000      0.000
REMARK  7 active torsions:
REMARK  status: ('A' for Active; 'I' for Inactive)
REMARK    1  A    between atoms: C2_2  and  O1_3 
REMARK    2  A    between atoms: O1_3  and  C3_4 
REMARK    3  A    between atoms: C3_4  and  C4_6 
REMARK    4  A    between atoms: C4_6  and  N1_7 
REMARK    5  A    between atoms: C8_15  and  C9_16 
REMARK    6  A    between atoms: C10_19  and  C11_20 
REMARK    7  A    between atoms: C12_23  and  C13_24 
ROOT
HETATM    1  N1  UNL     1      14.626  -2.389  -2.907  1.00  0.00    -0.159 NA
HETATM    2  N2  UNL     1      13.665  -2.757  -1.928  1.00  0.00    -0.049 NA
HETATM    3  N3  UNL     1      12.537  -3.250  -2.645  1.00  0.00    -0.103 NA
HETATM    4  C5  UNL     1      12.913  -3.082  -4.030  1.00  0.00     0.230 C 
HETATM    5  N4  UNL     1      12.238  -3.717  -5.029  1.00  0.00    -0.401 N 
ATOM      6  H4  UNL     1      11.756  -4.603  -4.874  1.00  0.00     0.154 HD
HETATM    7  C6  UNL     1      12.246  -3.070  -6.309  1.00  0.00     0.120 C 
HETATM    8  C7  UNL     1      13.381  -2.109  -6.434  1.00  0.00     0.066 C 
HETATM    9  C8  UNL     1      14.731  -2.813  -6.241  1.00  0.00     0.036 C 
HETATM   10  C10 UNL     1      15.155  -3.370  -5.135  1.00  0.00     0.070 C 
HETATM   11  C12 UNL     1      14.407  -3.421  -3.852  1.00  0.00     0.193 C 
ENDROOT
BRANCH   1  12
HETATM   12  C4  UNL     1      15.873  -2.103  -2.387  1.00  0.00     0.164 C 
BRANCH  12  13
HETATM   13  C3  UNL     1      15.701  -1.357  -1.086  1.00  0.00     0.294 C 
HETATM   14  O2  UNL     1      15.280  -1.968  -0.092  1.00  0.00    -0.259 OA
BRANCH  13  15
HETATM   15  O1  UNL     1      15.996  -0.017  -0.961  1.00  0.00    -0.318 OA
BRANCH  15  16
HETATM   16  C2  UNL     1      17.186   0.479  -0.385  1.00  0.00     0.174 C 
HETATM   17  C1  UNL     1      18.226   0.566  -1.496  1.00  0.00     0.034 C 
ENDBRANCH  15  16
ENDBRANCH  13  15
ENDBRANCH  12  13
ENDBRANCH   1  12
BRANCH  11  18
HETATM   18  C13 UNL     1      14.416  -4.789  -3.240  1.00  0.00     0.207 C 
HETATM   19  O7  UNL     1      13.773  -5.729  -3.772  1.00  0.00    -0.646 OA
HETATM   20  O8  UNL     1      15.115  -5.098  -2.081  1.00  0.00    -0.646 OA
ENDBRANCH  11  18
BRANCH  10  21
HETATM   21  C11 UNL     1      16.432  -4.006  -5.046  1.00  0.00     0.208 C 
HETATM   22  O5  UNL     1      17.453  -3.600  -4.538  1.00  0.00    -0.644 OA
HETATM   23  O6  UNL     1      16.607  -5.296  -5.613  1.00  0.00    -0.644 OA
ENDBRANCH  10  21
BRANCH   9  24
HETATM   24  C9  UNL     1      15.518  -2.838  -7.431  1.00  0.00     0.206 C 
HETATM   25  O3  UNL     1      14.855  -3.250  -8.504  1.00  0.00    -0.644 OA
HETATM   26  O4  UNL     1      16.804  -2.545  -7.764  1.00  0.00    -0.644 OA
ENDBRANCH   9  24
TORSDOF 7
ENDMDL
MODEL 2
REMARK VINA RESULT: -7.076430570      1.073      1.263
REMARK  7 active torsions:
REMARK  status: ('A' for Active; 'I' for Inactive)
REMARK    1  A    between atoms: C2_2  and  O1_3 
REMARK    2  A    between atoms: O1_3  and  C3_4 
REMARK    3  A    between atoms: C3_4  and  C4_6 
REMARK    4  A    between atoms: C4_6  and  N1_7 
REMARK    5  A    between atoms: C8_15  and  C9_16 
REMARK    6  A    between atoms: C10_19  and  C11_20 
REMARK    7  A    between atoms: C12_23  and  C13_24 
ROOT
HETATM    1  N1  UNL     1      14.937  -2.409  -2.852  1.00  0.00    -0.159 NA
HETATM    2  N2  UNL     1      13.923  -2.667  -1.890  1.00  0.00    -0.049 NA
HETATM    3  N3  UNL     1      12.749  -2.987  -2.630  1.00  0.00    -0.103 NA
HETATM    4  C5  UNL     1      13.161  -2.840  -4.007  1.00  0.00     0.230 C 
HETATM    5  N4  UNL     1      12.419  -3.356  -5.026  1.00  0.00    -0.401 N 
ATOM      6  H4  UNL     1      11.821  -4.172  -4.898  1.00  0.00     0.154 HD
HETATM    7  C6  UNL     1      12.529  -2.686  -6.291  1.00  0.00     0.120 C 
HETATM    8  C7  UNL     1      13.784  -1.883  -6.382  1.00  0.00     0.066 C 
HETATM    9  C8  UNL     1      15.025  -2.766  -6.194  1.00  0.00     0.036 C 
HETATM   10  C10 UNL     1      15.357  -3.400  -5.099  1.00  0.00     0.070 C 
HETATM   11  C12 UNL     1      14.594  -3.380  -3.824  1.00  0.00     0.193 C 
ENDROOT
BRANCH   1  12
HETATM   12  C4  UNL     1      16.205  -2.305  -2.314  1.00  0.00     0.164 C 
BRANCH  12  13
HETATM   13  C3  UNL     1      16.498  -0.850  -2.033  1.00  0.00     0.294 C 
HETATM   14  O2  UNL     1      16.017  -0.325  -1.018  1.00  0.00    -0.259 OA
BRANCH  13  15
HETATM   15  O1  UNL     1      17.284  -0.082  -2.865  1.00  0.00    -0.318 OA
BRANCH  15  16
HETATM   16  C2  UNL     1      18.398  -0.577  -3.577  1.00  0.00     0.174 C 
HETATM   17  C1  UNL     1      18.042  -0.543  -5.058  1.00  0.00     0.034 C 
ENDBRANCH  15  16
ENDBRANCH  13  15
ENDBRANCH  12  13
ENDBRANCH   1  12
BRANCH  11  18
HETATM   18  C13 UNL     1      14.412  -4.750  -3.245  1.00  0.00     0.207 C 
HETATM   19  O7  UNL     1      13.740  -5.617  -3.859  1.00  0.00    -0.646 OA
HETATM   20  O8  UNL     1      14.959  -5.141  -2.031  1.00  0.00    -0.646 OA
ENDBRANCH  11  18
BRANCH  10  21
HETATM   21  C11 UNL     1      16.537  -4.203  -5.014  1.00  0.00     0.208 C 
HETATM   22  O5  UNL     1      17.560  -3.994  -4.402  1.00  0.00    -0.644 OA
HETATM   23  O6  UNL     1      16.593  -5.433  -5.722  1.00  0.00    -0.644 OA
ENDBRANCH  10  21
BRANCH   9  24
HETATM   24  C9  UNL     1      15.816  -2.869  -7.377  1.00  0.00     0.206 C 
HETATM   25  O3  UNL     1      15.126  -3.222  -8.455  1.00  0.00    -0.644 OA
HETATM   26  O4  UNL     1      17.126  -2.698  -7.701  1.00  0.00    -0.644 OA
ENDBRANCH   9  24
TORSDOF 7
ENDMDL
MODEL 3
REMARK VINA RESULT: -7.068835803      1.562      2.066
REMARK  7 active torsions:
REMARK  status: ('A' for Active; 'I' for Inactive)
REMARK    1  A    between atoms: C2_2  and  O1_3 
REMARK    2  A    between atoms: O1_3  and  C3_4 
REMARK    3  A    between atoms: C3_4  and  C4_6 
REMARK    4  A    between atoms: C4_6  and  N1_7 
REMARK    5  A    between atoms: C8_15  and  C9_16 
REMARK    6  A    between atoms: C10_19  and  C11_20 
REMARK    7  A    between atoms: C12_23  and  C13_24 
ROOT
HETATM    1  N1  UNL     1      15.276  -2.963  -3.373  1.00  0.00    -0.159 NA
HETATM    2  N2  UNL     1      15.273  -4.191  -2.659  1.00  0.00    -0.049 NA
HETATM    3  N3  UNL     1      14.439  -5.077  -3.398  1.00  0.00    -0.103 NA
HETATM    4  C5  UNL     1      13.963  -4.264  -4.494  1.00  0.00     0.230 C 
HETATM    5  N4  UNL     1      13.390  -4.825  -5.595  1.00  0.00    -0.401 N 
ATOM      6  H4  UNL     1      13.623  -5.770  -5.902  1.00  0.00     0.154 HD
HETATM    7  C6  UNL     1      12.441  -4.011  -6.300  1.00  0.00     0.120 C 
HETATM    8  C7  UNL     1      12.629  -2.561  -5.999  1.00  0.00     0.066 C 
HETATM    9  C8  UNL     1      14.040  -2.092  -6.377  1.00  0.00     0.036 C 
HETATM   10  C10 UNL     1      15.155  -2.486  -5.815  1.00  0.00     0.070 C 
HETATM   11  C12 UNL     1      15.263  -3.460  -4.699  1.00  0.00     0.193 C 
ENDROOT
BRANCH   1  12
HETATM   12  C4  UNL     1      16.216  -2.056  -2.924  1.00  0.00     0.164 C 
BRANCH  12  13
HETATM   13  C3  UNL     1      15.891  -1.683  -1.497  1.00  0.00     0.294 C 
HETATM   14  O2  UNL     1      14.735  -1.846  -1.080  1.00  0.00    -0.259 OA
BRANCH  13  15
HETATM   15  O1  UNL     1      16.837  -1.168  -0.636  1.00  0.00    -0.318 OA
BRANCH  15  16
HETATM   16  C2  UNL     1      16.642  -0.013   0.152  1.00  0.00     0.174 C 
HETATM   17  C1  UNL     1      16.664   1.188  -0.786  1.00  0.00     0.034 C 
ENDBRANCH  15  16
ENDBRANCH  13  15
ENDBRANCH  12  13
ENDBRANCH   1  12
BRANCH  11  18
HETATM   18  C13 UNL     1      16.316  -4.498  -4.946  1.00  0.00     0.207 C 
HETATM   19  O7  UNL     1      16.168  -5.351  -5.857  1.00  0.00    -0.646 OA
HETATM   20  O8  UNL     1      17.488  -4.581  -4.208  1.00  0.00    -0.646 OA
ENDBRANCH  11  18
BRANCH  10  21
HETATM   21  C11 UNL     1      16.431  -1.994  -6.233  1.00  0.00     0.208 C 
HETATM   22  O5  UNL     1      17.101  -1.107  -5.754  1.00  0.00    -0.644 OA
HETATM   23  O6  UNL     1      17.064  -2.575  -7.363  1.00  0.00    -0.644 OA
ENDBRANCH  10  21
BRANCH   9  24
HETATM   24  C9  UNL     1      14.045  -1.166  -7.462  1.00  0.00     0.206 C 
HETATM   25  O3  UNL     1      13.756  -1.715  -8.636  1.00  0.00    -0.644 OA
HETATM   26  O4  UNL     1      14.277   0.165  -7.616  1.00  0.00    -0.644 OA
ENDBRANCH   9  24
TORSDOF 7
ENDMDL
MODEL 4
REMARK VINA RESULT: -7.050724810      2.195      5.847
REMARK  7 active torsions:
REMARK  status: ('A' for Active; 'I' for Inactive)
REMARK    1  A    between atoms: C2_2  and  O1_3 
REMARK    2  A    between atoms: O1_3  and  C3_4 
REMARK    3  A    between atoms: C3_4  and  C4_6 
REMARK    4  A    between atoms: C4_6  and  N1_7 
REMARK    5  A    between atoms: C8_15  and  C9_16 
REMARK    6  A    between atoms: C10_19  and  C11_20 
REMARK    7  A    between atoms: C12_23  and  C13_24 
ROOT
HETATM    1  N1  UNL     1      14.810  -2.596  -5.293  1.00  0.00    -0.159 NA
HETATM    2  N2  UNL     1      15.317  -3.184  -6.484  1.00  0.00    -0.049 NA
HETATM    3  N3  UNL     1      16.734  -3.204  -6.342  1.00  0.00    -0.103 NA
HETATM    4  C5  UNL     1      16.960  -2.563  -5.067  1.00  0.00     0.230 C 
HETATM    5  N4  UNL     1      18.157  -2.665  -4.425  1.00  0.00    -0.401 N 
ATOM      6  H4  UNL     1      18.773  -3.468  -4.557  1.00  0.00     0.154 HD
HETATM    7  C6  UNL     1      18.503  -1.578  -3.554  1.00  0.00     0.120 C 
HETATM    8  C7  UNL     1      17.298  -0.805  -3.133  1.00  0.00     0.066 C 
HETATM    9  C8  UNL     1      16.286  -1.701  -2.408  1.00  0.00     0.036 C 
HETATM   10  C10 UNL     1      15.621  -2.695  -2.940  1.00  0.00     0.070 C 
HETATM   11  C12 UNL     1      15.719  -3.141  -4.354  1.00  0.00     0.193 C 
ENDROOT
BRANCH   1  12
HETATM   12  C4  UNL     1      13.440  -2.703  -5.156  1.00  0.00     0.164 C 
BRANCH  12  13
HETATM   13  C3  UNL     1      12.782  -2.215  -6.425  1.00  0.00     0.294 C 
HETATM   14  O2  UNL     1      13.330  -1.314  -7.079  1.00  0.00    -0.259 OA
BRANCH  13  15
HETATM   15  O1  UNL     1      11.593  -2.736  -6.887  1.00  0.00    -0.318 OA
BRANCH  15  16
HETATM   16  C2  UNL     1      10.707  -3.502  -6.098  1.00  0.00     0.174 C 
HETATM   17  C1  UNL     1       9.292  -3.191  -6.571  1.00  0.00     0.034 C 
ENDBRANCH  15  16
ENDBRANCH  13  15
ENDBRANCH  12  13
ENDBRANCH   1  12
BRANCH  11  18
HETATM   18  C13 UNL     1      15.869  -4.627  -4.477  1.00  0.00     0.207 C 
HETATM   19  O7  UNL     1      16.968  -5.180  -4.218  1.00  0.00    -0.646 OA
HETATM   20  O8  UNL     1      14.835  -5.464  -4.870  1.00  0.00    -0.646 OA
ENDBRANCH  11  18
BRANCH  10  21
HETATM   21  C11 UNL     1      14.694  -3.480  -2.186  1.00  0.00     0.208 C 
HETATM   22  O5  UNL     1      14.874  -4.532  -1.614  1.00  0.00    -0.644 OA
HETATM   23  O6  UNL     1      13.355  -3.030  -2.046  1.00  0.00    -0.644 OA
ENDBRANCH  10  21
BRANCH   9  24
HETATM   24  C9  UNL     1      16.137  -1.367  -1.028  1.00  0.00     0.206 C 
HETATM   25  O3  UNL     1      17.160  -0.684  -0.529  1.00  0.00    -0.644 OA
HETATM   26  O4  UNL     1      15.200  -1.570  -0.064  1.00  0.00    -0.644 OA
ENDBRANCH   9  24
TORSDOF 7
ENDMDL
MODEL 5
REMARK VINA RESULT: -6.830767268      1.212      1.416
REMARK  7 active torsions:
REMARK  status: ('A' for Active; 'I' for Inactive)
REMARK    1  A    between atoms: C2_2  and  O1_3 
REMARK    2  A    between atoms: O1_3  and  C3_4 
REMARK    3  A    between atoms: C3_4  and  C4_6 
REMARK    4  A    between atoms: C4_6  and  N1_7 
REMARK    5  A    between atoms: C8_15  and  C9_16 
REMARK    6  A    between atoms: C10_19  and  C11_20 
REMARK    7  A    between atoms: C12_23  and  C13_24 
ROOT
HETATM    1  N1  UNL     1      14.426  -2.656  -3.188  1.00  0.00    -0.159 NA
HETATM    2  N2  UNL     1      13.087  -2.881  -2.768  1.00  0.00    -0.049 NA
HETATM    3  N3  UNL     1      12.280  -2.750  -3.934  1.00  0.00    -0.103 NA
HETATM    4  C5  UNL     1      13.226  -2.399  -4.968  1.00  0.00     0.230 C 
HETATM    5  N4  UNL     1      12.899  -2.491  -6.287  1.00  0.00    -0.401 N 
ATOM      6  H4  UNL     1      12.202  -3.155  -6.625  1.00  0.00     0.154 HD
HETATM    7  C6  UNL     1      13.593  -1.601  -7.175  1.00  0.00     0.120 C 
HETATM    8  C7  UNL     1      14.868  -1.110  -6.576  1.00  0.00     0.066 C 
HETATM    9  C8  UNL     1      15.806  -2.273  -6.230  1.00  0.00     0.036 C 
HETATM   10  C10 UNL     1      15.586  -3.194  -5.326  1.00  0.00     0.070 C 
HETATM   11  C12 UNL     1      14.384  -3.282  -4.458  1.00  0.00     0.193 C 
ENDROOT
BRANCH   1  12
HETATM   12  C4  UNL     1      15.372  -2.969  -2.232  1.00  0.00     0.164 C 
BRANCH  12  13
HETATM   13  C3  UNL     1      15.594  -1.762  -1.351  1.00  0.00     0.294 C 
HETATM   14  O2  UNL     1      15.065  -1.729  -0.230  1.00  0.00    -0.259 OA
BRANCH  13  15
HETATM   15  O1  UNL     1      16.366  -0.692  -1.749  1.00  0.00    -0.318 OA
BRANCH  15  16
HETATM   16  C2  UNL     1      17.755  -0.766  -1.989  1.00  0.00     0.174 C 
HETATM   17  C1  UNL     1      17.957  -0.764  -3.499  1.00  0.00     0.034 C 
ENDBRANCH  15  16
ENDBRANCH  13  15
ENDBRANCH  12  13
ENDBRANCH   1  12
BRANCH  11  18
HETATM   18  C13 UNL     1      13.813  -4.667  -4.410  1.00  0.00     0.207 C 
HETATM   19  O7  UNL     1      13.165  -5.123  -5.387  1.00  0.00    -0.646 OA
HETATM   20  O8  UNL     1      13.959  -5.511  -3.319  1.00  0.00    -0.646 OA
ENDBRANCH  11  18
BRANCH  10  21
HETATM   21  C11 UNL     1      16.520  -4.246  -5.069  1.00  0.00     0.208 C 
HETATM   22  O5  UNL     1      17.364  -4.323  -4.205  1.00  0.00    -0.644 OA
HETATM   23  O6  UNL     1      16.521  -5.394  -5.906  1.00  0.00    -0.644 OA
ENDBRANCH  10  21
BRANCH   9  24
HETATM   24  C9  UNL     1      16.987  -2.291  -7.031  1.00  0.00     0.206 C 
HETATM   25  O3  UNL     1      16.799  -2.776  -8.252  1.00  0.00    -0.644 OA
HETATM   26  O4  UNL     1      18.289  -1.935  -6.869  1.00  0.00    -0.644 OA
ENDBRANCH   9  24
TORSDOF 7
ENDMDL
