MODEL 1
REMARK VINA RESULT: -8.354822074      0.000      0.000
REMARK  6 active torsions:
REMARK  status: ('A' for Active; 'I' for Inactive)
REMARK    1  A    between atoms: C2_2  and  O1_3 
REMARK    2  A    between atoms: C6_15  and  O3_16 
REMARK    3  A    between atoms: O3_16  and  C7_17 
REMARK    4  A    between atoms: C9_22  and  C10_23 
REMARK    5  A    between atoms: C10_23  and  O4_24 
REMARK    6  A    between atoms: O4_24  and  S1_25 
ROOT
HETATM    1  C1  UNL     1       8.446  -3.609  -7.098  1.00  0.00     0.081 C 
HETATM    2  C2  UNL     1       9.752  -3.073  -6.555  1.00  0.00     0.191 C 
HETATM    3  O2  UNL     1       9.508  -2.511  -5.331  1.00  0.00    -0.317 OA
HETATM    4  C3  UNL     1       9.851  -3.409  -4.337  1.00  0.00     0.381 C 
HETATM    5  N1  UNL     1       9.985  -4.710  -5.012  1.00  0.00    -0.033 N 
ATOM      6  H11 UNL     1       9.128  -5.253  -5.124  1.00  0.00     0.281 HD
ATOM      7  H12 UNL     1      10.467  -5.442  -4.492  1.00  0.00     0.281 HD
HETATM    8  C4  UNL     1      10.626  -4.262  -6.236  1.00  0.00     0.275 C 
HETATM    9  C5  UNL     1      12.029  -3.828  -5.906  1.00  0.00     0.274 C 
HETATM   10  N2  UNL     1      12.087  -2.766  -4.934  1.00  0.00    -0.042 N 
ATOM     11  H21 UNL     1      11.839  -1.863  -5.337  1.00  0.00     0.280 HD
ATOM     12  H22 UNL     1      13.045  -2.548  -4.660  1.00  0.00     0.280 HD
HETATM   13  C6  UNL     1      11.258  -3.099  -3.795  1.00  0.00     0.380 C 
ENDROOT
BRANCH  13  14
HETATM   14  O3  UNL     1      11.737  -4.005  -2.949  1.00  0.00    -0.323 OA
BRANCH  14  15
HETATM   15  C7  UNL     1      12.913  -3.897  -2.335  1.00  0.00     0.291 C 
HETATM   16  C8  UNL     1      14.038  -4.769  -2.759  1.00  0.00     0.296 C 
HETATM   17  N3  UNL     1      15.101  -4.182  -1.913  1.00  0.00    -0.042 N 
HETATM   18  C9  UNL     1      14.846  -2.773  -2.227  1.00  0.00     0.348 C 
ATOM     19  H32 UNL     1      15.098  -4.441  -0.926  1.00  0.00     0.280 HD
ATOM     20  H31 UNL     1      16.050  -4.523  -2.065  1.00  0.00     0.280 HD
HETATM   21  O8  UNL     1      13.487  -2.625  -2.321  1.00  0.00    -0.325 OA
BRANCH  18  22
HETATM   22  C10 UNL     1      15.506  -1.939  -1.188  1.00  0.00     0.254 C 
BRANCH  22  23
HETATM   23  O4  UNL     1      16.297  -0.985  -1.835  1.00  0.00    -0.253 OA
BRANCH  23  24
HETATM   24  S1  UNL     1      16.984   0.095  -0.778  1.00  0.00     0.251 S 
HETATM   25  O5  UNL     1      18.397   0.434  -1.116  1.00  0.00    -0.572 OA
HETATM   26  O6  UNL     1      16.186   1.373  -0.842  1.00  0.00    -0.572 OA
HETATM   27  O7  UNL     1      16.905  -0.465   0.791  1.00  0.00    -0.572 OA
ENDBRANCH  23  24
ENDBRANCH  22  23
ENDBRANCH  18  22
ENDBRANCH  14  15
ENDBRANCH  13  14
BRANCH   2  28
HETATM   28  O1  UNL     1      10.399  -2.243  -7.454  1.00  0.00    -0.364 OA
ATOM     29  H1  UNL     1      11.152  -2.659  -7.857  1.00  0.00     0.213 HD
ENDBRANCH   2  28
TORSDOF 6
ENDMDL
MODEL 2
REMARK VINA RESULT: -8.165227443      1.184      2.014
REMARK  6 active torsions:
REMARK  status: ('A' for Active; 'I' for Inactive)
REMARK    1  A    between atoms: C2_2  and  O1_3 
REMARK    2  A    between atoms: C6_15  and  O3_16 
REMARK    3  A    between atoms: O3_16  and  C7_17 
REMARK    4  A    between atoms: C9_22  and  C10_23 
REMARK    5  A    between atoms: C10_23  and  O4_24 
REMARK    6  A    between atoms: O4_24  and  S1_25 
ROOT
HETATM    1  C1  UNL     1       9.105  -2.883  -6.862  1.00  0.00     0.081 C 
HETATM    2  C2  UNL     1       9.311  -3.857  -5.724  1.00  0.00     0.191 C 
HETATM    3  O2  UNL     1      10.603  -4.303  -5.770  1.00  0.00    -0.317 OA
HETATM    4  C3  UNL     1      11.367  -3.596  -4.859  1.00  0.00     0.381 C 
HETATM    5  N1  UNL     1      10.554  -2.425  -4.492  1.00  0.00    -0.033 N 
ATOM      6  H11 UNL     1      10.634  -1.610  -5.100  1.00  0.00     0.281 HD
ATOM      7  H12 UNL     1      10.843  -1.919  -3.655  1.00  0.00     0.281 HD
HETATM    8  C4  UNL     1       9.251  -3.065  -4.440  1.00  0.00     0.275 C 
HETATM    9  C5  UNL     1       9.215  -3.976  -3.243  1.00  0.00     0.274 C 
HETATM   10  N2  UNL     1      10.234  -4.996  -3.269  1.00  0.00    -0.042 N 
ATOM     11  H21 UNL     1      10.008  -5.746  -3.922  1.00  0.00     0.280 HD
ATOM     12  H22 UNL     1      10.247  -5.546  -2.410  1.00  0.00     0.280 HD
HETATM   13  C6  UNL     1      11.520  -4.396  -3.553  1.00  0.00     0.380 C 
ENDROOT
BRANCH  13  14
HETATM   14  O3  UNL     1      12.102  -3.729  -2.561  1.00  0.00    -0.323 OA
BRANCH  14  15
HETATM   15  C7  UNL     1      13.416  -3.714  -2.350  1.00  0.00     0.291 C 
HETATM   16  C8  UNL     1      14.274  -4.717  -3.029  1.00  0.00     0.296 C 
HETATM   17  N3  UNL     1      15.594  -4.205  -2.600  1.00  0.00    -0.042 N 
HETATM   18  C9  UNL     1      15.373  -2.793  -2.930  1.00  0.00     0.348 C 
ATOM     19  H32 UNL     1      15.880  -4.414  -1.644  1.00  0.00     0.280 HD
ATOM     20  H31 UNL     1      16.415  -4.650  -3.011  1.00  0.00     0.280 HD
HETATM   21  O8  UNL     1      14.070  -2.510  -2.613  1.00  0.00    -0.325 OA
BRANCH  18  22
HETATM   22  C10 UNL     1      16.392  -1.984  -2.214  1.00  0.00     0.254 C 
BRANCH  22  23
HETATM   23  O4  UNL     1      15.729  -1.158  -1.301  1.00  0.00    -0.253 OA
BRANCH  23  24
HETATM   24  S1  UNL     1      16.747  -0.068  -0.572  1.00  0.00     0.251 S 
HETATM   25  O5  UNL     1      16.177   1.310  -0.492  1.00  0.00    -0.572 OA
HETATM   26  O6  UNL     1      16.990  -0.537   0.840  1.00  0.00    -0.572 OA
HETATM   27  O7  UNL     1      18.225  -0.015  -1.343  1.00  0.00    -0.572 OA
ENDBRANCH  23  24
ENDBRANCH  22  23
ENDBRANCH  18  22
ENDBRANCH  14  15
ENDBRANCH  13  14
BRANCH   2  28
HETATM   28  O1  UNL     1       8.354  -4.857  -5.702  1.00  0.00    -0.364 OA
ATOM     29  H1  UNL     1       8.467  -5.484  -6.407  1.00  0.00     0.213 HD
ENDBRANCH   2  28
TORSDOF 6
ENDMDL
MODEL 3
REMARK VINA RESULT: -7.779244569      2.941      3.808
REMARK  6 active torsions:
REMARK  status: ('A' for Active; 'I' for Inactive)
REMARK    1  A    between atoms: C2_2  and  O1_3 
REMARK    2  A    between atoms: C6_15  and  O3_16 
REMARK    3  A    between atoms: O3_16  and  C7_17 
REMARK    4  A    between atoms: C9_22  and  C10_23 
REMARK    5  A    between atoms: C10_23  and  O4_24 
REMARK    6  A    between atoms: O4_24  and  S1_25 
ROOT
HETATM    1  C1  UNL     1       8.992  -2.998  -6.624  1.00  0.00     0.081 C 
HETATM    2  C2  UNL     1       9.300  -3.914  -5.461  1.00  0.00     0.191 C 
HETATM    3  O2  UNL     1      10.551  -4.437  -5.647  1.00  0.00    -0.317 OA
HETATM    4  C3  UNL     1      11.465  -3.723  -4.893  1.00  0.00     0.381 C 
HETATM    5  N1  UNL     1      10.769  -2.488  -4.500  1.00  0.00    -0.033 N 
ATOM      6  H11 UNL     1      10.806  -1.716  -5.166  1.00  0.00     0.281 HD
ATOM      7  H12 UNL     1      11.193  -1.951  -3.743  1.00  0.00     0.281 HD
HETATM    8  C4  UNL     1       9.455  -3.046  -4.235  1.00  0.00     0.275 C 
HETATM    9  C5  UNL     1       9.535  -3.882  -2.986  1.00  0.00     0.274 C 
HETATM   10  N2  UNL     1      10.488  -4.959  -3.079  1.00  0.00    -0.042 N 
ATOM     11  H21 UNL     1      10.139  -5.732  -3.646  1.00  0.00     0.280 HD
ATOM     12  H22 UNL     1      10.590  -5.458  -2.195  1.00  0.00     0.280 HD
HETATM   13  C6  UNL     1      11.753  -4.453  -3.568  1.00  0.00     0.380 C 
ENDROOT
BRANCH  13  14
HETATM   14  O3  UNL     1      12.496  -3.764  -2.708  1.00  0.00    -0.323 OA
BRANCH  14  15
HETATM   15  C7  UNL     1      13.759  -3.412  -2.938  1.00  0.00     0.291 C 
HETATM   16  C8  UNL     1      14.548  -2.781  -1.850  1.00  0.00     0.296 C 
HETATM   17  N3  UNL     1      15.859  -2.722  -2.534  1.00  0.00    -0.042 N 
HETATM   18  C9  UNL     1      15.886  -4.105  -3.023  1.00  0.00     0.348 C 
ATOM     19  H32 UNL     1      15.982  -1.986  -3.230  1.00  0.00     0.280 HD
ATOM     20  H31 UNL     1      16.655  -2.416  -1.975  1.00  0.00     0.280 HD
HETATM   21  O8  UNL     1      14.607  -4.420  -3.399  1.00  0.00    -0.325 OA
BRANCH  18  22
HETATM   22  C10 UNL     1      16.907  -4.196  -4.100  1.00  0.00     0.254 C 
BRANCH  22  23
HETATM   23  O4  UNL     1      16.245  -4.454  -5.305  1.00  0.00    -0.253 OA
BRANCH  23  24
HETATM   24  S1  UNL     1      16.118  -3.104  -6.263  1.00  0.00     0.251 S 
HETATM   25  O5  UNL     1      16.771  -3.263  -7.595  1.00  0.00    -0.572 OA
HETATM   26  O6  UNL     1      14.652  -2.849  -6.507  1.00  0.00    -0.572 OA
HETATM   27  O7  UNL     1      16.737  -1.760  -5.495  1.00  0.00    -0.572 OA
ENDBRANCH  23  24
ENDBRANCH  22  23
ENDBRANCH  18  22
ENDBRANCH  14  15
ENDBRANCH  13  14
BRANCH   2  28
HETATM   28  O1  UNL     1       8.307  -4.854  -5.247  1.00  0.00    -0.364 OA
ATOM     29  H1  UNL     1       7.635  -4.833  -5.919  1.00  0.00     0.213 HD
ENDBRANCH   2  28
TORSDOF 6
ENDMDL
MODEL 4
REMARK VINA RESULT: -7.774391371      3.685      6.802
REMARK  6 active torsions:
REMARK  status: ('A' for Active; 'I' for Inactive)
REMARK    1  A    between atoms: C2_2  and  O1_3 
REMARK    2  A    between atoms: C6_15  and  O3_16 
REMARK    3  A    between atoms: O3_16  and  C7_17 
REMARK    4  A    between atoms: C9_22  and  C10_23 
REMARK    5  A    between atoms: C10_23  and  O4_24 
REMARK    6  A    between atoms: O4_24  and  S1_25 
ROOT
HETATM    1  C1  UNL     1      17.766  -2.928  -4.104  1.00  0.00     0.081 C 
HETATM    2  C2  UNL     1      16.616  -3.844  -4.458  1.00  0.00     0.191 C 
HETATM    3  O2  UNL     1      16.396  -4.683  -3.399  1.00  0.00    -0.317 OA
HETATM    4  C3  UNL     1      15.342  -4.203  -2.643  1.00  0.00     0.381 C 
HETATM    5  N1  UNL     1      15.143  -2.813  -3.085  1.00  0.00    -0.033 N 
ATOM      6  H11 UNL     1      15.717  -2.106  -2.625  1.00  0.00     0.281 HD
ATOM      7  H12 UNL     1      14.262  -2.376  -2.819  1.00  0.00     0.281 HD
HETATM    8  C4  UNL     1      15.367  -2.997  -4.508  1.00  0.00     0.275 C 
HETATM    9  C5  UNL     1      14.210  -3.773  -5.076  1.00  0.00     0.274 C 
HETATM   10  N2  UNL     1      14.031  -5.065  -4.463  1.00  0.00    -0.042 N 
ATOM     11  H21 UNL     1      14.721  -5.742  -4.787  1.00  0.00     0.280 HD
ATOM     12  H22 UNL     1      13.191  -5.536  -4.800  1.00  0.00     0.280 HD
HETATM   13  C6  UNL     1      14.037  -4.928  -3.022  1.00  0.00     0.380 C 
ENDROOT
BRANCH  13  14
HETATM   14  O3  UNL     1      12.942  -4.423  -2.462  1.00  0.00    -0.323 OA
BRANCH  14  15
HETATM   15  C7  UNL     1      11.719  -4.566  -2.967  1.00  0.00     0.291 C 
HETATM   16  C8  UNL     1      10.820  -5.609  -2.412  1.00  0.00     0.296 C 
HETATM   17  N3  UNL     1       9.597  -5.274  -3.174  1.00  0.00    -0.042 N 
HETATM   18  C9  UNL     1       9.606  -3.828  -2.933  1.00  0.00     0.348 C 
ATOM     19  H32 UNL     1       9.564  -5.578  -4.148  1.00  0.00     0.280 HD
ATOM     20  H31 UNL     1       8.746  -5.778  -2.922  1.00  0.00     0.280 HD
HETATM   21  O8  UNL     1      10.915  -3.426  -2.970  1.00  0.00    -0.325 OA
BRANCH  18  22
HETATM   22  C10 UNL     1       8.714  -3.185  -3.933  1.00  0.00     0.254 C 
BRANCH  22  23
HETATM   23  O4  UNL     1       9.515  -2.504  -4.855  1.00  0.00    -0.253 OA
BRANCH  23  24
HETATM   24  S1  UNL     1       9.663  -3.319  -6.293  1.00  0.00     0.251 S 
HETATM   25  O5  UNL     1       9.419  -2.459  -7.488  1.00  0.00    -0.572 OA
HETATM   26  O6  UNL     1      11.078  -3.831  -6.388  1.00  0.00    -0.572 OA
HETATM   27  O7  UNL     1       8.649  -4.643  -6.343  1.00  0.00    -0.572 OA
ENDBRANCH  23  24
ENDBRANCH  22  23
ENDBRANCH  18  22
ENDBRANCH  14  15
ENDBRANCH  13  14
BRANCH   2  28
HETATM   28  O1  UNL     1      16.800  -4.482  -5.672  1.00  0.00    -0.364 OA
ATOM     29  H1  UNL     1      16.671  -5.422  -5.614  1.00  0.00     0.213 HD
ENDBRANCH   2  28
TORSDOF 6
ENDMDL
MODEL 5
REMARK VINA RESULT: -7.640198978      1.155      1.424
REMARK  6 active torsions:
REMARK  status: ('A' for Active; 'I' for Inactive)
REMARK    1  A    between atoms: C2_2  and  O1_3 
REMARK    2  A    between atoms: C6_15  and  O3_16 
REMARK    3  A    between atoms: O3_16  and  C7_17 
REMARK    4  A    between atoms: C9_22  and  C10_23 
REMARK    5  A    between atoms: C10_23  and  O4_24 
REMARK    6  A    between atoms: O4_24  and  S1_25 
ROOT
HETATM    1  C1  UNL     1       8.415  -3.744  -7.128  1.00  0.00     0.081 C 
HETATM    2  C2  UNL     1       9.671  -3.122  -6.558  1.00  0.00     0.191 C 
HETATM    3  O2  UNL     1       9.347  -2.507  -5.380  1.00  0.00    -0.317 OA
HETATM    4  C3  UNL     1       9.679  -3.334  -4.322  1.00  0.00     0.381 C 
HETATM    5  N1  UNL     1       9.899  -4.663  -4.917  1.00  0.00    -0.033 N 
ATOM      6  H11 UNL     1       9.071  -5.247  -5.036  1.00  0.00     0.281 HD
ATOM      7  H12 UNL     1      10.385  -5.344  -4.336  1.00  0.00     0.281 HD
HETATM    8  C4  UNL     1      10.578  -4.253  -6.134  1.00  0.00     0.275 C 
HETATM    9  C5  UNL     1      11.945  -3.742  -5.767  1.00  0.00     0.274 C 
HETATM   10  N2  UNL     1      11.912  -2.627  -4.854  1.00  0.00    -0.042 N 
ATOM     11  H21 UNL     1      11.647  -1.758  -5.318  1.00  0.00     0.280 HD
ATOM     12  H22 UNL     1      12.847  -2.352  -4.551  1.00  0.00     0.280 HD
HETATM   13  C6  UNL     1      11.046  -2.933  -3.737  1.00  0.00     0.380 C 
ENDROOT
BRANCH  13  14
HETATM   14  O3  UNL     1      11.522  -3.771  -2.821  1.00  0.00    -0.323 OA
BRANCH  14  15
HETATM   15  C7  UNL     1      12.783  -3.765  -2.396  1.00  0.00     0.291 C 
HETATM   16  C8  UNL     1      13.627  -4.969  -2.604  1.00  0.00     0.296 C 
HETATM   17  N3  UNL     1      14.912  -4.424  -2.113  1.00  0.00    -0.042 N 
HETATM   18  C9  UNL     1      14.888  -3.162  -2.860  1.00  0.00     0.348 C 
ATOM     19  H32 UNL     1      15.026  -4.356  -1.101  1.00  0.00     0.280 HD
ATOM     20  H31 UNL     1      15.736  -5.013  -2.231  1.00  0.00     0.280 HD
HETATM   21  O8  UNL     1      13.589  -2.729  -2.869  1.00  0.00    -0.325 OA
BRANCH  18  22
HETATM   22  C10 UNL     1      15.865  -2.233  -2.234  1.00  0.00     0.254 C 
BRANCH  22  23
HETATM   23  O4  UNL     1      17.043  -2.270  -2.987  1.00  0.00    -0.253 OA
BRANCH  23  24
HETATM   24  S1  UNL     1      17.848  -0.818  -2.979  1.00  0.00     0.251 S 
HETATM   25  O5  UNL     1      19.260  -0.929  -2.507  1.00  0.00    -0.572 OA
HETATM   26  O6  UNL     1      17.885  -0.304  -4.396  1.00  0.00    -0.572 OA
HETATM   27  O7  UNL     1      17.040   0.314  -2.058  1.00  0.00    -0.572 OA
ENDBRANCH  23  24
ENDBRANCH  22  23
ENDBRANCH  18  22
ENDBRANCH  14  15
ENDBRANCH  13  14
BRANCH   2  28
HETATM   28  O1  UNL     1      10.325  -2.314  -7.472  1.00  0.00    -0.364 OA
ATOM     29  H1  UNL     1      10.566  -1.471  -7.105  1.00  0.00     0.213 HD
ENDBRANCH   2  28
TORSDOF 6
ENDMDL
