MODEL 1
REMARK VINA RESULT: -8.569323186      0.000      0.000
REMARK  8 active torsions:
REMARK  status: ('A' for Active; 'I' for Inactive)
REMARK    1  A    between atoms: N1_1  and  C1_4 
REMARK    2  A    between atoms: N3_8  and  C3_10 
REMARK    3  A    between atoms: C3_10  and  C4_11 
REMARK    4  A    between atoms: C4_11  and  C5_13 
REMARK    5  A    between atoms: C6_18  and  C7_19 
REMARK    6  A    between atoms: C7_19  and  N6_20 
REMARK    7  A    between atoms: N6_20  and  C8_22 
REMARK    8  A    between atoms: C9_25  and  C10_26 
ROOT
HETATM    1  C1  UNL     1      12.631  -5.042  -2.435  1.00  0.00     0.159 A 
HETATM    2  N2  UNL     1      11.743  -4.309  -3.126  1.00  0.00    -0.171 N 
ATOM      3  H2  UNL     1      10.756  -4.431  -2.900  1.00  0.00     0.186 HD
HETATM    4  C2  UNL     1      12.051  -3.428  -4.091  1.00  0.00     0.681 A 
HETATM    5  N3  UNL     1      11.077  -2.778  -4.688  1.00  0.00    -0.218 N 
ATOM      6  H3  UNL     1      11.301  -2.107  -5.423  1.00  0.00     0.178 HD
HETATM    7  N5  UNL     1      13.271  -3.126  -4.529  1.00  0.00    -0.188 N 
ATOM      8  H5  UNL     1      13.319  -2.430  -5.273  1.00  0.00     0.184 HD
HETATM    9  C6  UNL     1      14.430  -3.618  -4.119  1.00  0.00     0.089 A 
HETATM   10  S1  UNL     1      14.255  -4.781  -2.868  1.00  0.00    -0.038 SA
ENDROOT
BRANCH   9  11
HETATM   11  C7  UNL     1      15.699  -3.165  -4.722  1.00  0.00     0.203 C 
BRANCH  11  12
HETATM   12  N6  UNL     1      16.787  -3.125  -3.799  1.00  0.00    -0.219 N 
ATOM     13  H6  UNL     1      17.384  -3.941  -3.665  1.00  0.00     0.178 HD
BRANCH  12  14
HETATM   14  C8  UNL     1      17.000  -2.045  -3.139  1.00  0.00     0.694 A 
HETATM   15  N7  UNL     1      16.477  -1.668  -1.946  1.00  0.00    -0.169 N 
HETATM   16  C9  UNL     1      16.968  -0.446  -1.603  1.00  0.00     0.201 A 
ATOM     17  H7  UNL     1      15.818  -2.216  -1.392  1.00  0.00     0.186 HD
HETATM   18  N9  UNL     1      17.789  -0.079  -2.589  1.00  0.00    -0.267 N 
HETATM   19  N10 UNL     1      17.804  -1.029  -3.493  1.00  0.00    -0.131 N 
ATOM     20  H9  UNL     1      18.317   0.792  -2.632  1.00  0.00     0.189 HD
ATOM     21  H10 UNL     1      18.353  -1.000  -4.352  1.00  0.00     0.205 HD
BRANCH  16  22
HETATM   22  C10 UNL     1      16.642   0.292  -0.394  1.00  0.00     0.300 C 
HETATM   23  N8  UNL     1      16.371  -0.392   0.817  1.00  0.00    -0.054 NA
HETATM   24  O3  UNL     1      16.599   1.549  -0.411  1.00  0.00    -0.268 OA
ENDBRANCH  16  22
ENDBRANCH  12  14
ENDBRANCH  11  12
ENDBRANCH   9  11
BRANCH   1  25
HETATM   25  N1  UNL     1      12.205  -5.854  -1.533  1.00  0.00    -0.379 N 
ATOM     26  H12 UNL     1      11.246  -5.931  -1.196  1.00  0.00     0.158 HD
ATOM     27  H11 UNL     1      12.864  -6.496  -1.094  1.00  0.00     0.158 HD
ENDBRANCH   1  25
BRANCH   5  28
HETATM   28  C3  UNL     1       9.696  -2.994  -4.324  1.00  0.00     0.226 C 
BRANCH  28  29
HETATM   29  C4  UNL     1       9.114  -4.075  -5.163  1.00  0.00     0.231 C 
HETATM   30  O1  UNL     1       8.845  -5.194  -4.681  1.00  0.00    -0.286 OA
BRANCH  29  31
HETATM   31  C5  UNL     1       8.850  -3.832  -6.569  1.00  0.00     0.302 C 
HETATM   32  N4  UNL     1       9.368  -2.664  -7.188  1.00  0.00    -0.054 NA
HETATM   33  O2  UNL     1       8.165  -4.651  -7.239  1.00  0.00    -0.268 OA
ENDBRANCH  29  31
ENDBRANCH  28  29
ENDBRANCH   5  28
TORSDOF 8
ENDMDL
MODEL 2
REMARK VINA RESULT: -8.530727965      1.887      2.036
REMARK  8 active torsions:
REMARK  status: ('A' for Active; 'I' for Inactive)
REMARK    1  A    between atoms: N1_1  and  C1_4 
REMARK    2  A    between atoms: N3_8  and  C3_10 
REMARK    3  A    between atoms: C3_10  and  C4_11 
REMARK    4  A    between atoms: C4_11  and  C5_13 
REMARK    5  A    between atoms: C6_18  and  C7_19 
REMARK    6  A    between atoms: C7_19  and  N6_20 
REMARK    7  A    between atoms: N6_20  and  C8_22 
REMARK    8  A    between atoms: C9_25  and  C10_26 
ROOT
HETATM    1  C1  UNL     1      10.854  -4.835  -2.651  1.00  0.00     0.159 A 
HETATM    2  N2  UNL     1      10.495  -4.309  -3.834  1.00  0.00    -0.171 N 
ATOM      3  H2  UNL     1       9.498  -4.175  -4.006  1.00  0.00     0.186 HD
HETATM    4  C2  UNL     1      11.344  -3.944  -4.808  1.00  0.00     0.681 A 
HETATM    5  N3  UNL     1      10.853  -3.442  -5.919  1.00  0.00    -0.218 N 
ATOM      6  H3  UNL     1      11.491  -3.163  -6.665  1.00  0.00     0.178 HD
HETATM    7  N5  UNL     1      12.672  -4.035  -4.778  1.00  0.00    -0.188 N 
ATOM      8  H5  UNL     1      13.160  -3.709  -5.611  1.00  0.00     0.184 HD
HETATM    9  C6  UNL     1      13.435  -4.497  -3.800  1.00  0.00     0.089 A 
HETATM   10  S1  UNL     1      12.531  -5.024  -2.439  1.00  0.00    -0.038 SA
ENDROOT
BRANCH   9  11
HETATM   11  C7  UNL     1      14.905  -4.525  -3.938  1.00  0.00     0.203 C 
BRANCH  11  12
HETATM   12  N6  UNL     1      15.470  -3.260  -4.281  1.00  0.00    -0.219 N 
ATOM     13  H6  UNL     1      15.498  -2.951  -5.253  1.00  0.00     0.178 HD
BRANCH  12  14
HETATM   14  C8  UNL     1      15.943  -2.519  -3.346  1.00  0.00     0.694 A 
HETATM   15  N7  UNL     1      15.438  -2.300  -2.107  1.00  0.00    -0.169 N 
HETATM   16  C9  UNL     1      16.254  -1.446  -1.431  1.00  0.00     0.201 A 
ATOM     17  H7  UNL     1      14.580  -2.712  -1.739  1.00  0.00     0.186 HD
HETATM   18  N9  UNL     1      17.255  -1.146  -2.260  1.00  0.00    -0.267 N 
HETATM   19  N10 UNL     1      17.066  -1.784  -3.390  1.00  0.00    -0.131 N 
ATOM     20  H9  UNL     1      18.037  -0.525  -2.050  1.00  0.00     0.189 HD
ATOM     21  H10 UNL     1      17.689  -1.729  -4.196  1.00  0.00     0.205 HD
BRANCH  16  22
HETATM   22  C10 UNL     1      16.049  -0.971  -0.073  1.00  0.00     0.300 C 
HETATM   23  N8  UNL     1      16.764   0.149   0.416  1.00  0.00    -0.054 NA
HETATM   24  O3  UNL     1      15.230  -1.554   0.684  1.00  0.00    -0.268 OA
ENDBRANCH  16  22
ENDBRANCH  12  14
ENDBRANCH  11  12
ENDBRANCH   9  11
BRANCH   1  25
HETATM   25  N1  UNL     1       9.940  -5.143  -1.801  1.00  0.00    -0.379 N 
ATOM     26  H12 UNL     1       9.243  -4.511  -1.408  1.00  0.00     0.158 HD
ATOM     27  H11 UNL     1       9.876  -6.105  -1.469  1.00  0.00     0.158 HD
ENDBRANCH   1  25
BRANCH   5  28
HETATM   28  C3  UNL     1       9.430  -3.278  -6.105  1.00  0.00     0.226 C 
BRANCH  28  29
HETATM   29  C4  UNL     1       9.140  -2.924  -7.519  1.00  0.00     0.231 C 
HETATM   30  O1  UNL     1       9.808  -2.058  -8.120  1.00  0.00    -0.286 OA
BRANCH  29  31
HETATM   31  C5  UNL     1       8.061  -3.593  -8.223  1.00  0.00     0.302 C 
HETATM   32  N4  UNL     1       7.587  -4.844  -7.750  1.00  0.00    -0.054 NA
HETATM   33  O2  UNL     1       7.546  -3.067  -9.247  1.00  0.00    -0.268 OA
ENDBRANCH  29  31
ENDBRANCH  28  29
ENDBRANCH   5  28
TORSDOF 8
ENDMDL
MODEL 3
REMARK VINA RESULT: -8.498397915      1.019      1.180
REMARK  8 active torsions:
REMARK  status: ('A' for Active; 'I' for Inactive)
REMARK    1  A    between atoms: N1_1  and  C1_4 
REMARK    2  A    between atoms: N3_8  and  C3_10 
REMARK    3  A    between atoms: C3_10  and  C4_11 
REMARK    4  A    between atoms: C4_11  and  C5_13 
REMARK    5  A    between atoms: C6_18  and  C7_19 
REMARK    6  A    between atoms: C7_19  and  N6_20 
REMARK    7  A    between atoms: N6_20  and  C8_22 
REMARK    8  A    between atoms: C9_25  and  C10_26 
ROOT
HETATM    1  C1  UNL     1      11.982  -4.866  -2.771  1.00  0.00     0.159 A 
HETATM    2  N2  UNL     1      11.220  -4.299  -3.722  1.00  0.00    -0.171 N 
ATOM      3  H2  UNL     1      10.211  -4.426  -3.652  1.00  0.00     0.186 HD
HETATM    4  C2  UNL     1      11.683  -3.579  -4.756  1.00  0.00     0.681 A 
HETATM    5  N3  UNL     1      10.821  -3.082  -5.615  1.00  0.00    -0.218 N 
ATOM      6  H3  UNL     1      11.163  -2.534  -6.405  1.00  0.00     0.178 HD
HETATM    7  N5  UNL     1      12.957  -3.300  -5.022  1.00  0.00    -0.188 N 
ATOM      8  H5  UNL     1      13.126  -2.736  -5.854  1.00  0.00     0.184 HD
HETATM    9  C6  UNL     1      14.031  -3.663  -4.338  1.00  0.00     0.089 A 
HETATM   10  S1  UNL     1      13.653  -4.608  -2.955  1.00  0.00    -0.038 SA
ENDROOT
BRANCH   9  11
HETATM   11  C7  UNL     1      15.381  -3.262  -4.781  1.00  0.00     0.203 C 
BRANCH  11  12
HETATM   12  N6  UNL     1      16.360  -3.315  -3.745  1.00  0.00    -0.219 N 
ATOM     13  H6  UNL     1      16.825  -4.194  -3.515  1.00  0.00     0.178 HD
BRANCH  12  14
HETATM   14  C8  UNL     1      16.645  -2.239  -3.106  1.00  0.00     0.694 A 
HETATM   15  N7  UNL     1      16.223  -1.851  -1.877  1.00  0.00    -0.169 N 
HETATM   16  C9  UNL     1      16.764  -0.639  -1.575  1.00  0.00     0.201 A 
ATOM     17  H7  UNL     1      15.597  -2.385  -1.273  1.00  0.00     0.186 HD
HETATM   18  N9  UNL     1      17.515  -0.291  -2.621  1.00  0.00    -0.267 N 
HETATM   19  N10 UNL     1      17.441  -1.241  -3.522  1.00  0.00    -0.131 N 
ATOM     20  H9  UNL     1      18.056   0.570  -2.706  1.00  0.00     0.189 HD
ATOM     21  H10 UNL     1      17.924  -1.224  -4.420  1.00  0.00     0.205 HD
BRANCH  16  22
HETATM   22  C10 UNL     1      16.547   0.106  -0.346  1.00  0.00     0.300 C 
HETATM   23  N8  UNL     1      16.318  -0.572   0.877  1.00  0.00    -0.054 NA
HETATM   24  O3  UNL     1      16.561   1.363  -0.357  1.00  0.00    -0.268 OA
ENDBRANCH  16  22
ENDBRANCH  12  14
ENDBRANCH  11  12
ENDBRANCH   9  11
BRANCH   1  25
HETATM   25  N1  UNL     1      11.414  -5.533  -1.831  1.00  0.00    -0.379 N 
ATOM     26  H12 UNL     1      11.366  -5.269  -0.847  1.00  0.00     0.158 HD
ATOM     27  H11 UNL     1      10.955  -6.416  -2.056  1.00  0.00     0.158 HD
ENDBRANCH   1  25
BRANCH   5  28
HETATM   28  C3  UNL     1       9.401  -3.297  -5.465  1.00  0.00     0.226 C 
BRANCH  28  29
HETATM   29  C4  UNL     1       8.814  -3.739  -6.757  1.00  0.00     0.231 C 
HETATM   30  O1  UNL     1       8.230  -4.837  -6.861  1.00  0.00    -0.286 OA
BRANCH  29  31
HETATM   31  C5  UNL     1       8.919  -2.884  -7.925  1.00  0.00     0.302 C 
HETATM   32  N4  UNL     1       7.935  -2.968  -8.945  1.00  0.00    -0.054 NA
HETATM   33  O2  UNL     1       9.876  -2.071  -8.036  1.00  0.00    -0.268 OA
ENDBRANCH  29  31
ENDBRANCH  28  29
ENDBRANCH   5  28
TORSDOF 8
ENDMDL
MODEL 4
REMARK VINA RESULT: -8.455439323      2.097      3.211
REMARK  8 active torsions:
REMARK  status: ('A' for Active; 'I' for Inactive)
REMARK    1  A    between atoms: N1_1  and  C1_4 
REMARK    2  A    between atoms: N3_8  and  C3_10 
REMARK    3  A    between atoms: C3_10  and  C4_11 
REMARK    4  A    between atoms: C4_11  and  C5_13 
REMARK    5  A    between atoms: C6_18  and  C7_19 
REMARK    6  A    between atoms: C7_19  and  N6_20 
REMARK    7  A    between atoms: N6_20  and  C8_22 
REMARK    8  A    between atoms: C9_25  and  C10_26 
ROOT
HETATM    1  C1  UNL     1      13.254  -2.275  -7.366  1.00  0.00     0.159 A 
HETATM    2  N2  UNL     1      12.292  -2.940  -6.704  1.00  0.00    -0.171 N 
ATOM      3  H2  UNL     1      11.334  -2.833  -7.035  1.00  0.00     0.186 HD
HETATM    4  C2  UNL     1      12.494  -3.732  -5.639  1.00  0.00     0.681 A 
HETATM    5  N3  UNL     1      11.457  -4.322  -5.086  1.00  0.00    -0.218 N 
ATOM      6  H3  UNL     1      11.600  -4.926  -4.276  1.00  0.00     0.178 HD
HETATM    7  N5  UNL     1      13.660  -4.001  -5.058  1.00  0.00    -0.188 N 
ATOM      8  H5  UNL     1      13.626  -4.628  -4.255  1.00  0.00     0.184 HD
HETATM    9  C6  UNL     1      14.860  -3.553  -5.395  1.00  0.00     0.089 A 
HETATM   10  S1  UNL     1      14.824  -2.505  -6.754  1.00  0.00    -0.038 SA
ENDROOT
BRANCH   9  11
HETATM   11  C7  UNL     1      16.059  -3.956  -4.632  1.00  0.00     0.203 C 
BRANCH  11  12
HETATM   12  N6  UNL     1      16.758  -2.858  -4.047  1.00  0.00    -0.219 N 
ATOM     13  H6  UNL     1      17.565  -2.448  -4.516  1.00  0.00     0.178 HD
BRANCH  12  14
HETATM   14  C8  UNL     1      16.352  -2.396  -2.920  1.00  0.00     0.694 A 
HETATM   15  N7  UNL     1      16.838  -1.343  -2.217  1.00  0.00    -0.169 N 
HETATM   16  C9  UNL     1      16.117  -1.193  -1.072  1.00  0.00     0.201 A 
ATOM     17  H7  UNL     1      17.622  -0.755  -2.502  1.00  0.00     0.186 HD
HETATM   18  N9  UNL     1      15.193  -2.155  -1.080  1.00  0.00    -0.267 N 
HETATM   19  N10 UNL     1      15.337  -2.862  -2.176  1.00  0.00    -0.131 N 
ATOM     20  H9  UNL     1      14.492  -2.314  -0.357  1.00  0.00     0.189 HD
ATOM     21  H10 UNL     1      14.755  -3.661  -2.428  1.00  0.00     0.205 HD
BRANCH  16  22
HETATM   22  C10 UNL     1      16.335  -0.174  -0.059  1.00  0.00     0.300 C 
HETATM   23  N8  UNL     1      16.604   1.166  -0.429  1.00  0.00    -0.054 NA
HETATM   24  O3  UNL     1      16.286  -0.476   1.162  1.00  0.00    -0.268 OA
ENDBRANCH  16  22
ENDBRANCH  12  14
ENDBRANCH  11  12
ENDBRANCH   9  11
BRANCH   1  25
HETATM   25  N1  UNL     1      12.929  -1.546  -8.374  1.00  0.00    -0.379 N 
ATOM     26  H12 UNL     1      12.045  -1.576  -8.881  1.00  0.00     0.158 HD
ATOM     27  H11 UNL     1      13.596  -0.859  -8.724  1.00  0.00     0.158 HD
ENDBRANCH   1  25
BRANCH   5  28
HETATM   28  C3  UNL     1      10.121  -4.132  -5.601  1.00  0.00     0.226 C 
BRANCH  28  29
HETATM   29  C4  UNL     1       9.255  -3.528  -4.555  1.00  0.00     0.231 C 
HETATM   30  O1  UNL     1       8.882  -2.339  -4.629  1.00  0.00    -0.286 OA
BRANCH  29  31
HETATM   31  C5  UNL     1       8.829  -4.330  -3.422  1.00  0.00     0.302 C 
HETATM   32  N4  UNL     1       9.774  -5.145  -2.746  1.00  0.00    -0.054 NA
HETATM   33  O2  UNL     1       7.628  -4.302  -3.038  1.00  0.00    -0.268 OA
ENDBRANCH  29  31
ENDBRANCH  28  29
ENDBRANCH   5  28
TORSDOF 8
ENDMDL
MODEL 5
REMARK VINA RESULT: -8.339438856      1.861      2.519
REMARK  8 active torsions:
REMARK  status: ('A' for Active; 'I' for Inactive)
REMARK    1  A    between atoms: N1_1  and  C1_4 
REMARK    2  A    between atoms: N3_8  and  C3_10 
REMARK    3  A    between atoms: C3_10  and  C4_11 
REMARK    4  A    between atoms: C4_11  and  C5_13 
REMARK    5  A    between atoms: C6_18  and  C7_19 
REMARK    6  A    between atoms: C7_19  and  N6_20 
REMARK    7  A    between atoms: N6_20  and  C8_22 
REMARK    8  A    between atoms: C9_25  and  C10_26 
ROOT
HETATM    1  C1  UNL     1      13.206  -2.738  -6.175  1.00  0.00     0.159 A 
HETATM    2  N2  UNL     1      12.472  -2.927  -5.066  1.00  0.00    -0.171 N 
ATOM      3  H2  UNL     1      11.465  -2.785  -5.140  1.00  0.00     0.186 HD
HETATM    4  C2  UNL     1      12.959  -3.288  -3.868  1.00  0.00     0.681 A 
HETATM    5  N3  UNL     1      12.123  -3.437  -2.865  1.00  0.00    -0.218 N 
ATOM      6  H3  UNL     1      12.484  -3.710  -1.950  1.00  0.00     0.178 HD
HETATM    7  N5  UNL     1      14.235  -3.521  -3.567  1.00  0.00    -0.188 N 
ATOM      8  H5  UNL     1      14.425  -3.788  -2.602  1.00  0.00     0.184 HD
HETATM    9  C6  UNL     1      15.287  -3.450  -4.368  1.00  0.00     0.089 A 
HETATM   10  S1  UNL     1      14.875  -2.996  -5.972  1.00  0.00    -0.038 SA
ENDROOT
BRANCH   9  11
HETATM   11  C7  UNL     1      16.642  -3.744  -3.862  1.00  0.00     0.203 C 
BRANCH  11  12
HETATM   12  N6  UNL     1      17.591  -2.716  -4.146  1.00  0.00    -0.219 N 
ATOM     13  H6  UNL     1      18.122  -2.726  -5.017  1.00  0.00     0.178 HD
BRANCH  12  14
HETATM   14  C8  UNL     1      17.766  -1.780  -3.285  1.00  0.00     0.694 A 
HETATM   15  N7  UNL     1      16.975  -1.439  -2.238  1.00  0.00    -0.169 N 
HETATM   16  C9  UNL     1      17.528  -0.386  -1.577  1.00  0.00     0.201 A 
ATOM     17  H7  UNL     1      16.101  -1.901  -1.985  1.00  0.00     0.186 HD
HETATM   18  N9  UNL     1      18.656  -0.086  -2.223  1.00  0.00    -0.267 N 
HETATM   19  N10 UNL     1      18.791  -0.914  -3.232  1.00  0.00    -0.131 N 
ATOM     20  H9  UNL     1      19.305   0.661  -1.975  1.00  0.00     0.189 HD
ATOM     21  H10 UNL     1      19.571  -0.902  -3.888  1.00  0.00     0.205 HD
BRANCH  16  22
HETATM   22  C10 UNL     1      16.975   0.264  -0.400  1.00  0.00     0.300 C 
HETATM   23  N8  UNL     1      16.734  -0.473   0.785  1.00  0.00    -0.054 NA
HETATM   24  O3  UNL     1      16.706   1.492  -0.424  1.00  0.00    -0.268 OA
ENDBRANCH  16  22
ENDBRANCH  12  14
ENDBRANCH  11  12
ENDBRANCH   9  11
BRANCH   1  25
HETATM   25  N1  UNL     1      12.617  -2.392  -7.263  1.00  0.00    -0.379 N 
ATOM     26  H12 UNL     1      11.836  -2.874  -7.707  1.00  0.00     0.158 HD
ATOM     27  H11 UNL     1      12.935  -1.557  -7.756  1.00  0.00     0.158 HD
ENDBRANCH   1  25
BRANCH   5  28
HETATM   28  C3  UNL     1      10.705  -3.221  -3.031  1.00  0.00     0.226 C 
BRANCH  28  29
HETATM   29  C4  UNL     1       9.982  -4.518  -2.970  1.00  0.00     0.231 C 
HETATM   30  O1  UNL     1      10.436  -5.482  -2.319  1.00  0.00    -0.286 OA
BRANCH  29  31
HETATM   31  C5  UNL     1       8.725  -4.677  -3.679  1.00  0.00     0.302 C 
HETATM   32  N4  UNL     1       8.732  -4.842  -5.088  1.00  0.00    -0.054 NA
HETATM   33  O2  UNL     1       7.634  -4.669  -3.048  1.00  0.00    -0.268 OA
ENDBRANCH  29  31
ENDBRANCH  28  29
ENDBRANCH   5  28
TORSDOF 8
ENDMDL
