MODEL 1
REMARK VINA RESULT: -9.259484161      0.000      0.000
REMARK  10 active torsions:
REMARK  status: ('A' for Active; 'I' for Inactive)
REMARK    1  A    between atoms: C5_6  and  O2_7 
REMARK    2  A    between atoms: O2_7  and  C6_8 
REMARK    3  A    between atoms: C6_8  and  O3_9 
REMARK    4  A    between atoms: O3_9  and  C7_10 
REMARK    5  A    between atoms: C8_12  and  O5_13 
REMARK    6  A    between atoms: C9_15  and  O6_16 
REMARK    7  A    between atoms: C10_18  and  O7_19 
REMARK    8  A    between atoms: C11_21  and  O8_22 
REMARK    9  A    between atoms: C12_24  and  O9_25 
REMARK   10  A    between atoms: C13_28  and  O11_29 
ROOT
HETATM    1  C6  UNL     1      16.730  -2.338  -2.255  1.00  0.00     0.344 C 
ENDROOT
BRANCH   1   2
HETATM    2  O2  UNL     1      15.611  -2.476  -3.066  1.00  0.00    -0.331 OA
BRANCH   2   3
HETATM    3  C5  UNL     1      14.437  -2.623  -2.354  1.00  0.00     0.330 C 
HETATM    4  O1  UNL     1      13.554  -1.640  -2.800  1.00  0.00    -0.326 OA
HETATM    5  C4  UNL     1      12.900  -2.147  -3.904  1.00  0.00     0.267 C 
HETATM    6  C3  UNL     1      11.451  -2.363  -3.513  1.00  0.00     0.068 C 
HETATM    7  O10 UNL     1      13.458  -3.403  -4.175  1.00  0.00    -0.318 OA
HETATM    8  C2  UNL     1      11.290  -3.763  -2.997  1.00  0.00     0.020 C 
HETATM    9  C1  UNL     1       9.953  -3.988  -2.339  1.00  0.00     0.013 C 
HETATM   10  C13 UNL     1      12.445  -4.080  -2.091  1.00  0.00     0.189 C 
HETATM   11  C12 UNL     1      13.723  -3.855  -2.877  1.00  0.00     0.242 C 
BRANCH  10  12
HETATM   12  O11 UNL     1      12.392  -5.384  -1.603  1.00  0.00    -0.390 OA
ATOM     13  H11 UNL     1      13.232  -5.679  -1.270  1.00  0.00     0.210 HD
ENDBRANCH  10  12
BRANCH  11  14
HETATM   14  O9  UNL     1      14.539  -4.974  -2.873  1.00  0.00    -0.359 OA
ATOM     15  H9  UNL     1      14.587  -5.387  -3.728  1.00  0.00     0.213 HD
ENDBRANCH  11  14
ENDBRANCH   2   3
ENDBRANCH   1   2
BRANCH   1  16
HETATM   16  O3  UNL     1      16.382  -1.444  -1.241  1.00  0.00    -0.334 OA
BRANCH  16  17
HETATM   17  C7  UNL     1      17.288  -0.414  -1.141  1.00  0.00     0.296 C 
HETATM   18  O4  UNL     1      17.594  -0.266   0.227  1.00  0.00    -0.326 OA
HETATM   19  C8  UNL     1      18.108   1.010   0.463  1.00  0.00     0.291 C 
HETATM   20  C9  UNL     1      18.890   1.444  -0.736  1.00  0.00     0.204 C 
HETATM   21  C10 UNL     1      19.616   0.267  -1.335  1.00  0.00     0.185 C 
HETATM   22  C11 UNL     1      18.545  -0.647  -1.939  1.00  0.00     0.204 C 
BRANCH  19  23
HETATM   23  O5  UNL     1      17.023   1.843   0.704  1.00  0.00    -0.368 OA
ATOM     24  H5  UNL     1      17.348   2.582   1.203  1.00  0.00     0.212 HD
ENDBRANCH  19  23
BRANCH  20  25
HETATM   25  O6  UNL     1      19.831   2.389  -0.332  1.00  0.00    -0.388 OA
ATOM     26  H6  UNL     1      20.689   1.980  -0.335  1.00  0.00     0.210 HD
ENDBRANCH  20  25
BRANCH  21  27
HETATM   27  O7  UNL     1      20.506   0.633  -2.328  1.00  0.00    -0.390 OA
ATOM     28  H7  UNL     1      20.296   0.251  -3.172  1.00  0.00     0.210 HD
ENDBRANCH  21  27
BRANCH  22  29
HETATM   29  O8  UNL     1      18.377  -0.273  -3.271  1.00  0.00    -0.388 OA
ATOM     30  H8  UNL     1      18.024   0.606  -3.340  1.00  0.00     0.210 HD
ENDBRANCH  22  29
ENDBRANCH  16  17
ENDBRANCH   1  16
TORSDOF 10
ENDMDL
MODEL 2
REMARK VINA RESULT: -9.153225161      0.674      1.999
REMARK  10 active torsions:
REMARK  status: ('A' for Active; 'I' for Inactive)
REMARK    1  A    between atoms: C5_6  and  O2_7 
REMARK    2  A    between atoms: O2_7  and  C6_8 
REMARK    3  A    between atoms: C6_8  and  O3_9 
REMARK    4  A    between atoms: O3_9  and  C7_10 
REMARK    5  A    between atoms: C8_12  and  O5_13 
REMARK    6  A    between atoms: C9_15  and  O6_16 
REMARK    7  A    between atoms: C10_18  and  O7_19 
REMARK    8  A    between atoms: C11_21  and  O8_22 
REMARK    9  A    between atoms: C12_24  and  O9_25 
REMARK   10  A    between atoms: C13_28  and  O11_29 
ROOT
HETATM    1  C6  UNL     1      16.749  -1.606  -3.265  1.00  0.00     0.344 C 
ENDROOT
BRANCH   1   2
HETATM    2  O2  UNL     1      15.817  -2.592  -3.562  1.00  0.00    -0.331 OA
BRANCH   2   3
HETATM    3  C5  UNL     1      14.778  -2.652  -2.654  1.00  0.00     0.330 C 
HETATM    4  O1  UNL     1      13.868  -1.653  -2.996  1.00  0.00    -0.326 OA
HETATM    5  C4  UNL     1      13.015  -2.182  -3.943  1.00  0.00     0.267 C 
HETATM    6  C3  UNL     1      11.649  -2.314  -3.299  1.00  0.00     0.068 C 
HETATM    7  O10 UNL     1      13.473  -3.474  -4.234  1.00  0.00    -0.318 OA
HETATM    8  C2  UNL     1      11.529  -3.678  -2.687  1.00  0.00     0.020 C 
HETATM    9  C1  UNL     1      10.318  -3.811  -1.799  1.00  0.00     0.013 C 
HETATM   10  C13 UNL     1      12.811  -4.003  -1.975  1.00  0.00     0.189 C 
HETATM   11  C12 UNL     1      13.942  -3.874  -2.978  1.00  0.00     0.242 C 
BRANCH  10  12
HETATM   12  O11 UNL     1      12.796  -5.278  -1.413  1.00  0.00    -0.390 OA
ATOM     13  H11 UNL     1      13.292  -5.904  -1.927  1.00  0.00     0.210 HD
ENDBRANCH  10  12
BRANCH  11  14
HETATM   14  O9  UNL     1      14.705  -5.027  -3.051  1.00  0.00    -0.359 OA
ATOM     15  H9  UNL     1      14.722  -5.393  -3.928  1.00  0.00     0.213 HD
ENDBRANCH  11  14
ENDBRANCH   2   3
ENDBRANCH   1   2
BRANCH   1  16
HETATM   16  O3  UNL     1      17.283  -1.924  -2.015  1.00  0.00    -0.334 OA
BRANCH  16  17
HETATM   17  C7  UNL     1      17.874  -0.831  -1.425  1.00  0.00     0.296 C 
HETATM   18  O4  UNL     1      18.477  -0.082  -2.457  1.00  0.00    -0.326 OA
HETATM   19  C8  UNL     1      19.467   0.746  -1.925  1.00  0.00     0.291 C 
HETATM   20  C9  UNL     1      19.047   1.183  -0.558  1.00  0.00     0.204 C 
HETATM   21  C10 UNL     1      17.556   1.406  -0.520  1.00  0.00     0.185 C 
HETATM   22  C11 UNL     1      16.904   0.027  -0.653  1.00  0.00     0.204 C 
BRANCH  19  23
HETATM   23  O5  UNL     1      20.641   0.003  -1.894  1.00  0.00    -0.368 OA
ATOM     24  H5  UNL     1      20.586  -0.567  -1.137  1.00  0.00     0.212 HD
ENDBRANCH  19  23
BRANCH  20  25
HETATM   25  O6  UNL     1      19.684   2.387  -0.263  1.00  0.00    -0.388 OA
ATOM     26  H6  UNL     1      20.000   2.349   0.633  1.00  0.00     0.210 HD
ENDBRANCH  20  25
BRANCH  21  27
HETATM   27  O7  UNL     1      17.130   1.994   0.657  1.00  0.00    -0.390 OA
ATOM     28  H7  UNL     1      16.749   1.371   1.264  1.00  0.00     0.210 HD
ENDBRANCH  21  27
BRANCH  22  29
HETATM   29  O8  UNL     1      16.705  -0.469   0.635  1.00  0.00    -0.388 OA
ATOM     30  H8  UNL     1      15.950  -0.065   1.047  1.00  0.00     0.210 HD
ENDBRANCH  22  29
ENDBRANCH  16  17
ENDBRANCH   1  16
TORSDOF 10
ENDMDL
MODEL 3
REMARK VINA RESULT: -8.783982349      1.189      2.795
REMARK  10 active torsions:
REMARK  status: ('A' for Active; 'I' for Inactive)
REMARK    1  A    between atoms: C5_6  and  O2_7 
REMARK    2  A    between atoms: O2_7  and  C6_8 
REMARK    3  A    between atoms: C6_8  and  O3_9 
REMARK    4  A    between atoms: O3_9  and  C7_10 
REMARK    5  A    between atoms: C8_12  and  O5_13 
REMARK    6  A    between atoms: C9_15  and  O6_16 
REMARK    7  A    between atoms: C10_18  and  O7_19 
REMARK    8  A    between atoms: C11_21  and  O8_22 
REMARK    9  A    between atoms: C12_24  and  O9_25 
REMARK   10  A    between atoms: C13_28  and  O11_29 
ROOT
HETATM    1  C6  UNL     1      17.533  -2.986  -2.623  1.00  0.00     0.344 C 
ENDROOT
BRANCH   1   2
HETATM    2  O2  UNL     1      16.473  -3.555  -1.928  1.00  0.00    -0.331 OA
BRANCH   2   3
HETATM    3  C5  UNL     1      15.327  -3.680  -2.687  1.00  0.00     0.330 C 
HETATM    4  O1  UNL     1      14.894  -5.000  -2.573  1.00  0.00    -0.326 OA
HETATM    5  C4  UNL     1      14.105  -5.077  -1.444  1.00  0.00     0.267 C 
HETATM    6  C3  UNL     1      12.681  -5.325  -1.902  1.00  0.00     0.068 C 
HETATM    7  O10 UNL     1      14.139  -3.818  -0.830  1.00  0.00    -0.318 OA
HETATM    8  C2  UNL     1      11.989  -4.005  -2.079  1.00  0.00     0.020 C 
HETATM    9  C1  UNL     1      10.663  -4.134  -2.782  1.00  0.00     0.013 C 
HETATM   10  C13 UNL     1      12.926  -3.057  -2.773  1.00  0.00     0.189 C 
HETATM   11  C12 UNL     1      14.199  -2.983  -1.951  1.00  0.00     0.242 C 
BRANCH  10  12
HETATM   12  O11 UNL     1      12.372  -1.790  -2.936  1.00  0.00    -0.390 OA
ATOM     13  H11 UNL     1      12.619  -1.195  -2.237  1.00  0.00     0.210 HD
ENDBRANCH  10  12
BRANCH  11  14
HETATM   14  O9  UNL     1      14.522  -1.680  -1.612  1.00  0.00    -0.359 OA
ATOM     15  H9  UNL     1      13.790  -1.085  -1.730  1.00  0.00     0.213 HD
ENDBRANCH  11  14
ENDBRANCH   2   3
ENDBRANCH   1   2
BRANCH   1  16
HETATM   16  O3  UNL     1      17.166  -1.669  -2.903  1.00  0.00    -0.334 OA
BRANCH  16  17
HETATM   17  C7  UNL     1      17.797  -0.779  -2.066  1.00  0.00     0.296 C 
HETATM   18  O4  UNL     1      18.407   0.195  -2.884  1.00  0.00    -0.326 OA
HETATM   19  C8  UNL     1      19.428   0.834  -2.179  1.00  0.00     0.291 C 
HETATM   20  C9  UNL     1      19.041   0.915  -0.737  1.00  0.00     0.204 C 
HETATM   21  C10 UNL     1      17.559   1.157  -0.611  1.00  0.00     0.185 C 
HETATM   22  C11 UNL     1      16.864  -0.126  -1.078  1.00  0.00     0.204 C 
BRANCH  19  23
HETATM   23  O5  UNL     1      20.580   0.080  -2.366  1.00  0.00    -0.368 OA
ATOM     24  H5  UNL     1      21.198   0.631  -2.830  1.00  0.00     0.212 HD
ENDBRANCH  19  23
BRANCH  20  25
HETATM   25  O6  UNL     1      19.718   1.986  -0.157  1.00  0.00    -0.388 OA
ATOM     26  H6  UNL     1      19.541   1.984   0.777  1.00  0.00     0.210 HD
ENDBRANCH  20  25
BRANCH  21  27
HETATM   27  O7  UNL     1      17.167   1.433   0.687  1.00  0.00    -0.390 OA
ATOM     28  H7  UNL     1      17.672   0.955   1.334  1.00  0.00     0.210 HD
ENDBRANCH  21  27
BRANCH  22  29
HETATM   29  O8  UNL     1      16.670  -0.930   0.043  1.00  0.00    -0.388 OA
ATOM     30  H8  UNL     1      15.764  -0.913   0.327  1.00  0.00     0.210 HD
ENDBRANCH  22  29
ENDBRANCH  16  17
ENDBRANCH   1  16
TORSDOF 10
ENDMDL
MODEL 4
REMARK VINA RESULT: -8.708210471      1.366      2.253
REMARK  10 active torsions:
REMARK  status: ('A' for Active; 'I' for Inactive)
REMARK    1  A    between atoms: C5_6  and  O2_7 
REMARK    2  A    between atoms: O2_7  and  C6_8 
REMARK    3  A    between atoms: C6_8  and  O3_9 
REMARK    4  A    between atoms: O3_9  and  C7_10 
REMARK    5  A    between atoms: C8_12  and  O5_13 
REMARK    6  A    between atoms: C9_15  and  O6_16 
REMARK    7  A    between atoms: C10_18  and  O7_19 
REMARK    8  A    between atoms: C11_21  and  O8_22 
REMARK    9  A    between atoms: C12_24  and  O9_25 
REMARK   10  A    between atoms: C13_28  and  O11_29 
ROOT
HETATM    1  C6  UNL     1      17.529  -3.320  -2.974  1.00  0.00     0.344 C 
ENDROOT
BRANCH   1   2
HETATM    2  O2  UNL     1      16.483  -3.776  -2.183  1.00  0.00    -0.331 OA
BRANCH   2   3
HETATM    3  C5  UNL     1      15.272  -3.810  -2.846  1.00  0.00     0.330 C 
HETATM    4  O1  UNL     1      14.730  -5.080  -2.658  1.00  0.00    -0.326 OA
HETATM    5  C4  UNL     1      14.031  -5.056  -1.469  1.00  0.00     0.267 C 
HETATM    6  C3  UNL     1      12.557  -5.179  -1.806  1.00  0.00     0.068 C 
HETATM    7  O10 UNL     1      14.230  -3.792  -0.898  1.00  0.00    -0.318 OA
HETATM    8  C2  UNL     1      11.979  -3.804  -1.968  1.00  0.00     0.020 C 
HETATM    9  C1  UNL     1      10.594  -3.824  -2.561  1.00  0.00     0.013 C 
HETATM   10  C13 UNL     1      12.940  -2.965  -2.762  1.00  0.00     0.189 C 
HETATM   11  C12 UNL     1      14.277  -2.992  -2.045  1.00  0.00     0.242 C 
BRANCH  10  12
HETATM   12  O11 UNL     1      12.493  -1.655  -2.920  1.00  0.00    -0.390 OA
ATOM     13  H11 UNL     1      12.737  -1.290  -3.763  1.00  0.00     0.210 HD
ENDBRANCH  10  12
BRANCH  11  14
HETATM   14  O9  UNL     1      14.745  -1.718  -1.772  1.00  0.00    -0.359 OA
ATOM     15  H9  UNL     1      15.212  -1.676  -0.945  1.00  0.00     0.213 HD
ENDBRANCH  11  14
ENDBRANCH   2   3
ENDBRANCH   1   2
BRANCH   1  16
HETATM   16  O3  UNL     1      17.132  -2.085  -3.489  1.00  0.00    -0.334 OA
BRANCH  16  17
HETATM   17  C7  UNL     1      17.794  -1.045  -2.878  1.00  0.00     0.296 C 
HETATM   18  O4  UNL     1      17.725  -1.274  -1.488  1.00  0.00    -0.326 OA
HETATM   19  C8  UNL     1      17.937  -0.078  -0.800  1.00  0.00     0.291 C 
HETATM   20  C9  UNL     1      18.902   0.760  -1.576  1.00  0.00     0.204 C 
HETATM   21  C10 UNL     1      19.945  -0.115  -2.222  1.00  0.00     0.185 C 
HETATM   22  C11 UNL     1      19.230  -0.913  -3.317  1.00  0.00     0.204 C 
BRANCH  19  23
HETATM   23  O5  UNL     1      16.699   0.540  -0.674  1.00  0.00    -0.368 OA
ATOM     24  H5  UNL     1      16.409   0.759  -1.551  1.00  0.00     0.212 HD
ENDBRANCH  19  23
BRANCH  20  25
HETATM   25  O6  UNL     1      19.538   1.633  -0.695  1.00  0.00    -0.388 OA
ATOM     26  H6  UNL     1      20.445   1.364  -0.607  1.00  0.00     0.210 HD
ENDBRANCH  20  25
BRANCH  21  27
HETATM   27  O7  UNL     1      20.976   0.609  -2.795  1.00  0.00    -0.390 OA
ATOM     28  H7  UNL     1      21.779   0.109  -2.874  1.00  0.00     0.210 HD
ENDBRANCH  21  27
BRANCH  22  29
HETATM   29  O8  UNL     1      19.332  -0.185  -4.501  1.00  0.00    -0.388 OA
ATOM     30  H8  UNL     1      19.926   0.550  -4.405  1.00  0.00     0.210 HD
ENDBRANCH  22  29
ENDBRANCH  16  17
ENDBRANCH   1  16
TORSDOF 10
ENDMDL
MODEL 5
REMARK VINA RESULT: -8.664956177      0.959      2.161
REMARK  10 active torsions:
REMARK  status: ('A' for Active; 'I' for Inactive)
REMARK    1  A    between atoms: C5_6  and  O2_7 
REMARK    2  A    between atoms: O2_7  and  C6_8 
REMARK    3  A    between atoms: C6_8  and  O3_9 
REMARK    4  A    between atoms: O3_9  and  C7_10 
REMARK    5  A    between atoms: C8_12  and  O5_13 
REMARK    6  A    between atoms: C9_15  and  O6_16 
REMARK    7  A    between atoms: C10_18  and  O7_19 
REMARK    8  A    between atoms: C11_21  and  O8_22 
REMARK    9  A    between atoms: C12_24  and  O9_25 
REMARK   10  A    between atoms: C13_28  and  O11_29 
ROOT
HETATM    1  C6  UNL     1      15.754  -2.443  -1.570  1.00  0.00     0.344 C 
ENDROOT
BRANCH   1   2
HETATM    2  O2  UNL     1      14.842  -2.436  -2.617  1.00  0.00    -0.331 OA
BRANCH   2   3
HETATM    3  C5  UNL     1      13.529  -2.351  -2.197  1.00  0.00     0.330 C 
HETATM    4  O1  UNL     1      12.864  -1.502  -3.080  1.00  0.00    -0.326 OA
HETATM    5  C4  UNL     1      12.431  -2.271  -4.141  1.00  0.00     0.267 C 
HETATM    6  C3  UNL     1      10.918  -2.331  -4.069  1.00  0.00     0.068 C 
HETATM    7  O10 UNL     1      12.917  -3.569  -3.936  1.00  0.00    -0.318 OA
HETATM    8  C2  UNL     1      10.516  -3.533  -3.265  1.00  0.00     0.020 C 
HETATM    9  C1  UNL     1       9.051  -3.533  -2.914  1.00  0.00     0.013 C 
HETATM   10  C13 UNL     1      11.404  -3.624  -2.057  1.00  0.00     0.189 C 
HETATM   11  C12 UNL     1      12.841  -3.658  -2.541  1.00  0.00     0.242 C 
BRANCH  10  12
HETATM   12  O11 UNL     1      11.122  -4.744  -1.277  1.00  0.00    -0.390 OA
ATOM     13  H11 UNL     1      10.234  -4.734  -0.939  1.00  0.00     0.210 HD
ENDBRANCH  10  12
BRANCH  11  14
HETATM   14  O9  UNL     1      13.528  -4.756  -2.052  1.00  0.00    -0.359 OA
ATOM     15  H9  UNL     1      14.257  -5.002  -2.610  1.00  0.00     0.213 HD
ENDBRANCH  11  14
ENDBRANCH   2   3
ENDBRANCH   1   2
BRANCH   1  16
HETATM   16  O3  UNL     1      15.925  -1.114  -1.180  1.00  0.00    -0.334 OA
BRANCH  16  17
HETATM   17  C7  UNL     1      17.236  -0.716  -1.301  1.00  0.00     0.296 C 
HETATM   18  O4  UNL     1      17.504  -0.594  -2.680  1.00  0.00    -0.326 OA
HETATM   19  C8  UNL     1      18.880  -0.663  -2.903  1.00  0.00     0.291 C 
HETATM   20  C9  UNL     1      19.589  -0.042  -1.741  1.00  0.00     0.204 C 
HETATM   21  C10 UNL     1      18.808   1.141  -1.230  1.00  0.00     0.185 C 
HETATM   22  C11 UNL     1      17.533   0.581  -0.592  1.00  0.00     0.204 C 
BRANCH  19  23
HETATM   23  O5  UNL     1      19.198  -2.008  -3.047  1.00  0.00    -0.368 OA
ATOM     24  H5  UNL     1      18.883  -2.276  -3.902  1.00  0.00     0.212 HD
ENDBRANCH  19  23
BRANCH  20  25
HETATM   25  O6  UNL     1      20.838   0.401  -2.171  1.00  0.00    -0.388 OA
ATOM     26  H6  UNL     1      20.731   1.251  -2.583  1.00  0.00     0.210 HD
ENDBRANCH  20  25
BRANCH  21  27
HETATM   27  O7  UNL     1      19.500   1.874  -0.283  1.00  0.00    -0.390 OA
ATOM     28  H7  UNL     1      18.949   2.493   0.180  1.00  0.00     0.210 HD
ENDBRANCH  21  27
BRANCH  22  29
HETATM   29  O8  UNL     1      17.798   0.371   0.760  1.00  0.00    -0.388 OA
ATOM     30  H8  UNL     1      17.998   1.186   1.204  1.00  0.00     0.210 HD
ENDBRANCH  22  29
ENDBRANCH  16  17
ENDBRANCH   1  16
TORSDOF 10
ENDMDL
