MODEL 1
REMARK VINA RESULT: -7.904560794      0.000      0.000
REMARK  11 active torsions:
REMARK  status: ('A' for Active; 'I' for Inactive)
REMARK    1  A    between atoms: C3_4  and  O2_5 
REMARK    2  A    between atoms: O2_5  and  C4_6 
REMARK    3  A    between atoms: C5_8  and  O4_9 
REMARK    4  A    between atoms: O4_9  and  O5_10 
REMARK    5  A    between atoms: C6_12  and  O6_13 
REMARK    6  A    between atoms: C7_15  and  O7_16 
REMARK    7  A    between atoms: O7_16  and  C8_17 
REMARK    8  A    between atoms: C8_17  and  O8_20 
REMARK    9  A    between atoms: C11_22  and  O9_23 
REMARK   10  A    between atoms: C12_25  and  O10_26 
REMARK   11  A    between atoms: C13_28  and  O11_29 
ROOT
HETATM    1  C4  UNL     1      16.387  -0.900  -0.766  1.00  0.00     0.298 C 
HETATM    2  O3  UNL     1      17.017  -0.785   0.463  1.00  0.00    -0.323 OA
HETATM    3  C5  UNL     1      17.885   0.301   0.193  1.00  0.00     0.330 C 
HETATM    4  C6  UNL     1      18.522  -0.064  -1.132  1.00  0.00     0.210 C 
HETATM    5  C7  UNL     1      17.580  -1.166  -1.644  1.00  0.00     0.214 C 
ENDROOT
BRANCH   1   6
HETATM    6  O2  UNL     1      15.336  -1.698  -0.859  1.00  0.00    -0.326 OA
BRANCH   6   7
HETATM    7  C3  UNL     1      14.972  -2.211  -2.076  1.00  0.00     0.294 C 
HETATM    8  O1  UNL     1      13.584  -2.030  -2.158  1.00  0.00    -0.351 OA
HETATM    9  C2  UNL     1      13.058  -2.115  -3.412  1.00  0.00     0.152 C 
HETATM   10  C1  UNL     1      11.707  -2.835  -3.283  1.00  0.00     0.042 C 
HETATM   11  C13 UNL     1      13.985  -2.905  -4.303  1.00  0.00     0.178 C 
HETATM   12  C12 UNL     1      14.554  -4.100  -3.573  1.00  0.00     0.183 C 
HETATM   13  C11 UNL     1      15.198  -3.691  -2.257  1.00  0.00     0.204 C 
BRANCH  11  14
HETATM   14  O11 UNL     1      13.190  -3.433  -5.343  1.00  0.00    -0.390 OA
ATOM     15  H11 UNL     1      13.122  -2.754  -6.004  1.00  0.00     0.210 HD
ENDBRANCH  11  14
BRANCH  12  16
HETATM   16  O10 UNL     1      15.471  -4.705  -4.443  1.00  0.00    -0.390 OA
ATOM     17  H10 UNL     1      15.373  -5.650  -4.464  1.00  0.00     0.210 HD
ENDBRANCH  12  16
BRANCH  13  18
HETATM   18  O9  UNL     1      14.575  -4.435  -1.252  1.00  0.00    -0.388 OA
ATOM     19  H9  UNL     1      15.187  -4.683  -0.568  1.00  0.00     0.210 HD
ENDBRANCH  13  18
ENDBRANCH   6   7
ENDBRANCH   1   6
BRANCH   5  20
HETATM   20  O7  UNL     1      17.264  -0.994  -2.958  1.00  0.00    -0.343 OA
BRANCH  20  21
HETATM   21  C8  UNL     1      18.076  -1.700  -3.837  1.00  0.00     0.155 C 
HETATM   22  C9  UNL     1      18.445  -3.074  -3.376  1.00  0.00     0.078 C 
HETATM   23  C10 UNL     1      17.324  -1.827  -5.144  1.00  0.00     0.078 C 
BRANCH  21  24
HETATM   24  O8  UNL     1      19.252  -0.979  -4.057  1.00  0.00    -0.366 OA
ATOM     25  H8  UNL     1      19.541  -1.118  -4.952  1.00  0.00     0.213 HD
ENDBRANCH  21  24
ENDBRANCH  20  21
ENDBRANCH   5  20
BRANCH   3  26
HETATM   26  O4  UNL     1      17.150   1.475   0.085  1.00  0.00    -0.207 OA
BRANCH  26  27
HETATM   27  O5  UNL     1      17.900   2.519   0.269  1.00  0.00    -0.248 OA
ATOM     28  H5  UNL     1      17.377   3.303   0.387  1.00  0.00     0.253 HD
ENDBRANCH  26  27
ENDBRANCH   3  26
BRANCH   4  29
HETATM   29  O6  UNL     1      18.522   0.980  -2.031  1.00  0.00    -0.388 OA
ATOM     30  H6  UNL     1      19.202   0.900  -2.690  1.00  0.00     0.210 HD
ENDBRANCH   4  29
TORSDOF 11
ENDMDL
MODEL 2
REMARK VINA RESULT: -7.584108891      0.854      1.046
REMARK  11 active torsions:
REMARK  status: ('A' for Active; 'I' for Inactive)
REMARK    1  A    between atoms: C3_4  and  O2_5 
REMARK    2  A    between atoms: O2_5  and  C4_6 
REMARK    3  A    between atoms: C5_8  and  O4_9 
REMARK    4  A    between atoms: O4_9  and  O5_10 
REMARK    5  A    between atoms: C6_12  and  O6_13 
REMARK    6  A    between atoms: C7_15  and  O7_16 
REMARK    7  A    between atoms: O7_16  and  C8_17 
REMARK    8  A    between atoms: C8_17  and  O8_20 
REMARK    9  A    between atoms: C11_22  and  O9_23 
REMARK   10  A    between atoms: C12_25  and  O10_26 
REMARK   11  A    between atoms: C13_28  and  O11_29 
ROOT
HETATM    1  C4  UNL     1      16.231  -1.422  -1.202  1.00  0.00     0.298 C 
HETATM    2  O3  UNL     1      16.683  -1.263   0.098  1.00  0.00    -0.323 OA
HETATM    3  C5  UNL     1      17.420  -0.062  -0.044  1.00  0.00     0.330 C 
HETATM    4  C6  UNL     1      18.260  -0.296  -1.283  1.00  0.00     0.210 C 
HETATM    5  C7  UNL     1      17.548  -1.497  -1.927  1.00  0.00     0.214 C 
ENDROOT
BRANCH   1   6
HETATM    6  O2  UNL     1      15.318  -2.351  -1.439  1.00  0.00    -0.326 OA
BRANCH   6   7
HETATM    7  C3  UNL     1      14.561  -2.290  -2.578  1.00  0.00     0.294 C 
HETATM    8  O1  UNL     1      13.229  -2.356  -2.146  1.00  0.00    -0.351 OA
HETATM    9  C2  UNL     1      12.300  -1.940  -3.051  1.00  0.00     0.152 C 
HETATM   10  C1  UNL     1      11.089  -2.874  -2.913  1.00  0.00     0.042 C 
HETATM   11  C13 UNL     1      12.869  -2.029  -4.446  1.00  0.00     0.178 C 
HETATM   12  C12 UNL     1      13.674  -3.296  -4.624  1.00  0.00     0.183 C 
HETATM   13  C11 UNL     1      14.731  -3.441  -3.540  1.00  0.00     0.204 C 
BRANCH  11  14
HETATM   14  O11 UNL     1      11.769  -2.146  -5.323  1.00  0.00    -0.390 OA
ATOM     15  H11 UNL     1      11.012  -2.343  -4.783  1.00  0.00     0.210 HD
ENDBRANCH  11  14
BRANCH  12  16
HETATM   16  O10 UNL     1      14.238  -3.238  -5.906  1.00  0.00    -0.390 OA
ATOM     17  H10 UNL     1      14.368  -2.343  -6.198  1.00  0.00     0.210 HD
ENDBRANCH  12  16
BRANCH  13  18
HETATM   18  O9  UNL     1      14.507  -4.671  -2.917  1.00  0.00    -0.388 OA
ATOM     19  H9  UNL     1      13.741  -5.109  -3.270  1.00  0.00     0.210 HD
ENDBRANCH  13  18
ENDBRANCH   6   7
ENDBRANCH   1   6
BRANCH   5  20
HETATM   20  O7  UNL     1      17.375  -1.327  -3.267  1.00  0.00    -0.343 OA
BRANCH  20  21
HETATM   21  C8  UNL     1      18.196  -2.125  -4.054  1.00  0.00     0.155 C 
HETATM   22  C9  UNL     1      18.307  -3.545  -3.596  1.00  0.00     0.078 C 
HETATM   23  C10 UNL     1      17.622  -2.124  -5.453  1.00  0.00     0.078 C 
BRANCH  21  24
HETATM   24  O8  UNL     1      19.479  -1.573  -4.089  1.00  0.00    -0.366 OA
ATOM     25  H8  UNL     1      19.928  -1.874  -4.870  1.00  0.00     0.213 HD
ENDBRANCH  21  24
ENDBRANCH  20  21
ENDBRANCH   5  20
BRANCH   3  26
HETATM   26  O4  UNL     1      16.550   1.005  -0.226  1.00  0.00    -0.207 OA
BRANCH  26  27
HETATM   27  O5  UNL     1      17.100   2.127   0.127  1.00  0.00    -0.248 OA
ATOM     28  H5  UNL     1      17.434   2.599  -0.626  1.00  0.00     0.253 HD
ENDBRANCH  26  27
ENDBRANCH   3  26
BRANCH   4  29
HETATM   29  O6  UNL     1      18.226   0.766  -2.159  1.00  0.00    -0.388 OA
ATOM     30  H6  UNL     1      18.911   0.724  -2.817  1.00  0.00     0.210 HD
ENDBRANCH   4  29
TORSDOF 11
ENDMDL
MODEL 3
REMARK VINA RESULT: -7.541784250      2.068      3.614
REMARK  11 active torsions:
REMARK  status: ('A' for Active; 'I' for Inactive)
REMARK    1  A    between atoms: C3_4  and  O2_5 
REMARK    2  A    between atoms: O2_5  and  C4_6 
REMARK    3  A    between atoms: C5_8  and  O4_9 
REMARK    4  A    between atoms: O4_9  and  O5_10 
REMARK    5  A    between atoms: C6_12  and  O6_13 
REMARK    6  A    between atoms: C7_15  and  O7_16 
REMARK    7  A    between atoms: O7_16  and  C8_17 
REMARK    8  A    between atoms: C8_17  and  O8_20 
REMARK    9  A    between atoms: C11_22  and  O9_23 
REMARK   10  A    between atoms: C12_25  and  O10_26 
REMARK   11  A    between atoms: C13_28  and  O11_29 
ROOT
HETATM    1  C4  UNL     1      14.993  -2.516  -3.291  1.00  0.00     0.298 C 
HETATM    2  O3  UNL     1      14.881  -3.383  -2.216  1.00  0.00    -0.323 OA
HETATM    3  C5  UNL     1      15.835  -2.810  -1.340  1.00  0.00     0.330 C 
HETATM    4  C6  UNL     1      17.050  -2.593  -2.218  1.00  0.00     0.210 C 
HETATM    5  C7  UNL     1      16.447  -2.708  -3.627  1.00  0.00     0.214 C 
ENDROOT
BRANCH   1   6
HETATM    6  O2  UNL     1      14.097  -2.603  -4.262  1.00  0.00    -0.326 OA
BRANCH   6   7
HETATM    7  C3  UNL     1      12.843  -3.083  -3.993  1.00  0.00     0.294 C 
HETATM    8  O1  UNL     1      12.101  -2.865  -5.163  1.00  0.00    -0.351 OA
HETATM    9  C2  UNL     1      10.952  -3.590  -5.269  1.00  0.00     0.152 C 
HETATM   10  C1  UNL     1       9.902  -2.674  -5.915  1.00  0.00     0.042 C 
HETATM   11  C13 UNL     1      10.492  -4.022  -3.898  1.00  0.00     0.178 C 
HETATM   12  C12 UNL     1      10.666  -2.910  -2.890  1.00  0.00     0.183 C 
HETATM   13  C11 UNL     1      12.089  -2.371  -2.898  1.00  0.00     0.204 C 
BRANCH  11  14
HETATM   14  O11 UNL     1       9.100  -4.242  -3.992  1.00  0.00    -0.390 OA
ATOM     15  H11 UNL     1       8.964  -5.173  -3.858  1.00  0.00     0.210 HD
ENDBRANCH  11  14
BRANCH  12  16
HETATM   16  O10 UNL     1      10.309  -3.438  -1.642  1.00  0.00    -0.390 OA
ATOM     17  H10 UNL     1      10.289  -2.771  -0.965  1.00  0.00     0.210 HD
ENDBRANCH  12  16
BRANCH  13  18
HETATM   18  O9  UNL     1      12.001  -0.998  -3.140  1.00  0.00    -0.388 OA
ATOM     19  H9  UNL     1      12.065  -0.495  -2.336  1.00  0.00     0.210 HD
ENDBRANCH  13  18
ENDBRANCH   6   7
ENDBRANCH   1   6
BRANCH   5  20
HETATM   20  O7  UNL     1      16.890  -1.717  -4.451  1.00  0.00    -0.343 OA
BRANCH  20  21
HETATM   21  C8  UNL     1      17.397  -2.167  -5.664  1.00  0.00     0.155 C 
HETATM   22  C9  UNL     1      16.539  -1.858  -6.850  1.00  0.00     0.078 C 
HETATM   23  C10 UNL     1      18.741  -1.503  -5.867  1.00  0.00     0.078 C 
BRANCH  21  24
HETATM   24  O8  UNL     1      17.578  -3.551  -5.602  1.00  0.00    -0.366 OA
ATOM     25  H8  UNL     1      18.310  -3.796  -6.156  1.00  0.00     0.213 HD
ENDBRANCH  21  24
ENDBRANCH  20  21
ENDBRANCH   5  20
BRANCH   3  26
HETATM   26  O4  UNL     1      15.356  -1.604  -0.845  1.00  0.00    -0.207 OA
BRANCH  26  27
HETATM   27  O5  UNL     1      16.054  -1.202   0.173  1.00  0.00    -0.248 OA
ATOM     28  H5  UNL     1      15.550  -0.619   0.728  1.00  0.00     0.253 HD
ENDBRANCH  26  27
ENDBRANCH   3  26
BRANCH   4  29
HETATM   29  O6  UNL     1      17.602  -1.340  -2.067  1.00  0.00    -0.388 OA
ATOM     30  H6  UNL     1      17.076  -0.769  -1.518  1.00  0.00     0.210 HD
ENDBRANCH   4  29
TORSDOF 11
ENDMDL
MODEL 4
REMARK VINA RESULT: -7.111890698      2.682      6.697
REMARK  11 active torsions:
REMARK  status: ('A' for Active; 'I' for Inactive)
REMARK    1  A    between atoms: C3_4  and  O2_5 
REMARK    2  A    between atoms: O2_5  and  C4_6 
REMARK    3  A    between atoms: C5_8  and  O4_9 
REMARK    4  A    between atoms: O4_9  and  O5_10 
REMARK    5  A    between atoms: C6_12  and  O6_13 
REMARK    6  A    between atoms: C7_15  and  O7_16 
REMARK    7  A    between atoms: O7_16  and  C8_17 
REMARK    8  A    between atoms: C8_17  and  O8_20 
REMARK    9  A    between atoms: C11_22  and  O9_23 
REMARK   10  A    between atoms: C12_25  and  O10_26 
REMARK   11  A    between atoms: C13_28  and  O11_29 
ROOT
HETATM    1  C4  UNL     1      12.411  -2.778  -3.893  1.00  0.00     0.298 C 
HETATM    2  O3  UNL     1      12.242  -2.397  -2.572  1.00  0.00    -0.323 OA
HETATM    3  C5  UNL     1      11.244  -3.322  -2.176  1.00  0.00     0.330 C 
HETATM    4  C6  UNL     1      10.219  -3.249  -3.289  1.00  0.00     0.210 C 
HETATM    5  C7  UNL     1      11.015  -2.556  -4.408  1.00  0.00     0.214 C 
ENDROOT
BRANCH   1   6
HETATM    6  O2  UNL     1      13.429  -2.267  -4.568  1.00  0.00    -0.326 OA
BRANCH   6   7
HETATM    7  C3  UNL     1      14.693  -2.323  -4.044  1.00  0.00     0.294 C 
HETATM    8  O1  UNL     1      15.557  -2.119  -5.130  1.00  0.00    -0.351 OA
HETATM    9  C2  UNL     1      16.830  -1.762  -4.803  1.00  0.00     0.152 C 
HETATM   10  C1  UNL     1      17.764  -2.475  -5.793  1.00  0.00     0.042 C 
HETATM   11  C13 UNL     1      17.138  -2.197  -3.392  1.00  0.00     0.178 C 
HETATM   12  C12 UNL     1      16.579  -3.573  -3.114  1.00  0.00     0.183 C 
HETATM   13  C11 UNL     1      15.098  -3.650  -3.450  1.00  0.00     0.204 C 
BRANCH  11  14
HETATM   14  O11 UNL     1      18.541  -2.327  -3.308  1.00  0.00    -0.390 OA
ATOM     15  H11 UNL     1      18.745  -2.479  -2.392  1.00  0.00     0.210 HD
ENDBRANCH  11  14
BRANCH  12  16
HETATM   16  O10 UNL     1      16.827  -3.843  -1.760  1.00  0.00    -0.390 OA
ATOM     17  H10 UNL     1      17.415  -3.206  -1.372  1.00  0.00     0.210 HD
ENDBRANCH  12  16
BRANCH  13  18
HETATM   18  O9  UNL     1      14.944  -4.694  -4.366  1.00  0.00    -0.388 OA
ATOM     19  H9  UNL     1      15.563  -5.396  -4.205  1.00  0.00     0.210 HD
ENDBRANCH  13  18
ENDBRANCH   6   7
ENDBRANCH   1   6
BRANCH   5  20
HETATM   20  O7  UNL     1      10.838  -3.169  -5.612  1.00  0.00    -0.343 OA
BRANCH  20  21
HETATM   21  C8  UNL     1       9.981  -2.496  -6.475  1.00  0.00     0.155 C 
HETATM   22  C9  UNL     1      10.656  -1.859  -7.648  1.00  0.00     0.078 C 
HETATM   23  C10 UNL     1       8.981  -3.504  -6.996  1.00  0.00     0.078 C 
BRANCH  21  24
HETATM   24  O8  UNL     1       9.301  -1.504  -5.766  1.00  0.00    -0.366 OA
ATOM     25  H8  UNL     1       9.104  -0.781  -6.350  1.00  0.00     0.213 HD
ENDBRANCH  21  24
ENDBRANCH  20  21
ENDBRANCH   5  20
BRANCH   3  26
HETATM   26  O4  UNL     1      11.792  -4.595  -2.087  1.00  0.00    -0.207 OA
BRANCH  26  27
HETATM   27  O5  UNL     1      12.390  -4.771  -0.948  1.00  0.00    -0.248 OA
ATOM     28  H5  UNL     1      12.731  -3.953  -0.608  1.00  0.00     0.253 HD
ENDBRANCH  26  27
ENDBRANCH   3  26
BRANCH   4  29
HETATM   29  O6  UNL     1       9.818  -4.491  -3.728  1.00  0.00    -0.388 OA
ATOM     30  H6  UNL     1       9.816  -4.565  -4.676  1.00  0.00     0.210 HD
ENDBRANCH   4  29
TORSDOF 11
ENDMDL
MODEL 5
REMARK VINA RESULT: -7.085719093      1.494      3.480
REMARK  11 active torsions:
REMARK  status: ('A' for Active; 'I' for Inactive)
REMARK    1  A    between atoms: C3_4  and  O2_5 
REMARK    2  A    between atoms: O2_5  and  C4_6 
REMARK    3  A    between atoms: C5_8  and  O4_9 
REMARK    4  A    between atoms: O4_9  and  O5_10 
REMARK    5  A    between atoms: C6_12  and  O6_13 
REMARK    6  A    between atoms: C7_15  and  O7_16 
REMARK    7  A    between atoms: O7_16  and  C8_17 
REMARK    8  A    between atoms: C8_17  and  O8_20 
REMARK    9  A    between atoms: C11_22  and  O9_23 
REMARK   10  A    between atoms: C12_25  and  O10_26 
REMARK   11  A    between atoms: C13_28  and  O11_29 
ROOT
HETATM    1  C4  UNL     1      17.297  -1.665  -2.573  1.00  0.00     0.298 C 
HETATM    2  O3  UNL     1      17.475  -1.380  -3.917  1.00  0.00    -0.323 OA
HETATM    3  C5  UNL     1      18.873  -1.153  -3.936  1.00  0.00     0.330 C 
HETATM    4  C6  UNL     1      19.107  -0.222  -2.764  1.00  0.00     0.210 C 
HETATM    5  C7  UNL     1      17.802  -0.382  -1.967  1.00  0.00     0.214 C 
ENDROOT
BRANCH   1   6
HETATM    6  O2  UNL     1      16.124  -2.137  -2.182  1.00  0.00    -0.326 OA
BRANCH   6   7
HETATM    7  C3  UNL     1      15.095  -2.240  -3.080  1.00  0.00     0.294 C 
HETATM    8  O1  UNL     1      13.923  -2.105  -2.322  1.00  0.00    -0.351 OA
HETATM    9  C2  UNL     1      12.801  -1.800  -3.033  1.00  0.00     0.152 C 
HETATM   10  C1  UNL     1      11.642  -2.581  -2.397  1.00  0.00     0.042 C 
HETATM   11  C13 UNL     1      12.980  -2.213  -4.473  1.00  0.00     0.178 C 
HETATM   12  C12 UNL     1      13.670  -3.554  -4.572  1.00  0.00     0.183 C 
HETATM   13  C11 UNL     1      14.970  -3.569  -3.783  1.00  0.00     0.204 C 
BRANCH  11  14
HETATM   14  O11 UNL     1      11.684  -2.408  -4.999  1.00  0.00    -0.390 OA
ATOM     15  H11 UNL     1      11.596  -1.808  -5.731  1.00  0.00     0.210 HD
ENDBRANCH  11  14
BRANCH  12  16
HETATM   16  O10 UNL     1      13.878  -3.801  -5.936  1.00  0.00    -0.390 OA
ATOM     17  H10 UNL     1      13.290  -3.294  -6.484  1.00  0.00     0.210 HD
ENDBRANCH  12  16
BRANCH  13  18
HETATM   18  O9  UNL     1      14.882  -4.627  -2.875  1.00  0.00    -0.388 OA
ATOM     19  H9  UNL     1      14.478  -5.393  -3.267  1.00  0.00     0.210 HD
ENDBRANCH  13  18
ENDBRANCH   6   7
ENDBRANCH   1   6
BRANCH   5  20
HETATM   20  O7  UNL     1      18.036  -0.534  -0.634  1.00  0.00    -0.343 OA
BRANCH  20  21
HETATM   21  C8  UNL     1      17.207   0.227   0.182  1.00  0.00     0.155 C 
HETATM   22  C9  UNL     1      17.515   0.131   1.643  1.00  0.00     0.078 C 
HETATM   23  C10 UNL     1      17.361   1.671  -0.240  1.00  0.00     0.078 C 
BRANCH  21  24
HETATM   24  O8  UNL     1      15.881  -0.166  -0.015  1.00  0.00    -0.366 OA
ATOM     25  H8  UNL     1      15.355   0.599  -0.215  1.00  0.00     0.213 HD
ENDBRANCH  21  24
ENDBRANCH  20  21
ENDBRANCH   5  20
BRANCH   3  26
HETATM   26  O4  UNL     1      19.547  -2.355  -3.760  1.00  0.00    -0.207 OA
BRANCH  26  27
HETATM   27  O5  UNL     1      18.725  -3.359  -3.754  1.00  0.00    -0.248 OA
ATOM     28  H5  UNL     1      18.386  -3.522  -2.881  1.00  0.00     0.253 HD
ENDBRANCH  26  27
ENDBRANCH   3  26
BRANCH   4  29
HETATM   29  O6  UNL     1      20.165  -0.613  -1.974  1.00  0.00    -0.388 OA
ATOM     30  H6  UNL     1      19.997  -1.423  -1.506  1.00  0.00     0.210 HD
ENDBRANCH   4  29
TORSDOF 11
ENDMDL
