MODEL 1
REMARK VINA RESULT: -8.798295314      0.000      0.000
REMARK  9 active torsions:
REMARK  status: ('A' for Active; 'I' for Inactive)
REMARK    1  A    between atoms: C2_2  and  O1_3 
REMARK    2  A    between atoms: C2_2  and  C3_5 
REMARK    3  A    between atoms: C3_5  and  N1_6 
REMARK    4  A    between atoms: N1_6  and  C5_9 
REMARK    5  A    between atoms: C6_12  and  N4_13 
REMARK    6  A    between atoms: C10_19  and  C11_20 
REMARK    7  A    between atoms: C11_20  and  O2_21 
REMARK    8  A    between atoms: C11_20  and  O3_23 
REMARK    9  A    between atoms: C13_28  and  N8_29 
ROOT
HETATM    1  N1  UNL     1      11.950  -2.638  -3.965  1.00  0.00    -0.092 N 
HETATM    2  C4  UNL     1      12.391  -2.331  -5.289  1.00  0.00     0.203 C 
HETATM    3  N2  UNL     1      12.742  -2.061  -6.357  1.00  0.00    -0.171 NA
ENDROOT
BRANCH   1   4
HETATM    4  C3  UNL     1      10.602  -2.408  -3.637  1.00  0.00     0.131 C 
BRANCH   4   5
HETATM    5  C2  UNL     1       9.635  -3.510  -3.899  1.00  0.00     0.154 C 
HETATM    6  C1  UNL     1       8.430  -3.588  -3.047  1.00  0.00     0.045 C 
BRANCH   5   7
HETATM    7  O1  UNL     1      10.271  -4.755  -4.039  1.00  0.00    -0.391 OA
ATOM      8  H1  UNL     1      11.203  -4.668  -4.206  1.00  0.00     0.210 HD
ENDBRANCH   5   7
ENDBRANCH   4   5
ENDBRANCH   1   4
BRANCH   1   9
HETATM    9  C5  UNL     1      12.932  -3.089  -3.069  1.00  0.00     0.726 A 
HETATM   10  N3  UNL     1      14.098  -2.389  -2.925  1.00  0.00    -0.020 N 
HETATM   11  C6  UNL     1      15.099  -2.748  -2.131  1.00  0.00     0.709 A 
ATOM     12  H3  UNL     1      14.206  -1.531  -3.465  1.00  0.00     0.203 HD
HETATM   13  N7  UNL     1      14.906  -3.902  -1.425  1.00  0.00    -0.022 N 
HETATM   14  C13 UNL     1      13.790  -4.613  -1.532  1.00  0.00     0.705 A 
ATOM     15  H7  UNL     1      15.642  -4.227  -0.797  1.00  0.00     0.203 HD
HETATM   16  N9  UNL     1      12.786  -4.214  -2.357  1.00  0.00    -0.020 N 
ATOM     17  H9  UNL     1      11.931  -4.766  -2.433  1.00  0.00     0.203 HD
BRANCH  11  18
HETATM   18  N4  UNL     1      16.312  -2.016  -2.008  1.00  0.00    -0.213 N 
HETATM   19  C7  UNL     1      17.244  -1.786  -3.049  1.00  0.00     0.161 C 
HETATM   20  C8  UNL     1      18.131  -0.608  -2.885  1.00  0.00     0.155 C 
HETATM   21  N5  UNL     1      18.055   0.055  -1.630  1.00  0.00    -0.307 N 
HETATM   22  C9  UNL     1      19.156   0.864  -1.238  1.00  0.00     0.180 C 
HETATM   23  C10 UNL     1      16.918  -0.068  -0.781  1.00  0.00     0.168 C 
HETATM   24  N6  UNL     1      20.058   1.517  -0.926  1.00  0.00    -0.172 NA
HETATM   25  C12 UNL     1      16.581  -1.528  -0.660  1.00  0.00     0.172 C 
BRANCH  23  26
HETATM   26  C11 UNL     1      17.110   0.591   0.563  1.00  0.00     0.278 C 
BRANCH  26  27
HETATM   27  O2  UNL     1      16.957   1.968   0.423  1.00  0.00    -0.369 OA
ATOM     28  H2  UNL     1      17.199   2.393   1.238  1.00  0.00     0.212 HD
ENDBRANCH  26  27
BRANCH  26  29
HETATM   29  O3  UNL     1      16.144   0.183   1.488  1.00  0.00    -0.369 OA
ATOM     30  H3  UNL     1      15.961  -0.747   1.424  1.00  0.00     0.212 HD
ENDBRANCH  26  29
ENDBRANCH  23  26
ENDBRANCH  11  18
BRANCH  14  31
HETATM   31  N8  UNL     1      13.629  -5.689  -0.860  1.00  0.00    -0.234 N 
ATOM     32  H82 UNL     1      13.126  -5.635   0.025  1.00  0.00     0.174 HD
ATOM     33  H81 UNL     1      13.996  -6.578  -1.200  1.00  0.00     0.174 HD
ENDBRANCH  14  31
ENDBRANCH   1   9
TORSDOF 9
ENDMDL
MODEL 2
REMARK VINA RESULT: -7.893300485      1.245      2.078
REMARK  9 active torsions:
REMARK  status: ('A' for Active; 'I' for Inactive)
REMARK    1  A    between atoms: C2_2  and  O1_3 
REMARK    2  A    between atoms: C2_2  and  C3_5 
REMARK    3  A    between atoms: C3_5  and  N1_6 
REMARK    4  A    between atoms: N1_6  and  C5_9 
REMARK    5  A    between atoms: C6_12  and  N4_13 
REMARK    6  A    between atoms: C10_19  and  C11_20 
REMARK    7  A    between atoms: C11_20  and  O2_21 
REMARK    8  A    between atoms: C11_20  and  O3_23 
REMARK    9  A    between atoms: C13_28  and  N8_29 
ROOT
HETATM    1  N1  UNL     1      11.366  -2.926  -3.278  1.00  0.00    -0.092 N 
HETATM    2  C4  UNL     1      10.098  -3.424  -2.846  1.00  0.00     0.203 C 
HETATM    3  N2  UNL     1       9.069  -3.837  -2.518  1.00  0.00    -0.171 NA
ENDROOT
BRANCH   1   4
HETATM    4  C3  UNL     1      11.398  -2.006  -4.340  1.00  0.00     0.131 C 
BRANCH   4   5
HETATM    5  C2  UNL     1      11.786  -2.521  -5.684  1.00  0.00     0.154 C 
HETATM    6  C1  UNL     1      13.203  -2.402  -6.086  1.00  0.00     0.045 C 
BRANCH   5   7
HETATM    7  O1  UNL     1      10.906  -2.094  -6.692  1.00  0.00    -0.391 OA
ATOM      8  H1  UNL     1      11.260  -2.229  -7.563  1.00  0.00     0.210 HD
ENDBRANCH   5   7
ENDBRANCH   4   5
ENDBRANCH   1   4
BRANCH   1   9
HETATM    9  C5  UNL     1      12.496  -3.458  -2.637  1.00  0.00     0.726 A 
HETATM   10  N3  UNL     1      13.653  -2.731  -2.577  1.00  0.00    -0.020 N 
HETATM   11  C6  UNL     1      14.781  -3.156  -2.024  1.00  0.00     0.709 A 
ATOM     12  H3  UNL     1      13.647  -1.797  -2.986  1.00  0.00     0.203 HD
HETATM   13  N7  UNL     1      14.738  -4.411  -1.486  1.00  0.00    -0.022 N 
HETATM   14  C13 UNL     1      13.637  -5.152  -1.519  1.00  0.00     0.705 A 
ATOM     15  H7  UNL     1      15.576  -4.790  -1.046  1.00  0.00     0.203 HD
HETATM   16  N9  UNL     1      12.499  -4.683  -2.097  1.00  0.00    -0.020 N 
ATOM     17  H9  UNL     1      11.657  -5.259  -2.118  1.00  0.00     0.203 HD
BRANCH  11  18
HETATM   18  N4  UNL     1      15.980  -2.392  -1.987  1.00  0.00    -0.213 N 
HETATM   19  C7  UNL     1      16.815  -2.115  -3.097  1.00  0.00     0.161 C 
HETATM   20  C8  UNL     1      17.679  -0.915  -2.983  1.00  0.00     0.155 C 
HETATM   21  N5  UNL     1      17.693  -0.279  -1.712  1.00  0.00    -0.307 N 
HETATM   22  C9  UNL     1      18.801   0.553  -1.396  1.00  0.00     0.180 C 
HETATM   23  C10 UNL     1      16.635  -0.452  -0.773  1.00  0.00     0.168 C 
HETATM   24  N6  UNL     1      19.707   1.226  -1.146  1.00  0.00    -0.172 NA
HETATM   25  C12 UNL     1      16.350  -1.922  -0.656  1.00  0.00     0.172 C 
BRANCH  23  26
HETATM   26  C11 UNL     1      16.922   0.186   0.564  1.00  0.00     0.278 C 
BRANCH  26  27
HETATM   27  O2  UNL     1      16.816   1.570   0.443  1.00  0.00    -0.369 OA
ATOM     28  H2  UNL     1      17.687   1.945   0.385  1.00  0.00     0.212 HD
ENDBRANCH  26  27
BRANCH  26  29
HETATM   29  O3  UNL     1      15.991  -0.193   1.535  1.00  0.00    -0.369 OA
ATOM     30  H3  UNL     1      16.337  -0.102   2.415  1.00  0.00     0.212 HD
ENDBRANCH  26  29
ENDBRANCH  23  26
ENDBRANCH  11  18
BRANCH  14  31
HETATM   31  N8  UNL     1      13.617  -6.323  -1.008  1.00  0.00    -0.234 N 
ATOM     32  H82 UNL     1      14.494  -6.715  -0.665  1.00  0.00     0.174 HD
ATOM     33  H81 UNL     1      12.748  -6.854  -0.946  1.00  0.00     0.174 HD
ENDBRANCH  14  31
ENDBRANCH   1   9
TORSDOF 9
ENDMDL
MODEL 3
REMARK VINA RESULT: -7.813244603      2.400      7.500
REMARK  9 active torsions:
REMARK  status: ('A' for Active; 'I' for Inactive)
REMARK    1  A    between atoms: C2_2  and  O1_3 
REMARK    2  A    between atoms: C2_2  and  C3_5 
REMARK    3  A    between atoms: C3_5  and  N1_6 
REMARK    4  A    between atoms: N1_6  and  C5_9 
REMARK    5  A    between atoms: C6_12  and  N4_13 
REMARK    6  A    between atoms: C10_19  and  C11_20 
REMARK    7  A    between atoms: C11_20  and  O2_21 
REMARK    8  A    between atoms: C11_20  and  O3_23 
REMARK    9  A    between atoms: C13_28  and  N8_29 
ROOT
HETATM    1  N1  UNL     1      16.372  -1.688  -1.341  1.00  0.00    -0.092 N 
HETATM    2  C4  UNL     1      16.338  -1.107  -0.036  1.00  0.00     0.203 C 
HETATM    3  N2  UNL     1      16.308  -0.617   1.011  1.00  0.00    -0.171 NA
ENDROOT
BRANCH   1   4
HETATM    4  C3  UNL     1      17.403  -1.307  -2.218  1.00  0.00     0.131 C 
BRANCH   4   5
HETATM    5  C2  UNL     1      17.810  -2.286  -3.265  1.00  0.00     0.154 C 
HETATM    6  C1  UNL     1      19.254  -2.449  -3.534  1.00  0.00     0.045 C 
BRANCH   5   7
HETATM    7  O1  UNL     1      17.058  -2.148  -4.444  1.00  0.00    -0.391 OA
ATOM      8  H1  UNL     1      16.245  -2.639  -4.415  1.00  0.00     0.210 HD
ENDBRANCH   5   7
ENDBRANCH   4   5
ENDBRANCH   1   4
BRANCH   1   9
HETATM    9  C5  UNL     1      15.316  -2.555  -1.665  1.00  0.00     0.726 A 
HETATM   10  N3  UNL     1      14.418  -2.206  -2.635  1.00  0.00    -0.020 N 
HETATM   11  C6  UNL     1      13.371  -2.938  -2.991  1.00  0.00     0.709 A 
ATOM     12  H3  UNL     1      14.564  -1.319  -3.119  1.00  0.00     0.203 HD
HETATM   13  N7  UNL     1      13.221  -4.118  -2.319  1.00  0.00    -0.022 N 
HETATM   14  C13 UNL     1      14.069  -4.499  -1.371  1.00  0.00     0.705 A 
ATOM     15  H7  UNL     1      12.433  -4.723  -2.551  1.00  0.00     0.203 HD
HETATM   16  N9  UNL     1      15.131  -3.721  -1.032  1.00  0.00    -0.020 N 
ATOM     17  H9  UNL     1      15.778  -4.022  -0.303  1.00  0.00     0.203 HD
BRANCH  11  18
HETATM   18  N4  UNL     1      12.437  -2.548  -3.990  1.00  0.00    -0.213 N 
HETATM   19  C7  UNL     1      12.738  -2.321  -5.355  1.00  0.00     0.161 C 
HETATM   20  C8  UNL     1      11.605  -2.447  -6.305  1.00  0.00     0.155 C 
HETATM   21  N5  UNL     1      10.321  -2.617  -5.720  1.00  0.00    -0.307 N 
HETATM   22  C9  UNL     1       9.183  -2.287  -6.505  1.00  0.00     0.180 C 
HETATM   23  C10 UNL     1      10.158  -3.108  -4.392  1.00  0.00     0.168 C 
HETATM   24  N6  UNL     1       8.263  -2.012  -7.149  1.00  0.00    -0.172 NA
HETATM   25  C12 UNL     1      11.082  -2.337  -3.492  1.00  0.00     0.172 C 
BRANCH  23  26
HETATM   26  C11 UNL     1       8.726  -3.065  -3.918  1.00  0.00     0.278 C 
BRANCH  26  27
HETATM   27  O2  UNL     1       7.988  -4.027  -4.605  1.00  0.00    -0.369 OA
ATOM     28  H2  UNL     1       7.167  -4.173  -4.149  1.00  0.00     0.212 HD
ENDBRANCH  26  27
BRANCH  26  29
HETATM   29  O3  UNL     1       8.615  -3.383  -2.561  1.00  0.00    -0.369 OA
ATOM     30  H3  UNL     1       8.287  -2.652  -2.050  1.00  0.00     0.212 HD
ENDBRANCH  26  29
ENDBRANCH  23  26
ENDBRANCH  11  18
BRANCH  14  31
HETATM   31  N8  UNL     1      13.911  -5.608  -0.755  1.00  0.00    -0.234 N 
ATOM     32  H82 UNL     1      13.606  -6.420  -1.293  1.00  0.00     0.174 HD
ATOM     33  H81 UNL     1      14.083  -5.680   0.248  1.00  0.00     0.174 HD
ENDBRANCH  14  31
ENDBRANCH   1   9
TORSDOF 9
ENDMDL
MODEL 4
REMARK VINA RESULT: -7.691621430      2.725      7.289
REMARK  9 active torsions:
REMARK  status: ('A' for Active; 'I' for Inactive)
REMARK    1  A    between atoms: C2_2  and  O1_3 
REMARK    2  A    between atoms: C2_2  and  C3_5 
REMARK    3  A    between atoms: C3_5  and  N1_6 
REMARK    4  A    between atoms: N1_6  and  C5_9 
REMARK    5  A    between atoms: C6_12  and  N4_13 
REMARK    6  A    between atoms: C10_19  and  C11_20 
REMARK    7  A    between atoms: C11_20  and  O2_21 
REMARK    8  A    between atoms: C11_20  and  O3_23 
REMARK    9  A    between atoms: C13_28  and  N8_29 
ROOT
HETATM    1  N1  UNL     1      16.991  -2.587  -3.356  1.00  0.00    -0.092 N 
HETATM    2  C4  UNL     1      18.376  -2.416  -3.662  1.00  0.00     0.203 C 
HETATM    3  N2  UNL     1      19.501  -2.300  -3.903  1.00  0.00    -0.171 NA
ENDROOT
BRANCH   1   4
HETATM    4  C3  UNL     1      16.631  -2.911  -2.037  1.00  0.00     0.131 C 
BRANCH   4   5
HETATM    5  C2  UNL     1      15.715  -1.974  -1.325  1.00  0.00     0.154 C 
HETATM    6  C1  UNL     1      16.237  -1.271  -0.135  1.00  0.00     0.045 C 
BRANCH   5   7
HETATM    7  O1  UNL     1      14.447  -2.536  -1.103  1.00  0.00    -0.391 OA
ATOM      8  H1  UNL     1      14.172  -3.103  -1.814  1.00  0.00     0.210 HD
ENDBRANCH   5   7
ENDBRANCH   4   5
ENDBRANCH   1   4
BRANCH   1   9
HETATM    9  C5  UNL     1      16.097  -2.480  -4.434  1.00  0.00     0.726 A 
HETATM   10  N3  UNL     1      14.750  -2.564  -4.215  1.00  0.00    -0.020 N 
HETATM   11  C6  UNL     1      13.827  -2.507  -5.167  1.00  0.00     0.709 A 
ATOM     12  H3  UNL     1      14.432  -2.678  -3.252  1.00  0.00     0.203 HD
HETATM   13  N7  UNL     1      14.301  -2.349  -6.438  1.00  0.00    -0.022 N 
HETATM   14  C13 UNL     1      15.600  -2.261  -6.698  1.00  0.00     0.705 A 
ATOM     15  H7  UNL     1      13.637  -2.298  -7.211  1.00  0.00     0.203 HD
HETATM   16  N9  UNL     1      16.517  -2.325  -5.696  1.00  0.00    -0.020 N 
ATOM     17  H9  UNL     1      17.513  -2.255  -5.904  1.00  0.00     0.203 HD
BRANCH  11  18
HETATM   18  N4  UNL     1      12.431  -2.615  -4.921  1.00  0.00    -0.213 N 
HETATM   19  C7  UNL     1      11.414  -2.562  -5.906  1.00  0.00     0.161 C 
HETATM   20  C8  UNL     1      10.125  -3.203  -5.551  1.00  0.00     0.155 C 
HETATM   21  N5  UNL     1      10.003  -3.649  -4.206  1.00  0.00    -0.307 N 
HETATM   22  C9  UNL     1       8.695  -3.836  -3.684  1.00  0.00     0.180 C 
HETATM   23  C10 UNL     1      11.144  -3.912  -3.395  1.00  0.00     0.168 C 
HETATM   24  N6  UNL     1       7.627  -3.981  -3.265  1.00  0.00    -0.172 NA
HETATM   25  C12 UNL     1      12.080  -2.742  -3.511  1.00  0.00     0.172 C 
BRANCH  23  26
HETATM   26  C11 UNL     1      10.790  -4.226  -1.962  1.00  0.00     0.278 C 
BRANCH  26  27
HETATM   27  O2  UNL     1      11.940  -4.622  -1.283  1.00  0.00    -0.369 OA
ATOM     28  H2  UNL     1      12.522  -5.066  -1.889  1.00  0.00     0.212 HD
ENDBRANCH  26  27
BRANCH  26  29
HETATM   29  O3  UNL     1      10.305  -3.103  -1.285  1.00  0.00    -0.369 OA
ATOM     30  H3  UNL     1       9.372  -3.164  -1.117  1.00  0.00     0.212 HD
ENDBRANCH  26  29
ENDBRANCH  23  26
ENDBRANCH  11  18
BRANCH  14  31
HETATM   31  N8  UNL     1      16.022  -2.111  -7.895  1.00  0.00    -0.234 N 
ATOM     32  H82 UNL     1      15.753  -2.805  -8.592  1.00  0.00     0.174 HD
ATOM     33  H81 UNL     1      16.615  -1.320  -8.147  1.00  0.00     0.174 HD
ENDBRANCH  14  31
ENDBRANCH   1   9
TORSDOF 9
ENDMDL
MODEL 5
REMARK VINA RESULT: -7.681157890      3.427      7.913
REMARK  9 active torsions:
REMARK  status: ('A' for Active; 'I' for Inactive)
REMARK    1  A    between atoms: C2_2  and  O1_3 
REMARK    2  A    between atoms: C2_2  and  C3_5 
REMARK    3  A    between atoms: C3_5  and  N1_6 
REMARK    4  A    between atoms: N1_6  and  C5_9 
REMARK    5  A    between atoms: C6_12  and  N4_13 
REMARK    6  A    between atoms: C10_19  and  C11_20 
REMARK    7  A    between atoms: C11_20  and  O2_21 
REMARK    8  A    between atoms: C11_20  and  O3_23 
REMARK    9  A    between atoms: C13_28  and  N8_29 
ROOT
HETATM    1  N1  UNL     1      15.000  -3.177  -4.429  1.00  0.00    -0.092 N 
HETATM    2  C4  UNL     1      14.620  -2.232  -5.432  1.00  0.00     0.203 C 
HETATM    3  N2  UNL     1      14.317  -1.483  -6.259  1.00  0.00    -0.171 NA
ENDROOT
BRANCH   1   4
HETATM    4  C3  UNL     1      16.334  -3.618  -4.396  1.00  0.00     0.131 C 
BRANCH   4   5
HETATM    5  C2  UNL     1      17.205  -3.086  -3.310  1.00  0.00     0.154 C 
HETATM    6  C1  UNL     1      18.616  -2.792  -3.638  1.00  0.00     0.045 C 
BRANCH   5   7
HETATM    7  O1  UNL     1      17.075  -3.816  -2.117  1.00  0.00    -0.391 OA
ATOM      8  H1  UNL     1      17.392  -4.708  -2.201  1.00  0.00     0.210 HD
ENDBRANCH   5   7
ENDBRANCH   4   5
ENDBRANCH   1   4
BRANCH   1   9
HETATM    9  C5  UNL     1      13.975  -3.643  -3.591  1.00  0.00     0.726 A 
HETATM   10  N3  UNL     1      12.668  -3.513  -3.971  1.00  0.00    -0.020 N 
HETATM   11  C6  UNL     1      11.629  -3.891  -3.239  1.00  0.00     0.709 A 
ATOM     12  H3  UNL     1      12.479  -3.096  -4.883  1.00  0.00     0.203 HD
HETATM   13  N7  UNL     1      11.932  -4.447  -2.028  1.00  0.00    -0.022 N 
HETATM   14  C13 UNL     1      13.185  -4.595  -1.618  1.00  0.00     0.705 A 
ATOM     15  H7  UNL     1      11.172  -4.757  -1.422  1.00  0.00     0.203 HD
HETATM   16  N9  UNL     1      14.226  -4.194  -2.396  1.00  0.00    -0.020 N 
ATOM     17  H9  UNL     1      15.186  -4.313  -2.073  1.00  0.00     0.203 HD
BRANCH  11  18
HETATM   18  N4  UNL     1      10.275  -3.730  -3.645  1.00  0.00    -0.213 N 
HETATM   19  C7  UNL     1       9.139  -3.925  -2.822  1.00  0.00     0.161 C 
HETATM   20  C8  UNL     1       7.901  -3.222  -3.237  1.00  0.00     0.155 C 
HETATM   21  N5  UNL     1       7.952  -2.570  -4.500  1.00  0.00    -0.307 N 
HETATM   22  C9  UNL     1       6.722  -2.289  -5.153  1.00  0.00     0.180 C 
HETATM   23  C10 UNL     1       9.187  -2.196  -5.104  1.00  0.00     0.168 C 
HETATM   24  N6  UNL     1       5.717  -2.067  -5.680  1.00  0.00    -0.172 NA
HETATM   25  C12 UNL     1      10.111  -3.380  -5.051  1.00  0.00     0.172 C 
BRANCH  23  26
HETATM   26  C11 UNL     1       9.021  -1.658  -6.504  1.00  0.00     0.278 C 
BRANCH  26  27
HETATM   27  O2  UNL     1       8.574  -0.340  -6.438  1.00  0.00    -0.369 OA
ATOM     28  H2  UNL     1       7.679  -0.299  -6.755  1.00  0.00     0.212 HD
ENDBRANCH  26  27
BRANCH  26  29
HETATM   29  O3  UNL     1      10.233  -1.624  -7.199  1.00  0.00    -0.369 OA
ATOM     30  H3  UNL     1      10.148  -1.969  -8.080  1.00  0.00     0.212 HD
ENDBRANCH  26  29
ENDBRANCH  23  26
ENDBRANCH  11  18
BRANCH  14  31
HETATM   31  N8  UNL     1      13.447  -5.120  -0.482  1.00  0.00    -0.234 N 
ATOM     32  H82 UNL     1      13.260  -6.115  -0.355  1.00  0.00     0.174 HD
ATOM     33  H81 UNL     1      13.832  -4.559   0.279  1.00  0.00     0.174 HD
ENDBRANCH  14  31
ENDBRANCH   1   9
TORSDOF 9
ENDMDL
