MODEL 1
REMARK VINA RESULT: -7.611290880      0.000      0.000
REMARK  8 active torsions:
REMARK  status: ('A' for Active; 'I' for Inactive)
REMARK    1  A    between atoms: S1_2  and  N1_5 
REMARK    2  A    between atoms: N1_5  and  C2_7 
REMARK    3  A    between atoms: C4_11  and  O5_12 
REMARK    4  A    between atoms: O5_12  and  C5_13 
REMARK    5  A    between atoms: C7_15  and  N2_16 
REMARK    6  A    between atoms: C9_20  and  O6_21 
REMARK    7  A    between atoms: C10_23  and  N4_24 
REMARK    8  A    between atoms: C12_29  and  N5_30 
ROOT
HETATM    1  N2  UNL     1      10.276  -3.836  -2.551  1.00  0.00    -0.321 N 
ATOM      2  H2  UNL     1      10.322  -3.625  -1.555  1.00  0.00     0.172 HD
HETATM    3  C8  UNL     1       9.120  -4.446  -3.101  1.00  0.00     0.177 C 
HETATM    4  N3  UNL     1       8.177  -4.938  -3.548  1.00  0.00    -0.172 NA
ENDROOT
BRANCH   1   5
HETATM    5  C7  UNL     1      11.393  -3.515  -3.420  1.00  0.00     0.125 C 
HETATM    6  C6  UNL     1      12.291  -2.478  -2.782  1.00  0.00     0.062 C 
HETATM    7  C5  UNL     1      13.748  -2.840  -3.072  1.00  0.00     0.157 C 
HETATM    8  C12 UNL     1      13.890  -3.225  -4.508  1.00  0.00     0.214 C 
HETATM    9  C11 UNL     1      13.081  -2.318  -5.425  1.00  0.00     0.070 C 
HETATM   10  C10 UNL     1      11.845  -3.082  -5.860  1.00  0.00     0.216 C 
HETATM   11  C9  UNL     1      10.855  -3.056  -4.745  1.00  0.00     0.172 C 
BRANCH   7  12
HETATM   12  O5  UNL     1      14.573  -1.761  -2.803  1.00  0.00    -0.349 OA
BRANCH  12  13
HETATM   13  C4  UNL     1      15.712  -2.079  -2.117  1.00  0.00     0.312 C 
HETATM   14  C2  UNL     1      16.613  -0.890  -2.058  1.00  0.00     0.288 C 
HETATM   15  O3  UNL     1      16.087  -0.159  -0.981  1.00  0.00    -0.337 OA
HETATM   16  C3  UNL     1      15.843  -1.158  -0.068  1.00  0.00     0.344 C 
HETATM   17  O4  UNL     1      15.426  -2.282  -0.735  1.00  0.00    -0.333 OA
BRANCH  14  18
HETATM   18  N1  UNL     1      17.996  -1.242  -1.819  1.00  0.00    -0.287 N 
ATOM     19  H1  UNL     1      18.419  -1.451  -0.915  1.00  0.00     0.175 HD
BRANCH  18  20
HETATM   20  S1  UNL     1      18.798  -1.242  -3.343  1.00  0.00     0.224 S 
HETATM   21  C1  UNL     1      17.721  -0.471  -4.522  1.00  0.00     0.186 C 
HETATM   22  O1  UNL     1      20.130  -0.560  -3.276  1.00  0.00    -0.206 OA
HETATM   23  O2  UNL     1      19.049  -2.652  -3.792  1.00  0.00    -0.206 OA
ENDBRANCH  18  20
ENDBRANCH  14  18
ENDBRANCH  12  13
ENDBRANCH   7  12
BRANCH   8  24
HETATM   24  N5  UNL     1      15.264  -3.134  -4.948  1.00  0.00    -0.072 N 
ATOM     25  H53 UNL     1      15.363  -3.410  -5.925  1.00  0.00     0.274 HD
ATOM     26  H52 UNL     1      15.566  -2.162  -5.027  1.00  0.00     0.274 HD
ATOM     27  H51 UNL     1      15.887  -3.670  -4.343  1.00  0.00     0.274 HD
ENDBRANCH   8  24
BRANCH  10  28
HETATM   28  N4  UNL     1      12.172  -4.419  -6.262  1.00  0.00    -0.072 N 
ATOM     29  H43 UNL     1      13.180  -4.539  -6.358  1.00  0.00     0.274 HD
ATOM     30  H42 UNL     1      12.000  -5.084  -5.508  1.00  0.00     0.274 HD
ATOM     31  H41 UNL     1      11.685  -4.694  -7.115  1.00  0.00     0.274 HD
ENDBRANCH  10  28
BRANCH  11  32
HETATM   32  O6  UNL     1      10.390  -1.742  -4.572  1.00  0.00    -0.391 OA
ATOM     33  H6  UNL     1      10.211  -1.391  -5.437  1.00  0.00     0.210 HD
ENDBRANCH  11  32
ENDBRANCH   1   5
TORSDOF 8
ENDMDL
MODEL 2
REMARK VINA RESULT: -7.594895573      3.200      6.879
REMARK  8 active torsions:
REMARK  status: ('A' for Active; 'I' for Inactive)
REMARK    1  A    between atoms: S1_2  and  N1_5 
REMARK    2  A    between atoms: N1_5  and  C2_7 
REMARK    3  A    between atoms: C4_11  and  O5_12 
REMARK    4  A    between atoms: O5_12  and  C5_13 
REMARK    5  A    between atoms: C7_15  and  N2_16 
REMARK    6  A    between atoms: C9_20  and  O6_21 
REMARK    7  A    between atoms: C10_23  and  N4_24 
REMARK    8  A    between atoms: C12_29  and  N5_30 
ROOT
HETATM    1  N2  UNL     1      15.262  -1.931  -1.109  1.00  0.00    -0.321 N 
ATOM      2  H2  UNL     1      14.760  -2.380  -0.344  1.00  0.00     0.172 HD
HETATM    3  C8  UNL     1      16.066  -0.789  -0.865  1.00  0.00     0.177 C 
HETATM    4  N3  UNL     1      16.723   0.139  -0.663  1.00  0.00    -0.172 NA
ENDROOT
BRANCH   1   5
HETATM    5  C7  UNL     1      15.162  -2.455  -2.458  1.00  0.00     0.125 C 
HETATM    6  C6  UNL     1      13.870  -3.221  -2.644  1.00  0.00     0.062 C 
HETATM    7  C5  UNL     1      13.306  -2.907  -4.030  1.00  0.00     0.157 C 
HETATM    8  C12 UNL     1      14.404  -2.963  -5.041  1.00  0.00     0.214 C 
HETATM    9  C11 UNL     1      15.348  -4.132  -4.794  1.00  0.00     0.070 C 
HETATM   10  C10 UNL     1      16.620  -3.578  -4.178  1.00  0.00     0.216 C 
HETATM   11  C9  UNL     1      16.367  -3.308  -2.734  1.00  0.00     0.172 C 
BRANCH   7  12
HETATM   12  O5  UNL     1      12.326  -3.827  -4.368  1.00  0.00    -0.349 OA
BRANCH  12  13
HETATM   13  C4  UNL     1      11.083  -3.286  -4.542  1.00  0.00     0.312 C 
HETATM   14  C2  UNL     1      10.254  -4.191  -5.393  1.00  0.00     0.288 C 
HETATM   15  O3  UNL     1       9.787  -5.140  -4.468  1.00  0.00    -0.337 OA
HETATM   16  C3  UNL     1       9.451  -4.337  -3.404  1.00  0.00     0.344 C 
HETATM   17  O4  UNL     1      10.350  -3.304  -3.320  1.00  0.00    -0.333 OA
BRANCH  14  18
HETATM   18  N1  UNL     1       9.153  -3.510  -6.038  1.00  0.00    -0.287 N 
ATOM     19  H1  UNL     1       8.161  -3.709  -5.909  1.00  0.00     0.175 HD
BRANCH  18  20
HETATM   20  S1  UNL     1       9.825  -2.301  -7.063  1.00  0.00     0.224 S 
HETATM   21  C1  UNL     1       9.021  -2.420  -8.639  1.00  0.00     0.186 C 
HETATM   22  O1  UNL     1       9.696  -0.930  -6.473  1.00  0.00    -0.206 OA
HETATM   23  O2  UNL     1      11.291  -2.555  -7.267  1.00  0.00    -0.206 OA
ENDBRANCH  18  20
ENDBRANCH  14  18
ENDBRANCH  12  13
ENDBRANCH   7  12
BRANCH   8  24
HETATM   24  N5  UNL     1      13.885  -3.131  -6.380  1.00  0.00    -0.072 N 
ATOM     25  H53 UNL     1      14.283  -2.447  -7.023  1.00  0.00     0.274 HD
ATOM     26  H52 UNL     1      14.241  -3.982  -6.814  1.00  0.00     0.274 HD
ATOM     27  H51 UNL     1      12.864  -3.104  -6.391  1.00  0.00     0.274 HD
ENDBRANCH   8  24
BRANCH  10  28
HETATM   28  N4  UNL     1      17.073  -2.411  -4.877  1.00  0.00    -0.072 N 
ATOM     29  H43 UNL     1      16.334  -2.022  -5.462  1.00  0.00     0.274 HD
ATOM     30  H42 UNL     1      17.205  -1.627  -4.238  1.00  0.00     0.274 HD
ATOM     31  H41 UNL     1      17.918  -2.591  -5.420  1.00  0.00     0.274 HD
ENDBRANCH  10  28
BRANCH  11  32
HETATM   32  O6  UNL     1      16.177  -4.527  -2.063  1.00  0.00    -0.391 OA
ATOM     33  H6  UNL     1      17.037  -4.889  -1.888  1.00  0.00     0.210 HD
ENDBRANCH  11  32
ENDBRANCH   1   5
TORSDOF 8
ENDMDL
MODEL 3
REMARK VINA RESULT: -7.516747472      2.611      6.759
REMARK  8 active torsions:
REMARK  status: ('A' for Active; 'I' for Inactive)
REMARK    1  A    between atoms: S1_2  and  N1_5 
REMARK    2  A    between atoms: N1_5  and  C2_7 
REMARK    3  A    between atoms: C4_11  and  O5_12 
REMARK    4  A    between atoms: O5_12  and  C5_13 
REMARK    5  A    between atoms: C7_15  and  N2_16 
REMARK    6  A    between atoms: C9_20  and  O6_21 
REMARK    7  A    between atoms: C10_23  and  N4_24 
REMARK    8  A    between atoms: C12_29  and  N5_30 
ROOT
HETATM    1  N2  UNL     1      17.981   0.720  -1.190  1.00  0.00    -0.321 N 
ATOM      2  H2  UNL     1      18.469   1.615  -1.213  1.00  0.00     0.172 HD
HETATM    3  C8  UNL     1      17.387   0.259   0.011  1.00  0.00     0.177 C 
HETATM    4  N3  UNL     1      16.899  -0.113   0.989  1.00  0.00    -0.172 NA
ENDROOT
BRANCH   1   5
HETATM    5  C7  UNL     1      17.891  -0.095  -2.388  1.00  0.00     0.125 C 
HETATM    6  C6  UNL     1      17.169  -1.393  -2.103  1.00  0.00     0.062 C 
HETATM    7  C5  UNL     1      16.254  -1.718  -3.285  1.00  0.00     0.157 C 
HETATM    8  C12 UNL     1      16.993  -1.494  -4.565  1.00  0.00     0.214 C 
HETATM    9  C11 UNL     1      18.430  -1.991  -4.488  1.00  0.00     0.070 C 
HETATM   10  C10 UNL     1      19.332  -0.781  -4.337  1.00  0.00     0.216 C 
HETATM   11  C9  UNL     1      19.277  -0.325  -2.919  1.00  0.00     0.172 C 
BRANCH   7  12
HETATM   12  O5  UNL     1      15.840  -3.039  -3.221  1.00  0.00    -0.349 OA
BRANCH  12  13
HETATM   13  C4  UNL     1      14.522  -3.200  -2.895  1.00  0.00     0.312 C 
HETATM   14  C2  UNL     1      13.884  -4.166  -3.838  1.00  0.00     0.288 C 
HETATM   15  O3  UNL     1      14.243  -5.410  -3.292  1.00  0.00    -0.337 OA
HETATM   16  C3  UNL     1      14.041  -5.185  -1.951  1.00  0.00     0.344 C 
HETATM   17  O4  UNL     1      14.391  -3.892  -1.656  1.00  0.00    -0.333 OA
BRANCH  14  18
HETATM   18  N1  UNL     1      12.446  -4.024  -3.906  1.00  0.00    -0.287 N 
ATOM     19  H1  UNL     1      11.759  -4.598  -3.417  1.00  0.00     0.175 HD
BRANCH  18  20
HETATM   20  S1  UNL     1      12.108  -2.709  -4.963  1.00  0.00     0.224 S 
HETATM   21  C1  UNL     1      10.759  -3.188  -6.009  1.00  0.00     0.186 C 
HETATM   22  O1  UNL     1      11.809  -1.447  -4.211  1.00  0.00    -0.206 OA
HETATM   23  O2  UNL     1      13.298  -2.428  -5.834  1.00  0.00    -0.206 OA
ENDBRANCH  18  20
ENDBRANCH  14  18
ENDBRANCH  12  13
ENDBRANCH   7  12
BRANCH   8  24
HETATM   24  N5  UNL     1      16.372  -2.197  -5.665  1.00  0.00    -0.072 N 
ATOM     25  H53 UNL     1      16.921  -2.109  -6.521  1.00  0.00     0.274 HD
ATOM     26  H52 UNL     1      16.431  -3.208  -5.542  1.00  0.00     0.274 HD
ATOM     27  H51 UNL     1      15.408  -1.893  -5.806  1.00  0.00     0.274 HD
ENDBRANCH   8  24
BRANCH  10  28
HETATM   28  N4  UNL     1      18.969   0.259  -5.255  1.00  0.00    -0.072 N 
ATOM     29  H43 UNL     1      19.174   1.180  -4.867  1.00  0.00     0.274 HD
ATOM     30  H42 UNL     1      19.597   0.277  -6.058  1.00  0.00     0.274 HD
ATOM     31  H41 UNL     1      17.995   0.192  -5.548  1.00  0.00     0.274 HD
ENDBRANCH  10  28
BRANCH  11  32
HETATM   32  O6  UNL     1      19.881  -1.294  -2.099  1.00  0.00    -0.391 OA
ATOM     33  H6  UNL     1      20.233  -1.965  -2.671  1.00  0.00     0.210 HD
ENDBRANCH  11  32
ENDBRANCH   1   5
TORSDOF 8
ENDMDL
MODEL 4
REMARK VINA RESULT: -7.413123869      2.356      3.831
REMARK  8 active torsions:
REMARK  status: ('A' for Active; 'I' for Inactive)
REMARK    1  A    between atoms: S1_2  and  N1_5 
REMARK    2  A    between atoms: N1_5  and  C2_7 
REMARK    3  A    between atoms: C4_11  and  O5_12 
REMARK    4  A    between atoms: O5_12  and  C5_13 
REMARK    5  A    between atoms: C7_15  and  N2_16 
REMARK    6  A    between atoms: C9_20  and  O6_21 
REMARK    7  A    between atoms: C10_23  and  N4_24 
REMARK    8  A    between atoms: C12_29  and  N5_30 
ROOT
HETATM    1  N2  UNL     1       9.894  -2.259  -6.486  1.00  0.00    -0.321 N 
ATOM      2  H2  UNL     1       8.881  -2.365  -6.445  1.00  0.00     0.172 HD
HETATM    3  C8  UNL     1      10.510  -1.721  -7.643  1.00  0.00     0.177 C 
HETATM    4  N3  UNL     1      11.011  -1.279  -8.585  1.00  0.00    -0.172 NA
ENDROOT
BRANCH   1   5
HETATM    5  C7  UNL     1      10.718  -2.657  -5.360  1.00  0.00     0.125 C 
HETATM    6  C6  UNL     1      12.114  -3.021  -5.816  1.00  0.00     0.062 C 
HETATM    7  C5  UNL     1      13.121  -2.485  -4.797  1.00  0.00     0.157 C 
HETATM    8  C12 UNL     1      12.642  -2.787  -3.415  1.00  0.00     0.214 C 
HETATM    9  C11 UNL     1      12.046  -4.185  -3.310  1.00  0.00     0.070 C 
HETATM   10  C10 UNL     1      10.537  -4.043  -3.264  1.00  0.00     0.216 C 
HETATM   11  C9  UNL     1      10.043  -3.795  -4.649  1.00  0.00     0.172 C 
BRANCH   7  12
HETATM   12  O5  UNL     1      14.359  -3.075  -4.992  1.00  0.00    -0.349 OA
BRANCH  12  13
HETATM   13  C4  UNL     1      15.354  -2.198  -5.322  1.00  0.00     0.312 C 
HETATM   14  C2  UNL     1      16.587  -2.517  -4.543  1.00  0.00     0.288 C 
HETATM   15  O3  UNL     1      17.162  -3.558  -5.290  1.00  0.00    -0.337 OA
HETATM   16  C3  UNL     1      16.996  -3.094  -6.573  1.00  0.00     0.344 C 
HETATM   17  O4  UNL     1      15.802  -2.424  -6.657  1.00  0.00    -0.333 OA
BRANCH  14  18
HETATM   18  N1  UNL     1      17.493  -1.395  -4.434  1.00  0.00    -0.287 N 
ATOM     19  H1  UNL     1      17.954  -0.913  -5.206  1.00  0.00     0.175 HD
BRANCH  18  20
HETATM   20  S1  UNL     1      17.653  -1.022  -2.761  1.00  0.00     0.224 S 
HETATM   21  C1  UNL     1      19.369  -1.156  -2.337  1.00  0.00     0.186 C 
HETATM   22  O1  UNL     1      17.102   0.333  -2.433  1.00  0.00    -0.206 OA
HETATM   23  O2  UNL     1      16.889  -2.017  -1.936  1.00  0.00    -0.206 OA
ENDBRANCH  18  20
ENDBRANCH  14  18
ENDBRANCH  12  13
ENDBRANCH   7  12
BRANCH   8  24
HETATM   24  N5  UNL     1      13.721  -2.728  -2.455  1.00  0.00    -0.072 N 
ATOM     25  H53 UNL     1      14.076  -3.659  -2.234  1.00  0.00     0.274 HD
ATOM     26  H52 UNL     1      14.566  -2.331  -2.868  1.00  0.00     0.274 HD
ATOM     27  H51 UNL     1      13.445  -2.224  -1.612  1.00  0.00     0.274 HD
ENDBRANCH   8  24
BRANCH  10  28
HETATM   28  N4  UNL     1      10.136  -3.011  -2.353  1.00  0.00    -0.072 N 
ATOM     29  H43 UNL     1      10.946  -2.575  -1.912  1.00  0.00     0.274 HD
ATOM     30  H42 UNL     1       9.767  -2.201  -2.852  1.00  0.00     0.274 HD
ATOM     31  H41 UNL     1       9.473  -3.349  -1.656  1.00  0.00     0.274 HD
ENDBRANCH  10  28
BRANCH  11  32
HETATM   32  O6  UNL     1      10.244  -4.949  -5.424  1.00  0.00    -0.391 OA
ATOM     33  H6  UNL     1      10.007  -5.694  -4.886  1.00  0.00     0.210 HD
ENDBRANCH  11  32
ENDBRANCH   1   5
TORSDOF 8
ENDMDL
MODEL 5
REMARK VINA RESULT: -7.413044933      2.670      6.818
REMARK  8 active torsions:
REMARK  status: ('A' for Active; 'I' for Inactive)
REMARK    1  A    between atoms: S1_2  and  N1_5 
REMARK    2  A    between atoms: N1_5  and  C2_7 
REMARK    3  A    between atoms: C4_11  and  O5_12 
REMARK    4  A    between atoms: O5_12  and  C5_13 
REMARK    5  A    between atoms: C7_15  and  N2_16 
REMARK    6  A    between atoms: C9_20  and  O6_21 
REMARK    7  A    between atoms: C10_23  and  N4_24 
REMARK    8  A    between atoms: C12_29  and  N5_30 
ROOT
HETATM    1  N2  UNL     1      17.764   0.584  -1.297  1.00  0.00    -0.321 N 
ATOM      2  H2  UNL     1      18.191   1.505  -1.391  1.00  0.00     0.172 HD
HETATM    3  C8  UNL     1      17.289   0.141  -0.038  1.00  0.00     0.177 C 
HETATM    4  N3  UNL     1      16.900  -0.217   0.988  1.00  0.00    -0.172 NA
ENDROOT
BRANCH   1   5
HETATM    5  C7  UNL     1      17.636  -0.284  -2.453  1.00  0.00     0.125 C 
HETATM    6  C6  UNL     1      16.946  -1.578  -2.081  1.00  0.00     0.062 C 
HETATM    7  C5  UNL     1      15.988  -1.968  -3.208  1.00  0.00     0.157 C 
HETATM    8  C12 UNL     1      16.670  -1.792  -4.525  1.00  0.00     0.214 C 
HETATM    9  C11 UNL     1      18.116  -2.267  -4.487  1.00  0.00     0.070 C 
HETATM   10  C10 UNL     1      19.005  -1.039  -4.428  1.00  0.00     0.216 C 
HETATM   11  C9  UNL     1      19.003  -0.520  -3.030  1.00  0.00     0.172 C 
BRANCH   7  12
HETATM   12  O5  UNL     1      15.597  -3.290  -3.067  1.00  0.00    -0.349 OA
BRANCH  12  13
HETATM   13  C4  UNL     1      14.476  -3.467  -2.305  1.00  0.00     0.312 C 
HETATM   14  C2  UNL     1      13.427  -4.165  -3.107  1.00  0.00     0.288 C 
HETATM   15  O3  UNL     1      13.801  -5.514  -2.993  1.00  0.00    -0.337 OA
HETATM   16  C3  UNL     1      14.125  -5.594  -1.659  1.00  0.00     0.344 C 
HETATM   17  O4  UNL     1      14.715  -4.418  -1.271  1.00  0.00    -0.333 OA
BRANCH  14  18
HETATM   18  N1  UNL     1      12.091  -3.953  -2.596  1.00  0.00    -0.287 N 
ATOM     19  H1  UNL     1      11.730  -4.271  -1.696  1.00  0.00     0.175 HD
BRANCH  18  20
HETATM   20  S1  UNL     1      11.220  -3.064  -3.785  1.00  0.00     0.224 S 
HETATM   21  C1  UNL     1      11.950  -3.410  -5.363  1.00  0.00     0.186 C 
HETATM   22  O1  UNL     1       9.757  -3.384  -3.765  1.00  0.00    -0.206 OA
HETATM   23  O2  UNL     1      11.350  -1.591  -3.523  1.00  0.00    -0.206 OA
ENDBRANCH  18  20
ENDBRANCH  14  18
ENDBRANCH  12  13
ENDBRANCH   7  12
BRANCH   8  24
HETATM   24  N5  UNL     1      16.015  -2.553  -5.566  1.00  0.00    -0.072 N 
ATOM     25  H53 UNL     1      15.867  -3.522  -5.283  1.00  0.00     0.274 HD
ATOM     26  H52 UNL     1      15.041  -2.270  -5.678  1.00  0.00     0.274 HD
ATOM     27  H51 UNL     1      16.525  -2.495  -6.448  1.00  0.00     0.274 HD
ENDBRANCH   8  24
BRANCH  10  28
HETATM   28  N4  UNL     1      18.589  -0.046  -5.375  1.00  0.00    -0.072 N 
ATOM     29  H43 UNL     1      17.732   0.417  -5.071  1.00  0.00     0.274 HD
ATOM     30  H42 UNL     1      19.219   0.756  -5.368  1.00  0.00     0.274 HD
ATOM     31  H41 UNL     1      18.489  -0.429  -6.315  1.00  0.00     0.274 HD
ENDBRANCH  10  28
BRANCH  11  32
HETATM   32  O6  UNL     1      19.654  -1.443  -2.194  1.00  0.00    -0.391 OA
ATOM     33  H6  UNL     1      20.333  -1.859  -2.711  1.00  0.00     0.210 HD
ENDBRANCH  11  32
ENDBRANCH   1   5
TORSDOF 8
ENDMDL
