MODEL 1
REMARK VINA RESULT: -8.023432786      0.000      0.000
REMARK  11 active torsions:
REMARK  status: ('A' for Active; 'I' for Inactive)
REMARK    1  A    between atoms: N1_1  and  N2_4 
REMARK    2  A    between atoms: N2_4  and  C1_5 
REMARK    3  A    between atoms: C1_5  and  O1_6 
REMARK    4  A    between atoms: O1_6  and  C2_7 
REMARK    5  A    between atoms: C4_9  and  O2_10 
REMARK    6  A    between atoms: O2_10  and  C5_11 
REMARK    7  A    between atoms: C6_12  and  N3_13 
REMARK    8  A    between atoms: C8_19  and  C9_20 
REMARK    9  A    between atoms: C11_27  and  O5_28 
REMARK   10  A    between atoms: C12_30  and  N6_31 
REMARK   11  A    between atoms: C14_36  and  N7_37 
ROOT
HETATM    1  C2  UNL     1      10.981  -2.644  -3.978  1.00  0.00     0.163 C 
HETATM    2  C3  UNL     1      12.298  -2.090  -3.588  1.00  0.00     0.068 C 
HETATM    3  C4  UNL     1      13.492  -2.750  -4.202  1.00  0.00     0.155 C 
HETATM    4  C12 UNL     1      13.285  -3.359  -5.531  1.00  0.00     0.214 C 
HETATM    5  C13 UNL     1      11.915  -3.843  -5.848  1.00  0.00     0.070 C 
HETATM    6  C14 UNL     1      10.949  -2.729  -5.504  1.00  0.00     0.215 C 
ENDROOT
BRANCH   3   7
HETATM    7  O2  UNL     1      14.083  -3.664  -3.330  1.00  0.00    -0.373 OA
BRANCH   7   8
HETATM    8  C5  UNL     1      15.435  -3.365  -3.075  1.00  0.00     0.190 C 
HETATM    9  C6  UNL     1      16.293  -3.576  -4.276  1.00  0.00     0.238 C 
HETATM   10  C7  UNL     1      16.855  -2.326  -4.887  1.00  0.00     0.204 C 
HETATM   11  O3  UNL     1      18.150  -2.136  -4.398  1.00  0.00    -0.369 OA
HETATM   12  C8  UNL     1      18.148  -1.808  -3.051  1.00  0.00     0.257 C 
HETATM   13  C10 UNL     1      16.803  -1.305  -2.707  1.00  0.00     0.193 C 
HETATM   14  O4  UNL     1      16.743  -0.085  -2.555  1.00  0.00    -0.292 OA
HETATM   15  C11 UNL     1      15.508  -1.973  -2.508  1.00  0.00     0.221 C 
BRANCH   9  16
HETATM   16  N3  UNL     1      17.429  -4.470  -4.002  1.00  0.00    -0.070 N 
ATOM     17  H33 UNL     1      17.608  -4.543  -3.001  1.00  0.00     0.274 HD
ATOM     18  H32 UNL     1      17.186  -5.442  -4.195  1.00  0.00     0.274 HD
ATOM     19  H31 UNL     1      18.272  -4.195  -4.508  1.00  0.00     0.274 HD
ENDBRANCH   9  16
BRANCH  12  20
HETATM   20  C9  UNL     1      19.167  -0.753  -2.826  1.00  0.00     0.123 C 
HETATM   21  N4  UNL     1      19.463  -0.347  -1.645  1.00  0.00    -0.389 N 
ATOM     22  H42 UNL     1      18.977  -0.769  -0.854  1.00  0.00     0.157 HD
ATOM     23  H41 UNL     1      20.164   0.378  -1.490  1.00  0.00     0.157 HD
HETATM   24  N5  UNL     1      19.845  -0.164  -3.929  1.00  0.00    -0.085 NA
ENDBRANCH  12  20
BRANCH  15  25
HETATM   25  O5  UNL     1      15.302  -2.050  -1.121  1.00  0.00    -0.385 OA
ATOM     26  H5  UNL     1      15.911  -1.459  -0.696  1.00  0.00     0.210 HD
ENDBRANCH  15  25
ENDBRANCH   7   8
ENDBRANCH   3   7
BRANCH   4  27
HETATM   27  N6  UNL     1      13.687  -2.433  -6.600  1.00  0.00    -0.072 N 
ATOM     28  H63 UNL     1      13.449  -1.468  -6.371  1.00  0.00     0.274 HD
ATOM     29  H62 UNL     1      14.700  -2.334  -6.652  1.00  0.00     0.274 HD
ATOM     30  H61 UNL     1      13.289  -2.717  -7.496  1.00  0.00     0.274 HD
ENDBRANCH   4  27
BRANCH   1  31
HETATM   31  O1  UNL     1      10.807  -3.926  -3.411  1.00  0.00    -0.326 OA
BRANCH  31  32
HETATM   32  C1  UNL     1       9.732  -4.138  -2.562  1.00  0.00     0.346 C 
BRANCH  32  33
HETATM   33  N2  UNL     1       8.610  -4.399  -3.100  1.00  0.00    -0.321 NA
BRANCH  33  34
HETATM   34  N1  UNL     1       7.507  -4.664  -3.576  1.00  0.00    -0.279 N 
ATOM     35  H12 UNL     1       8.089  -5.477  -3.372  1.00  0.00     0.191 HD
ATOM     36  H11 UNL     1       6.584  -4.844  -3.973  1.00  0.00     0.191 HD
ENDBRANCH  33  34
ENDBRANCH  32  33
ENDBRANCH  31  32
ENDBRANCH   1  31
BRANCH   6  37
HETATM   37  N7  UNL     1       9.623  -2.960  -6.001  1.00  0.00    -0.072 N 
ATOM     38  H73 UNL     1       9.629  -3.140  -7.005  1.00  0.00     0.274 HD
ATOM     39  H72 UNL     1       9.258  -3.856  -5.679  1.00  0.00     0.274 HD
ATOM     40  H71 UNL     1       8.989  -2.196  -5.766  1.00  0.00     0.274 HD
ENDBRANCH   6  37
TORSDOF 11
ENDMDL
MODEL 2
REMARK VINA RESULT: -7.905326785      2.088      7.280
REMARK  11 active torsions:
REMARK  status: ('A' for Active; 'I' for Inactive)
REMARK    1  A    between atoms: N1_1  and  N2_4 
REMARK    2  A    between atoms: N2_4  and  C1_5 
REMARK    3  A    between atoms: C1_5  and  O1_6 
REMARK    4  A    between atoms: O1_6  and  C2_7 
REMARK    5  A    between atoms: C4_9  and  O2_10 
REMARK    6  A    between atoms: O2_10  and  C5_11 
REMARK    7  A    between atoms: C6_12  and  N3_13 
REMARK    8  A    between atoms: C8_19  and  C9_20 
REMARK    9  A    between atoms: C11_27  and  O5_28 
REMARK   10  A    between atoms: C12_30  and  N6_31 
REMARK   11  A    between atoms: C14_36  and  N7_37 
ROOT
HETATM    1  C2  UNL     1      17.544  -1.170  -1.830  1.00  0.00     0.163 C 
HETATM    2  C3  UNL     1      16.626  -2.278  -2.177  1.00  0.00     0.068 C 
HETATM    3  C4  UNL     1      16.121  -2.288  -3.586  1.00  0.00     0.155 C 
HETATM    4  C12 UNL     1      17.011  -1.691  -4.600  1.00  0.00     0.214 C 
HETATM    5  C13 UNL     1      17.933  -0.617  -4.143  1.00  0.00     0.070 C 
HETATM    6  C14 UNL     1      18.635  -1.121  -2.899  1.00  0.00     0.215 C 
ENDROOT
BRANCH   3   7
HETATM    7  O2  UNL     1      14.838  -1.748  -3.679  1.00  0.00    -0.373 OA
BRANCH   7   8
HETATM    8  C5  UNL     1      13.897  -2.679  -4.159  1.00  0.00     0.190 C 
HETATM    9  C6  UNL     1      13.506  -3.671  -3.117  1.00  0.00     0.238 C 
HETATM   10  C7  UNL     1      12.096  -3.553  -2.619  1.00  0.00     0.204 C 
HETATM   11  O3  UNL     1      11.301  -4.462  -3.320  1.00  0.00    -0.369 OA
HETATM   12  C8  UNL     1      11.155  -4.102  -4.650  1.00  0.00     0.257 C 
HETATM   13  C10 UNL     1      11.473  -2.664  -4.769  1.00  0.00     0.193 C 
HETATM   14  O4  UNL     1      10.490  -1.939  -4.919  1.00  0.00    -0.292 OA
HETATM   15  C11 UNL     1      12.739  -1.916  -4.743  1.00  0.00     0.221 C 
BRANCH   9  16
HETATM   16  N3  UNL     1      13.689  -5.060  -3.569  1.00  0.00    -0.070 N 
ATOM     17  H33 UNL     1      13.921  -5.097  -4.562  1.00  0.00     0.274 HD
ATOM     18  H32 UNL     1      14.546  -5.461  -3.187  1.00  0.00     0.274 HD
ATOM     19  H31 UNL     1      12.882  -5.647  -3.357  1.00  0.00     0.274 HD
ENDBRANCH   9  16
BRANCH  12  20
HETATM   20  C9  UNL     1       9.749  -4.354  -5.051  1.00  0.00     0.123 C 
HETATM   21  N4  UNL     1       9.342  -4.131  -6.248  1.00  0.00    -0.389 N 
ATOM     22  H42 UNL     1      10.014  -3.772  -6.927  1.00  0.00     0.157 HD
ATOM     23  H41 UNL     1       8.375  -4.305  -6.524  1.00  0.00     0.157 HD
HETATM   24  N5  UNL     1       8.812  -4.855  -4.105  1.00  0.00    -0.085 NA
ENDBRANCH  12  20
BRANCH  15  25
HETATM   25  O5  UNL     1      13.047  -1.597  -6.075  1.00  0.00    -0.385 OA
ATOM     26  H5  UNL     1      13.568  -0.803  -6.078  1.00  0.00     0.210 HD
ENDBRANCH  15  25
ENDBRANCH   7   8
ENDBRANCH   3   7
BRANCH   4  27
HETATM   27  N6  UNL     1      17.826  -2.724  -5.257  1.00  0.00    -0.072 N 
ATOM     28  H63 UNL     1      18.688  -2.906  -4.744  1.00  0.00     0.274 HD
ATOM     29  H62 UNL     1      17.401  -3.647  -5.175  1.00  0.00     0.274 HD
ATOM     30  H61 UNL     1      18.010  -2.478  -6.230  1.00  0.00     0.274 HD
ENDBRANCH   4  27
BRANCH   1  31
HETATM   31  O1  UNL     1      16.838   0.052  -1.791  1.00  0.00    -0.326 OA
BRANCH  31  32
HETATM   32  C1  UNL     1      16.766   0.743  -0.591  1.00  0.00     0.346 C 
BRANCH  32  33
HETATM   33  N2  UNL     1      16.374   0.093   0.429  1.00  0.00    -0.321 NA
BRANCH  33  34
HETATM   34  N1  UNL     1      16.013  -0.577   1.396  1.00  0.00    -0.279 N 
ATOM     35  H12 UNL     1      16.500  -1.105   0.671  1.00  0.00     0.191 HD
ATOM     36  H11 UNL     1      15.698  -1.098   2.215  1.00  0.00     0.191 HD
ENDBRANCH  33  34
ENDBRANCH  32  33
ENDBRANCH  31  32
ENDBRANCH   1  31
BRANCH   6  37
HETATM   37  N7  UNL     1      19.739  -0.295  -2.502  1.00  0.00    -0.072 N 
ATOM     38  H73 UNL     1      19.478   0.691  -2.485  1.00  0.00     0.274 HD
ATOM     39  H72 UNL     1      19.959  -0.420  -1.514  1.00  0.00     0.274 HD
ATOM     40  H71 UNL     1      20.561  -0.449  -3.086  1.00  0.00     0.274 HD
ENDBRANCH   6  37
TORSDOF 11
ENDMDL
MODEL 3
REMARK VINA RESULT: -7.775969897      1.847      7.574
REMARK  11 active torsions:
REMARK  status: ('A' for Active; 'I' for Inactive)
REMARK    1  A    between atoms: N1_1  and  N2_4 
REMARK    2  A    between atoms: N2_4  and  C1_5 
REMARK    3  A    between atoms: C1_5  and  O1_6 
REMARK    4  A    between atoms: O1_6  and  C2_7 
REMARK    5  A    between atoms: C4_9  and  O2_10 
REMARK    6  A    between atoms: O2_10  and  C5_11 
REMARK    7  A    between atoms: C6_12  and  N3_13 
REMARK    8  A    between atoms: C8_19  and  C9_20 
REMARK    9  A    between atoms: C11_27  and  O5_28 
REMARK   10  A    between atoms: C12_30  and  N6_31 
REMARK   11  A    between atoms: C14_36  and  N7_37 
ROOT
HETATM    1  C2  UNL     1      17.913  -1.385  -2.364  1.00  0.00     0.163 C 
HETATM    2  C3  UNL     1      16.984  -2.476  -2.739  1.00  0.00     0.068 C 
HETATM    3  C4  UNL     1      16.276  -2.309  -4.046  1.00  0.00     0.155 C 
HETATM    4  C12 UNL     1      16.988  -1.528  -5.076  1.00  0.00     0.214 C 
HETATM    5  C13 UNL     1      17.937  -0.486  -4.599  1.00  0.00     0.070 C 
HETATM    6  C14 UNL     1      18.831  -1.128  -3.559  1.00  0.00     0.215 C 
ENDROOT
BRANCH   3   7
HETATM    7  O2  UNL     1      14.979  -1.826  -3.873  1.00  0.00    -0.373 OA
BRANCH   7   8
HETATM    8  C5  UNL     1      14.002  -2.750  -4.290  1.00  0.00     0.190 C 
HETATM    9  C6  UNL     1      13.609  -3.685  -3.197  1.00  0.00     0.238 C 
HETATM   10  C7  UNL     1      12.216  -3.506  -2.672  1.00  0.00     0.204 C 
HETATM   11  O3  UNL     1      11.379  -4.422  -3.314  1.00  0.00    -0.369 OA
HETATM   12  C8  UNL     1      11.211  -4.114  -4.655  1.00  0.00     0.257 C 
HETATM   13  C10 UNL     1      11.565  -2.693  -4.844  1.00  0.00     0.193 C 
HETATM   14  O4  UNL     1      10.599  -1.948  -5.003  1.00  0.00    -0.292 OA
HETATM   15  C11 UNL     1      12.851  -1.980  -4.879  1.00  0.00     0.221 C 
BRANCH   9  16
HETATM   16  N3  UNL     1      13.744  -5.096  -3.591  1.00  0.00    -0.070 N 
ATOM     17  H33 UNL     1      14.567  -5.521  -3.165  1.00  0.00     0.274 HD
ATOM     18  H32 UNL     1      13.021  -5.670  -3.156  1.00  0.00     0.274 HD
ATOM     19  H31 UNL     1      13.749  -5.218  -4.605  1.00  0.00     0.274 HD
ENDBRANCH   9  16
BRANCH  12  20
HETATM   20  C9  UNL     1       9.789  -4.344  -5.013  1.00  0.00     0.123 C 
HETATM   21  N4  UNL     1       9.357  -4.147  -6.205  1.00  0.00    -0.389 N 
ATOM     22  H42 UNL     1      10.019  -3.825  -6.911  1.00  0.00     0.157 HD
ATOM     23  H41 UNL     1       8.379  -4.305  -6.451  1.00  0.00     0.157 HD
HETATM   24  N5  UNL     1       8.866  -4.794  -4.028  1.00  0.00    -0.085 NA
ENDBRANCH  12  20
BRANCH  15  25
HETATM   25  O5  UNL     1      13.135  -1.728  -6.231  1.00  0.00    -0.385 OA
ATOM     26  H5  UNL     1      13.809  -2.335  -6.512  1.00  0.00     0.210 HD
ENDBRANCH  15  25
ENDBRANCH   7   8
ENDBRANCH   3   7
BRANCH   4  27
HETATM   27  N6  UNL     1      17.725  -2.413  -5.990  1.00  0.00    -0.072 N 
ATOM     28  H63 UNL     1      18.670  -2.073  -6.164  1.00  0.00     0.274 HD
ATOM     29  H62 UNL     1      17.961  -3.300  -5.546  1.00  0.00     0.274 HD
ATOM     30  H61 UNL     1      17.207  -2.552  -6.857  1.00  0.00     0.274 HD
ENDBRANCH   4  27
BRANCH   1  31
HETATM   31  O1  UNL     1      17.186  -0.219  -2.042  1.00  0.00    -0.326 OA
BRANCH  31  32
HETATM   32  C1  UNL     1      17.299   0.305  -0.763  1.00  0.00     0.346 C 
BRANCH  32  33
HETATM   33  N2  UNL     1      18.399   0.865  -0.460  1.00  0.00    -0.321 NA
BRANCH  33  34
HETATM   34  N1  UNL     1      19.485   1.386  -0.208  1.00  0.00    -0.279 N 
ATOM     35  H12 UNL     1      19.127   1.581  -1.143  1.00  0.00     0.191 HD
ATOM     36  H11 UNL     1      20.384   1.800   0.040  1.00  0.00     0.191 HD
ENDBRANCH  33  34
ENDBRANCH  32  33
ENDBRANCH  31  32
ENDBRANCH   1  31
BRANCH   6  37
HETATM   37  N7  UNL     1      19.958  -0.313  -3.204  1.00  0.00    -0.072 N 
ATOM     38  H73 UNL     1      20.229  -0.459  -2.232  1.00  0.00     0.274 HD
ATOM     39  H72 UNL     1      20.809  -0.641  -3.660  1.00  0.00     0.274 HD
ATOM     40  H71 UNL     1      19.790   0.674  -3.398  1.00  0.00     0.274 HD
ENDBRANCH   6  37
TORSDOF 11
ENDMDL
MODEL 4
REMARK VINA RESULT: -7.524013374      2.100      6.944
REMARK  11 active torsions:
REMARK  status: ('A' for Active; 'I' for Inactive)
REMARK    1  A    between atoms: N1_1  and  N2_4 
REMARK    2  A    between atoms: N2_4  and  C1_5 
REMARK    3  A    between atoms: C1_5  and  O1_6 
REMARK    4  A    between atoms: O1_6  and  C2_7 
REMARK    5  A    between atoms: C4_9  and  O2_10 
REMARK    6  A    between atoms: O2_10  and  C5_11 
REMARK    7  A    between atoms: C6_12  and  N3_13 
REMARK    8  A    between atoms: C8_19  and  C9_20 
REMARK    9  A    between atoms: C11_27  and  O5_28 
REMARK   10  A    between atoms: C12_30  and  N6_31 
REMARK   11  A    between atoms: C14_36  and  N7_37 
ROOT
HETATM    1  C2  UNL     1      18.707  -1.821  -5.009  1.00  0.00     0.163 C 
HETATM    2  C3  UNL     1      17.594  -2.796  -5.076  1.00  0.00     0.068 C 
HETATM    3  C4  UNL     1      16.304  -2.277  -5.629  1.00  0.00     0.155 C 
HETATM    4  C12 UNL     1      16.413  -1.178  -6.608  1.00  0.00     0.214 C 
HETATM    5  C13 UNL     1      17.592  -0.280  -6.488  1.00  0.00     0.070 C 
HETATM    6  C14 UNL     1      18.822  -1.157  -6.382  1.00  0.00     0.215 C 
ENDROOT
BRANCH   3   7
HETATM    7  O2  UNL     1      15.404  -1.947  -4.617  1.00  0.00    -0.373 OA
BRANCH   7   8
HETATM    8  C5  UNL     1      14.290  -2.807  -4.588  1.00  0.00     0.190 C 
HETATM    9  C6  UNL     1      14.397  -3.829  -3.508  1.00  0.00     0.238 C 
HETATM   10  C7  UNL     1      13.425  -3.668  -2.376  1.00  0.00     0.204 C 
HETATM   11  O3  UNL     1      12.330  -4.504  -2.610  1.00  0.00    -0.369 OA
HETATM   12  C8  UNL     1      11.573  -4.072  -3.688  1.00  0.00     0.257 C 
HETATM   13  C10 UNL     1      11.886  -2.647  -3.921  1.00  0.00     0.193 C 
HETATM   14  O4  UNL     1      11.006  -1.869  -3.553  1.00  0.00    -0.292 OA
HETATM   15  C11 UNL     1      13.047  -1.962  -4.509  1.00  0.00     0.221 C 
BRANCH   9  16
HETATM   16  N3  UNL     1      14.243  -5.201  -4.017  1.00  0.00    -0.070 N 
ATOM     17  H33 UNL     1      13.827  -5.204  -4.949  1.00  0.00     0.274 HD
ATOM     18  H32 UNL     1      15.149  -5.614  -4.242  1.00  0.00     0.274 HD
ATOM     19  H31 UNL     1      13.716  -5.796  -3.377  1.00  0.00     0.274 HD
ENDBRANCH   9  16
BRANCH  12  20
HETATM   20  C9  UNL     1      10.139  -4.237  -3.348  1.00  0.00     0.123 C 
HETATM   21  N4  UNL     1       9.685  -3.932  -2.186  1.00  0.00    -0.389 N 
ATOM     22  H42 UNL     1      10.340  -3.571  -1.492  1.00  0.00     0.157 HD
ATOM     23  H41 UNL     1       8.699  -4.046  -1.952  1.00  0.00     0.157 HD
HETATM   24  N5  UNL     1       9.225  -4.741  -4.315  1.00  0.00    -0.085 NA
ENDBRANCH  12  20
BRANCH  15  25
HETATM   25  O5  UNL     1      12.681  -1.593  -5.813  1.00  0.00    -0.385 OA
ATOM     26  H5  UNL     1      11.809  -1.218  -5.783  1.00  0.00     0.210 HD
ENDBRANCH  15  25
ENDBRANCH   7   8
ENDBRANCH   3   7
BRANCH   4  27
HETATM   27  N6  UNL     1      16.388  -1.696  -7.984  1.00  0.00    -0.072 N 
ATOM     28  H63 UNL     1      17.232  -1.444  -8.497  1.00  0.00     0.274 HD
ATOM     29  H62 UNL     1      16.492  -2.710  -8.006  1.00  0.00     0.274 HD
ATOM     30  H61 UNL     1      15.544  -1.393  -8.471  1.00  0.00     0.274 HD
ENDBRANCH   4  27
BRANCH   1  31
HETATM   31  O1  UNL     1      18.445  -0.854  -4.015  1.00  0.00    -0.326 OA
BRANCH  31  32
HETATM   32  C1  UNL     1      18.323  -1.269  -2.697  1.00  0.00     0.346 C 
BRANCH  32  33
HETATM   33  N2  UNL     1      17.166  -1.208  -2.175  1.00  0.00    -0.321 NA
BRANCH  33  34
HETATM   34  N1  UNL     1      16.031  -1.122  -1.708  1.00  0.00    -0.279 N 
ATOM     35  H12 UNL     1      16.742  -1.426  -1.043  1.00  0.00     0.191 HD
ATOM     36  H11 UNL     1      15.076  -1.039  -1.359  1.00  0.00     0.191 HD
ENDBRANCH  33  34
ENDBRANCH  32  33
ENDBRANCH  31  32
ENDBRANCH   1  31
BRANCH   6  37
HETATM   37  N7  UNL     1      20.049  -0.427  -6.523  1.00  0.00    -0.072 N 
ATOM     38  H73 UNL     1      20.088   0.064  -7.416  1.00  0.00     0.274 HD
ATOM     39  H72 UNL     1      20.076   0.377  -5.896  1.00  0.00     0.274 HD
ATOM     40  H71 UNL     1      20.865  -1.024  -6.393  1.00  0.00     0.274 HD
ENDBRANCH   6  37
TORSDOF 11
ENDMDL
MODEL 5
REMARK VINA RESULT: -7.346604552      2.337      7.331
REMARK  11 active torsions:
REMARK  status: ('A' for Active; 'I' for Inactive)
REMARK    1  A    between atoms: N1_1  and  N2_4 
REMARK    2  A    between atoms: N2_4  and  C1_5 
REMARK    3  A    between atoms: C1_5  and  O1_6 
REMARK    4  A    between atoms: O1_6  and  C2_7 
REMARK    5  A    between atoms: C4_9  and  O2_10 
REMARK    6  A    between atoms: O2_10  and  C5_11 
REMARK    7  A    between atoms: C6_12  and  N3_13 
REMARK    8  A    between atoms: C8_19  and  C9_20 
REMARK    9  A    between atoms: C11_27  and  O5_28 
REMARK   10  A    between atoms: C12_30  and  N6_31 
REMARK   11  A    between atoms: C14_36  and  N7_37 
ROOT
HETATM    1  C2  UNL     1      18.442  -0.532  -5.335  1.00  0.00     0.163 C 
HETATM    2  C3  UNL     1      16.986  -0.801  -5.305  1.00  0.00     0.068 C 
HETATM    3  C4  UNL     1      16.557  -1.972  -4.477  1.00  0.00     0.155 C 
HETATM    4  C12 UNL     1      17.417  -2.304  -3.325  1.00  0.00     0.214 C 
HETATM    5  C13 UNL     1      18.858  -1.950  -3.432  1.00  0.00     0.070 C 
HETATM    6  C14 UNL     1      18.938  -0.508  -3.889  1.00  0.00     0.215 C 
ENDROOT
BRANCH   3   7
HETATM    7  O2  UNL     1      16.329  -3.103  -5.261  1.00  0.00    -0.373 OA
BRANCH   7   8
HETATM    8  C5  UNL     1      14.963  -3.436  -5.340  1.00  0.00     0.190 C 
HETATM    9  C6  UNL     1      14.348  -3.602  -3.992  1.00  0.00     0.238 C 
HETATM   10  C7  UNL     1      13.353  -2.547  -3.609  1.00  0.00     0.204 C 
HETATM   11  O3  UNL     1      12.071  -3.021  -3.896  1.00  0.00    -0.369 OA
HETATM   12  C8  UNL     1      11.852  -3.125  -5.261  1.00  0.00     0.257 C 
HETATM   13  C10 UNL     1      12.839  -2.266  -5.945  1.00  0.00     0.193 C 
HETATM   14  O4  UNL     1      12.374  -1.218  -6.394  1.00  0.00    -0.292 OA
HETATM   15  C11 UNL     1      14.280  -2.410  -6.202  1.00  0.00     0.221 C 
BRANCH   9  16
HETATM   16  N3  UNL     1      13.677  -4.903  -3.840  1.00  0.00    -0.070 N 
ATOM     17  H33 UNL     1      12.752  -4.893  -4.269  1.00  0.00     0.274 HD
ATOM     18  H32 UNL     1      14.118  -5.615  -4.422  1.00  0.00     0.274 HD
ATOM     19  H31 UNL     1      13.627  -5.203  -2.866  1.00  0.00     0.274 HD
ENDBRANCH   9  16
BRANCH  12  20
HETATM   20  C9  UNL     1      10.473  -2.659  -5.550  1.00  0.00     0.123 C 
HETATM   21  N4  UNL     1       9.887  -1.794  -4.804  1.00  0.00    -0.389 N 
ATOM     22  H42 UNL     1      10.395  -1.430  -3.997  1.00  0.00     0.157 HD
ATOM     23  H41 UNL     1       8.939  -1.473  -5.003  1.00  0.00     0.157 HD
HETATM   24  N5  UNL     1       9.765  -3.167  -6.674  1.00  0.00    -0.085 NA
ENDBRANCH  12  20
BRANCH  15  25
HETATM   25  O5  UNL     1      14.414  -2.801  -7.544  1.00  0.00    -0.385 OA
ATOM     26  H5  UNL     1      14.142  -2.077  -8.095  1.00  0.00     0.210 HD
ENDBRANCH  15  25
ENDBRANCH   7   8
ENDBRANCH   3   7
BRANCH   4  27
HETATM   27  N6  UNL     1      16.901  -1.691  -2.092  1.00  0.00    -0.072 N 
ATOM     28  H63 UNL     1      17.574  -1.045  -1.681  1.00  0.00     0.274 HD
ATOM     29  H62 UNL     1      16.151  -1.028  -2.286  1.00  0.00     0.274 HD
ATOM     30  H61 UNL     1      16.609  -2.407  -1.426  1.00  0.00     0.274 HD
ENDBRANCH   4  27
BRANCH   1  31
HETATM   31  O1  UNL     1      19.107  -1.540  -6.067  1.00  0.00    -0.326 OA
BRANCH  31  32
HETATM   32  C1  UNL     1      18.827  -1.676  -7.419  1.00  0.00     0.346 C 
BRANCH  32  33
HETATM   33  N2  UNL     1      18.127  -2.677  -7.768  1.00  0.00    -0.321 NA
BRANCH  33  34
HETATM   34  N1  UNL     1      17.407  -3.619  -8.100  1.00  0.00    -0.279 N 
ATOM     35  H12 UNL     1      17.496  -2.884  -8.802  1.00  0.00     0.191 HD
ATOM     36  H11 UNL     1      16.818  -4.417  -8.338  1.00  0.00     0.191 HD
ENDBRANCH  33  34
ENDBRANCH  32  33
ENDBRANCH  31  32
ENDBRANCH   1  31
BRANCH   6  37
HETATM   37  N7  UNL     1      20.259   0.043  -3.784  1.00  0.00    -0.072 N 
ATOM     38  H73 UNL     1      20.287   0.817  -3.120  1.00  0.00     0.274 HD
ATOM     39  H72 UNL     1      20.892  -0.600  -3.309  1.00  0.00     0.274 HD
ATOM     40  H71 UNL     1      20.629   0.323  -4.693  1.00  0.00     0.274 HD
ENDBRANCH   6  37
TORSDOF 11
ENDMDL
