MODEL 1
REMARK VINA RESULT: -8.628791165      0.000      0.000
REMARK  11 active torsions:
REMARK  status: ('A' for Active; 'I' for Inactive)
REMARK    1  A    between atoms: N1_1  and  C1_5 
REMARK    2  A    between atoms: C1_5  and  C2_6 
REMARK    3  A    between atoms: C2_6  and  N2_7 
REMARK    4  A    between atoms: N2_7  and  C3_9 
REMARK    5  A    between atoms: C4_12  and  N4_13 
REMARK    6  A    between atoms: N4_13  and  N5_15 
REMARK    7  A    between atoms: C5_22  and  N8_23 
REMARK    8  A    between atoms: N8_23  and  N9_25 
REMARK    9  A    between atoms: N10_26  and  O1_27 
REMARK   10  A    between atoms: C6_29  and  N11_30 
REMARK   11  A    between atoms: N11_30  and  C7_32 
ROOT
HETATM    1  C3  UNL     1      10.661  -2.455  -5.656  1.00  0.00     0.164 A 
HETATM    2  N3  UNL     1      10.024  -2.215  -6.797  1.00  0.00    -0.170 N 
ATOM      3  H3  UNL     1       9.018  -2.367  -6.867  1.00  0.00     0.186 HD
HETATM    4  C4  UNL     1      10.720  -1.769  -7.859  1.00  0.00     0.712 A 
HETATM    5  N6  UNL     1      12.050  -1.554  -7.810  1.00  0.00    -0.129 N 
ATOM      6  H6  UNL     1      12.558  -1.215  -8.627  1.00  0.00     0.205 HD
HETATM    7  N7  UNL     1      12.677  -1.796  -6.670  1.00  0.00    -0.267 N 
ATOM      8  H7  UNL     1      13.683  -1.638  -6.616  1.00  0.00     0.189 HD
HETATM    9  C5  UNL     1      12.028  -2.242  -5.581  1.00  0.00     0.178 A 
ENDROOT
BRANCH   9  10
HETATM   10  N8  UNL     1      12.729  -2.495  -4.362  1.00  0.00    -0.265 N 
ATOM     11  H8  UNL     1      12.563  -1.915  -3.540  1.00  0.00     0.185 HD
BRANCH  10  12
HETATM   12  N9  UNL     1      13.646  -3.547  -4.315  1.00  0.00     0.040 NA
HETATM   13  N10 UNL     1      14.911  -3.000  -4.049  1.00  0.00     0.030 N 
HETATM   14  C6  UNL     1      15.107  -2.624  -2.726  1.00  0.00     0.729 C 
HETATM   15  N12 UNL     1      14.396  -3.249  -1.855  1.00  0.00    -0.098 N 
HETATM   16  S1  UNL     1      13.427  -4.375  -2.783  1.00  0.00     0.354 S 
ATOM     17  H12 UNL     1      14.397  -3.118  -0.844  1.00  0.00     0.199 HD
HETATM   18  O2  UNL     1      14.093  -5.696  -2.777  1.00  0.00    -0.184 OA
HETATM   19  O3  UNL     1      12.019  -4.378  -2.353  1.00  0.00    -0.184 OA
BRANCH  13  20
HETATM   20  O1  UNL     1      15.828  -2.878  -5.068  1.00  0.00    -0.256 OA
ATOM     21  H1  UNL     1      15.827  -2.100  -5.612  1.00  0.00     0.247 HD
ENDBRANCH  13  20
BRANCH  14  22
HETATM   22  N11 UNL     1      16.039  -1.604  -2.326  1.00  0.00    -0.218 N 
ATOM     23  H11 UNL     1      16.807  -1.352  -2.949  1.00  0.00     0.178 HD
BRANCH  22  24
HETATM   24  C7  UNL     1      15.902  -0.924  -1.045  1.00  0.00     0.099 A 
HETATM   25  C8  UNL     1      17.028  -0.885  -0.099  1.00  0.00     0.028 A 
HETATM   26  C9  UNL     1      16.642   0.350  -0.819  1.00  0.00     0.028 A 
ENDBRANCH  22  24
ENDBRANCH  14  22
ENDBRANCH  10  12
ENDBRANCH   9  10
BRANCH   1  27
HETATM   27  N2  UNL     1      10.082  -2.886  -4.576  1.00  0.00    -0.371 N 
ATOM     28  H2  UNL     1      10.000  -2.300  -3.744  1.00  0.00     0.161 HD
BRANCH  27  29
HETATM   29  C2  UNL     1       9.559  -4.238  -4.607  1.00  0.00     0.148 C 
BRANCH  29  30
HETATM   30  C1  UNL     1       8.908  -4.586  -3.272  1.00  0.00     0.249 C 
BRANCH  30  31
HETATM   31  N1  UNL     1       7.475  -4.595  -3.491  1.00  0.00    -0.078 N 
ATOM     32  H13 UNL     1       7.215  -4.874  -4.438  1.00  0.00     0.274 HD
ATOM     33  H12 UNL     1       6.998  -5.351  -2.999  1.00  0.00     0.274 HD
ATOM     34  H11 UNL     1       7.129  -3.671  -3.237  1.00  0.00     0.274 HD
ENDBRANCH  30  31
ENDBRANCH  29  30
ENDBRANCH  27  29
ENDBRANCH   1  27
BRANCH   4  35
HETATM   35  N4  UNL     1      10.055  -1.551  -8.946  1.00  0.00    -0.137 N 
ATOM     36  H4  UNL     1      10.369  -0.841  -9.608  1.00  0.00     0.205 HD
BRANCH  35  37
HETATM   37  N5  UNL     1       8.916  -2.287  -9.202  1.00  0.00    -0.331 N 
ATOM     38  H52 UNL     1       8.851  -3.244  -8.855  1.00  0.00     0.177 HD
ATOM     39  H51 UNL     1       8.155  -1.864  -9.735  1.00  0.00     0.177 HD
ENDBRANCH  35  37
ENDBRANCH   4  35
TORSDOF 11
ENDMDL
MODEL 2
REMARK VINA RESULT: -8.474995218      2.232      3.043
REMARK  11 active torsions:
REMARK  status: ('A' for Active; 'I' for Inactive)
REMARK    1  A    between atoms: N1_1  and  C1_5 
REMARK    2  A    between atoms: C1_5  and  C2_6 
REMARK    3  A    between atoms: C2_6  and  N2_7 
REMARK    4  A    between atoms: N2_7  and  C3_9 
REMARK    5  A    between atoms: C4_12  and  N4_13 
REMARK    6  A    between atoms: N4_13  and  N5_15 
REMARK    7  A    between atoms: C5_22  and  N8_23 
REMARK    8  A    between atoms: N8_23  and  N9_25 
REMARK    9  A    between atoms: N10_26  and  O1_27 
REMARK   10  A    between atoms: C6_29  and  N11_30 
REMARK   11  A    between atoms: N11_30  and  C7_32 
ROOT
HETATM    1  C3  UNL     1      10.555  -1.882  -7.722  1.00  0.00     0.164 A 
HETATM    2  N3  UNL     1      10.666  -1.467  -8.979  1.00  0.00    -0.170 N 
ATOM      3  H3  UNL     1       9.864  -1.506  -9.607  1.00  0.00     0.186 HD
HETATM    4  C4  UNL     1      11.849  -0.994  -9.414  1.00  0.00     0.712 A 
HETATM    5  N6  UNL     1      12.934  -0.923  -8.617  1.00  0.00    -0.129 N 
ATOM      6  H6  UNL     1      13.820  -0.560  -8.968  1.00  0.00     0.205 HD
HETATM    7  N7  UNL     1      12.815  -1.339  -7.367  1.00  0.00    -0.267 N 
ATOM      8  H7  UNL     1      13.626  -1.293  -6.750  1.00  0.00     0.189 HD
HETATM    9  C5  UNL     1      11.657  -1.821  -6.884  1.00  0.00     0.178 A 
ENDROOT
BRANCH   9  10
HETATM   10  N8  UNL     1      11.556  -2.263  -5.529  1.00  0.00    -0.265 N 
ATOM     11  H8  UNL     1      11.537  -1.589  -4.764  1.00  0.00     0.185 HD
BRANCH  10  12
HETATM   12  N9  UNL     1      11.483  -3.633  -5.268  1.00  0.00     0.040 NA
HETATM   13  N10 UNL     1      12.577  -3.971  -4.456  1.00  0.00     0.030 N 
HETATM   14  C6  UNL     1      12.440  -3.599  -3.124  1.00  0.00     0.729 C 
HETATM   15  N12 UNL     1      11.233  -3.488  -2.695  1.00  0.00    -0.098 N 
HETATM   16  S1  UNL     1      10.224  -3.881  -4.072  1.00  0.00     0.354 S 
ATOM     17  H12 UNL     1      10.930  -3.228  -1.757  1.00  0.00     0.199 HD
HETATM   18  O2  UNL     1       9.828  -5.304  -3.984  1.00  0.00    -0.184 OA
HETATM   19  O3  UNL     1       9.114  -2.928  -4.233  1.00  0.00    -0.184 OA
BRANCH  13  20
HETATM   20  O1  UNL     1      13.660  -4.618  -5.006  1.00  0.00    -0.256 OA
ATOM     21  H1  UNL     1      14.051  -4.285  -5.805  1.00  0.00     0.247 HD
ENDBRANCH  13  20
BRANCH  14  22
HETATM   22  N11 UNL     1      13.560  -3.346  -2.258  1.00  0.00    -0.218 N 
ATOM     23  H11 UNL     1      13.643  -3.859  -1.380  1.00  0.00     0.178 HD
BRANCH  22  24
HETATM   24  C7  UNL     1      14.579  -2.368  -2.616  1.00  0.00     0.099 A 
HETATM   25  C8  UNL     1      15.446  -1.784  -1.581  1.00  0.00     0.028 A 
HETATM   26  C9  UNL     1      16.016  -2.758  -2.539  1.00  0.00     0.028 A 
ENDBRANCH  22  24
ENDBRANCH  14  22
ENDBRANCH  10  12
ENDBRANCH   9  10
BRANCH   1  27
HETATM   27  N2  UNL     1       9.461  -2.355  -7.205  1.00  0.00    -0.371 N 
ATOM     28  H2  UNL     1       9.298  -2.345  -6.198  1.00  0.00     0.161 HD
BRANCH  27  29
HETATM   29  C2  UNL     1       8.482  -2.898  -8.127  1.00  0.00     0.148 C 
BRANCH  29  30
HETATM   30  C1  UNL     1       8.134  -4.334  -7.747  1.00  0.00     0.249 C 
BRANCH  30  31
HETATM   31  N1  UNL     1       6.695  -4.464  -7.858  1.00  0.00    -0.078 N 
ATOM     32  H13 UNL     1       6.191  -3.639  -7.531  1.00  0.00     0.274 HD
ATOM     33  H12 UNL     1       6.363  -4.444  -8.822  1.00  0.00     0.274 HD
ATOM     34  H11 UNL     1       6.434  -5.316  -7.362  1.00  0.00     0.274 HD
ENDBRANCH  30  31
ENDBRANCH  29  30
ENDBRANCH  27  29
ENDBRANCH   1  27
BRANCH   4  35
HETATM   35  N4  UNL     1      11.905  -0.602 -10.645  1.00  0.00    -0.137 N 
ATOM     36  H4  UNL     1      11.433   0.255 -10.934  1.00  0.00     0.205 HD
BRANCH  35  37
HETATM   37  N5  UNL     1      12.611  -1.353 -11.563  1.00  0.00    -0.331 N 
ATOM     38  H52 UNL     1      12.304  -2.303 -11.772  1.00  0.00     0.177 HD
ATOM     39  H51 UNL     1      13.429  -0.948 -12.018  1.00  0.00     0.177 HD
ENDBRANCH  35  37
ENDBRANCH   4  35
TORSDOF 11
ENDMDL
MODEL 3
REMARK VINA RESULT: -8.415082074      1.234      1.294
REMARK  11 active torsions:
REMARK  status: ('A' for Active; 'I' for Inactive)
REMARK    1  A    between atoms: N1_1  and  C1_5 
REMARK    2  A    between atoms: C1_5  and  C2_6 
REMARK    3  A    between atoms: C2_6  and  N2_7 
REMARK    4  A    between atoms: N2_7  and  C3_9 
REMARK    5  A    between atoms: C4_12  and  N4_13 
REMARK    6  A    between atoms: N4_13  and  N5_15 
REMARK    7  A    between atoms: C5_22  and  N8_23 
REMARK    8  A    between atoms: N8_23  and  N9_25 
REMARK    9  A    between atoms: N10_26  and  O1_27 
REMARK   10  A    between atoms: C6_29  and  N11_30 
REMARK   11  A    between atoms: N11_30  and  C7_32 
ROOT
HETATM    1  C3  UNL     1      10.549  -3.549  -5.502  1.00  0.00     0.164 A 
HETATM    2  N3  UNL     1       9.695  -3.462  -6.517  1.00  0.00    -0.170 N 
ATOM      3  H3  UNL     1       8.955  -4.155  -6.629  1.00  0.00     0.186 HD
HETATM    4  C4  UNL     1       9.818  -2.450  -7.396  1.00  0.00     0.712 A 
HETATM    5  N6  UNL     1      10.780  -1.512  -7.286  1.00  0.00    -0.129 N 
ATOM      6  H6  UNL     1      10.854  -0.753  -7.963  1.00  0.00     0.205 HD
HETATM    7  N7  UNL     1      11.626  -1.606  -6.273  1.00  0.00    -0.267 N 
ATOM      8  H7  UNL     1      12.360  -0.905  -6.174  1.00  0.00     0.189 HD
HETATM    9  C5  UNL     1      11.547  -2.598  -5.369  1.00  0.00     0.178 A 
ENDROOT
BRANCH   9  10
HETATM   10  N8  UNL     1      12.474  -2.675  -4.283  1.00  0.00    -0.265 N 
ATOM     11  H8  UNL     1      12.423  -2.012  -3.511  1.00  0.00     0.185 HD
BRANCH  10  12
HETATM   12  N9  UNL     1      13.449  -3.674  -4.297  1.00  0.00     0.040 NA
HETATM   13  N10 UNL     1      14.701  -3.049  -4.184  1.00  0.00     0.030 N 
HETATM   14  C6  UNL     1      15.009  -2.612  -2.901  1.00  0.00     0.729 C 
HETATM   15  N12 UNL     1      14.429  -3.240  -1.941  1.00  0.00    -0.098 N 
HETATM   16  S1  UNL     1      13.437  -4.452  -2.724  1.00  0.00     0.354 S 
ATOM     17  H12 UNL     1      14.526  -3.069  -0.940  1.00  0.00     0.199 HD
HETATM   18  O2  UNL     1      14.175  -5.734  -2.744  1.00  0.00    -0.184 OA
HETATM   19  O3  UNL     1      12.083  -4.514  -2.150  1.00  0.00    -0.184 OA
BRANCH  13  20
HETATM   20  O1  UNL     1      15.500  -2.918  -5.296  1.00  0.00    -0.256 OA
ATOM     21  H1  UNL     1      16.401  -3.219  -5.267  1.00  0.00     0.247 HD
ENDBRANCH  13  20
BRANCH  14  22
HETATM   22  N11 UNL     1      15.917  -1.528  -2.635  1.00  0.00    -0.218 N 
ATOM     23  H11 UNL     1      15.577  -0.567  -2.670  1.00  0.00     0.178 HD
BRANCH  22  24
HETATM   24  C7  UNL     1      17.316  -1.783  -2.318  1.00  0.00     0.099 A 
HETATM   25  C8  UNL     1      18.335  -1.767  -3.379  1.00  0.00     0.028 A 
HETATM   26  C9  UNL     1      18.293  -0.660  -2.397  1.00  0.00     0.028 A 
ENDBRANCH  22  24
ENDBRANCH  14  22
ENDBRANCH  10  12
ENDBRANCH   9  10
BRANCH   1  27
HETATM   27  N2  UNL     1      10.516  -4.485  -4.602  1.00  0.00    -0.371 N 
ATOM     28  H2  UNL     1      11.372  -4.874  -4.206  1.00  0.00     0.161 HD
BRANCH  27  29
HETATM   29  C2  UNL     1       9.207  -4.951  -4.187  1.00  0.00     0.148 C 
BRANCH  29  30
HETATM   30  C1  UNL     1       8.616  -4.012  -3.141  1.00  0.00     0.249 C 
BRANCH  30  31
HETATM   31  N1  UNL     1       7.176  -4.172  -3.195  1.00  0.00    -0.078 N 
ATOM     32  H13 UNL     1       6.786  -3.985  -4.119  1.00  0.00     0.274 HD
ATOM     33  H12 UNL     1       6.877  -5.144  -3.121  1.00  0.00     0.274 HD
ATOM     34  H11 UNL     1       6.784  -3.576  -2.466  1.00  0.00     0.274 HD
ENDBRANCH  30  31
ENDBRANCH  29  30
ENDBRANCH  27  29
ENDBRANCH   1  27
BRANCH   4  35
HETATM   35  N4  UNL     1       8.963  -2.410  -8.365  1.00  0.00    -0.137 N 
ATOM     36  H4  UNL     1       9.060  -1.717  -9.108  1.00  0.00     0.205 HD
BRANCH  35  37
HETATM   37  N5  UNL     1       7.919  -3.312  -8.386  1.00  0.00    -0.331 N 
ATOM     38  H52 UNL     1       7.296  -3.373  -7.581  1.00  0.00     0.177 HD
ATOM     39  H51 UNL     1       7.785  -3.905  -9.205  1.00  0.00     0.177 HD
ENDBRANCH  35  37
ENDBRANCH   4  35
TORSDOF 11
ENDMDL
MODEL 4
REMARK VINA RESULT: -8.199167849      1.435      3.181
REMARK  11 active torsions:
REMARK  status: ('A' for Active; 'I' for Inactive)
REMARK    1  A    between atoms: N1_1  and  C1_5 
REMARK    2  A    between atoms: C1_5  and  C2_6 
REMARK    3  A    between atoms: C2_6  and  N2_7 
REMARK    4  A    between atoms: N2_7  and  C3_9 
REMARK    5  A    between atoms: C4_12  and  N4_13 
REMARK    6  A    between atoms: N4_13  and  N5_15 
REMARK    7  A    between atoms: C5_22  and  N8_23 
REMARK    8  A    between atoms: N8_23  and  N9_25 
REMARK    9  A    between atoms: N10_26  and  O1_27 
REMARK   10  A    between atoms: C6_29  and  N11_30 
REMARK   11  A    between atoms: N11_30  and  C7_32 
ROOT
HETATM    1  C3  UNL     1      12.217  -1.923  -6.522  1.00  0.00     0.164 A 
HETATM    2  N3  UNL     1      11.225  -1.910  -7.406  1.00  0.00    -0.170 N 
ATOM      3  H3  UNL     1      11.394  -1.613  -8.367  1.00  0.00     0.186 HD
HETATM    4  C4  UNL     1       9.994  -2.294  -7.019  1.00  0.00     0.712 A 
HETATM    5  N6  UNL     1       9.726  -2.695  -5.760  1.00  0.00    -0.129 N 
ATOM      6  H6  UNL     1       8.786  -2.983  -5.489  1.00  0.00     0.205 HD
HETATM    7  N7  UNL     1      10.720  -2.704  -4.886  1.00  0.00    -0.267 N 
ATOM      8  H7  UNL     1      10.535  -3.005  -3.929  1.00  0.00     0.189 HD
HETATM    9  C5  UNL     1      11.967  -2.330  -5.222  1.00  0.00     0.178 A 
ENDROOT
BRANCH   9  10
HETATM   10  N8  UNL     1      13.022  -2.349  -4.258  1.00  0.00    -0.265 N 
ATOM     11  H8  UNL     1      13.148  -1.570  -3.613  1.00  0.00     0.185 HD
BRANCH  10  12
HETATM   12  N9  UNL     1      13.877  -3.452  -4.214  1.00  0.00     0.040 NA
HETATM   13  N10 UNL     1      15.141  -2.996  -3.809  1.00  0.00     0.030 N 
HETATM   14  C6  UNL     1      15.244  -2.723  -2.451  1.00  0.00     0.729 C 
HETATM   15  N12 UNL     1      14.433  -3.364  -1.687  1.00  0.00    -0.098 N 
HETATM   16  S1  UNL     1      13.489  -4.369  -2.768  1.00  0.00     0.354 S 
ATOM     17  H12 UNL     1      14.356  -3.302  -0.672  1.00  0.00     0.199 HD
HETATM   18  O2  UNL     1      14.085  -5.722  -2.805  1.00  0.00    -0.184 OA
HETATM   19  O3  UNL     1      12.052  -4.321  -2.454  1.00  0.00    -0.184 OA
BRANCH  13  20
HETATM   20  O1  UNL     1      16.145  -2.857  -4.739  1.00  0.00    -0.256 OA
ATOM     21  H1  UNL     1      16.044  -2.239  -5.453  1.00  0.00     0.247 HD
ENDBRANCH  13  20
BRANCH  14  22
HETATM   22  N11 UNL     1      16.190  -1.786  -1.905  1.00  0.00    -0.218 N 
ATOM     23  H11 UNL     1      17.116  -1.703  -2.326  1.00  0.00     0.178 HD
BRANCH  22  24
HETATM   24  C7  UNL     1      15.844  -0.953  -0.761  1.00  0.00     0.099 A 
HETATM   25  C8  UNL     1      16.712  -0.923   0.427  1.00  0.00     0.028 A 
HETATM   26  C9  UNL     1      16.668   0.255  -0.469  1.00  0.00     0.028 A 
ENDBRANCH  22  24
ENDBRANCH  14  22
ENDBRANCH  10  12
ENDBRANCH   9  10
BRANCH   1  27
HETATM   27  N2  UNL     1      13.438  -1.572  -6.794  1.00  0.00    -0.371 N 
ATOM     28  H2  UNL     1      13.863  -0.747  -6.371  1.00  0.00     0.161 HD
BRANCH  27  29
HETATM   29  C2  UNL     1      14.168  -2.408  -7.728  1.00  0.00     0.148 C 
BRANCH  29  30
HETATM   30  C1  UNL     1      15.514  -1.775  -8.066  1.00  0.00     0.249 C 
BRANCH  30  31
HETATM   31  N1  UNL     1      15.867  -0.914  -6.955  1.00  0.00    -0.078 N 
ATOM     32  H13 UNL     1      15.495   0.032  -7.047  1.00  0.00     0.274 HD
ATOM     33  H12 UNL     1      15.387  -1.158  -6.089  1.00  0.00     0.274 HD
ATOM     34  H11 UNL     1      16.883  -0.939  -6.871  1.00  0.00     0.274 HD
ENDBRANCH  30  31
ENDBRANCH  29  30
ENDBRANCH  27  29
ENDBRANCH   1  27
BRANCH   4  35
HETATM   35  N4  UNL     1       9.063  -2.265  -7.915  1.00  0.00    -0.137 N 
ATOM     36  H4  UNL     1       8.104  -2.512  -7.669  1.00  0.00     0.205 HD
BRANCH  35  37
HETATM   37  N5  UNL     1       9.378  -1.896  -9.207  1.00  0.00    -0.331 N 
ATOM     38  H52 UNL     1       8.843  -2.287  -9.983  1.00  0.00     0.177 HD
ATOM     39  H51 UNL     1      10.141  -1.238  -9.368  1.00  0.00     0.177 HD
ENDBRANCH  35  37
ENDBRANCH   4  35
TORSDOF 11
ENDMDL
MODEL 5
REMARK VINA RESULT: -8.198634934      1.609      3.534
REMARK  11 active torsions:
REMARK  status: ('A' for Active; 'I' for Inactive)
REMARK    1  A    between atoms: N1_1  and  C1_5 
REMARK    2  A    between atoms: C1_5  and  C2_6 
REMARK    3  A    between atoms: C2_6  and  N2_7 
REMARK    4  A    between atoms: N2_7  and  C3_9 
REMARK    5  A    between atoms: C4_12  and  N4_13 
REMARK    6  A    between atoms: N4_13  and  N5_15 
REMARK    7  A    between atoms: C5_22  and  N8_23 
REMARK    8  A    between atoms: N8_23  and  N9_25 
REMARK    9  A    between atoms: N10_26  and  O1_27 
REMARK   10  A    between atoms: C6_29  and  N11_30 
REMARK   11  A    between atoms: N11_30  and  C7_32 
ROOT
HETATM    1  C3  UNL     1      10.811  -3.642  -4.765  1.00  0.00     0.164 A 
HETATM    2  N3  UNL     1       9.617  -4.224  -4.755  1.00  0.00    -0.170 N 
ATOM      3  H3  UNL     1       9.221  -4.604  -5.614  1.00  0.00     0.186 HD
HETATM    4  C4  UNL     1       8.936  -4.308  -3.597  1.00  0.00     0.712 A 
HETATM    5  N6  UNL     1       9.421  -3.821  -2.437  1.00  0.00    -0.129 N 
ATOM      6  H6  UNL     1       8.887  -3.896  -1.572  1.00  0.00     0.205 HD
HETATM    7  N7  UNL     1      10.610  -3.242  -2.457  1.00  0.00    -0.267 N 
ATOM      8  H7  UNL     1      10.993  -2.867  -1.588  1.00  0.00     0.189 HD
HETATM    9  C5  UNL     1      11.331  -3.132  -3.586  1.00  0.00     0.178 A 
ENDROOT
BRANCH   9  10
HETATM   10  N8  UNL     1      12.614  -2.502  -3.579  1.00  0.00    -0.265 N 
ATOM     11  H8  UNL     1      12.707  -1.522  -3.315  1.00  0.00     0.185 HD
BRANCH  10  12
HETATM   12  N9  UNL     1      13.736  -3.250  -3.937  1.00  0.00     0.040 NA
HETATM   13  N10 UNL     1      14.861  -2.420  -3.808  1.00  0.00     0.030 N 
HETATM   14  C6  UNL     1      15.277  -2.219  -2.497  1.00  0.00     0.729 C 
HETATM   15  N12 UNL     1      14.968  -3.146  -1.663  1.00  0.00    -0.098 N 
HETATM   16  S1  UNL     1      14.099  -4.337  -2.608  1.00  0.00     0.354 S 
ATOM     17  H12 UNL     1      15.183  -3.181  -0.666  1.00  0.00     0.199 HD
HETATM   18  O2  UNL     1      15.040  -5.403  -3.017  1.00  0.00    -0.184 OA
HETATM   19  O3  UNL     1      12.880  -4.801  -1.927  1.00  0.00    -0.184 OA
BRANCH  13  20
HETATM   20  O1  UNL     1      15.448  -1.888  -4.933  1.00  0.00    -0.256 OA
ATOM     21  H1  UNL     1      15.080  -1.108  -5.332  1.00  0.00     0.247 HD
ENDBRANCH  13  20
BRANCH  14  22
HETATM   22  N11 UNL     1      16.009  -1.055  -2.074  1.00  0.00    -0.218 N 
ATOM     23  H11 UNL     1      15.954  -0.197  -2.624  1.00  0.00     0.178 HD
BRANCH  22  24
HETATM   24  C7  UNL     1      16.828  -1.083  -0.869  1.00  0.00     0.099 A 
HETATM   25  C8  UNL     1      17.580   0.112  -0.452  1.00  0.00     0.028 A 
HETATM   26  C9  UNL     1      16.389  -0.303   0.323  1.00  0.00     0.028 A 
ENDBRANCH  22  24
ENDBRANCH  14  22
ENDBRANCH  10  12
ENDBRANCH   9  10
BRANCH   1  27
HETATM   27  N2  UNL     1      11.548  -3.510  -5.827  1.00  0.00    -0.371 N 
ATOM     28  H2  UNL     1      12.302  -4.163  -6.037  1.00  0.00     0.161 HD
BRANCH  27  29
HETATM   29  C2  UNL     1      11.248  -2.391  -6.699  1.00  0.00     0.148 C 
BRANCH  29  30
HETATM   30  C1  UNL     1      12.535  -1.787  -7.250  1.00  0.00     0.249 C 
BRANCH  30  31
HETATM   31  N1  UNL     1      13.578  -2.777  -7.069  1.00  0.00    -0.078 N 
ATOM     32  H13 UNL     1      13.655  -3.108  -6.107  1.00  0.00     0.274 HD
ATOM     33  H12 UNL     1      13.356  -3.676  -7.497  1.00  0.00     0.274 HD
ATOM     34  H11 UNL     1      14.442  -2.368  -7.423  1.00  0.00     0.274 HD
ENDBRANCH  30  31
ENDBRANCH  29  30
ENDBRANCH  27  29
ENDBRANCH   1  27
BRANCH   4  35
HETATM   35  N4  UNL     1       7.778  -4.884  -3.639  1.00  0.00    -0.137 N 
ATOM     36  H4  UNL     1       7.696  -5.850  -3.957  1.00  0.00     0.205 HD
BRANCH  35  37
HETATM   37  N5  UNL     1       6.657  -4.180  -3.251  1.00  0.00    -0.331 N 
ATOM     38  H52 UNL     1       6.699  -3.593  -2.418  1.00  0.00     0.177 HD
ATOM     39  H51 UNL     1       5.802  -4.256  -3.802  1.00  0.00     0.177 HD
ENDBRANCH  35  37
ENDBRANCH   4  35
TORSDOF 11
ENDMDL
