MODEL 1
REMARK VINA RESULT: -7.226089858      0.000      0.000
REMARK  9 active torsions:
REMARK  status: ('A' for Active; 'I' for Inactive)
REMARK    1  A    between atoms: C3_3  and  C4_4 
REMARK    2  A    between atoms: C4_4  and  O1_5 
REMARK    3  A    between atoms: C5_8  and  C6_9 
REMARK    4  A    between atoms: C5_8  and  C7_15 
REMARK    5  A    between atoms: C6_9  and  O3_10 
REMARK    6  A    between atoms: O3_10  and  S1_11 
REMARK    7  A    between atoms: C9_19  and  O9_20 
REMARK    8  A    between atoms: C10_22  and  O10_23 
REMARK    9  A    between atoms: C10_22  and  C11_25 
ROOT
HETATM    1  C1  UNL     1       8.771  -4.127  -2.950  1.00  0.00     0.112 C 
HETATM    2  C2  UNL     1      10.216  -3.993  -3.191  1.00  0.00    -0.105 C 
HETATM    3  C3  UNL     1      11.403  -3.886  -3.394  1.00  0.00    -0.035 C 
ENDROOT
BRANCH   3   4
HETATM    4  C4  UNL     1      12.855  -3.752  -3.641  1.00  0.00     0.277 C 
HETATM    5  O2  UNL     1      13.441  -3.334  -2.486  1.00  0.00    -0.317 OA
HETATM    6  C5  UNL     1      14.778  -3.002  -2.549  1.00  0.00     0.178 C 
HETATM    7  C8  UNL     1      15.187  -2.251  -3.765  1.00  0.00     0.087 C 
HETATM    8  C9  UNL     1      14.490  -2.678  -5.038  1.00  0.00     0.173 C 
HETATM    9  C10 UNL     1      12.993  -2.673  -4.693  1.00  0.00     0.241 C 
BRANCH   4  10
HETATM   10  O1  UNL     1      13.369  -4.917  -4.190  1.00  0.00    -0.353 OA
ATOM     11  H1  UNL     1      14.319  -4.908  -4.172  1.00  0.00     0.214 HD
ENDBRANCH   4  10
BRANCH   6  12
HETATM   12  C6  UNL     1      14.988  -2.045  -1.359  1.00  0.00     0.242 C 
BRANCH  12  13
HETATM   13  O3  UNL     1      15.794  -0.984  -1.727  1.00  0.00    -0.253 OA
BRANCH  13  14
HETATM   14  S1  UNL     1      16.707  -0.440  -0.453  1.00  0.00     0.251 S 
HETATM   15  O4  UNL     1      18.158  -0.584  -0.809  1.00  0.00    -0.572 OA
HETATM   16  O5  UNL     1      16.459   1.024  -0.158  1.00  0.00    -0.572 OA
HETATM   17  O6  UNL     1      16.318  -1.369   0.898  1.00  0.00    -0.572 OA
ENDBRANCH  13  14
ENDBRANCH  12  13
ENDBRANCH   6  12
BRANCH   6  18
HETATM   18  C7  UNL     1      15.651  -4.169  -2.258  1.00  0.00     0.211 C 
HETATM   19  O7  UNL     1      15.345  -5.049  -1.410  1.00  0.00    -0.646 OA
HETATM   20  O8  UNL     1      16.851  -4.333  -2.921  1.00  0.00    -0.646 OA
ENDBRANCH   6  18
BRANCH   8  21
HETATM   21  O9  UNL     1      14.786  -1.759  -6.017  1.00  0.00    -0.392 OA
ATOM     22  H9  UNL     1      13.991  -1.583  -6.507  1.00  0.00     0.210 HD
ENDBRANCH   8  21
BRANCH   9  23
HETATM   23  O10 UNL     1      12.714  -1.443  -4.127  1.00  0.00    -0.372 OA
ATOM     24  H10 UNL     1      13.514  -0.934  -4.069  1.00  0.00     0.211 HD
ENDBRANCH   9  23
BRANCH   9  25
HETATM   25  C11 UNL     1      12.161  -2.902  -5.877  1.00  0.00     0.218 C 
HETATM   26  O11 UNL     1      12.348  -3.900  -6.619  1.00  0.00    -0.645 OA
HETATM   27  O12 UNL     1      11.138  -2.032  -6.226  1.00  0.00    -0.645 OA
ENDBRANCH   9  25
ENDBRANCH   3   4
TORSDOF 9
ENDMDL
MODEL 2
REMARK VINA RESULT: -7.031615601      1.416      1.643
REMARK  9 active torsions:
REMARK  status: ('A' for Active; 'I' for Inactive)
REMARK    1  A    between atoms: C3_3  and  C4_4 
REMARK    2  A    between atoms: C4_4  and  O1_5 
REMARK    3  A    between atoms: C5_8  and  C6_9 
REMARK    4  A    between atoms: C5_8  and  C7_15 
REMARK    5  A    between atoms: C6_9  and  O3_10 
REMARK    6  A    between atoms: O3_10  and  S1_11 
REMARK    7  A    between atoms: C9_19  and  O9_20 
REMARK    8  A    between atoms: C10_22  and  O10_23 
REMARK    9  A    between atoms: C10_22  and  C11_25 
ROOT
HETATM    1  C1  UNL     1       7.845  -4.252  -3.166  1.00  0.00     0.112 C 
HETATM    2  C2  UNL     1       9.216  -4.014  -3.644  1.00  0.00    -0.105 C 
HETATM    3  C3  UNL     1      10.341  -3.822  -4.042  1.00  0.00    -0.035 C 
ENDROOT
BRANCH   3   4
HETATM    4  C4  UNL     1      11.718  -3.583  -4.527  1.00  0.00     0.277 C 
HETATM    5  O2  UNL     1      12.555  -3.628  -3.454  1.00  0.00    -0.317 OA
HETATM    6  C5  UNL     1      13.871  -3.277  -3.675  1.00  0.00     0.178 C 
HETATM    7  C8  UNL     1      14.073  -2.114  -4.578  1.00  0.00     0.087 C 
HETATM    8  C9  UNL     1      13.102  -2.035  -5.736  1.00  0.00     0.173 C 
HETATM    9  C10 UNL     1      11.712  -2.183  -5.101  1.00  0.00     0.241 C 
BRANCH   4  10
HETATM   10  O1  UNL     1      12.027  -4.444  -5.569  1.00  0.00    -0.353 OA
ATOM     11  H1  UNL     1      12.750  -4.104  -6.083  1.00  0.00     0.214 HD
ENDBRANCH   4  10
BRANCH   6  12
HETATM   12  C6  UNL     1      14.385  -2.843  -2.289  1.00  0.00     0.242 C 
BRANCH  12  13
HETATM   13  O3  UNL     1      14.722  -1.502  -2.295  1.00  0.00    -0.253 OA
BRANCH  13  14
HETATM   14  S1  UNL     1      16.074  -1.208  -1.379  1.00  0.00     0.251 S 
HETATM   15  O4  UNL     1      17.206  -2.028  -1.923  1.00  0.00    -0.572 OA
HETATM   16  O5  UNL     1      16.499   0.245  -1.443  1.00  0.00    -0.572 OA
HETATM   17  O6  UNL     1      15.725  -1.632   0.213  1.00  0.00    -0.572 OA
ENDBRANCH  13  14
ENDBRANCH  12  13
ENDBRANCH   6  12
BRANCH   6  18
HETATM   18  C7  UNL     1      14.702  -4.454  -4.038  1.00  0.00     0.211 C 
HETATM   19  O7  UNL     1      14.533  -5.589  -3.517  1.00  0.00    -0.646 OA
HETATM   20  O8  UNL     1      15.707  -4.344  -4.978  1.00  0.00    -0.646 OA
ENDBRANCH   6  18
BRANCH   8  21
HETATM   21  O9  UNL     1      13.255  -0.808  -6.338  1.00  0.00    -0.392 OA
ATOM     22  H9  UNL     1      13.051  -0.905  -7.261  1.00  0.00     0.210 HD
ENDBRANCH   8  21
BRANCH   9  23
HETATM   23  O10 UNL     1      11.640  -1.265  -4.069  1.00  0.00    -0.372 OA
ATOM     24  H10 UNL     1      11.816  -1.702  -3.245  1.00  0.00     0.211 HD
ENDBRANCH   9  23
BRANCH   9  25
HETATM   25  C11 UNL     1      10.642  -1.956  -6.075  1.00  0.00     0.218 C 
HETATM   26  O11 UNL     1      10.679  -2.483  -7.216  1.00  0.00    -0.645 OA
HETATM   27  O12 UNL     1       9.548  -1.153  -5.781  1.00  0.00    -0.645 OA
ENDBRANCH   9  25
ENDBRANCH   3   4
TORSDOF 9
ENDMDL
MODEL 3
REMARK VINA RESULT: -6.876924384      2.491      5.559
REMARK  9 active torsions:
REMARK  status: ('A' for Active; 'I' for Inactive)
REMARK    1  A    between atoms: C3_3  and  C4_4 
REMARK    2  A    between atoms: C4_4  and  O1_5 
REMARK    3  A    between atoms: C5_8  and  C6_9 
REMARK    4  A    between atoms: C5_8  and  C7_15 
REMARK    5  A    between atoms: C6_9  and  O3_10 
REMARK    6  A    between atoms: O3_10  and  S1_11 
REMARK    7  A    between atoms: C9_19  and  O9_20 
REMARK    8  A    between atoms: C10_22  and  O10_23 
REMARK    9  A    between atoms: C10_22  and  C11_25 
ROOT
HETATM    1  C1  UNL     1      17.559  -3.442  -8.367  1.00  0.00     0.112 C 
HETATM    2  C2  UNL     1      17.165  -3.430  -6.950  1.00  0.00    -0.105 C 
HETATM    3  C3  UNL     1      16.839  -3.414  -5.786  1.00  0.00    -0.035 C 
ENDROOT
BRANCH   3   4
HETATM    4  C4  UNL     1      16.439  -3.398  -4.362  1.00  0.00     0.277 C 
HETATM    5  O2  UNL     1      15.103  -3.654  -4.298  1.00  0.00    -0.317 OA
HETATM    6  C5  UNL     1      14.503  -3.533  -3.063  1.00  0.00     0.178 C 
HETATM    7  C8  UNL     1      14.957  -2.374  -2.250  1.00  0.00     0.087 C 
HETATM    8  C9  UNL     1      16.431  -2.055  -2.369  1.00  0.00     0.173 C 
HETATM    9  C10 UNL     1      16.703  -1.989  -3.879  1.00  0.00     0.241 C 
BRANCH   4  10
HETATM   10  O1  UNL     1      17.250  -4.238  -3.614  1.00  0.00    -0.353 OA
ATOM     11  H1  UNL     1      17.969  -3.755  -3.227  1.00  0.00     0.214 HD
ENDBRANCH   4  10
BRANCH   6  12
HETATM   12  C6  UNL     1      13.017  -3.279  -3.385  1.00  0.00     0.242 C 
BRANCH  12  13
HETATM   13  O3  UNL     1      12.857  -2.048  -3.994  1.00  0.00    -0.253 OA
BRANCH  13  14
HETATM   14  S1  UNL     1      12.411  -2.207  -5.584  1.00  0.00     0.251 S 
HETATM   15  O4  UNL     1      12.138  -3.656  -5.861  1.00  0.00    -0.572 OA
HETATM   16  O5  UNL     1      11.142  -1.443  -5.898  1.00  0.00    -0.572 OA
HETATM   17  O6  UNL     1      13.675  -1.633  -6.538  1.00  0.00    -0.572 OA
ENDBRANCH  13  14
ENDBRANCH  12  13
ENDBRANCH   6  12
BRANCH   6  18
HETATM   18  C7  UNL     1      14.516  -4.816  -2.314  1.00  0.00     0.211 C 
HETATM   19  O7  UNL     1      15.294  -5.028  -1.346  1.00  0.00    -0.646 OA
HETATM   20  O8  UNL     1      13.659  -5.842  -2.659  1.00  0.00    -0.646 OA
ENDBRANCH   6  18
BRANCH   8  21
HETATM   21  O9  UNL     1      16.657  -0.843  -1.761  1.00  0.00    -0.392 OA
ATOM     22  H9  UNL     1      17.596  -0.719  -1.689  1.00  0.00     0.210 HD
ENDBRANCH   8  21
BRANCH   9  23
HETATM   23  O10 UNL     1      15.760  -1.134  -4.421  1.00  0.00    -0.372 OA
ATOM     24  H10 UNL     1      15.906  -1.056  -5.356  1.00  0.00     0.211 HD
ENDBRANCH   9  23
BRANCH   9  25
HETATM   25  C11 UNL     1      18.059  -1.518  -4.167  1.00  0.00     0.218 C 
HETATM   26  O11 UNL     1      19.052  -1.975  -3.546  1.00  0.00    -0.645 OA
HETATM   27  O12 UNL     1      18.304  -0.551  -5.133  1.00  0.00    -0.645 OA
ENDBRANCH   9  25
ENDBRANCH   3   4
TORSDOF 9
ENDMDL
MODEL 4
REMARK VINA RESULT: -6.873767012      2.518      5.560
REMARK  9 active torsions:
REMARK  status: ('A' for Active; 'I' for Inactive)
REMARK    1  A    between atoms: C3_3  and  C4_4 
REMARK    2  A    between atoms: C4_4  and  O1_5 
REMARK    3  A    between atoms: C5_8  and  C6_9 
REMARK    4  A    between atoms: C5_8  and  C7_15 
REMARK    5  A    between atoms: C6_9  and  O3_10 
REMARK    6  A    between atoms: O3_10  and  S1_11 
REMARK    7  A    between atoms: C9_19  and  O9_20 
REMARK    8  A    between atoms: C10_22  and  O10_23 
REMARK    9  A    between atoms: C10_22  and  C11_25 
ROOT
HETATM    1  C1  UNL     1      17.515  -3.433  -8.338  1.00  0.00     0.112 C 
HETATM    2  C2  UNL     1      17.125  -3.428  -6.919  1.00  0.00    -0.105 C 
HETATM    3  C3  UNL     1      16.800  -3.422  -5.756  1.00  0.00    -0.035 C 
ENDROOT
BRANCH   3   4
HETATM    4  C4  UNL     1      16.403  -3.418  -4.330  1.00  0.00     0.277 C 
HETATM    5  O2  UNL     1      15.067  -3.674  -4.265  1.00  0.00    -0.317 OA
HETATM    6  C5  UNL     1      14.470  -3.563  -3.027  1.00  0.00     0.178 C 
HETATM    7  C8  UNL     1      14.927  -2.412  -2.205  1.00  0.00     0.087 C 
HETATM    8  C9  UNL     1      16.400  -2.092  -2.326  1.00  0.00     0.173 C 
HETATM    9  C10 UNL     1      16.669  -2.013  -3.836  1.00  0.00     0.241 C 
BRANCH   4  10
HETATM   10  O1  UNL     1      17.216  -4.264  -3.592  1.00  0.00    -0.353 OA
ATOM     11  H1  UNL     1      16.739  -5.040  -3.323  1.00  0.00     0.214 HD
ENDBRANCH   4  10
BRANCH   6  12
HETATM   12  C6  UNL     1      12.984  -3.307  -3.344  1.00  0.00     0.242 C 
BRANCH  12  13
HETATM   13  O3  UNL     1      12.810  -2.033  -3.852  1.00  0.00    -0.253 OA
BRANCH  13  14
HETATM   14  S1  UNL     1      11.820  -2.038  -5.184  1.00  0.00     0.251 S 
HETATM   15  O4  UNL     1      12.384  -1.090  -6.201  1.00  0.00    -0.572 OA
HETATM   16  O5  UNL     1      11.748  -3.404  -5.835  1.00  0.00    -0.572 OA
HETATM   17  O6  UNL     1      10.283  -1.558  -4.691  1.00  0.00    -0.572 OA
ENDBRANCH  13  14
ENDBRANCH  12  13
ENDBRANCH   6  12
BRANCH   6  18
HETATM   18  C7  UNL     1      14.485  -4.853  -2.290  1.00  0.00     0.211 C 
HETATM   19  O7  UNL     1      15.277  -5.079  -1.336  1.00  0.00    -0.646 OA
HETATM   20  O8  UNL     1      13.614  -5.869  -2.630  1.00  0.00    -0.646 OA
ENDBRANCH   6  18
BRANCH   8  21
HETATM   21  O9  UNL     1      16.628  -0.885  -1.708  1.00  0.00    -0.392 OA
ATOM     22  H9  UNL     1      17.298  -0.423  -2.199  1.00  0.00     0.210 HD
ENDBRANCH   8  21
BRANCH   9  23
HETATM   23  O10 UNL     1      15.725  -1.153  -4.368  1.00  0.00    -0.372 OA
ATOM     24  H10 UNL     1      15.722  -1.235  -5.315  1.00  0.00     0.211 HD
ENDBRANCH   9  23
BRANCH   9  25
HETATM   25  C11 UNL     1      18.024  -1.539  -4.124  1.00  0.00     0.218 C 
HETATM   26  O11 UNL     1      19.019  -2.002  -3.508  1.00  0.00    -0.645 OA
HETATM   27  O12 UNL     1      18.267  -0.565  -5.082  1.00  0.00    -0.645 OA
ENDBRANCH   9  25
ENDBRANCH   3   4
TORSDOF 9
ENDMDL
MODEL 5
REMARK VINA RESULT: -6.809400651      1.766      2.542
REMARK  9 active torsions:
REMARK  status: ('A' for Active; 'I' for Inactive)
REMARK    1  A    between atoms: C3_3  and  C4_4 
REMARK    2  A    between atoms: C4_4  and  O1_5 
REMARK    3  A    between atoms: C5_8  and  C6_9 
REMARK    4  A    between atoms: C5_8  and  C7_15 
REMARK    5  A    between atoms: C6_9  and  O3_10 
REMARK    6  A    between atoms: O3_10  and  S1_11 
REMARK    7  A    between atoms: C9_19  and  O9_20 
REMARK    8  A    between atoms: C10_22  and  O10_23 
REMARK    9  A    between atoms: C10_22  and  C11_25 
ROOT
HETATM    1  C1  UNL     1       8.845  -3.938  -2.665  1.00  0.00     0.112 C 
HETATM    2  C2  UNL     1      10.005  -3.733  -3.546  1.00  0.00    -0.105 C 
HETATM    3  C3  UNL     1      10.959  -3.571  -4.269  1.00  0.00    -0.035 C 
ENDROOT
BRANCH   3   4
HETATM    4  C4  UNL     1      12.126  -3.370  -5.157  1.00  0.00     0.277 C 
HETATM    5  O2  UNL     1      13.191  -3.030  -4.380  1.00  0.00    -0.317 OA
HETATM    6  C5  UNL     1      14.344  -2.651  -5.034  1.00  0.00     0.178 C 
HETATM    7  C8  UNL     1      14.141  -1.788  -6.227  1.00  0.00     0.087 C 
HETATM    8  C9  UNL     1      12.922  -2.130  -7.056  1.00  0.00     0.173 C 
HETATM    9  C10 UNL     1      11.764  -2.203  -6.049  1.00  0.00     0.241 C 
BRANCH   4  10
HETATM   10  O1  UNL     1      12.308  -4.468  -5.984  1.00  0.00    -0.353 OA
ATOM     11  H1  UNL     1      12.779  -4.222  -6.771  1.00  0.00     0.214 HD
ENDBRANCH   4  10
BRANCH   6  12
HETATM   12  C6  UNL     1      15.100  -1.791  -4.003  1.00  0.00     0.242 C 
BRANCH  12  13
HETATM   13  O3  UNL     1      14.520  -1.910  -2.754  1.00  0.00    -0.253 OA
BRANCH  13  14
HETATM   14  S1  UNL     1      15.613  -2.431  -1.620  1.00  0.00     0.251 S 
HETATM   15  O4  UNL     1      16.991  -2.042  -2.070  1.00  0.00    -0.572 OA
HETATM   16  O5  UNL     1      15.383  -1.787  -0.269  1.00  0.00    -0.572 OA
HETATM   17  O6  UNL     1      15.467  -4.104  -1.488  1.00  0.00    -0.572 OA
ENDBRANCH  13  14
ENDBRANCH  12  13
ENDBRANCH   6  12
BRANCH   6  18
HETATM   18  C7  UNL     1      15.239  -3.809  -5.292  1.00  0.00     0.211 C 
HETATM   19  O7  UNL     1      16.247  -3.731  -6.045  1.00  0.00    -0.646 OA
HETATM   20  O8  UNL     1      14.993  -5.034  -4.705  1.00  0.00    -0.646 OA
ENDBRANCH   6  18
BRANCH   8  21
HETATM   21  O9  UNL     1      12.732  -1.124  -7.973  1.00  0.00    -0.392 OA
ATOM     22  H9  UNL     1      12.950  -1.464  -8.834  1.00  0.00     0.210 HD
ENDBRANCH   8  21
BRANCH   9  23
HETATM   23  O10 UNL     1      11.797  -1.033  -5.312  1.00  0.00    -0.372 OA
ATOM     24  H10 UNL     1      12.267  -0.367  -5.799  1.00  0.00     0.211 HD
ENDBRANCH   9  23
BRANCH   9  25
HETATM   25  C11 UNL     1      10.470  -2.359  -6.719  1.00  0.00     0.218 C 
HETATM   26  O11 UNL     1       9.816  -1.359  -7.108  1.00  0.00    -0.645 OA
HETATM   27  O12 UNL     1       9.916  -3.611  -6.949  1.00  0.00    -0.645 OA
ENDBRANCH   9  25
ENDBRANCH   3   4
TORSDOF 9
ENDMDL
