MODEL 1
REMARK VINA RESULT: -8.007448286      0.000      0.000
REMARK  11 active torsions:
REMARK  status: ('A' for Active; 'I' for Inactive)
REMARK    1  A    between atoms: C2_2  and  C3_3 
REMARK    2  A    between atoms: C6_6  and  O1_7 
REMARK    3  A    between atoms: O1_7  and  C7_8 
REMARK    4  A    between atoms: C8_9  and  O2_10 
REMARK    5  A    between atoms: C9_12  and  O3_13 
REMARK    6  A    between atoms: C10_15  and  O4_16 
REMARK    7  A    between atoms: O4_16  and  C11_17 
REMARK    8  A    between atoms: C12_19  and  O6_20 
REMARK    9  A    between atoms: C13_22  and  O7_23 
REMARK   10  A    between atoms: C14_25  and  O8_26 
REMARK   11  A    between atoms: C15_28  and  O9_29 
ROOT
HETATM    1  C7  UNL     1      13.819  -3.256  -2.532  1.00  0.00     0.185 C 
HETATM    2  C8  UNL     1      14.159  -4.655  -2.029  1.00  0.00     0.181 C 
HETATM    3  C9  UNL     1      15.632  -4.266  -2.215  1.00  0.00     0.181 C 
HETATM    4  C10 UNL     1      15.172  -2.817  -2.003  1.00  0.00     0.187 C 
ENDROOT
BRANCH   4   5
HETATM    5  O4  UNL     1      15.817  -1.992  -2.886  1.00  0.00    -0.348 OA
BRANCH   5   6
HETATM    6  C11 UNL     1      16.938  -1.421  -2.292  1.00  0.00     0.294 C 
HETATM    7  O5  UNL     1      16.527  -0.208  -1.744  1.00  0.00    -0.326 OA
HETATM    8  C12 UNL     1      17.554   0.385  -0.988  1.00  0.00     0.291 C 
HETATM    9  C13 UNL     1      18.891   0.232  -1.678  1.00  0.00     0.204 C 
HETATM   10  C14 UNL     1      18.600   0.132  -3.168  1.00  0.00     0.185 C 
HETATM   11  C15 UNL     1      17.957  -1.220  -3.401  1.00  0.00     0.204 C 
BRANCH   8  12
HETATM   12  O6  UNL     1      17.556  -0.069   0.309  1.00  0.00    -0.368 OA
ATOM     13  H6  UNL     1      17.295  -0.981   0.362  1.00  0.00     0.212 HD
ENDBRANCH   8  12
BRANCH   9  14
HETATM   14  O7  UNL     1      19.554  -0.914  -1.310  1.00  0.00    -0.388 OA
ATOM     15  H7  UNL     1      20.299  -0.745  -0.745  1.00  0.00     0.210 HD
ENDBRANCH   9  14
BRANCH  10  16
HETATM   16  O8  UNL     1      19.761   0.305  -3.904  1.00  0.00    -0.390 OA
ATOM     17  H8  UNL     1      20.147  -0.535  -4.122  1.00  0.00     0.210 HD
ENDBRANCH  10  16
BRANCH  11  18
HETATM   18  O9  UNL     1      18.861  -2.248  -3.489  1.00  0.00    -0.388 OA
ATOM     19  H9  UNL     1      19.637  -2.105  -2.960  1.00  0.00     0.210 HD
ENDBRANCH  11  18
ENDBRANCH   5   6
ENDBRANCH   4   5
BRANCH   1  20
HETATM   20  O1  UNL     1      13.751  -3.126  -3.880  1.00  0.00    -0.373 OA
BRANCH  20  21
HETATM   21  C6  UNL     1      12.555  -2.753  -4.412  1.00  0.00     0.149 C 
HETATM   22  C5  UNL     1      11.866  -3.780  -5.245  1.00  0.00     0.076 C 
HETATM   23  C3  UNL     1      10.404  -3.424  -5.062  1.00  0.00     0.077 C 
HETATM   24  C4  UNL     1       9.821  -3.019  -6.401  1.00  0.00     0.050 C 
HETATM   25  O10 UNL     1      10.366  -2.311  -4.238  1.00  0.00    -0.374 OA
HETATM   26  C16 UNL     1      11.490  -2.404  -3.402  1.00  0.00     0.201 C 
BRANCH  23  27
HETATM   27  C2  UNL     1       9.667  -4.579  -4.480  1.00  0.00     0.000 C 
HETATM   28  C1  UNL     1       8.933  -4.443  -3.415  1.00  0.00     0.010 C 
ENDBRANCH  23  27
ENDBRANCH  20  21
ENDBRANCH   1  20
BRANCH   3  29
HETATM   29  O3  UNL     1      16.028  -4.539  -3.510  1.00  0.00    -0.390 OA
ATOM     30  H3  UNL     1      16.597  -3.847  -3.826  1.00  0.00     0.210 HD
ENDBRANCH   3  29
BRANCH   2  31
HETATM   31  O2  UNL     1      13.784  -5.686  -2.848  1.00  0.00    -0.390 OA
ATOM     32  H2  UNL     1      13.548  -5.440  -3.735  1.00  0.00     0.210 HD
ENDBRANCH   2  31
TORSDOF 11
ENDMDL
MODEL 2
REMARK VINA RESULT: -7.962035495      1.508      1.895
REMARK  11 active torsions:
REMARK  status: ('A' for Active; 'I' for Inactive)
REMARK    1  A    between atoms: C2_2  and  C3_3 
REMARK    2  A    between atoms: C6_6  and  O1_7 
REMARK    3  A    between atoms: O1_7  and  C7_8 
REMARK    4  A    between atoms: C8_9  and  O2_10 
REMARK    5  A    between atoms: C9_12  and  O3_13 
REMARK    6  A    between atoms: C10_15  and  O4_16 
REMARK    7  A    between atoms: O4_16  and  C11_17 
REMARK    8  A    between atoms: C12_19  and  O6_20 
REMARK    9  A    between atoms: C13_22  and  O7_23 
REMARK   10  A    between atoms: C14_25  and  O8_26 
REMARK   11  A    between atoms: C15_28  and  O9_29 
ROOT
HETATM    1  C7  UNL     1      13.167  -3.008  -3.116  1.00  0.00     0.185 C 
HETATM    2  C8  UNL     1      12.432  -4.133  -2.395  1.00  0.00     0.181 C 
HETATM    3  C9  UNL     1      13.808  -4.781  -2.194  1.00  0.00     0.181 C 
HETATM    4  C10 UNL     1      14.379  -3.359  -2.272  1.00  0.00     0.187 C 
ENDROOT
BRANCH   4   5
HETATM    5  O4  UNL     1      15.530  -3.361  -3.016  1.00  0.00    -0.348 OA
BRANCH   5   6
HETATM    6  C11 UNL     1      16.443  -2.443  -2.507  1.00  0.00     0.294 C 
HETATM    7  O5  UNL     1      15.702  -1.361  -2.036  1.00  0.00    -0.326 OA
HETATM    8  C12 UNL     1      16.521  -0.436  -1.365  1.00  0.00     0.291 C 
HETATM    9  C13 UNL     1      17.836  -0.251  -2.088  1.00  0.00     0.204 C 
HETATM   10  C14 UNL     1      17.568  -0.553  -3.555  1.00  0.00     0.185 C 
HETATM   11  C15 UNL     1      17.345  -2.046  -3.663  1.00  0.00     0.204 C 
BRANCH   8  12
HETATM   12  O6  UNL     1      16.670  -0.761  -0.037  1.00  0.00    -0.368 OA
ATOM     13  H6  UNL     1      17.582  -0.911   0.186  1.00  0.00     0.212 HD
ENDBRANCH   8  12
BRANCH   9  14
HETATM   14  O7  UNL     1      18.809  -1.121  -1.659  1.00  0.00    -0.388 OA
ATOM     15  H7  UNL     1      19.396  -0.734  -1.020  1.00  0.00     0.210 HD
ENDBRANCH   9  14
BRANCH  10  16
HETATM   16  O8  UNL     1      18.620  -0.110  -4.343  1.00  0.00    -0.390 OA
ATOM     17  H8  UNL     1      18.414  -0.218  -5.264  1.00  0.00     0.210 HD
ENDBRANCH  10  16
BRANCH  11  18
HETATM   18  O9  UNL     1      18.508  -2.773  -3.706  1.00  0.00    -0.388 OA
ATOM     19  H9  UNL     1      18.521  -3.410  -4.410  1.00  0.00     0.210 HD
ENDBRANCH  11  18
ENDBRANCH   5   6
ENDBRANCH   4   5
BRANCH   1  20
HETATM   20  O1  UNL     1      13.405  -3.223  -4.435  1.00  0.00    -0.373 OA
BRANCH  20  21
HETATM   21  C6  UNL     1      12.809  -2.381  -5.323  1.00  0.00     0.149 C 
HETATM   22  C5  UNL     1      12.285  -3.015  -6.566  1.00  0.00     0.076 C 
HETATM   23  C3  UNL     1      11.131  -2.105  -6.937  1.00  0.00     0.077 C 
HETATM   24  C4  UNL     1      11.423  -1.457  -8.276  1.00  0.00     0.050 C 
HETATM   25  O10 UNL     1      11.097  -1.098  -5.986  1.00  0.00    -0.374 OA
HETATM   26  C16 UNL     1      11.589  -1.664  -4.799  1.00  0.00     0.201 C 
BRANCH  23  27
HETATM   27  C2  UNL     1       9.862  -2.882  -6.979  1.00  0.00     0.000 C 
HETATM   28  C1  UNL     1       9.008  -2.727  -7.948  1.00  0.00     0.010 C 
ENDBRANCH  23  27
ENDBRANCH  20  21
ENDBRANCH   1  20
BRANCH   3  29
HETATM   29  O3  UNL     1      14.120  -5.566  -3.287  1.00  0.00    -0.390 OA
ATOM     30  H3  UNL     1      13.509  -6.290  -3.349  1.00  0.00     0.210 HD
ENDBRANCH   3  29
BRANCH   2  31
HETATM   31  O2  UNL     1      11.605  -4.894  -3.176  1.00  0.00    -0.390 OA
ATOM     32  H2  UNL     1      11.925  -5.083  -4.050  1.00  0.00     0.210 HD
ENDBRANCH   2  31
TORSDOF 11
ENDMDL
MODEL 3
REMARK VINA RESULT: -7.946876001      2.913      7.125
REMARK  11 active torsions:
REMARK  status: ('A' for Active; 'I' for Inactive)
REMARK    1  A    between atoms: C2_2  and  C3_3 
REMARK    2  A    between atoms: C6_6  and  O1_7 
REMARK    3  A    between atoms: O1_7  and  C7_8 
REMARK    4  A    between atoms: C8_9  and  O2_10 
REMARK    5  A    between atoms: C9_12  and  O3_13 
REMARK    6  A    between atoms: C10_15  and  O4_16 
REMARK    7  A    between atoms: O4_16  and  C11_17 
REMARK    8  A    between atoms: C12_19  and  O6_20 
REMARK    9  A    between atoms: C13_22  and  O7_23 
REMARK   10  A    between atoms: C14_25  and  O8_26 
REMARK   11  A    between atoms: C15_28  and  O9_29 
ROOT
HETATM    1  C7  UNL     1      15.299  -1.444  -6.796  1.00  0.00     0.185 C 
HETATM    2  C8  UNL     1      15.296  -0.590  -8.060  1.00  0.00     0.181 C 
HETATM    3  C9  UNL     1      14.267  -1.582  -8.619  1.00  0.00     0.181 C 
HETATM    4  C10 UNL     1      13.883  -1.853  -7.158  1.00  0.00     0.187 C 
ENDROOT
BRANCH   4   5
HETATM    5  O4  UNL     1      13.681  -3.195  -6.972  1.00  0.00    -0.348 OA
BRANCH   5   6
HETATM    6  C11 UNL     1      12.656  -3.413  -6.056  1.00  0.00     0.294 C 
HETATM    7  O5  UNL     1      11.707  -2.416  -6.272  1.00  0.00    -0.326 OA
HETATM    8  C12 UNL     1      10.556  -2.631  -5.495  1.00  0.00     0.291 C 
HETATM    9  C13 UNL     1      10.921  -3.099  -4.104  1.00  0.00     0.204 C 
HETATM   10  C14 UNL     1      12.304  -2.538  -3.808  1.00  0.00     0.185 C 
HETATM   11  C15 UNL     1      13.283  -3.302  -4.676  1.00  0.00     0.204 C 
BRANCH   8  12
HETATM   12  O6  UNL     1       9.662  -3.459  -6.131  1.00  0.00    -0.368 OA
ATOM     13  H6  UNL     1       9.214  -4.030  -5.516  1.00  0.00     0.212 HD
ENDBRANCH   8  12
BRANCH   9  14
HETATM   14  O7  UNL     1      11.001  -4.467  -4.003  1.00  0.00    -0.388 OA
ATOM     15  H7  UNL     1      11.778  -4.759  -3.542  1.00  0.00     0.210 HD
ENDBRANCH   9  14
BRANCH  10  16
HETATM   16  O8  UNL     1      12.593  -2.642  -2.457  1.00  0.00    -0.390 OA
ATOM     17  H8  UNL     1      13.510  -2.449  -2.296  1.00  0.00     0.210 HD
ENDBRANCH  10  16
BRANCH  11  18
HETATM   18  O9  UNL     1      13.643  -4.519  -4.154  1.00  0.00    -0.388 OA
ATOM     19  H9  UNL     1      12.902  -5.012  -3.821  1.00  0.00     0.210 HD
ENDBRANCH  11  18
ENDBRANCH   5   6
ENDBRANCH   4   5
BRANCH   1  20
HETATM   20  O1  UNL     1      16.140  -2.508  -6.817  1.00  0.00    -0.373 OA
BRANCH  20  21
HETATM   21  C6  UNL     1      17.023  -2.627  -5.788  1.00  0.00     0.149 C 
HETATM   22  C5  UNL     1      16.812  -1.698  -4.642  1.00  0.00     0.076 C 
HETATM   23  C3  UNL     1      17.363  -2.490  -3.473  1.00  0.00     0.077 C 
HETATM   24  C4  UNL     1      18.553  -1.752  -2.891  1.00  0.00     0.050 C 
HETATM   25  O10 UNL     1      17.827  -3.689  -3.987  1.00  0.00    -0.374 OA
HETATM   26  C16 UNL     1      17.025  -3.972  -5.104  1.00  0.00     0.201 C 
BRANCH  23  27
HETATM   27  C2  UNL     1      16.301  -2.692  -2.448  1.00  0.00     0.000 C 
HETATM   28  C1  UNL     1      15.907  -1.715  -1.684  1.00  0.00     0.010 C 
ENDBRANCH  23  27
ENDBRANCH  20  21
ENDBRANCH   1  20
BRANCH   3  29
HETATM   29  O3  UNL     1      14.917  -2.639  -9.227  1.00  0.00    -0.390 OA
ATOM     30  H3  UNL     1      14.571  -2.769 -10.102  1.00  0.00     0.210 HD
ENDBRANCH   3  29
BRANCH   2  31
HETATM   31  O2  UNL     1      16.463  -0.590  -8.776  1.00  0.00    -0.390 OA
ATOM     32  H2  UNL     1      16.661   0.215  -9.238  1.00  0.00     0.210 HD
ENDBRANCH   2  31
TORSDOF 11
ENDMDL
MODEL 4
REMARK VINA RESULT: -7.916992033      2.818      7.536
REMARK  11 active torsions:
REMARK  status: ('A' for Active; 'I' for Inactive)
REMARK    1  A    between atoms: C2_2  and  C3_3 
REMARK    2  A    between atoms: C6_6  and  O1_7 
REMARK    3  A    between atoms: O1_7  and  C7_8 
REMARK    4  A    between atoms: C8_9  and  O2_10 
REMARK    5  A    between atoms: C9_12  and  O3_13 
REMARK    6  A    between atoms: C10_15  and  O4_16 
REMARK    7  A    between atoms: O4_16  and  C11_17 
REMARK    8  A    between atoms: C12_19  and  O6_20 
REMARK    9  A    between atoms: C13_22  and  O7_23 
REMARK   10  A    between atoms: C14_25  and  O8_26 
REMARK   11  A    between atoms: C15_28  and  O9_29 
ROOT
HETATM    1  C7  UNL     1      14.732  -1.405  -6.522  1.00  0.00     0.185 C 
HETATM    2  C8  UNL     1      14.977  -0.446  -7.682  1.00  0.00     0.181 C 
HETATM    3  C9  UNL     1      13.707  -1.031  -8.315  1.00  0.00     0.181 C 
HETATM    4  C10 UNL     1      13.259  -1.348  -6.882  1.00  0.00     0.187 C 
ENDROOT
BRANCH   4   5
HETATM    5  O4  UNL     1      12.680  -2.589  -6.841  1.00  0.00    -0.348 OA
BRANCH   5   6
HETATM    6  C11 UNL     1      11.753  -2.662  -5.806  1.00  0.00     0.294 C 
HETATM    7  O5  UNL     1      12.322  -3.457  -4.814  1.00  0.00    -0.326 OA
HETATM    8  C12 UNL     1      11.525  -3.475  -3.655  1.00  0.00     0.291 C 
HETATM    9  C13 UNL     1      10.058  -3.565  -4.008  1.00  0.00     0.204 C 
HETATM   10  C14 UNL     1       9.979  -4.271  -5.354  1.00  0.00     0.185 C 
HETATM   11  C15 UNL     1      10.504  -3.300  -6.391  1.00  0.00     0.204 C 
BRANCH   8  12
HETATM   12  O6  UNL     1      11.821  -2.424  -2.820  1.00  0.00    -0.368 OA
ATOM     13  H6  UNL     1      12.252  -2.718  -2.026  1.00  0.00     0.212 HD
ENDBRANCH   8  12
BRANCH   9  14
HETATM   14  O7  UNL     1       9.466  -2.333  -4.154  1.00  0.00    -0.388 OA
ATOM     15  H7  UNL     1       8.523  -2.361  -4.050  1.00  0.00     0.210 HD
ENDBRANCH   9  14
BRANCH  10  16
HETATM   16  O8  UNL     1       8.681  -4.680  -5.614  1.00  0.00    -0.390 OA
ATOM     17  H8  UNL     1       8.329  -4.216  -6.364  1.00  0.00     0.210 HD
ENDBRANCH  10  16
BRANCH  11  18
HETATM   18  O9  UNL     1       9.574  -2.377  -6.799  1.00  0.00    -0.388 OA
ATOM     19  H9  UNL     1       9.146  -2.619  -7.611  1.00  0.00     0.210 HD
ENDBRANCH  11  18
ENDBRANCH   5   6
ENDBRANCH   4   5
BRANCH   1  20
HETATM   20  O1  UNL     1      15.233  -2.655  -6.688  1.00  0.00    -0.373 OA
BRANCH  20  21
HETATM   21  C6  UNL     1      16.268  -3.025  -5.886  1.00  0.00     0.149 C 
HETATM   22  C5  UNL     1      16.725  -2.002  -4.903  1.00  0.00     0.076 C 
HETATM   23  C3  UNL     1      17.267  -2.853  -3.773  1.00  0.00     0.077 C 
HETATM   24  C4  UNL     1      18.752  -2.588  -3.620  1.00  0.00     0.050 C 
HETATM   25  O10 UNL     1      17.119  -4.175  -4.163  1.00  0.00    -0.374 OA
HETATM   26  C16 UNL     1      15.991  -4.212  -4.997  1.00  0.00     0.201 C 
BRANCH  23  27
HETATM   27  C2  UNL     1      16.534  -2.554  -2.512  1.00  0.00     0.000 C 
HETATM   28  C1  UNL     1      16.396  -1.333  -2.085  1.00  0.00     0.010 C 
ENDBRANCH  23  27
ENDBRANCH  20  21
ENDBRANCH   1  20
BRANCH   3  29
HETATM   29  O3  UNL     1      14.028  -2.151  -9.058  1.00  0.00    -0.390 OA
ATOM     30  H3  UNL     1      14.105  -2.905  -8.486  1.00  0.00     0.210 HD
ENDBRANCH   3  29
BRANCH   2  31
HETATM   31  O2  UNL     1      16.096  -0.695  -8.430  1.00  0.00    -0.390 OA
ATOM     32  H2  UNL     1      16.182  -1.583  -8.756  1.00  0.00     0.210 HD
ENDBRANCH   2  31
TORSDOF 11
ENDMDL
MODEL 5
REMARK VINA RESULT: -7.868425141      1.727      7.358
REMARK  11 active torsions:
REMARK  status: ('A' for Active; 'I' for Inactive)
REMARK    1  A    between atoms: C2_2  and  C3_3 
REMARK    2  A    between atoms: C6_6  and  O1_7 
REMARK    3  A    between atoms: O1_7  and  C7_8 
REMARK    4  A    between atoms: C8_9  and  O2_10 
REMARK    5  A    between atoms: C9_12  and  O3_13 
REMARK    6  A    between atoms: C10_15  and  O4_16 
REMARK    7  A    between atoms: O4_16  and  C11_17 
REMARK    8  A    between atoms: C12_19  and  O6_20 
REMARK    9  A    between atoms: C13_22  and  O7_23 
REMARK   10  A    between atoms: C14_25  and  O8_26 
REMARK   11  A    between atoms: C15_28  and  O9_29 
ROOT
HETATM    1  C7  UNL     1      15.143  -2.915  -3.856  1.00  0.00     0.185 C 
HETATM    2  C8  UNL     1      15.881  -4.230  -4.092  1.00  0.00     0.181 C 
HETATM    3  C9  UNL     1      14.533  -4.924  -3.856  1.00  0.00     0.181 C 
HETATM    4  C10 UNL     1      13.888  -3.618  -4.341  1.00  0.00     0.187 C 
ENDROOT
BRANCH   4   5
HETATM    5  O4  UNL     1      12.805  -3.316  -3.559  1.00  0.00    -0.348 OA
BRANCH   5   6
HETATM    6  C11 UNL     1      11.690  -3.053  -4.349  1.00  0.00     0.294 C 
HETATM    7  O5  UNL     1      11.404  -4.226  -5.042  1.00  0.00    -0.326 OA
HETATM    8  C12 UNL     1      10.202  -4.113  -5.762  1.00  0.00     0.291 C 
HETATM    9  C13 UNL     1      10.084  -2.752  -6.411  1.00  0.00     0.204 C 
HETATM   10  C14 UNL     1      11.506  -2.261  -6.646  1.00  0.00     0.185 C 
HETATM   11  C15 UNL     1      12.086  -1.926  -5.288  1.00  0.00     0.204 C 
BRANCH   8  12
HETATM   12  O6  UNL     1       9.114  -4.443  -4.988  1.00  0.00    -0.368 OA
ATOM     13  H6  UNL     1       9.377  -4.842  -4.167  1.00  0.00     0.212 HD
ENDBRANCH   8  12
BRANCH   9  14
HETATM   14  O7  UNL     1       9.458  -1.829  -5.608  1.00  0.00    -0.388 OA
ATOM     15  H7  UNL     1       9.935  -1.010  -5.544  1.00  0.00     0.210 HD
ENDBRANCH   9  14
BRANCH  10  16
HETATM   16  O8  UNL     1      11.510  -1.179  -7.512  1.00  0.00    -0.390 OA
ATOM     17  H8  UNL     1      11.783  -0.391  -7.059  1.00  0.00     0.210 HD
ENDBRANCH  10  16
BRANCH  11  18
HETATM   18  O9  UNL     1      11.715  -0.689  -4.825  1.00  0.00    -0.388 OA
ATOM     19  H9  UNL     1      11.214  -0.191  -5.460  1.00  0.00     0.210 HD
ENDBRANCH  11  18
ENDBRANCH   5   6
ENDBRANCH   4   5
BRANCH   1  20
HETATM   20  O1  UNL     1      15.028  -2.540  -2.558  1.00  0.00    -0.373 OA
BRANCH  20  21
HETATM   21  C6  UNL     1      15.692  -1.418  -2.170  1.00  0.00     0.149 C 
HETATM   22  C5  UNL     1      16.737  -1.611  -1.124  1.00  0.00     0.076 C 
HETATM   23  C3  UNL     1      17.718  -0.497  -1.431  1.00  0.00     0.077 C 
HETATM   24  C4  UNL     1      17.769   0.456  -0.253  1.00  0.00     0.050 C 
HETATM   25  O10 UNL     1      17.202   0.202  -2.510  1.00  0.00    -0.374 OA
HETATM   26  C16 UNL     1      16.469  -0.729  -3.264  1.00  0.00     0.201 C 
BRANCH  23  27
HETATM   27  C2  UNL     1      19.062  -1.067  -1.722  1.00  0.00     0.000 C 
HETATM   28  C1  UNL     1      19.814  -0.575  -2.662  1.00  0.00     0.010 C 
ENDBRANCH  23  27
ENDBRANCH  20  21
ENDBRANCH   1  20
BRANCH   3  29
HETATM   29  O3  UNL     1      14.358  -5.161  -2.506  1.00  0.00    -0.390 OA
ATOM     30  H3  UNL     1      14.659  -6.036  -2.292  1.00  0.00     0.210 HD
ENDBRANCH   3  29
BRANCH   2  31
HETATM   31  O2  UNL     1      16.812  -4.563  -3.146  1.00  0.00    -0.390 OA
ATOM     32  H2  UNL     1      16.637  -5.360  -2.661  1.00  0.00     0.210 HD
ENDBRANCH   2  31
TORSDOF 11
ENDMDL
