MODEL 1
REMARK VINA RESULT: -8.434497511      0.000      0.000
REMARK  8 active torsions:
REMARK  status: ('A' for Active; 'I' for Inactive)
REMARK    1  A    between atoms: O1_2  and  N1_3 
REMARK       I    between atoms: N1_3  and  C2_5 
REMARK    2  A    between atoms: C2_5  and  C3_7 
REMARK    3  A    between atoms: C3_7  and  N2_8 
REMARK    4  A    between atoms: N2_8  and  N3_9 
REMARK    5  A    between atoms: N2_8  and  C9_25 
REMARK    6  A    between atoms: N4_11  and  C4_13 
REMARK    7  A    between atoms: C9_25  and  C10_29 
REMARK       I    between atoms: C10_29  and  N9_31 
REMARK    8  A    between atoms: N9_31  and  N10_33 
ROOT
HETATM    1  C4  UNL     1       9.671  -0.320   6.003  1.00  0.00     0.151 A 
HETATM    2  N5  UNL     1       8.406   0.017   6.309  1.00  0.00    -0.292 N 
ATOM      3  H5  UNL     1       7.739  -0.720   6.543  1.00  0.00     0.172 HD
HETATM    4  C5  UNL     1       7.994   1.295   6.315  1.00  0.00     0.328 A 
HETATM    5  O3  UNL     1       6.821   1.649   6.596  1.00  0.00    -0.247 OA
HETATM    6  N6  UNL     1       8.896   2.252   6.001  1.00  0.00    -0.274 N 
ATOM      7  H6  UNL     1       8.589   3.224   6.002  1.00  0.00     0.173 HD
HETATM    8  C6  UNL     1      10.169   1.988   5.686  1.00  0.00     0.274 A 
HETATM    9  O4  UNL     1      11.005   2.887   5.393  1.00  0.00    -0.266 OA
HETATM   10  C7  UNL     1      10.598   0.679   5.678  1.00  0.00     0.158 A 
HETATM   11  C8  UNL     1      11.963   0.350   5.346  1.00  0.00     0.109 C 
HETATM   12  N7  UNL     1      13.071   0.101   5.061  1.00  0.00    -0.191 NA
ENDROOT
BRANCH   1  13
HETATM   13  N4  UNL     1      10.156  -1.644   5.981  1.00  0.00    -0.269 N 
HETATM   14  N3  UNL     1       9.711  -2.568   6.720  1.00  0.00    -0.237 N 
ATOM     15  H3  UNL     1       8.958  -2.337   7.367  1.00  0.00     0.208 HD
ATOM     16  H4  UNL     1      10.910  -1.868   5.332  1.00  0.00     0.190 HD
BRANCH  14  17
HETATM   17  N2  UNL     1      10.172  -3.866   6.713  1.00  0.00    -0.249 N 
BRANCH  17  18
HETATM   18  C3  UNL     1      11.254  -4.332   5.858  1.00  0.00     0.257 C 
BRANCH  18  19
HETATM   19  C2  UNL     1      12.573  -4.077   6.443  1.00  0.00     0.261 C 
HETATM   20  N1  UNL     1      13.414  -5.180   6.747  1.00  0.00    -0.234 N 
ATOM     21  H1  UNL     1      13.078  -6.123   6.551  1.00  0.00     0.197 HD
HETATM   22  O2  UNL     1      13.005  -2.929   6.690  1.00  0.00    -0.269 OA
BRANCH  20  23
HETATM   23  O1  UNL     1      14.647  -5.026   7.289  1.00  0.00    -0.283 OA
HETATM   24  C1  UNL     1      15.513  -6.055   7.024  1.00  0.00     0.237 C 
ENDBRANCH  20  23
ENDBRANCH  18  19
ENDBRANCH  17  18
BRANCH  17  25
HETATM   25  C9  UNL     1       9.596  -4.845   7.567  1.00  0.00     0.188 C 
HETATM   26  N8  UNL     1       9.961  -6.053   7.379  1.00  0.00    -0.380 N 
ATOM     27  H82 UNL     1      10.630  -6.313   6.654  1.00  0.00     0.158 HD
ATOM     28  H81 UNL     1       9.548  -6.756   7.992  1.00  0.00     0.158 HD
BRANCH  25  29
HETATM   29  C10 UNL     1       8.647  -4.478   8.597  1.00  0.00     0.304 C 
HETATM   30  O5  UNL     1       7.472  -4.078   8.263  1.00  0.00    -0.263 OA
HETATM   31  N9  UNL     1       8.952  -4.535   9.982  1.00  0.00    -0.270 N 
ATOM     32  H9  UNL     1       9.878  -4.846  10.278  1.00  0.00     0.189 HD
BRANCH  31  33
HETATM   33  N10 UNL     1       8.010  -4.174  10.947  1.00  0.00    -0.342 N 
ATOM     34 2H10 UNL     1       7.222  -3.595  10.661  1.00  0.00     0.176 HD
ATOM     35 1H10 UNL     1       8.102  -4.479  11.917  1.00  0.00     0.176 HD
ENDBRANCH  31  33
ENDBRANCH  25  29
ENDBRANCH  17  25
ENDBRANCH  14  17
ENDBRANCH   1  13
TORSDOF 8
ENDMDL
MODEL 2
REMARK VINA RESULT: -8.353468503      1.018      1.026
REMARK  8 active torsions:
REMARK  status: ('A' for Active; 'I' for Inactive)
REMARK    1  A    between atoms: O1_2  and  N1_3 
REMARK       I    between atoms: N1_3  and  C2_5 
REMARK    2  A    between atoms: C2_5  and  C3_7 
REMARK    3  A    between atoms: C3_7  and  N2_8 
REMARK    4  A    between atoms: N2_8  and  N3_9 
REMARK    5  A    between atoms: N2_8  and  C9_25 
REMARK    6  A    between atoms: N4_11  and  C4_13 
REMARK    7  A    between atoms: C9_25  and  C10_29 
REMARK       I    between atoms: C10_29  and  N9_31 
REMARK    8  A    between atoms: N9_31  and  N10_33 
ROOT
HETATM    1  C4  UNL     1       9.675  -0.332   6.039  1.00  0.00     0.151 A 
HETATM    2  N5  UNL     1       8.411  -0.014   6.366  1.00  0.00    -0.292 N 
ATOM      3  H5  UNL     1       7.755  -0.761   6.597  1.00  0.00     0.172 HD
HETATM    4  C5  UNL     1       7.986   1.259   6.398  1.00  0.00     0.328 A 
HETATM    5  O3  UNL     1       6.814   1.597   6.699  1.00  0.00    -0.247 OA
HETATM    6  N6  UNL     1       8.874   2.230   6.088  1.00  0.00    -0.274 N 
ATOM      7  H6  UNL     1       8.558   3.200   6.109  1.00  0.00     0.173 HD
HETATM    8  C6  UNL     1      10.146   1.985   5.753  1.00  0.00     0.274 A 
HETATM    9  O4  UNL     1      10.969   2.897   5.464  1.00  0.00    -0.266 OA
HETATM   10  C7  UNL     1      10.588   0.681   5.719  1.00  0.00     0.158 A 
HETATM   11  C8  UNL     1      11.952   0.372   5.364  1.00  0.00     0.109 C 
HETATM   12  N7  UNL     1      13.059   0.138   5.062  1.00  0.00    -0.191 NA
ENDROOT
BRANCH   1  13
HETATM   13  N4  UNL     1      10.174  -1.651   5.991  1.00  0.00    -0.269 N 
HETATM   14  N3  UNL     1      10.351  -2.374   7.013  1.00  0.00    -0.237 N 
ATOM     15  H3  UNL     1      10.118  -1.975   7.922  1.00  0.00     0.208 HD
ATOM     16  H4  UNL     1      10.404  -2.043   5.078  1.00  0.00     0.190 HD
BRANCH  14  17
HETATM   17  N2  UNL     1      10.836  -3.663   6.985  1.00  0.00    -0.249 N 
BRANCH  17  18
HETATM   18  C3  UNL     1      12.001  -4.068   6.212  1.00  0.00     0.257 C 
BRANCH  18  19
HETATM   19  C2  UNL     1      13.200  -4.201   7.044  1.00  0.00     0.261 C 
HETATM   20  N1  UNL     1      14.213  -5.114   6.649  1.00  0.00    -0.234 N 
ATOM     21  H1  UNL     1      14.079  -5.657   5.794  1.00  0.00     0.197 HD
HETATM   22  O2  UNL     1      13.384  -3.545   8.093  1.00  0.00    -0.269 OA
BRANCH  20  23
HETATM   23  O1  UNL     1      15.350  -5.293   7.363  1.00  0.00    -0.283 OA
HETATM   24  C1  UNL     1      15.955  -6.507   7.169  1.00  0.00     0.237 C 
ENDBRANCH  20  23
ENDBRANCH  18  19
ENDBRANCH  17  18
BRANCH  17  25
HETATM   25  C9  UNL     1      10.203  -4.693   7.732  1.00  0.00     0.188 C 
HETATM   26  N8  UNL     1       9.834  -5.726   7.082  1.00  0.00    -0.380 N 
ATOM     27  H82 UNL     1       9.980  -5.817   6.076  1.00  0.00     0.158 HD
ATOM     28  H81 UNL     1       9.380  -6.465   7.618  1.00  0.00     0.158 HD
BRANCH  25  29
HETATM   29  C10 UNL     1       9.996  -4.565   9.160  1.00  0.00     0.304 C 
HETATM   30  O5  UNL     1       8.839  -4.821   9.658  1.00  0.00    -0.263 OA
HETATM   31  N9  UNL     1      11.022  -4.163  10.054  1.00  0.00    -0.270 N 
ATOM     32  H9  UNL     1      11.950  -3.950   9.688  1.00  0.00     0.189 HD
BRANCH  31  33
HETATM   33  N10 UNL     1      10.786  -4.052  11.426  1.00  0.00    -0.342 N 
ATOM     34 2H10 UNL     1      10.440  -3.164  11.787  1.00  0.00     0.176 HD
ATOM     35 1H10 UNL     1      10.952  -4.836  12.057  1.00  0.00     0.176 HD
ENDBRANCH  31  33
ENDBRANCH  25  29
ENDBRANCH  17  25
ENDBRANCH  14  17
ENDBRANCH   1  13
TORSDOF 8
ENDMDL
MODEL 3
REMARK VINA RESULT: -8.275452224      1.938      2.971
REMARK  8 active torsions:
REMARK  status: ('A' for Active; 'I' for Inactive)
REMARK    1  A    between atoms: O1_2  and  N1_3 
REMARK       I    between atoms: N1_3  and  C2_5 
REMARK    2  A    between atoms: C2_5  and  C3_7 
REMARK    3  A    between atoms: C3_7  and  N2_8 
REMARK    4  A    between atoms: N2_8  and  N3_9 
REMARK    5  A    between atoms: N2_8  and  C9_25 
REMARK    6  A    between atoms: N4_11  and  C4_13 
REMARK    7  A    between atoms: C9_25  and  C10_29 
REMARK       I    between atoms: C10_29  and  N9_31 
REMARK    8  A    between atoms: N9_31  and  N10_33 
ROOT
HETATM    1  C4  UNL     1      11.278  -0.555   5.422  1.00  0.00     0.151 A 
HETATM    2  N5  UNL     1      12.215   0.065   4.684  1.00  0.00    -0.292 N 
ATOM      3  H5  UNL     1      12.968  -0.487   4.272  1.00  0.00     0.172 HD
HETATM    4  C5  UNL     1      12.188   1.390   4.472  1.00  0.00     0.328 A 
HETATM    5  O3  UNL     1      13.044   2.006   3.788  1.00  0.00    -0.247 OA
HETATM    6  N6  UNL     1      11.180   2.100   5.028  1.00  0.00    -0.274 N 
ATOM      7  H6  UNL     1      11.154   3.107   4.872  1.00  0.00     0.173 HD
HETATM    8  C6  UNL     1      10.216   1.548   5.774  1.00  0.00     0.274 A 
HETATM    9  O4  UNL     1       9.279   2.216   6.291  1.00  0.00    -0.266 OA
HETATM   10  C7  UNL     1      10.237   0.188   5.995  1.00  0.00     0.158 A 
HETATM   11  C8  UNL     1       9.217  -0.448   6.792  1.00  0.00     0.109 C 
HETATM   12  N7  UNL     1       8.388  -0.945   7.452  1.00  0.00    -0.191 NA
ENDROOT
BRANCH   1  13
HETATM   13  N4  UNL     1      11.258  -1.942   5.676  1.00  0.00    -0.269 N 
HETATM   14  N3  UNL     1      12.197  -2.567   6.247  1.00  0.00    -0.237 N 
ATOM     15  H3  UNL     1      13.014  -2.030   6.540  1.00  0.00     0.208 HD
ATOM     16  H4  UNL     1      10.438  -2.473   5.381  1.00  0.00     0.190 HD
BRANCH  14  17
HETATM   17  N2  UNL     1      12.195  -3.920   6.503  1.00  0.00    -0.249 N 
BRANCH  17  18
HETATM   18  C3  UNL     1      13.116  -4.859   5.880  1.00  0.00     0.257 C 
BRANCH  18  19
HETATM   19  C2  UNL     1      14.055  -5.439   6.843  1.00  0.00     0.261 C 
HETATM   20  N1  UNL     1      14.178  -6.852   6.917  1.00  0.00    -0.234 N 
ATOM     21  H1  UNL     1      13.608  -7.428   6.296  1.00  0.00     0.197 HD
HETATM   22  O2  UNL     1      14.763  -4.752   7.611  1.00  0.00    -0.269 OA
BRANCH  20  23
HETATM   23  O1  UNL     1      15.024  -7.464   7.781  1.00  0.00    -0.283 OA
HETATM   24  C1  UNL     1      16.264  -7.732   7.262  1.00  0.00     0.237 C 
ENDBRANCH  20  23
ENDBRANCH  18  19
ENDBRANCH  17  18
BRANCH  17  25
HETATM   25  C9  UNL     1      11.265  -4.484   7.418  1.00  0.00     0.188 C 
HETATM   26  N8  UNL     1      10.430  -5.321   6.940  1.00  0.00    -0.380 N 
ATOM     27  H82 UNL     1      10.421  -5.577   5.953  1.00  0.00     0.158 HD
ATOM     28  H81 UNL     1       9.762  -5.726   7.596  1.00  0.00     0.158 HD
BRANCH  25  29
HETATM   29  C10 UNL     1      11.277  -4.121   8.820  1.00  0.00     0.304 C 
HETATM   30  O5  UNL     1      12.266  -3.450   9.292  1.00  0.00    -0.263 OA
HETATM   31  N9  UNL     1      10.236  -4.476   9.717  1.00  0.00    -0.270 N 
ATOM     32  H9  UNL     1       9.439  -5.011   9.372  1.00  0.00     0.189 HD
BRANCH  31  33
HETATM   33  N10 UNL     1      10.281  -4.107  11.063  1.00  0.00    -0.342 N 
ATOM     34 2H10 UNL     1      11.069  -3.545  11.384  1.00  0.00     0.176 HD
ATOM     35 1H10 UNL     1       9.548  -4.389  11.714  1.00  0.00     0.176 HD
ENDBRANCH  31  33
ENDBRANCH  25  29
ENDBRANCH  17  25
ENDBRANCH  14  17
ENDBRANCH   1  13
TORSDOF 8
ENDMDL
MODEL 4
REMARK VINA RESULT: -8.208190507      1.376      3.719
REMARK  8 active torsions:
REMARK  status: ('A' for Active; 'I' for Inactive)
REMARK    1  A    between atoms: O1_2  and  N1_3 
REMARK       I    between atoms: N1_3  and  C2_5 
REMARK    2  A    between atoms: C2_5  and  C3_7 
REMARK    3  A    between atoms: C3_7  and  N2_8 
REMARK    4  A    between atoms: N2_8  and  N3_9 
REMARK    5  A    between atoms: N2_8  and  C9_25 
REMARK    6  A    between atoms: N4_11  and  C4_13 
REMARK    7  A    between atoms: C9_25  and  C10_29 
REMARK       I    between atoms: C10_29  and  N9_31 
REMARK    8  A    between atoms: N9_31  and  N10_33 
ROOT
HETATM    1  C4  UNL     1       9.628  -0.317   5.946  1.00  0.00     0.151 A 
HETATM    2  N5  UNL     1       8.362   0.027   6.241  1.00  0.00    -0.292 N 
ATOM      3  H5  UNL     1       7.679  -0.707   6.430  1.00  0.00     0.172 HD
HETATM    4  C5  UNL     1       7.971   1.311   6.295  1.00  0.00     0.328 A 
HETATM    5  O3  UNL     1       6.799   1.673   6.567  1.00  0.00    -0.247 OA
HETATM    6  N6  UNL     1       8.895   2.265   6.040  1.00  0.00    -0.274 N 
ATOM      7  H6  UNL     1       8.604   3.241   6.079  1.00  0.00     0.173 HD
HETATM    8  C6  UNL     1      10.170   1.993   5.740  1.00  0.00     0.274 A 
HETATM    9  O4  UNL     1      11.027   2.889   5.503  1.00  0.00    -0.266 OA
HETATM   10  C7  UNL     1      10.578   0.678   5.684  1.00  0.00     0.158 A 
HETATM   11  C8  UNL     1      11.944   0.341   5.364  1.00  0.00     0.109 C 
HETATM   12  N7  UNL     1      13.053   0.085   5.091  1.00  0.00    -0.191 NA
ENDROOT
BRANCH   1  13
HETATM   13  N4  UNL     1      10.092  -1.647   5.876  1.00  0.00    -0.269 N 
HETATM   14  N3  UNL     1      10.467  -2.315   6.882  1.00  0.00    -0.237 N 
ATOM     15  H3  UNL     1      10.430  -1.860   7.794  1.00  0.00     0.208 HD
ATOM     16  H4  UNL     1      10.127  -2.096   4.961  1.00  0.00     0.190 HD
BRANCH  14  17
HETATM   17  N2  UNL     1      10.923  -3.614   6.834  1.00  0.00    -0.249 N 
BRANCH  17  18
HETATM   18  C3  UNL     1      10.055  -4.765   6.630  1.00  0.00     0.257 C 
BRANCH  18  19
HETATM   19  C2  UNL     1       8.953  -4.807   7.595  1.00  0.00     0.261 C 
HETATM   20  N1  UNL     1       9.255  -4.917   8.978  1.00  0.00    -0.234 N 
ATOM     21  H1  UNL     1      10.233  -4.964   9.265  1.00  0.00     0.197 HD
HETATM   22  O2  UNL     1       7.749  -4.748   7.264  1.00  0.00    -0.269 OA
BRANCH  20  23
HETATM   23  O1  UNL     1       8.292  -4.961   9.931  1.00  0.00    -0.283 OA
HETATM   24  C1  UNL     1       8.104  -3.778  10.598  1.00  0.00     0.237 C 
ENDBRANCH  20  23
ENDBRANCH  18  19
ENDBRANCH  17  18
BRANCH  17  25
HETATM   25  C9  UNL     1      12.306  -3.903   6.984  1.00  0.00     0.188 C 
HETATM   26  N8  UNL     1      13.118  -3.164   6.335  1.00  0.00    -0.380 N 
ATOM     27  H82 UNL     1      12.800  -2.404   5.734  1.00  0.00     0.158 HD
ATOM     28  H81 UNL     1      14.111  -3.372   6.443  1.00  0.00     0.158 HD
BRANCH  25  29
HETATM   29  C10 UNL     1      12.759  -4.983   7.837  1.00  0.00     0.304 C 
HETATM   30  O5  UNL     1      12.492  -4.952   9.094  1.00  0.00    -0.263 OA
HETATM   31  N9  UNL     1      13.496  -6.093   7.350  1.00  0.00    -0.270 N 
ATOM     32  H9  UNL     1      13.726  -6.144   6.357  1.00  0.00     0.189 HD
BRANCH  31  33
HETATM   33  N10 UNL     1      13.915  -7.116   8.202  1.00  0.00    -0.342 N 
ATOM     34 2H10 UNL     1      13.728  -7.022   9.200  1.00  0.00     0.176 HD
ATOM     35 1H10 UNL     1      14.396  -7.941   7.843  1.00  0.00     0.176 HD
ENDBRANCH  31  33
ENDBRANCH  25  29
ENDBRANCH  17  25
ENDBRANCH  14  17
ENDBRANCH   1  13
TORSDOF 8
ENDMDL
MODEL 5
REMARK VINA RESULT: -8.103412123      1.549      3.656
REMARK  8 active torsions:
REMARK  status: ('A' for Active; 'I' for Inactive)
REMARK    1  A    between atoms: O1_2  and  N1_3 
REMARK       I    between atoms: N1_3  and  C2_5 
REMARK    2  A    between atoms: C2_5  and  C3_7 
REMARK    3  A    between atoms: C3_7  and  N2_8 
REMARK    4  A    between atoms: N2_8  and  N3_9 
REMARK    5  A    between atoms: N2_8  and  C9_25 
REMARK    6  A    between atoms: N4_11  and  C4_13 
REMARK    7  A    between atoms: C9_25  and  C10_29 
REMARK       I    between atoms: C10_29  and  N9_31 
REMARK    8  A    between atoms: N9_31  and  N10_33 
ROOT
HETATM    1  C4  UNL     1       9.662  -0.378   6.054  1.00  0.00     0.151 A 
HETATM    2  N5  UNL     1       8.404  -0.041   6.388  1.00  0.00    -0.292 N 
ATOM      3  H5  UNL     1       7.738  -0.777   6.622  1.00  0.00     0.172 HD
HETATM    4  C5  UNL     1       7.999   1.239   6.424  1.00  0.00     0.328 A 
HETATM    5  O3  UNL     1       6.834   1.594   6.732  1.00  0.00    -0.247 OA
HETATM    6  N6  UNL     1       8.900   2.197   6.109  1.00  0.00    -0.274 N 
ATOM      7  H6  UNL     1       8.598   3.171   6.133  1.00  0.00     0.173 HD
HETATM    8  C6  UNL     1      10.166   1.933   5.768  1.00  0.00     0.274 A 
HETATM    9  O4  UNL     1      11.001   2.832   5.475  1.00  0.00    -0.266 OA
HETATM   10  C7  UNL     1      10.588   0.622   5.730  1.00  0.00     0.158 A 
HETATM   11  C8  UNL     1      11.945   0.292   5.367  1.00  0.00     0.109 C 
HETATM   12  N7  UNL     1      13.047   0.043   5.058  1.00  0.00    -0.191 NA
ENDROOT
BRANCH   1  13
HETATM   13  N4  UNL     1      10.140  -1.703   6.001  1.00  0.00    -0.269 N 
HETATM   14  N3  UNL     1      10.220  -2.463   7.009  1.00  0.00    -0.237 N 
ATOM     15  H3  UNL     1       9.920  -2.089   7.909  1.00  0.00     0.208 HD
ATOM     16  H4  UNL     1      10.439  -2.071   5.098  1.00  0.00     0.190 HD
BRANCH  14  17
HETATM   17  N2  UNL     1      10.684  -3.760   6.977  1.00  0.00    -0.249 N 
BRANCH  17  18
HETATM   18  C3  UNL     1       9.961  -4.888   7.544  1.00  0.00     0.257 C 
BRANCH  18  19
HETATM   19  C2  UNL     1       9.753  -4.745   8.988  1.00  0.00     0.261 C 
HETATM   20  N1  UNL     1      10.850  -4.361   9.804  1.00  0.00    -0.234 N 
ATOM     21  H1  UNL     1      11.755  -4.194   9.365  1.00  0.00     0.197 HD
HETATM   22  O2  UNL     1       8.652  -4.943   9.546  1.00  0.00    -0.269 OA
BRANCH  20  23
HETATM   23  O1  UNL     1      10.737  -4.207  11.146  1.00  0.00    -0.283 OA
HETATM   24  C1  UNL     1      10.788  -2.905  11.571  1.00  0.00     0.237 C 
ENDBRANCH  20  23
ENDBRANCH  18  19
ENDBRANCH  17  18
BRANCH  17  25
HETATM   25  C9  UNL     1      11.931  -4.069   6.368  1.00  0.00     0.188 C 
HETATM   26  N8  UNL     1      11.913  -4.296   5.113  1.00  0.00    -0.380 N 
ATOM     27  H82 UNL     1      11.052  -4.261   4.566  1.00  0.00     0.158 HD
ATOM     28  H81 UNL     1      12.807  -4.517   4.676  1.00  0.00     0.158 HD
BRANCH  25  29
HETATM   29  C10 UNL     1      13.153  -4.118   7.143  1.00  0.00     0.304 C 
HETATM   30  O5  UNL     1      13.239  -3.442   8.233  1.00  0.00    -0.263 OA
HETATM   31  N9  UNL     1      14.281  -4.885   6.755  1.00  0.00    -0.270 N 
ATOM     32  H9  UNL     1      14.244  -5.430   5.894  1.00  0.00     0.189 HD
BRANCH  31  33
HETATM   33  N10 UNL     1      15.443  -4.909   7.530  1.00  0.00    -0.342 N 
ATOM     34 2H10 UNL     1      16.249  -4.374   7.209  1.00  0.00     0.176 HD
ATOM     35 1H10 UNL     1      15.491  -5.446   8.396  1.00  0.00     0.176 HD
ENDBRANCH  31  33
ENDBRANCH  25  29
ENDBRANCH  17  25
ENDBRANCH  14  17
ENDBRANCH   1  13
TORSDOF 8
ENDMDL
