MODEL 1
REMARK VINA RESULT: -6.762512966      0.000      0.000
REMARK  10 active torsions:
REMARK  status: ('A' for Active; 'I' for Inactive)
REMARK    1  A    between atoms: C2_2  and  C4_4 
REMARK    2  A    between atoms: C2_2  and  O2_6 
REMARK    3  A    between atoms: O2_6  and  C5_7 
REMARK    4  A    between atoms: C6_8  and  O3_9 
REMARK    5  A    between atoms: C7_11  and  O4_12 
REMARK    6  A    between atoms: C8_14  and  O5_15 
REMARK    7  A    between atoms: C9_17  and  O6_18 
REMARK    8  A    between atoms: O6_18  and  S1_19 
REMARK    9  A    between atoms: S1_19  and  N1_22 
REMARK   10  A    between atoms: C11_26  and  O9_27 
ROOT
HETATM    1  N1  UNL     1      15.168  -5.241   7.237  1.00  0.00    -0.198 N 
ATOM      2  H1  UNL     1      15.811  -4.606   7.707  1.00  0.00     0.193 HD
HETATM    3  C10 UNL     1      15.593  -6.543   6.957  1.00  0.00     0.193 C 
HETATM    4  N2  UNL     1      15.953  -7.625   6.731  1.00  0.00    -0.171 NA
ENDROOT
BRANCH   1   5
HETATM    5  S1  UNL     1      13.588  -4.665   6.815  1.00  0.00     0.370 S 
HETATM    6  O7  UNL     1      13.306  -5.197   5.420  1.00  0.00    -0.175 OA
HETATM    7  O8  UNL     1      13.602  -3.173   6.803  1.00  0.00    -0.175 OA
BRANCH   5   8
HETATM    8  O6  UNL     1      12.449  -5.307   7.831  1.00  0.00    -0.248 OA
BRANCH   8   9
HETATM    9  C9  UNL     1      11.305  -4.487   7.947  1.00  0.00     0.206 C 
HETATM   10  C8  UNL     1      10.120  -5.321   7.594  1.00  0.00     0.182 C 
HETATM   11  C7  UNL     1       8.818  -4.691   7.981  1.00  0.00     0.180 C 
HETATM   12  C6  UNL     1       8.997  -3.351   8.630  1.00  0.00     0.181 C 
HETATM   13  C5  UNL     1       9.982  -3.412   9.795  1.00  0.00     0.185 C 
HETATM   14  C11 UNL     1      11.288  -4.011   9.382  1.00  0.00     0.182 C 
BRANCH  10  15
HETATM   15  O5  UNL     1      10.215  -6.571   8.226  1.00  0.00    -0.390 OA
ATOM     16  H5  UNL     1      11.035  -6.605   8.703  1.00  0.00     0.210 HD
ENDBRANCH  10  15
BRANCH  11  17
HETATM   17  O4  UNL     1       8.071  -4.497   6.818  1.00  0.00    -0.390 OA
ATOM     18  H4  UNL     1       8.158  -5.281   6.289  1.00  0.00     0.210 HD
ENDBRANCH  11  17
BRANCH  12  19
HETATM   19  O3  UNL     1       9.370  -2.402   7.683  1.00  0.00    -0.390 OA
ATOM     20  H3  UNL     1       8.627  -2.093   7.178  1.00  0.00     0.210 HD
ENDBRANCH  12  19
BRANCH  13  21
HETATM   21  O2  UNL     1      10.094  -2.210  10.428  1.00  0.00    -0.363 OA
BRANCH  21  22
HETATM   22  C2  UNL     1       9.986  -2.160  11.771  1.00  0.00     0.107 C 
HETATM   23  C1  UNL     1       9.056  -0.977  12.091  1.00  0.00     0.053 C 
HETATM   24  C3  UNL     1       9.325  -3.364  12.403  1.00  0.00     0.053 C 
BRANCH  22  25
HETATM   25  C4  UNL     1      11.221  -1.895  12.542  1.00  0.00     0.268 C 
HETATM   26  O1  UNL     1      12.245  -1.408  12.112  1.00  0.00    -0.304 OA
ENDBRANCH  22  25
ENDBRANCH  21  22
ENDBRANCH  13  21
BRANCH  14  27
HETATM   27  O9  UNL     1      12.353  -3.084   9.463  1.00  0.00    -0.390 OA
ATOM     28  H9  UNL     1      12.222  -2.334   8.894  1.00  0.00     0.210 HD
ENDBRANCH  14  27
ENDBRANCH   8   9
ENDBRANCH   5   8
ENDBRANCH   1   5
TORSDOF 10
ENDMDL
MODEL 2
REMARK VINA RESULT: -6.459453044      1.529      1.777
REMARK  10 active torsions:
REMARK  status: ('A' for Active; 'I' for Inactive)
REMARK    1  A    between atoms: C2_2  and  C4_4 
REMARK    2  A    between atoms: C2_2  and  O2_6 
REMARK    3  A    between atoms: O2_6  and  C5_7 
REMARK    4  A    between atoms: C6_8  and  O3_9 
REMARK    5  A    between atoms: C7_11  and  O4_12 
REMARK    6  A    between atoms: C8_14  and  O5_15 
REMARK    7  A    between atoms: C9_17  and  O6_18 
REMARK    8  A    between atoms: O6_18  and  S1_19 
REMARK    9  A    between atoms: S1_19  and  N1_22 
REMARK   10  A    between atoms: C11_26  and  O9_27 
ROOT
HETATM    1  N1  UNL     1      13.181  -4.144   5.779  1.00  0.00    -0.198 N 
ATOM      2  H1  UNL     1      13.205  -3.125   5.737  1.00  0.00     0.193 HD
HETATM    3  C10 UNL     1      12.642  -4.849   4.699  1.00  0.00     0.193 C 
HETATM    4  N2  UNL     1      12.195  -5.428   3.797  1.00  0.00    -0.171 NA
ENDROOT
BRANCH   1   5
HETATM    5  S1  UNL     1      13.812  -4.933   7.189  1.00  0.00     0.370 S 
HETATM    6  O7  UNL     1      14.630  -3.886   7.925  1.00  0.00    -0.175 OA
HETATM    7  O8  UNL     1      14.686  -6.064   6.762  1.00  0.00    -0.175 OA
BRANCH   5   8
HETATM    8  O6  UNL     1      12.578  -5.395   8.191  1.00  0.00    -0.248 OA
BRANCH   8   9
HETATM    9  C9  UNL     1      11.480  -4.508   8.139  1.00  0.00     0.206 C 
HETATM   10  C8  UNL     1      10.308  -5.276   7.626  1.00  0.00     0.182 C 
HETATM   11  C7  UNL     1       9.005  -4.566   7.821  1.00  0.00     0.180 C 
HETATM   12  C6  UNL     1       9.170  -3.230   8.482  1.00  0.00     0.181 C 
HETATM   13  C5  UNL     1       9.975  -3.333   9.774  1.00  0.00     0.185 C 
HETATM   14  C11 UNL     1      11.288  -4.012   9.555  1.00  0.00     0.182 C 
BRANCH  10  15
HETATM   15  O5  UNL     1      10.238  -6.520   8.272  1.00  0.00    -0.390 OA
ATOM     16  H5  UNL     1      10.379  -6.385   9.201  1.00  0.00     0.210 HD
ENDBRANCH  10  15
BRANCH  11  17
HETATM   17  O4  UNL     1       8.443  -4.345   6.562  1.00  0.00    -0.390 OA
ATOM     18  H4  UNL     1       7.914  -3.558   6.620  1.00  0.00     0.210 HD
ENDBRANCH  11  17
BRANCH  12  19
HETATM   19  O3  UNL     1       9.730  -2.317   7.591  1.00  0.00    -0.390 OA
ATOM     20  H3  UNL     1       9.979  -1.509   8.023  1.00  0.00     0.210 HD
ENDBRANCH  12  19
BRANCH  13  21
HETATM   21  O2  UNL     1      10.068  -2.131  10.411  1.00  0.00    -0.363 OA
BRANCH  21  22
HETATM   22  C2  UNL     1       9.765  -2.054  11.723  1.00  0.00     0.107 C 
HETATM   23  C1  UNL     1       8.907  -0.789  11.900  1.00  0.00     0.053 C 
HETATM   24  C3  UNL     1       8.913  -3.187  12.248  1.00  0.00     0.053 C 
BRANCH  22  25
HETATM   25  C4  UNL     1      10.890  -1.888  12.669  1.00  0.00     0.268 C 
HETATM   26  O1  UNL     1      12.021  -1.552  12.390  1.00  0.00    -0.304 OA
ENDBRANCH  22  25
ENDBRANCH  21  22
ENDBRANCH  13  21
BRANCH  14  27
HETATM   27  O9  UNL     1      12.384  -3.148   9.781  1.00  0.00    -0.390 OA
ATOM     28  H9  UNL     1      13.165  -3.618  10.050  1.00  0.00     0.210 HD
ENDBRANCH  14  27
ENDBRANCH   8   9
ENDBRANCH   5   8
ENDBRANCH   1   5
TORSDOF 10
ENDMDL
MODEL 3
REMARK VINA RESULT: -6.394927713      2.253      2.862
REMARK  10 active torsions:
REMARK  status: ('A' for Active; 'I' for Inactive)
REMARK    1  A    between atoms: C2_2  and  C4_4 
REMARK    2  A    between atoms: C2_2  and  O2_6 
REMARK    3  A    between atoms: O2_6  and  C5_7 
REMARK    4  A    between atoms: C6_8  and  O3_9 
REMARK    5  A    between atoms: C7_11  and  O4_12 
REMARK    6  A    between atoms: C8_14  and  O5_15 
REMARK    7  A    between atoms: C9_17  and  O6_18 
REMARK    8  A    between atoms: O6_18  and  S1_19 
REMARK    9  A    between atoms: S1_19  and  N1_22 
REMARK   10  A    between atoms: C11_26  and  O9_27 
ROOT
HETATM    1  N1  UNL     1      14.739  -6.039   8.104  1.00  0.00    -0.198 N 
ATOM      2  H1  UNL     1      14.985  -5.994   9.093  1.00  0.00     0.193 HD
HETATM    3  C10 UNL     1      15.388  -6.974   7.293  1.00  0.00     0.193 C 
HETATM    4  N2  UNL     1      15.930  -7.756   6.625  1.00  0.00    -0.171 NA
ENDROOT
BRANCH   1   5
HETATM    5  S1  UNL     1      13.531  -4.954   7.495  1.00  0.00     0.370 S 
HETATM    6  O7  UNL     1      13.516  -5.146   5.988  1.00  0.00    -0.175 OA
HETATM    7  O8  UNL     1      13.921  -3.555   7.833  1.00  0.00    -0.175 OA
BRANCH   5   8
HETATM    8  O6  UNL     1      12.035  -5.379   8.065  1.00  0.00    -0.248 OA
BRANCH   8   9
HETATM    9  C9  UNL     1      11.098  -4.328   7.958  1.00  0.00     0.206 C 
HETATM   10  C8  UNL     1      10.731  -4.200   6.517  1.00  0.00     0.182 C 
HETATM   11  C7  UNL     1       9.516  -3.356   6.290  1.00  0.00     0.180 C 
HETATM   12  C6  UNL     1       8.944  -2.814   7.566  1.00  0.00     0.181 C 
HETATM   13  C5  UNL     1       8.700  -3.918   8.592  1.00  0.00     0.185 C 
HETATM   14  C11 UNL     1       9.933  -4.729   8.833  1.00  0.00     0.182 C 
BRANCH  10  15
HETATM   15  O5  UNL     1      10.495  -5.474   5.975  1.00  0.00    -0.390 OA
ATOM     16  H5  UNL     1      10.742  -6.126   6.620  1.00  0.00     0.210 HD
ENDBRANCH  10  15
BRANCH  11  17
HETATM   17  O4  UNL     1       9.891  -2.266   5.503  1.00  0.00    -0.390 OA
ATOM     18  H4  UNL     1       9.237  -2.168   4.821  1.00  0.00     0.210 HD
ENDBRANCH  11  17
BRANCH  12  19
HETATM   19  O3  UNL     1       9.761  -1.806   8.072  1.00  0.00    -0.390 OA
ATOM     20  H3  UNL     1       9.983  -1.164   7.408  1.00  0.00     0.210 HD
ENDBRANCH  12  19
BRANCH  13  21
HETATM   21  O2  UNL     1       8.118  -3.437   9.727  1.00  0.00    -0.363 OA
BRANCH  21  22
HETATM   22  C2  UNL     1       6.837  -3.760   9.999  1.00  0.00     0.107 C 
HETATM   23  C1  UNL     1       6.131  -2.452  10.396  1.00  0.00     0.053 C 
HETATM   24  C3  UNL     1       6.051  -4.293   8.823  1.00  0.00     0.053 C 
BRANCH  22  25
HETATM   25  C4  UNL     1       6.597  -4.683  11.130  1.00  0.00     0.268 C 
HETATM   26  O1  UNL     1       6.491  -5.889  11.063  1.00  0.00    -0.304 OA
ENDBRANCH  22  25
ENDBRANCH  21  22
ENDBRANCH  13  21
BRANCH  14  27
HETATM   27  O9  UNL     1      10.415  -4.591  10.155  1.00  0.00    -0.390 OA
ATOM     28  H9  UNL     1      10.363  -5.404  10.645  1.00  0.00     0.210 HD
ENDBRANCH  14  27
ENDBRANCH   8   9
ENDBRANCH   5   8
ENDBRANCH   1   5
TORSDOF 10
ENDMDL
MODEL 4
REMARK VINA RESULT: -6.381511235      1.616      2.106
REMARK  10 active torsions:
REMARK  status: ('A' for Active; 'I' for Inactive)
REMARK    1  A    between atoms: C2_2  and  C4_4 
REMARK    2  A    between atoms: C2_2  and  O2_6 
REMARK    3  A    between atoms: O2_6  and  C5_7 
REMARK    4  A    between atoms: C6_8  and  O3_9 
REMARK    5  A    between atoms: C7_11  and  O4_12 
REMARK    6  A    between atoms: C8_14  and  O5_15 
REMARK    7  A    between atoms: C9_17  and  O6_18 
REMARK    8  A    between atoms: O6_18  and  S1_19 
REMARK    9  A    between atoms: S1_19  and  N1_22 
REMARK   10  A    between atoms: C11_26  and  O9_27 
ROOT
HETATM    1  N1  UNL     1      13.003  -4.090   5.636  1.00  0.00    -0.198 N 
ATOM      2  H1  UNL     1      12.907  -4.569   4.741  1.00  0.00     0.193 HD
HETATM    3  C10 UNL     1      12.592  -2.757   5.732  1.00  0.00     0.193 C 
HETATM    4  N2  UNL     1      12.245  -1.651   5.805  1.00  0.00    -0.171 NA
ENDROOT
BRANCH   1   5
HETATM    5  S1  UNL     1      13.669  -4.960   6.980  1.00  0.00     0.370 S 
HETATM    6  O7  UNL     1      14.517  -3.961   7.748  1.00  0.00    -0.175 OA
HETATM    7  O8  UNL     1      14.520  -6.071   6.465  1.00  0.00    -0.175 OA
BRANCH   5   8
HETATM    8  O6  UNL     1      12.461  -5.468   7.993  1.00  0.00    -0.248 OA
BRANCH   8   9
HETATM    9  C9  UNL     1      11.361  -4.583   8.007  1.00  0.00     0.206 C 
HETATM   10  C8  UNL     1      10.158  -5.358   7.585  1.00  0.00     0.182 C 
HETATM   11  C7  UNL     1       8.870  -4.647   7.861  1.00  0.00     0.180 C 
HETATM   12  C6  UNL     1       9.078  -3.303   8.494  1.00  0.00     0.181 C 
HETATM   13  C5  UNL     1       9.970  -3.390   9.729  1.00  0.00     0.185 C 
HETATM   14  C11 UNL     1      11.267  -4.071   9.426  1.00  0.00     0.182 C 
BRANCH  10  15
HETATM   15  O5  UNL     1      10.135  -6.595   8.248  1.00  0.00    -0.390 OA
ATOM     16  H5  UNL     1      10.033  -7.282   7.600  1.00  0.00     0.210 HD
ENDBRANCH  10  15
BRANCH  11  17
HETATM   17  O4  UNL     1       8.221  -4.441   6.642  1.00  0.00    -0.390 OA
ATOM     18  H4  UNL     1       7.571  -5.127   6.546  1.00  0.00     0.210 HD
ENDBRANCH  11  17
BRANCH  12  19
HETATM   19  O3  UNL     1       9.573  -2.400   7.556  1.00  0.00    -0.390 OA
ATOM     20  H3  UNL     1      10.151  -2.820   6.930  1.00  0.00     0.210 HD
ENDBRANCH  12  19
BRANCH  13  21
HETATM   21  O2  UNL     1      10.105  -2.181  10.343  1.00  0.00    -0.363 OA
BRANCH  21  22
HETATM   22  C2  UNL     1       9.920  -2.094  11.676  1.00  0.00     0.107 C 
HETATM   23  C1  UNL     1       9.052  -0.847  11.917  1.00  0.00     0.053 C 
HETATM   24  C3  UNL     1       9.145  -3.239  12.288  1.00  0.00     0.053 C 
BRANCH  22  25
HETATM   25  C4  UNL     1      11.121  -1.891  12.516  1.00  0.00     0.268 C 
HETATM   26  O1  UNL     1      12.182  -1.430  12.153  1.00  0.00    -0.304 OA
ENDBRANCH  22  25
ENDBRANCH  21  22
ENDBRANCH  13  21
BRANCH  14  27
HETATM   27  O9  UNL     1      12.374  -3.202   9.566  1.00  0.00    -0.390 OA
ATOM     28  H9  UNL     1      12.420  -2.561   8.866  1.00  0.00     0.210 HD
ENDBRANCH  14  27
ENDBRANCH   8   9
ENDBRANCH   5   8
ENDBRANCH   1   5
TORSDOF 10
ENDMDL
MODEL 5
REMARK VINA RESULT: -6.291648579      2.372      3.308
REMARK  10 active torsions:
REMARK  status: ('A' for Active; 'I' for Inactive)
REMARK    1  A    between atoms: C2_2  and  C4_4 
REMARK    2  A    between atoms: C2_2  and  O2_6 
REMARK    3  A    between atoms: O2_6  and  C5_7 
REMARK    4  A    between atoms: C6_8  and  O3_9 
REMARK    5  A    between atoms: C7_11  and  O4_12 
REMARK    6  A    between atoms: C8_14  and  O5_15 
REMARK    7  A    between atoms: C9_17  and  O6_18 
REMARK    8  A    between atoms: O6_18  and  S1_19 
REMARK    9  A    between atoms: S1_19  and  N1_22 
REMARK   10  A    between atoms: C11_26  and  O9_27 
ROOT
HETATM    1  N1  UNL     1      14.288  -6.750   8.918  1.00  0.00    -0.198 N 
ATOM      2  H1  UNL     1      13.738  -6.232   9.602  1.00  0.00     0.193 HD
HETATM    3  C10 UNL     1      14.657  -8.066   9.211  1.00  0.00     0.193 C 
HETATM    4  N2  UNL     1      14.957  -9.161   9.460  1.00  0.00    -0.171 NA
ENDROOT
BRANCH   1   5
HETATM    5  S1  UNL     1      14.730  -5.964   7.436  1.00  0.00     0.370 S 
HETATM    6  O7  UNL     1      15.835  -6.811   6.826  1.00  0.00    -0.175 OA
HETATM    7  O8  UNL     1      15.240  -4.597   7.745  1.00  0.00    -0.175 OA
BRANCH   5   8
HETATM    8  O6  UNL     1      13.457  -5.972   6.378  1.00  0.00    -0.248 OA
BRANCH   8   9
HETATM    9  C9  UNL     1      12.756  -4.746   6.369  1.00  0.00     0.206 C 
HETATM   10  C8  UNL     1      12.347  -4.475   4.959  1.00  0.00     0.182 C 
HETATM   11  C7  UNL     1      11.326  -3.388   4.839  1.00  0.00     0.180 C 
HETATM   12  C6  UNL     1      10.948  -2.802   6.167  1.00  0.00     0.181 C 
HETATM   13  C5  UNL     1      10.534  -3.880   7.165  1.00  0.00     0.185 C 
HETATM   14  C11 UNL     1      11.581  -4.939   7.299  1.00  0.00     0.182 C 
BRANCH  10  15
HETATM   15  O5  UNL     1      11.822  -5.645   4.387  1.00  0.00    -0.390 OA
ATOM     16  H5  UNL     1      12.536  -6.253   4.237  1.00  0.00     0.210 HD
ENDBRANCH  10  15
BRANCH  11  17
HETATM   17  O4  UNL     1      11.877  -2.362   4.070  1.00  0.00    -0.390 OA
ATOM     18  H4  UNL     1      12.629  -2.721   3.613  1.00  0.00     0.210 HD
ENDBRANCH  11  17
BRANCH  12  19
HETATM   19  O3  UNL     1      11.983  -2.010   6.657  1.00  0.00    -0.390 OA
ATOM     20  H3  UNL     1      12.828  -2.434   6.564  1.00  0.00     0.210 HD
ENDBRANCH  12  19
BRANCH  13  21
HETATM   21  O2  UNL     1      10.126  -3.345   8.350  1.00  0.00    -0.363 OA
BRANCH  21  22
HETATM   22  C2  UNL     1       8.855  -3.534   8.757  1.00  0.00     0.107 C 
HETATM   23  C1  UNL     1       8.188  -2.148   8.770  1.00  0.00     0.053 C 
HETATM   24  C3  UNL     1       8.006  -4.372   7.827  1.00  0.00     0.053 C 
BRANCH  22  25
HETATM   25  C4  UNL     1       8.652  -4.069  10.122  1.00  0.00     0.268 C 
HETATM   26  O1  UNL     1       9.479  -4.109  11.008  1.00  0.00    -0.304 OA
ENDBRANCH  22  25
ENDBRANCH  21  22
ENDBRANCH  13  21
BRANCH  14  27
HETATM   27  O9  UNL     1      12.151  -4.968   8.593  1.00  0.00    -0.390 OA
ATOM     28  H9  UNL     1      12.927  -4.423   8.657  1.00  0.00     0.210 HD
ENDBRANCH  14  27
ENDBRANCH   8   9
ENDBRANCH   5   8
ENDBRANCH   1   5
TORSDOF 10
ENDMDL
