MODEL 1
REMARK VINA RESULT: -8.152798142      0.000      0.000
REMARK  9 active torsions:
REMARK  status: ('A' for Active; 'I' for Inactive)
REMARK    1  A    between atoms: N1_1  and  C1_5 
REMARK    2  A    between atoms: C1_5  and  C2_6 
REMARK    3  A    between atoms: C2_6  and  N2_7 
REMARK    4  A    between atoms: C5_11  and  S1_12 
REMARK    5  A    between atoms: S1_12  and  N3_13 
REMARK    6  A    between atoms: C6_20  and  N5_21 
REMARK    7  A    between atoms: N5_21  and  N6_23 
REMARK    8  A    between atoms: C7_25  and  C8_26 
REMARK    9  A    between atoms: C9_27  and  O4_28 
ROOT
HETATM    1  N2  UNL     1      -1.759   8.683  40.868  1.00  0.00    -0.144 N 
HETATM    2  C3  UNL     1      -1.958   8.817  39.538  1.00  0.00     0.264 A 
HETATM    3  O1  UNL     1      -1.157   9.485  38.806  1.00  0.00    -0.267 OA
HETATM    4  C4  UNL     1      -3.064   8.202  38.998  1.00  0.00     0.119 A 
HETATM    5  C5  UNL     1      -3.934   7.476  39.799  1.00  0.00     0.169 A 
HETATM    6  N4  UNL     1      -3.675   7.386  41.107  1.00  0.00    -0.177 N 
ATOM      7  H4  UNL     1      -4.306   6.856  41.707  1.00  0.00     0.185 HD
HETATM    8  C6  UNL     1      -2.603   7.980  41.642  1.00  0.00     0.703 A 
ENDROOT
BRANCH   8   9
HETATM    9  N5  UNL     1      -2.426   7.847  42.932  1.00  0.00    -0.132 N 
ATOM     10  H5  UNL     1      -1.639   8.324  43.372  1.00  0.00     0.205 HD
BRANCH   9  11
HETATM   11  N6  UNL     1      -3.259   7.089  43.712  1.00  0.00    -0.296 N 
HETATM   12  C7  UNL     1      -3.196   6.978  44.995  1.00  0.00     0.129 C 
ATOM     13  H6  UNL     1      -3.996   6.567  43.236  1.00  0.00     0.186 HD
BRANCH  12  14
HETATM   14  C8  UNL     1      -4.163   6.127  45.674  1.00  0.00     0.100 A 
HETATM   15  C9  UNL     1      -3.665   5.038  46.394  1.00  0.00     0.161 A 
HETATM   16  N7  UNL     1      -4.539   4.255  47.019  1.00  0.00    -0.288 N 
HETATM   17  C10 UNL     1      -5.865   4.519  46.948  1.00  0.00     0.329 A 
ATOM     18  H7  UNL     1      -4.210   3.452  47.555  1.00  0.00     0.172 HD
HETATM   19  O5  UNL     1      -6.636   3.749  47.555  1.00  0.00    -0.247 OA
HETATM   20  N8  UNL     1      -6.343   5.568  46.254  1.00  0.00    -0.275 N 
HETATM   21  C11 UNL     1      -5.501   6.383  45.610  1.00  0.00     0.265 A 
ATOM     22  H8  UNL     1      -7.347   5.742  46.219  1.00  0.00     0.173 HD
HETATM   23  O6  UNL     1      -5.929   7.383  44.947  1.00  0.00    -0.267 OA
BRANCH  15  24
HETATM   24  O4  UNL     1      -2.285   4.813  46.433  1.00  0.00    -0.345 OA
ATOM     25  H4  UNL     1      -1.957   3.991  46.778  1.00  0.00     0.219 HD
ENDBRANCH  15  24
ENDBRANCH  12  14
ENDBRANCH   9  11
ENDBRANCH   8   9
BRANCH   1  26
HETATM   26  C2  UNL     1      -0.612   9.327  41.432  1.00  0.00     0.178 C 
BRANCH  26  27
HETATM   27  C1  UNL     1       0.666   8.559  41.348  1.00  0.00     0.250 C 
BRANCH  27  28
HETATM   28  N1  UNL     1       1.669   9.162  40.498  1.00  0.00    -0.078 N 
ATOM     29  H13 UNL     1       1.276   9.379  39.581  1.00  0.00     0.274 HD
ATOM     30  H12 UNL     1       1.889  10.104  40.820  1.00  0.00     0.274 HD
ATOM     31  H11 UNL     1       2.522   8.611  40.398  1.00  0.00     0.274 HD
ENDBRANCH  27  28
ENDBRANCH  26  27
ENDBRANCH   1  26
BRANCH   5  32
HETATM   32  S1  UNL     1      -5.340   6.699  39.093  1.00  0.00     0.273 S 
HETATM   33  O2  UNL     1      -5.213   6.646  37.587  1.00  0.00    -0.199 OA
HETATM   34  O3  UNL     1      -5.416   5.293  39.575  1.00  0.00    -0.199 OA
BRANCH  32  35
HETATM   35  N3  UNL     1      -6.788   7.506  39.479  1.00  0.00    -0.323 N 
ATOM     36  H32 UNL     1      -6.869   8.156  40.261  1.00  0.00     0.169 HD
ATOM     37  H31 UNL     1      -7.548   7.264  38.844  1.00  0.00     0.169 HD
ENDBRANCH  32  35
ENDBRANCH   5  32
TORSDOF 9
ENDMDL
MODEL 2
REMARK VINA RESULT: -8.091664966      1.303      1.313
REMARK  9 active torsions:
REMARK  status: ('A' for Active; 'I' for Inactive)
REMARK    1  A    between atoms: N1_1  and  C1_5 
REMARK    2  A    between atoms: C1_5  and  C2_6 
REMARK    3  A    between atoms: C2_6  and  N2_7 
REMARK    4  A    between atoms: C5_11  and  S1_12 
REMARK    5  A    between atoms: S1_12  and  N3_13 
REMARK    6  A    between atoms: C6_20  and  N5_21 
REMARK    7  A    between atoms: N5_21  and  N6_23 
REMARK    8  A    between atoms: C7_25  and  C8_26 
REMARK    9  A    between atoms: C9_27  and  O4_28 
ROOT
HETATM    1  N2  UNL     1      -1.498   9.093  41.404  1.00  0.00    -0.144 N 
HETATM    2  C3  UNL     1      -1.864   9.745  40.280  1.00  0.00     0.264 A 
HETATM    3  O1  UNL     1      -1.021  10.391  39.576  1.00  0.00    -0.267 OA
HETATM    4  C4  UNL     1      -3.190   9.687  39.918  1.00  0.00     0.119 A 
HETATM    5  C5  UNL     1      -4.105   8.983  40.687  1.00  0.00     0.169 A 
HETATM    6  N4  UNL     1      -3.672   8.361  41.788  1.00  0.00    -0.177 N 
ATOM      7  H4  UNL     1      -4.334   7.841  42.362  1.00  0.00     0.185 HD
HETATM    8  C6  UNL     1      -2.385   8.411  42.149  1.00  0.00     0.703 A 
ENDROOT
BRANCH   8   9
HETATM    9  N5  UNL     1      -2.046   7.780  43.243  1.00  0.00    -0.132 N 
ATOM     10  H5  UNL     1      -1.098   7.894  43.603  1.00  0.00     0.205 HD
BRANCH   9  11
HETATM   11  N6  UNL     1      -2.917   6.970  43.924  1.00  0.00    -0.296 N 
HETATM   12  C7  UNL     1      -3.316   7.143  45.137  1.00  0.00     0.129 C 
ATOM     13  H6  UNL     1      -3.283   6.158  43.426  1.00  0.00     0.186 HD
BRANCH  12  14
HETATM   14  C8  UNL     1      -4.248   6.185  45.713  1.00  0.00     0.100 A 
HETATM   15  C9  UNL     1      -3.705   5.067  46.352  1.00  0.00     0.161 A 
HETATM   16  N7  UNL     1      -4.548   4.186  46.883  1.00  0.00    -0.288 N 
HETATM   17  C10 UNL     1      -5.884   4.381  46.796  1.00  0.00     0.329 A 
ATOM     18  H7  UNL     1      -4.185   3.359  47.357  1.00  0.00     0.172 HD
HETATM   19  O5  UNL     1      -6.624   3.519  47.313  1.00  0.00    -0.247 OA
HETATM   20  N8  UNL     1      -6.405   5.458  46.180  1.00  0.00    -0.275 N 
HETATM   21  C11 UNL     1      -5.596   6.371  45.633  1.00  0.00     0.265 A 
ATOM     22  H8  UNL     1      -7.417   5.578  46.131  1.00  0.00     0.173 HD
HETATM   23  O6  UNL     1      -6.065   7.399  45.045  1.00  0.00    -0.267 OA
BRANCH  15  24
HETATM   24  O4  UNL     1      -2.316   4.916  46.412  1.00  0.00    -0.345 OA
ATOM     25  H4  UNL     1      -1.807   5.504  46.957  1.00  0.00     0.219 HD
ENDBRANCH  15  24
ENDBRANCH  12  14
ENDBRANCH   9  11
ENDBRANCH   8   9
BRANCH   1  26
HETATM   26  C2  UNL     1      -0.120   9.156  41.786  1.00  0.00     0.178 C 
BRANCH  26  27
HETATM   27  C1  UNL     1       0.844   8.534  40.830  1.00  0.00     0.250 C 
BRANCH  27  28
HETATM   28  N1  UNL     1       1.963   9.381  40.475  1.00  0.00    -0.078 N 
ATOM     29  H13 UNL     1       1.914   9.641  39.490  1.00  0.00     0.274 HD
ATOM     30  H12 UNL     1       1.863  10.300  40.904  1.00  0.00     0.274 HD
ATOM     31  H11 UNL     1       2.877   8.983  40.693  1.00  0.00     0.274 HD
ENDBRANCH  27  28
ENDBRANCH  26  27
ENDBRANCH   1  26
BRANCH   5  32
HETATM   32  S1  UNL     1      -5.793   8.920  40.210  1.00  0.00     0.273 S 
HETATM   33  O2  UNL     1      -6.017   9.731  38.953  1.00  0.00    -0.199 OA
HETATM   34  O3  UNL     1      -6.161   7.513  39.894  1.00  0.00    -0.199 OA
BRANCH  32  35
HETATM   35  N3  UNL     1      -6.830   9.515  41.421  1.00  0.00    -0.323 N 
ATOM     36  H32 UNL     1      -7.494  10.273  41.260  1.00  0.00     0.169 HD
ATOM     37  H31 UNL     1      -6.708   9.030  42.310  1.00  0.00     0.169 HD
ENDBRANCH  32  35
ENDBRANCH   5  32
TORSDOF 9
ENDMDL
MODEL 3
REMARK VINA RESULT: -8.081156301      1.543      1.670
REMARK  9 active torsions:
REMARK  status: ('A' for Active; 'I' for Inactive)
REMARK    1  A    between atoms: N1_1  and  C1_5 
REMARK    2  A    between atoms: C1_5  and  C2_6 
REMARK    3  A    between atoms: C2_6  and  N2_7 
REMARK    4  A    between atoms: C5_11  and  S1_12 
REMARK    5  A    between atoms: S1_12  and  N3_13 
REMARK    6  A    between atoms: C6_20  and  N5_21 
REMARK    7  A    between atoms: N5_21  and  N6_23 
REMARK    8  A    between atoms: C7_25  and  C8_26 
REMARK    9  A    between atoms: C9_27  and  O4_28 
ROOT
HETATM    1  N2  UNL     1      -2.114   9.165  41.567  1.00  0.00    -0.144 N 
HETATM    2  C3  UNL     1      -2.472   9.737  40.397  1.00  0.00     0.264 A 
HETATM    3  O1  UNL     1      -1.615  10.294  39.635  1.00  0.00    -0.267 OA
HETATM    4  C4  UNL     1      -3.802   9.696  40.052  1.00  0.00     0.119 A 
HETATM    5  C5  UNL     1      -4.732   9.089  40.883  1.00  0.00     0.169 A 
HETATM    6  N4  UNL     1      -4.308   8.543  42.027  1.00  0.00    -0.177 N 
ATOM      7  H4  UNL     1      -4.980   8.093  42.648  1.00  0.00     0.185 HD
HETATM    8  C6  UNL     1      -3.016   8.577  42.371  1.00  0.00     0.703 A 
ENDROOT
BRANCH   8   9
HETATM    9  N5  UNL     1      -2.686   8.024  43.510  1.00  0.00    -0.132 N 
ATOM     10  H5  UNL     1      -1.782   8.254  43.924  1.00  0.00     0.205 HD
BRANCH   9  11
HETATM   11  N6  UNL     1      -3.509   7.147  44.167  1.00  0.00    -0.296 N 
HETATM   12  C7  UNL     1      -3.352   6.726  45.375  1.00  0.00     0.129 C 
ATOM     13  H6  UNL     1      -4.318   6.796  43.654  1.00  0.00     0.186 HD
BRANCH  12  14
HETATM   14  C8  UNL     1      -4.323   5.790  45.924  1.00  0.00     0.100 A 
HETATM   15  C9  UNL     1      -3.827   4.637  46.538  1.00  0.00     0.161 A 
HETATM   16  N7  UNL     1      -4.705   3.777  47.044  1.00  0.00    -0.288 N 
HETATM   17  C10 UNL     1      -6.033   4.025  46.956  1.00  0.00     0.329 A 
ATOM     18  H7  UNL     1      -4.377   2.926  47.500  1.00  0.00     0.172 HD
HETATM   19  O5  UNL     1      -6.807   3.180  47.449  1.00  0.00    -0.247 OA
HETATM   20  N8  UNL     1      -6.509   5.135  46.364  1.00  0.00    -0.275 N 
HETATM   21  C11 UNL     1      -5.663   6.030  45.842  1.00  0.00     0.265 A 
ATOM     22  H8  UNL     1      -7.515   5.295  46.313  1.00  0.00     0.173 HD
HETATM   23  O6  UNL     1      -6.089   7.089  45.276  1.00  0.00    -0.267 OA
BRANCH  15  24
HETATM   24  O4  UNL     1      -2.445   4.432  46.601  1.00  0.00    -0.345 OA
ATOM     25  H4  UNL     1      -1.897   5.077  47.032  1.00  0.00     0.219 HD
ENDBRANCH  15  24
ENDBRANCH  12  14
ENDBRANCH   9  11
ENDBRANCH   8   9
BRANCH   1  26
HETATM   26  C2  UNL     1      -0.731   9.211  41.930  1.00  0.00     0.178 C 
BRANCH  26  27
HETATM   27  C1  UNL     1       0.146   8.204  41.262  1.00  0.00     0.250 C 
BRANCH  27  28
HETATM   28  N1  UNL     1       1.152   8.773  40.391  1.00  0.00    -0.078 N 
ATOM     29  H13 UNL     1       1.184   9.787  40.499  1.00  0.00     0.274 HD
ATOM     30  H12 UNL     1       2.086   8.532  40.721  1.00  0.00     0.274 HD
ATOM     31  H11 UNL     1       1.046   8.523  39.407  1.00  0.00     0.274 HD
ENDBRANCH  27  28
ENDBRANCH  26  27
ENDBRANCH   1  26
BRANCH   5  32
HETATM   32  S1  UNL     1      -6.426   9.046  40.428  1.00  0.00     0.273 S 
HETATM   33  O2  UNL     1      -6.918   7.617  40.356  1.00  0.00    -0.199 OA
HETATM   34  O3  UNL     1      -7.233   9.733  41.474  1.00  0.00    -0.199 OA
BRANCH  32  35
HETATM   35  N3  UNL     1      -6.711   9.786  38.922  1.00  0.00    -0.323 N 
ATOM     36  H32 UNL     1      -7.583  10.264  38.694  1.00  0.00     0.169 HD
ATOM     37  H31 UNL     1      -5.918   9.693  38.287  1.00  0.00     0.169 HD
ENDBRANCH  32  35
ENDBRANCH   5  32
TORSDOF 9
ENDMDL
MODEL 4
REMARK VINA RESULT: -8.057896748      0.419      1.657
REMARK  9 active torsions:
REMARK  status: ('A' for Active; 'I' for Inactive)
REMARK    1  A    between atoms: N1_1  and  C1_5 
REMARK    2  A    between atoms: C1_5  and  C2_6 
REMARK    3  A    between atoms: C2_6  and  N2_7 
REMARK    4  A    between atoms: C5_11  and  S1_12 
REMARK    5  A    between atoms: S1_12  and  N3_13 
REMARK    6  A    between atoms: C6_20  and  N5_21 
REMARK    7  A    between atoms: N5_21  and  N6_23 
REMARK    8  A    between atoms: C7_25  and  C8_26 
REMARK    9  A    between atoms: C9_27  and  O4_28 
ROOT
HETATM    1  N2  UNL     1      -1.467   8.845  40.749  1.00  0.00    -0.144 N 
HETATM    2  C3  UNL     1      -1.724   9.076  39.443  1.00  0.00     0.264 A 
HETATM    3  O1  UNL     1      -0.964   9.811  38.732  1.00  0.00    -0.267 OA
HETATM    4  C4  UNL     1      -2.841   8.483  38.903  1.00  0.00     0.119 A 
HETATM    5  C5  UNL     1      -3.666   7.682  39.680  1.00  0.00     0.169 A 
HETATM    6  N4  UNL     1      -3.351   7.498  40.966  1.00  0.00    -0.177 N 
ATOM      7  H4  UNL     1      -3.948   6.912  41.549  1.00  0.00     0.185 HD
HETATM    8  C6  UNL     1      -2.266   8.069  41.501  1.00  0.00     0.703 A 
ENDROOT
BRANCH   8   9
HETATM    9  N5  UNL     1      -2.033   7.841  42.768  1.00  0.00    -0.132 N 
ATOM     10  H5  UNL     1      -1.191   8.232  43.191  1.00  0.00     0.205 HD
BRANCH   9  11
HETATM   11  N6  UNL     1      -2.880   7.097  43.548  1.00  0.00    -0.296 N 
HETATM   12  C7  UNL     1      -3.215   7.364  44.764  1.00  0.00     0.129 C 
ATOM     13  H6  UNL     1      -3.281   6.257  43.129  1.00  0.00     0.186 HD
BRANCH  12  14
HETATM   14  C8  UNL     1      -4.129   6.465  45.453  1.00  0.00     0.100 A 
HETATM   15  C9  UNL     1      -5.497   6.731  45.341  1.00  0.00     0.161 A 
HETATM   16  N7  UNL     1      -6.340   5.915  45.966  1.00  0.00    -0.288 N 
HETATM   17  C10 UNL     1      -5.872   4.868  46.684  1.00  0.00     0.329 A 
ATOM     18  H7  UNL     1      -7.345   6.080  45.903  1.00  0.00     0.172 HD
HETATM   19  O5  UNL     1      -6.714   4.138  47.247  1.00  0.00    -0.247 OA
HETATM   20  N8  UNL     1      -4.556   4.613  46.791  1.00  0.00    -0.275 N 
HETATM   21  C11 UNL     1      -3.670   5.406  46.179  1.00  0.00     0.265 A 
ATOM     22  H8  UNL     1      -4.233   3.816  47.339  1.00  0.00     0.173 HD
HETATM   23  O6  UNL     1      -2.418   5.186  46.265  1.00  0.00    -0.267 OA
BRANCH  15  24
HETATM   24  O4  UNL     1      -5.924   7.828  44.586  1.00  0.00    -0.345 OA
ATOM     25  H4  UNL     1      -6.820   8.131  44.669  1.00  0.00     0.219 HD
ENDBRANCH  15  24
ENDBRANCH  12  14
ENDBRANCH   9  11
ENDBRANCH   8   9
BRANCH   1  26
HETATM   26  C2  UNL     1      -0.307   9.464  41.314  1.00  0.00     0.178 C 
BRANCH  26  27
HETATM   27  C1  UNL     1       0.988   8.768  41.055  1.00  0.00     0.250 C 
BRANCH  27  28
HETATM   28  N1  UNL     1       1.972   9.575  40.367  1.00  0.00    -0.078 N 
ATOM     29  H13 UNL     1       2.119   9.227  39.419  1.00  0.00     0.274 HD
ATOM     30  H12 UNL     1       1.592  10.498  40.158  1.00  0.00     0.274 HD
ATOM     31  H11 UNL     1       2.863   9.659  40.857  1.00  0.00     0.274 HD
ENDBRANCH  27  28
ENDBRANCH  26  27
ENDBRANCH   1  26
BRANCH   5  32
HETATM   32  S1  UNL     1      -5.088   6.935  38.975  1.00  0.00     0.273 S 
HETATM   33  O2  UNL     1      -4.965   6.883  37.468  1.00  0.00    -0.199 OA
HETATM   34  O3  UNL     1      -5.192   5.530  39.454  1.00  0.00    -0.199 OA
BRANCH  32  35
HETATM   35  N3  UNL     1      -6.519   7.771  39.365  1.00  0.00    -0.323 N 
ATOM     36  H32 UNL     1      -7.120   7.507  40.146  1.00  0.00     0.169 HD
ATOM     37  H31 UNL     1      -6.697   8.552  38.733  1.00  0.00     0.169 HD
ENDBRANCH  32  35
ENDBRANCH   5  32
TORSDOF 9
ENDMDL
MODEL 5
REMARK VINA RESULT: -7.980435307      2.189      4.322
REMARK  9 active torsions:
REMARK  status: ('A' for Active; 'I' for Inactive)
REMARK    1  A    between atoms: N1_1  and  C1_5 
REMARK    2  A    between atoms: C1_5  and  C2_6 
REMARK    3  A    between atoms: C2_6  and  N2_7 
REMARK    4  A    between atoms: C5_11  and  S1_12 
REMARK    5  A    between atoms: S1_12  and  N3_13 
REMARK    6  A    between atoms: C6_20  and  N5_21 
REMARK    7  A    between atoms: N5_21  and  N6_23 
REMARK    8  A    between atoms: C7_25  and  C8_26 
REMARK    9  A    between atoms: C9_27  and  O4_28 
ROOT
HETATM    1  N2  UNL     1      -4.763   8.410  40.103  1.00  0.00    -0.144 N 
HETATM    2  C3  UNL     1      -3.984   8.467  39.001  1.00  0.00     0.264 A 
HETATM    3  O1  UNL     1      -4.472   8.343  37.830  1.00  0.00    -0.267 OA
HETATM    4  C4  UNL     1      -2.636   8.667  39.187  1.00  0.00     0.119 A 
HETATM    5  C5  UNL     1      -2.109   8.802  40.463  1.00  0.00     0.169 A 
HETATM    6  N4  UNL     1      -2.938   8.735  41.508  1.00  0.00    -0.177 N 
ATOM      7  H4  UNL     1      -2.564   8.832  42.452  1.00  0.00     0.185 HD
HETATM    8  C6  UNL     1      -4.250   8.541  41.339  1.00  0.00     0.703 A 
ENDROOT
BRANCH   8   9
HETATM    9  N5  UNL     1      -4.991   8.482  42.415  1.00  0.00    -0.132 N 
ATOM     10  H5  UNL     1      -5.707   9.194  42.559  1.00  0.00     0.205 HD
BRANCH   9  11
HETATM   11  N6  UNL     1      -4.840   7.498  43.357  1.00  0.00    -0.296 N 
HETATM   12  C7  UNL     1      -5.109   7.609  44.613  1.00  0.00     0.129 C 
ATOM     13  H6  UNL     1      -4.484   6.597  43.036  1.00  0.00     0.186 HD
BRANCH  12  14
HETATM   14  C8  UNL     1      -4.890   6.461  45.481  1.00  0.00     0.100 A 
HETATM   15  C9  UNL     1      -6.010   5.904  46.104  1.00  0.00     0.161 A 
HETATM   16  N7  UNL     1      -5.821   4.855  46.898  1.00  0.00    -0.288 N 
HETATM   17  C10 UNL     1      -4.577   4.357  47.087  1.00  0.00     0.329 A 
ATOM     18  H7  UNL     1      -6.618   4.424  47.367  1.00  0.00     0.172 HD
HETATM   19  O5  UNL     1      -4.464   3.371  47.844  1.00  0.00    -0.247 OA
HETATM   20  N8  UNL     1      -3.500   4.893  46.487  1.00  0.00    -0.275 N 
HETATM   21  C11 UNL     1      -3.641   5.949  45.679  1.00  0.00     0.265 A 
ATOM     22  H8  UNL     1      -2.575   4.495  46.649  1.00  0.00     0.173 HD
HETATM   23  O6  UNL     1      -2.636   6.475  45.099  1.00  0.00    -0.267 OA
BRANCH  15  24
HETATM   24  O4  UNL     1      -7.272   6.461  45.873  1.00  0.00    -0.345 OA
ATOM     25  H4  UNL     1      -7.734   6.883  46.588  1.00  0.00     0.219 HD
ENDBRANCH  15  24
ENDBRANCH  12  14
ENDBRANCH   9  11
ENDBRANCH   8   9
BRANCH   1  26
HETATM   26  C2  UNL     1      -6.165   8.197  39.911  1.00  0.00     0.178 C 
BRANCH  26  27
HETATM   27  C1  UNL     1      -6.986   9.431  39.727  1.00  0.00     0.250 C 
BRANCH  27  28
HETATM   28  N1  UNL     1      -7.250   9.771  38.346  1.00  0.00    -0.078 N 
ATOM     29  H13 UNL     1      -6.594   9.291  37.730  1.00  0.00     0.274 HD
ATOM     30  H12 UNL     1      -8.124   9.347  38.036  1.00  0.00     0.274 HD
ATOM     31  H11 UNL     1      -7.252  10.773  38.153  1.00  0.00     0.274 HD
ENDBRANCH  27  28
ENDBRANCH  26  27
ENDBRANCH   1  26
BRANCH   5  32
HETATM   32  S1  UNL     1      -0.386   9.056  40.682  1.00  0.00     0.273 S 
HETATM   33  O2  UNL     1      -0.052   9.160  42.154  1.00  0.00    -0.199 OA
HETATM   34  O3  UNL     1       0.354   7.881  40.148  1.00  0.00    -0.199 OA
BRANCH  32  35
HETATM   35  N3  UNL     1       0.164  10.468  39.909  1.00  0.00    -0.323 N 
ATOM     36  H32 UNL     1      -0.290  11.375  40.019  1.00  0.00     0.169 HD
ATOM     37  H31 UNL     1       0.989  10.299  39.332  1.00  0.00     0.169 HD
ENDBRANCH  32  35
ENDBRANCH   5  32
TORSDOF 9
ENDMDL
