MODEL 1
REMARK VINA RESULT: -7.504482189      0.000      0.000
REMARK  11 active torsions:
REMARK  status: ('A' for Active; 'I' for Inactive)
REMARK    1  A    between atoms: N1_1  and  C1_5 
REMARK    2  A    between atoms: C1_5  and  C2_6 
REMARK    3  A    between atoms: C5_9  and  N2_10 
REMARK    4  A    between atoms: C6_14  and  O1_15 
REMARK    5  A    between atoms: O1_15  and  C7_16 
REMARK    6  A    between atoms: C8_17  and  O2_18 
REMARK    7  A    between atoms: O2_18  and  C9_19 
REMARK    8  A    between atoms: C10_21  and  N3_22 
REMARK    9  A    between atoms: C11_26  and  N4_27 
REMARK   10  A    between atoms: C13_33  and  O5_34 
REMARK   11  A    between atoms: C14_36  and  N5_37 
ROOT
HETATM    1  C7  UNL     1      -4.756   8.370  43.623  1.00  0.00     0.210 C 
HETATM    2  C8  UNL     1      -3.880   8.222  42.129  1.00  0.00     0.293 C 
HETATM    3  O4  UNL     1      -3.997   9.806  41.824  1.00  0.00    -0.356 OA
HETATM    4  C12 UNL     1      -5.167   9.828  41.125  1.00  0.00     0.205 C 
HETATM    5  C13 UNL     1      -6.273   9.812  42.135  1.00  0.00     0.175 C 
HETATM    6  C14 UNL     1      -6.112   8.776  43.162  1.00  0.00     0.247 C 
ENDROOT
BRANCH   1   7
HETATM    7  O1  UNL     1      -4.821   7.078  44.010  1.00  0.00    -0.371 OA
BRANCH   7   8
HETATM    8  C6  UNL     1      -4.970   6.755  45.322  1.00  0.00     0.153 C 
HETATM    9  C5  UNL     1      -3.678   6.462  46.000  1.00  0.00     0.212 C 
HETATM   10  C4  UNL     1      -3.554   5.257  46.833  1.00  0.00     0.036 C 
HETATM   11  C3  UNL     1      -4.749   4.409  47.059  1.00  0.00     0.008 C 
HETATM   12  C2  UNL     1      -5.989   5.247  46.909  1.00  0.00     0.013 C 
HETATM   13  C15 UNL     1      -5.980   5.624  45.420  1.00  0.00     0.040 C 
BRANCH   9  14
HETATM   14  N2  UNL     1      -2.640   6.381  44.963  1.00  0.00    -0.073 N 
ATOM     15  H23 UNL     1      -2.791   7.035  44.195  1.00  0.00     0.274 HD
ATOM     16  H22 UNL     1      -1.739   6.745  45.270  1.00  0.00     0.274 HD
ATOM     17  H21 UNL     1      -2.596   5.409  44.657  1.00  0.00     0.274 HD
ENDBRANCH   9  14
BRANCH  12  18
HETATM   18  C1  UNL     1      -7.206   4.412  47.220  1.00  0.00     0.234 C 
BRANCH  18  19
HETATM   19  N1  UNL     1      -6.855   3.235  47.969  1.00  0.00    -0.079 N 
ATOM     20  H13 UNL     1      -6.719   2.429  47.359  1.00  0.00     0.274 HD
ATOM     21  H12 UNL     1      -5.912   3.303  48.352  1.00  0.00     0.274 HD
ATOM     22  H11 UNL     1      -7.541   3.041  48.698  1.00  0.00     0.274 HD
ENDBRANCH  18  19
ENDBRANCH  12  18
ENDBRANCH   7   8
ENDBRANCH   1   7
BRANCH   2  23
HETATM   23  O2  UNL     1      -2.704   8.402  42.662  1.00  0.00    -0.327 OA
BRANCH  23  24
HETATM   24  C9  UNL     1      -1.576   7.793  42.265  1.00  0.00     0.300 C 
HETATM   25  O3  UNL     1      -1.691   7.214  40.984  1.00  0.00    -0.324 OA
HETATM   26  C10 UNL     1      -0.337   7.534  40.777  1.00  0.00     0.356 C 
HETATM   27  C11 UNL     1      -0.522   8.734  41.647  1.00  0.00     0.294 C 
BRANCH  26  28
HETATM   28  N3  UNL     1      -0.110   7.777  39.375  1.00  0.00    -0.051 N 
ATOM     29  H33 UNL     1      -0.833   8.369  38.964  1.00  0.00     0.277 HD
ATOM     30  H32 UNL     1       0.689   8.391  39.214  1.00  0.00     0.277 HD
ATOM     31  H31 UNL     1      -0.017   6.886  38.886  1.00  0.00     0.277 HD
ENDBRANCH  26  28
BRANCH  27  32
HETATM   32  N4  UNL     1      -1.168   9.838  41.016  1.00  0.00    -0.066 N 
ATOM     33  H43 UNL     1      -1.779   9.541  40.256  1.00  0.00     0.275 HD
ATOM     34  H42 UNL     1      -1.874  10.264  41.617  1.00  0.00     0.275 HD
ATOM     35  H41 UNL     1      -0.471  10.516  40.705  1.00  0.00     0.275 HD
ENDBRANCH  27  32
ENDBRANCH  23  24
ENDBRANCH   2  23
BRANCH   6  36
HETATM   36  N5  UNL     1      -6.859   7.575  42.735  1.00  0.00    -0.070 N 
ATOM     37  H53 UNL     1      -6.332   7.006  42.072  1.00  0.00     0.274 HD
ATOM     38  H52 UNL     1      -6.942   6.885  43.482  1.00  0.00     0.274 HD
ATOM     39  H51 UNL     1      -7.767   7.858  42.366  1.00  0.00     0.274 HD
ENDBRANCH   6  36
BRANCH   5  40
HETATM   40  O5  UNL     1      -7.452   9.535  41.401  1.00  0.00    -0.391 OA
ATOM     41  H5  UNL     1      -7.389   8.620  41.154  1.00  0.00     0.210 HD
ENDBRANCH   5  40
TORSDOF 11
ENDMDL
MODEL 2
REMARK VINA RESULT: -7.257631861      1.075      1.207
REMARK  11 active torsions:
REMARK  status: ('A' for Active; 'I' for Inactive)
REMARK    1  A    between atoms: N1_1  and  C1_5 
REMARK    2  A    between atoms: C1_5  and  C2_6 
REMARK    3  A    between atoms: C5_9  and  N2_10 
REMARK    4  A    between atoms: C6_14  and  O1_15 
REMARK    5  A    between atoms: O1_15  and  C7_16 
REMARK    6  A    between atoms: C8_17  and  O2_18 
REMARK    7  A    between atoms: O2_18  and  C9_19 
REMARK    8  A    between atoms: C10_21  and  N3_22 
REMARK    9  A    between atoms: C11_26  and  N4_27 
REMARK   10  A    between atoms: C13_33  and  O5_34 
REMARK   11  A    between atoms: C14_36  and  N5_37 
ROOT
HETATM    1  C7  UNL     1      -5.199   8.327  43.201  1.00  0.00     0.210 C 
HETATM    2  C8  UNL     1      -4.330   8.122  41.709  1.00  0.00     0.293 C 
HETATM    3  O4  UNL     1      -4.574   9.661  41.276  1.00  0.00    -0.356 OA
HETATM    4  C12 UNL     1      -5.749   9.533  40.597  1.00  0.00     0.205 C 
HETATM    5  C13 UNL     1      -6.840   9.517  41.623  1.00  0.00     0.175 C 
HETATM    6  C14 UNL     1      -6.588   8.587  42.730  1.00  0.00     0.247 C 
ENDROOT
BRANCH   1   7
HETATM    7  O1  UNL     1      -5.159   7.071  43.695  1.00  0.00    -0.371 OA
BRANCH   7   8
HETATM    8  C6  UNL     1      -5.249   6.850  45.033  1.00  0.00     0.153 C 
HETATM    9  C5  UNL     1      -3.921   6.723  45.693  1.00  0.00     0.212 C 
HETATM   10  C4  UNL     1      -3.676   5.608  46.619  1.00  0.00     0.036 C 
HETATM   11  C3  UNL     1      -4.789   4.687  46.951  1.00  0.00     0.008 C 
HETATM   12  C2  UNL     1      -6.099   5.406  46.770  1.00  0.00     0.013 C 
HETATM   13  C15 UNL     1      -6.158   5.653  45.256  1.00  0.00     0.040 C 
BRANCH   9  14
HETATM   14  N2  UNL     1      -2.905   6.639  44.634  1.00  0.00    -0.073 N 
ATOM     15  H23 UNL     1      -2.641   7.550  44.260  1.00  0.00     0.274 HD
ATOM     16  H22 UNL     1      -1.986   6.369  44.983  1.00  0.00     0.274 HD
ATOM     17  H21 UNL     1      -3.265   6.004  43.922  1.00  0.00     0.274 HD
ENDBRANCH   9  14
BRANCH  12  18
HETATM   18  C1  UNL     1      -7.234   4.503  47.187  1.00  0.00     0.234 C 
BRANCH  18  19
HETATM   19  N1  UNL     1      -6.750   3.350  47.900  1.00  0.00    -0.079 N 
ATOM     20  H13 UNL     1      -7.401   2.568  47.832  1.00  0.00     0.274 HD
ATOM     21  H12 UNL     1      -5.949   2.929  47.430  1.00  0.00     0.274 HD
ATOM     22  H11 UNL     1      -6.538   3.577  48.871  1.00  0.00     0.274 HD
ENDBRANCH  18  19
ENDBRANCH  12  18
ENDBRANCH   7   8
ENDBRANCH   1   7
BRANCH   2  23
HETATM   23  O2  UNL     1      -3.166   8.437  42.206  1.00  0.00    -0.327 OA
BRANCH  23  24
HETATM   24  C9  UNL     1      -2.157   8.987  41.513  1.00  0.00     0.300 C 
HETATM   25  O3  UNL     1      -1.059   9.330  42.328  1.00  0.00    -0.324 OA
HETATM   26  C10 UNL     1      -0.221   9.002  41.248  1.00  0.00     0.356 C 
HETATM   27  C11 UNL     1      -1.218   7.970  40.832  1.00  0.00     0.294 C 
BRANCH  26  28
HETATM   28  N3  UNL     1       1.042   8.521  41.748  1.00  0.00    -0.051 N 
ATOM     29  H33 UNL     1       1.198   8.787  42.721  1.00  0.00     0.277 HD
ATOM     30  H32 UNL     1       1.048   7.509  41.871  1.00  0.00     0.277 HD
ATOM     31  H31 UNL     1       1.794   8.840  41.136  1.00  0.00     0.277 HD
ENDBRANCH  26  28
BRANCH  27  32
HETATM   32  N4  UNL     1      -1.181   6.761  41.590  1.00  0.00    -0.066 N 
ATOM     33  H43 UNL     1      -0.350   6.704  42.180  1.00  0.00     0.275 HD
ATOM     34  H42 UNL     1      -1.886   6.749  42.326  1.00  0.00     0.275 HD
ATOM     35  H41 UNL     1      -1.263   5.958  40.966  1.00  0.00     0.275 HD
ENDBRANCH  27  32
ENDBRANCH  23  24
ENDBRANCH   2  23
BRANCH   6  36
HETATM   36  N5  UNL     1      -7.243   7.300  42.417  1.00  0.00    -0.070 N 
ATOM     37  H53 UNL     1      -6.619   6.504  42.555  1.00  0.00     0.274 HD
ATOM     38  H52 UNL     1      -7.951   7.048  43.107  1.00  0.00     0.274 HD
ATOM     39  H51 UNL     1      -7.620   7.337  41.470  1.00  0.00     0.274 HD
ENDBRANCH   6  36
BRANCH   5  40
HETATM   40  O5  UNL     1      -8.002   9.090  40.935  1.00  0.00    -0.391 OA
ATOM     41  H5  UNL     1      -8.391   9.879  40.578  1.00  0.00     0.210 HD
ENDBRANCH   5  40
TORSDOF 11
ENDMDL
MODEL 3
REMARK VINA RESULT: -7.242018210      1.015      1.016
REMARK  11 active torsions:
REMARK  status: ('A' for Active; 'I' for Inactive)
REMARK    1  A    between atoms: N1_1  and  C1_5 
REMARK    2  A    between atoms: C1_5  and  C2_6 
REMARK    3  A    between atoms: C5_9  and  N2_10 
REMARK    4  A    between atoms: C6_14  and  O1_15 
REMARK    5  A    between atoms: O1_15  and  C7_16 
REMARK    6  A    between atoms: C8_17  and  O2_18 
REMARK    7  A    between atoms: O2_18  and  C9_19 
REMARK    8  A    between atoms: C10_21  and  N3_22 
REMARK    9  A    between atoms: C11_26  and  N4_27 
REMARK   10  A    between atoms: C13_33  and  O5_34 
REMARK   11  A    between atoms: C14_36  and  N5_37 
ROOT
HETATM    1  C7  UNL     1      -5.424   8.327  43.048  1.00  0.00     0.210 C 
HETATM    2  C8  UNL     1      -4.612   8.147  41.521  1.00  0.00     0.293 C 
HETATM    3  O4  UNL     1      -4.986   9.654  41.067  1.00  0.00    -0.356 OA
HETATM    4  C12 UNL     1      -6.179   9.427  40.448  1.00  0.00     0.205 C 
HETATM    5  C13 UNL     1      -7.217   9.359  41.526  1.00  0.00     0.175 C 
HETATM    6  C14 UNL     1      -6.847   8.477  42.639  1.00  0.00     0.247 C 
ENDROOT
BRANCH   1   7
HETATM    7  O1  UNL     1      -5.270   7.091  43.566  1.00  0.00    -0.371 OA
BRANCH   7   8
HETATM    8  C6  UNL     1      -5.348   6.888  44.909  1.00  0.00     0.153 C 
HETATM    9  C5  UNL     1      -4.013   6.808  45.563  1.00  0.00     0.212 C 
HETATM   10  C4  UNL     1      -3.733   5.715  46.505  1.00  0.00     0.036 C 
HETATM   11  C3  UNL     1      -4.819   4.768  46.857  1.00  0.00     0.008 C 
HETATM   12  C2  UNL     1      -6.149   5.446  46.672  1.00  0.00     0.013 C 
HETATM   13  C15 UNL     1      -6.222   5.669  45.154  1.00  0.00     0.040 C 
BRANCH   9  14
HETATM   14  N2  UNL     1      -3.001   6.736  44.501  1.00  0.00    -0.073 N 
ATOM     15  H23 UNL     1      -2.219   7.372  44.650  1.00  0.00     0.274 HD
ATOM     16  H22 UNL     1      -2.468   5.867  44.516  1.00  0.00     0.274 HD
ATOM     17  H21 UNL     1      -3.482   6.895  43.616  1.00  0.00     0.274 HD
ENDBRANCH   9  14
BRANCH  12  18
HETATM   18  C1  UNL     1      -7.256   4.519  47.108  1.00  0.00     0.234 C 
BRANCH  18  19
HETATM   19  N1  UNL     1      -6.741   3.413  47.871  1.00  0.00    -0.079 N 
ATOM     20  H13 UNL     1      -5.778   3.196  47.613  1.00  0.00     0.274 HD
ATOM     21  H12 UNL     1      -6.588   3.670  48.846  1.00  0.00     0.274 HD
ATOM     22  H11 UNL     1      -7.344   2.595  47.791  1.00  0.00     0.274 HD
ENDBRANCH  18  19
ENDBRANCH  12  18
ENDBRANCH   7   8
ENDBRANCH   1   7
BRANCH   2  23
HETATM   23  O2  UNL     1      -3.452   8.556  41.954  1.00  0.00    -0.327 OA
BRANCH  23  24
HETATM   24  C9  UNL     1      -2.270   8.243  41.402  1.00  0.00     0.300 C 
HETATM   25  O3  UNL     1      -2.384   7.862  40.049  1.00  0.00    -0.324 OA
HETATM   26  C10 UNL     1      -1.132   8.463  39.829  1.00  0.00     0.356 C 
HETATM   27  C11 UNL     1      -1.457   9.453  40.899  1.00  0.00     0.294 C 
BRANCH  26  28
HETATM   28  N3  UNL     1      -1.068   8.962  38.479  1.00  0.00    -0.051 N 
ATOM     29  H33 UNL     1      -0.125   8.912  38.093  1.00  0.00     0.277 HD
ATOM     30  H32 UNL     1      -1.531   8.340  37.816  1.00  0.00     0.277 HD
ATOM     31  H31 UNL     1      -1.447   9.909  38.448  1.00  0.00     0.277 HD
ENDBRANCH  26  28
BRANCH  27  32
HETATM   32  N4  UNL     1      -2.341  10.499  40.499  1.00  0.00    -0.066 N 
ATOM     33  H43 UNL     1      -3.109  10.625  41.159  1.00  0.00     0.275 HD
ATOM     34  H42 UNL     1      -1.912  11.420  40.593  1.00  0.00     0.275 HD
ATOM     35  H41 UNL     1      -2.676  10.327  39.551  1.00  0.00     0.275 HD
ENDBRANCH  27  32
ENDBRANCH  23  24
ENDBRANCH   2  23
BRANCH   6  36
HETATM   36  N5  UNL     1      -7.423   7.139  42.386  1.00  0.00    -0.070 N 
ATOM     37  H53 UNL     1      -7.057   6.433  43.026  1.00  0.00     0.274 HD
ATOM     38  H52 UNL     1      -8.404   7.083  42.655  1.00  0.00     0.274 HD
ATOM     39  H51 UNL     1      -7.274   6.890  41.408  1.00  0.00     0.274 HD
ENDBRANCH   6  36
BRANCH   5  40
HETATM   40  O5  UNL     1      -8.376   8.833  40.903  1.00  0.00    -0.391 OA
ATOM     41  H5  UNL     1      -9.034   9.515  40.973  1.00  0.00     0.210 HD
ENDBRANCH   5  40
TORSDOF 11
ENDMDL
MODEL 4
REMARK VINA RESULT: -7.122662376      2.927      4.955
REMARK  11 active torsions:
REMARK  status: ('A' for Active; 'I' for Inactive)
REMARK    1  A    between atoms: N1_1  and  C1_5 
REMARK    2  A    between atoms: C1_5  and  C2_6 
REMARK    3  A    between atoms: C5_9  and  N2_10 
REMARK    4  A    between atoms: C6_14  and  O1_15 
REMARK    5  A    between atoms: O1_15  and  C7_16 
REMARK    6  A    between atoms: C8_17  and  O2_18 
REMARK    7  A    between atoms: O2_18  and  C9_19 
REMARK    8  A    between atoms: C10_21  and  N3_22 
REMARK    9  A    between atoms: C11_26  and  N4_27 
REMARK   10  A    between atoms: C13_33  and  O5_34 
REMARK   11  A    between atoms: C14_36  and  N5_37 
ROOT
HETATM    1  C7  UNL     1      -2.614   8.139  40.891  1.00  0.00     0.210 C 
HETATM    2  C8  UNL     1      -3.276   8.827  39.437  1.00  0.00     0.293 C 
HETATM    3  O4  UNL     1      -1.959   8.447  38.577  1.00  0.00    -0.356 OA
HETATM    4  C12 UNL     1      -1.220   9.577  38.763  1.00  0.00     0.205 C 
HETATM    5  C13 UNL     1      -0.545   9.436  40.093  1.00  0.00     0.175 C 
HETATM    6  C14 UNL     1      -1.457   9.033  41.171  1.00  0.00     0.247 C 
ENDROOT
BRANCH   1   7
HETATM    7  O1  UNL     1      -3.587   8.432  41.779  1.00  0.00    -0.371 OA
BRANCH   7   8
HETATM    8  C6  UNL     1      -4.077   7.476  42.612  1.00  0.00     0.153 C 
HETATM    9  C5  UNL     1      -5.564   7.459  42.666  1.00  0.00     0.212 C 
HETATM   10  C4  UNL     1      -6.240   7.410  43.971  1.00  0.00     0.036 C 
HETATM   11  C3  UNL     1      -5.424   7.282  45.203  1.00  0.00     0.008 C 
HETATM   12  C2  UNL     1      -4.117   6.616  44.867  1.00  0.00     0.013 C 
HETATM   13  C15 UNL     1      -3.418   7.648  43.970  1.00  0.00     0.040 C 
BRANCH   9  14
HETATM   14  N2  UNL     1      -6.049   8.659  41.972  1.00  0.00    -0.073 N 
ATOM     15  H23 UNL     1      -6.707   8.449  41.222  1.00  0.00     0.274 HD
ATOM     16  H22 UNL     1      -6.677   9.224  42.542  1.00  0.00     0.274 HD
ATOM     17  H21 UNL     1      -5.228   9.173  41.651  1.00  0.00     0.274 HD
ENDBRANCH   9  14
BRANCH  12  18
HETATM   18  C1  UNL     1      -3.317   6.405  46.128  1.00  0.00     0.234 C 
BRANCH  18  19
HETATM   19  N1  UNL     1      -3.083   5.007  46.373  1.00  0.00    -0.079 N 
ATOM     20  H13 UNL     1      -2.531   4.862  47.218  1.00  0.00     0.274 HD
ATOM     21  H12 UNL     1      -3.937   4.529  46.660  1.00  0.00     0.274 HD
ATOM     22  H11 UNL     1      -2.656   4.556  45.564  1.00  0.00     0.274 HD
ENDBRANCH  18  19
ENDBRANCH  12  18
ENDBRANCH   7   8
ENDBRANCH   1   7
BRANCH   2  23
HETATM   23  O2  UNL     1      -3.861   7.730  39.043  1.00  0.00    -0.327 OA
BRANCH  23  24
HETATM   24  C9  UNL     1      -5.117   7.652  38.579  1.00  0.00     0.300 C 
HETATM   25  O3  UNL     1      -5.631   8.903  38.182  1.00  0.00    -0.324 OA
HETATM   26  C10 UNL     1      -6.341   8.231  37.171  1.00  0.00     0.356 C 
HETATM   27  C11 UNL     1      -5.230   7.236  37.098  1.00  0.00     0.294 C 
BRANCH  26  28
HETATM   28  N3  UNL     1      -6.506   9.105  36.037  1.00  0.00    -0.051 N 
ATOM     29  H33 UNL     1      -5.650   9.191  35.488  1.00  0.00     0.277 HD
ATOM     30  H32 UNL     1      -7.101   8.695  35.317  1.00  0.00     0.277 HD
ATOM     31  H31 UNL     1      -6.853  10.011  36.354  1.00  0.00     0.277 HD
ENDBRANCH  26  28
BRANCH  27  32
HETATM   32  N4  UNL     1      -4.077   7.676  36.382  1.00  0.00    -0.066 N 
ATOM     33  H43 UNL     1      -3.601   8.444  36.856  1.00  0.00     0.275 HD
ATOM     34  H42 UNL     1      -3.322   6.992  36.414  1.00  0.00     0.275 HD
ATOM     35  H41 UNL     1      -4.335   7.919  35.425  1.00  0.00     0.275 HD
ENDBRANCH  27  32
ENDBRANCH  23  24
ENDBRANCH   2  23
BRANCH   6  36
HETATM   36  N5  UNL     1      -1.938  10.250  41.856  1.00  0.00    -0.070 N 
ATOM     37  H53 UNL     1      -1.204  10.951  41.962  1.00  0.00     0.274 HD
ATOM     38  H52 UNL     1      -2.575  10.795  41.275  1.00  0.00     0.274 HD
ATOM     39  H51 UNL     1      -2.356   9.989  42.749  1.00  0.00     0.274 HD
ENDBRANCH   6  36
BRANCH   5  40
HETATM   40  O5  UNL     1      -0.034  10.722  40.397  1.00  0.00    -0.391 OA
ATOM     41  H5  UNL     1       0.743  10.569  40.922  1.00  0.00     0.210 HD
ENDBRANCH   5  40
TORSDOF 11
ENDMDL
MODEL 5
REMARK VINA RESULT: -6.877601251      2.838      4.933
REMARK  11 active torsions:
REMARK  status: ('A' for Active; 'I' for Inactive)
REMARK    1  A    between atoms: N1_1  and  C1_5 
REMARK    2  A    between atoms: C1_5  and  C2_6 
REMARK    3  A    between atoms: C5_9  and  N2_10 
REMARK    4  A    between atoms: C6_14  and  O1_15 
REMARK    5  A    between atoms: O1_15  and  C7_16 
REMARK    6  A    between atoms: C8_17  and  O2_18 
REMARK    7  A    between atoms: O2_18  and  C9_19 
REMARK    8  A    between atoms: C10_21  and  N3_22 
REMARK    9  A    between atoms: C11_26  and  N4_27 
REMARK   10  A    between atoms: C13_33  and  O5_34 
REMARK   11  A    between atoms: C14_36  and  N5_37 
ROOT
HETATM    1  C7  UNL     1      -2.607   8.151  40.918  1.00  0.00     0.210 C 
HETATM    2  C8  UNL     1      -3.250   8.864  39.468  1.00  0.00     0.293 C 
HETATM    3  O4  UNL     1      -1.934   8.474  38.611  1.00  0.00    -0.356 OA
HETATM    4  C12 UNL     1      -1.179   9.591  38.814  1.00  0.00     0.205 C 
HETATM    5  C13 UNL     1      -0.514   9.426  40.146  1.00  0.00     0.175 C 
HETATM    6  C14 UNL     1      -1.438   9.024  41.214  1.00  0.00     0.247 C 
ENDROOT
BRANCH   1   7
HETATM    7  O1  UNL     1      -3.580   8.449  41.803  1.00  0.00    -0.371 OA
BRANCH   7   8
HETATM    8  C6  UNL     1      -4.075   7.495  42.637  1.00  0.00     0.153 C 
HETATM    9  C5  UNL     1      -5.560   7.524  42.738  1.00  0.00     0.212 C 
HETATM   10  C4  UNL     1      -6.196   7.477  44.062  1.00  0.00     0.036 C 
HETATM   11  C3  UNL     1      -5.348   7.303  45.266  1.00  0.00     0.008 C 
HETATM   12  C2  UNL     1      -4.074   6.601  44.879  1.00  0.00     0.013 C 
HETATM   13  C15 UNL     1      -3.370   7.624  43.977  1.00  0.00     0.040 C 
BRANCH   9  14
HETATM   14  N2  UNL     1      -6.026   8.751  42.076  1.00  0.00    -0.073 N 
ATOM     15  H23 UNL     1      -5.265   9.325  41.715  1.00  0.00     0.274 HD
ATOM     16  H22 UNL     1      -6.489   8.572  41.185  1.00  0.00     0.274 HD
ATOM     17  H21 UNL     1      -6.618   9.245  42.743  1.00  0.00     0.274 HD
ENDBRANCH   9  14
BRANCH  12  18
HETATM   18  C1  UNL     1      -3.243   6.345  46.112  1.00  0.00     0.234 C 
BRANCH  18  19
HETATM   19  N1  UNL     1      -3.155   4.939  46.401  1.00  0.00    -0.079 N 
ATOM     20  H13 UNL     1      -2.190   4.610  46.373  1.00  0.00     0.274 HD
ATOM     21  H12 UNL     1      -3.359   4.745  47.381  1.00  0.00     0.274 HD
ATOM     22  H11 UNL     1      -3.754   4.395  45.780  1.00  0.00     0.274 HD
ENDBRANCH  18  19
ENDBRANCH  12  18
ENDBRANCH   7   8
ENDBRANCH   1   7
BRANCH   2  23
HETATM   23  O2  UNL     1      -3.848   7.780  39.058  1.00  0.00    -0.327 OA
BRANCH  23  24
HETATM   24  C9  UNL     1      -5.011   7.749  38.390  1.00  0.00     0.300 C 
HETATM   25  O3  UNL     1      -4.983   6.872  37.286  1.00  0.00    -0.324 OA
HETATM   26  C10 UNL     1      -6.337   6.591  37.542  1.00  0.00     0.356 C 
HETATM   27  C11 UNL     1      -6.073   6.808  38.996  1.00  0.00     0.294 C 
BRANCH  26  28
HETATM   28  N3  UNL     1      -6.635   5.243  37.129  1.00  0.00    -0.051 N 
ATOM     29  H33 UNL     1      -7.300   5.215  36.356  1.00  0.00     0.277 HD
ATOM     30  H32 UNL     1      -5.846   4.801  36.658  1.00  0.00     0.277 HD
ATOM     31  H31 UNL     1      -6.956   4.704  37.934  1.00  0.00     0.277 HD
ENDBRANCH  26  28
BRANCH  27  32
HETATM   32  N4  UNL     1      -5.434   5.717  39.658  1.00  0.00    -0.066 N 
ATOM     33  H43 UNL     1      -4.419   5.751  39.560  1.00  0.00     0.275 HD
ATOM     34  H42 UNL     1      -5.488   5.801  40.673  1.00  0.00     0.275 HD
ATOM     35  H41 UNL     1      -5.821   4.834  39.325  1.00  0.00     0.275 HD
ENDBRANCH  27  32
ENDBRANCH  23  24
ENDBRANCH   2  23
BRANCH   6  36
HETATM   36  N5  UNL     1      -1.906  10.241  41.909  1.00  0.00    -0.070 N 
ATOM     37  H53 UNL     1      -2.100  11.006  41.263  1.00  0.00     0.274 HD
ATOM     38  H52 UNL     1      -2.846  10.133  42.290  1.00  0.00     0.274 HD
ATOM     39  H51 UNL     1      -1.226  10.501  42.624  1.00  0.00     0.274 HD
ENDBRANCH   6  36
BRANCH   5  40
HETATM   40  O5  UNL     1       0.013  10.701  40.466  1.00  0.00    -0.391 OA
ATOM     41  H5  UNL     1      -0.168  10.826  41.390  1.00  0.00     0.210 HD
ENDBRANCH   5  40
TORSDOF 11
ENDMDL
