MODEL 1
REMARK VINA RESULT: -8.537742629      0.000      0.000
REMARK  8 active torsions:
REMARK  status: ('A' for Active; 'I' for Inactive)
REMARK    1  A    between atoms: N4_14  and  N5_16 
REMARK    2  A    between atoms: N7_24  and  C9_25 
REMARK    3  A    between atoms: C9_25  and  O4_26 
REMARK    4  A    between atoms: O4_26  and  C10_27 
REMARK    5  A    between atoms: C10_27  and  C11_28 
REMARK    6  A    between atoms: C10_27  and  C12_31 
REMARK    7  A    between atoms: C11_28  and  O5_29 
REMARK    8  A    between atoms: C12_31  and  O6_32 
ROOT
HETATM    1  C1  UNL     1      -6.000   7.341  34.851  1.00  0.00     0.163 C 
HETATM    2  N1  UNL     1      -5.690   7.154  36.259  1.00  0.00    -0.289 N 
HETATM    3  C2  UNL     1      -6.492   6.504  37.097  1.00  0.00     0.330 A 
HETATM    4  O1  UNL     1      -7.559   6.040  36.614  1.00  0.00    -0.246 OA
HETATM    5  N2  UNL     1      -6.219   6.327  38.384  1.00  0.00    -0.274 N 
ATOM      6  H2  UNL     1      -6.880   5.817  38.969  1.00  0.00     0.173 HD
HETATM    7  C3  UNL     1      -5.063   6.820  38.944  1.00  0.00     0.265 A 
HETATM    8  O2  UNL     1      -4.982   6.569  40.110  1.00  0.00    -0.267 OA
HETATM    9  C4  UNL     1      -4.216   7.492  38.122  1.00  0.00     0.106 A 
HETATM   10  C5  UNL     1      -4.548   7.654  36.759  1.00  0.00     0.131 A 
HETATM   11  N3  UNL     1      -3.733   8.303  35.918  1.00  0.00    -0.325 N 
ATOM     12  H3  UNL     1      -4.002   8.405  34.939  1.00  0.00     0.169 HD
HETATM   13  C6  UNL     1      -2.574   8.820  36.336  1.00  0.00     0.150 A 
HETATM   14  N4  UNL     1      -1.852   9.418  35.500  1.00  0.00    -0.290 N 
ATOM     15  H4  UNL     1      -2.268   9.427  34.568  1.00  0.00     0.188 HD
HETATM   16  C7  UNL     1      -2.193   8.695  37.652  1.00  0.00     0.111 A 
HETATM   17  N6  UNL     1      -1.125   9.089  38.321  1.00  0.00    -0.303 N 
ATOM     18  H6  UNL     1      -0.335   9.606  37.934  1.00  0.00     0.171 HD
HETATM   19  C8  UNL     1      -1.252   8.696  39.589  1.00  0.00     0.333 A 
HETATM   20  O3  UNL     1      -0.413   8.902  40.496  1.00  0.00    -0.246 OA
HETATM   21  N7  UNL     1      -2.445   8.021  39.773  1.00  0.00    -0.251 N 
HETATM   22  C13 UNL     1      -3.021   8.019  38.581  1.00  0.00     0.095 A 
ENDROOT
BRANCH  21  23
HETATM   23  C9  UNL     1      -2.817   7.522  41.053  1.00  0.00     0.239 C 
BRANCH  23  24
HETATM   24  O4  UNL     1      -3.074   8.394  42.053  1.00  0.00    -0.336 OA
BRANCH  24  25
HETATM   25  C10 UNL     1      -2.833   8.243  43.327  1.00  0.00     0.176 C 
BRANCH  25  26
HETATM   26  C11 UNL     1      -1.800   9.299  43.774  1.00  0.00     0.198 C 
BRANCH  26  27
HETATM   27  O5  UNL     1      -2.100  10.480  43.102  1.00  0.00    -0.398 OA
ATOM     28  H5  UNL     1      -2.955  10.766  43.402  1.00  0.00     0.209 HD
ENDBRANCH  26  27
ENDBRANCH  25  26
BRANCH  25  29
HETATM   29  C12 UNL     1      -4.045   8.363  44.252  1.00  0.00     0.198 C 
BRANCH  29  30
HETATM   30  O6  UNL     1      -3.658   9.054  45.375  1.00  0.00    -0.398 OA
ATOM     31  H6  UNL     1      -3.791   8.490  46.127  1.00  0.00     0.209 HD
ENDBRANCH  29  30
ENDBRANCH  25  29
ENDBRANCH  24  25
ENDBRANCH  23  24
ENDBRANCH  21  23
BRANCH  14  32
HETATM   32  N5  UNL     1      -0.664  10.049  35.531  1.00  0.00    -0.344 N 
ATOM     33  H52 UNL     1      -0.566  10.593  36.389  1.00  0.00     0.176 HD
ATOM     34  H51 UNL     1       0.145  10.112  34.914  1.00  0.00     0.176 HD
ENDBRANCH  14  32
TORSDOF 8
ENDMDL
MODEL 2
REMARK VINA RESULT: -7.958028403      4.255      6.587
REMARK  8 active torsions:
REMARK  status: ('A' for Active; 'I' for Inactive)
REMARK    1  A    between atoms: N4_14  and  N5_16 
REMARK    2  A    between atoms: N7_24  and  C9_25 
REMARK    3  A    between atoms: C9_25  and  O4_26 
REMARK    4  A    between atoms: O4_26  and  C10_27 
REMARK    5  A    between atoms: C10_27  and  C11_28 
REMARK    6  A    between atoms: C10_27  and  C12_31 
REMARK    7  A    between atoms: C11_28  and  O5_29 
REMARK    8  A    between atoms: C12_31  and  O6_32 
ROOT
HETATM    1  C1  UNL     1      -7.065   6.117  45.607  1.00  0.00     0.163 C 
HETATM    2  N1  UNL     1      -5.696   6.453  45.252  1.00  0.00    -0.289 N 
HETATM    3  C2  UNL     1      -4.642   5.991  45.916  1.00  0.00     0.330 A 
HETATM    4  O1  UNL     1      -4.876   5.229  46.892  1.00  0.00    -0.246 OA
HETATM    5  N2  UNL     1      -3.387   6.292  45.601  1.00  0.00    -0.274 N 
ATOM      6  H2  UNL     1      -2.625   5.901  46.155  1.00  0.00     0.173 HD
HETATM    7  C3  UNL     1      -3.095   7.120  44.542  1.00  0.00     0.265 A 
HETATM    8  O2  UNL     1      -1.919   7.281  44.404  1.00  0.00    -0.267 OA
HETATM    9  C4  UNL     1      -4.145   7.614  43.837  1.00  0.00     0.106 A 
HETATM   10  C5  UNL     1      -5.462   7.266  44.209  1.00  0.00     0.131 A 
HETATM   11  N3  UNL     1      -6.520   7.728  43.531  1.00  0.00    -0.325 N 
ATOM     12  H3  UNL     1      -7.459   7.460  43.826  1.00  0.00     0.169 HD
HETATM   13  C6  UNL     1      -6.370   8.533  42.475  1.00  0.00     0.150 A 
HETATM   14  N4  UNL     1      -7.401   8.933  41.879  1.00  0.00    -0.290 N 
ATOM     15  H4  UNL     1      -8.256   8.570  42.302  1.00  0.00     0.188 HD
HETATM   16  C7  UNL     1      -5.113   8.908  42.061  1.00  0.00     0.111 A 
HETATM   17  N6  UNL     1      -4.680   9.666  41.070  1.00  0.00    -0.303 N 
ATOM     18  H6  UNL     1      -5.265  10.148  40.389  1.00  0.00     0.171 HD
HETATM   19  C8  UNL     1      -3.347   9.694  41.112  1.00  0.00     0.333 A 
HETATM   20  O3  UNL     1      -2.614  10.318  40.310  1.00  0.00    -0.246 OA
HETATM   21  N7  UNL     1      -2.876   8.932  42.165  1.00  0.00    -0.251 N 
HETATM   22  C13 UNL     1      -3.962   8.448  42.746  1.00  0.00     0.095 A 
ENDROOT
BRANCH  21  23
HETATM   23  C9  UNL     1      -1.481   8.826  42.428  1.00  0.00     0.239 C 
BRANCH  23  24
HETATM   24  O4  UNL     1      -0.768   7.846  41.831  1.00  0.00    -0.336 OA
BRANCH  24  25
HETATM   25  C10 UNL     1       0.152   7.973  40.913  1.00  0.00     0.176 C 
BRANCH  25  26
HETATM   26  C11 UNL     1      -0.438   7.566  39.547  1.00  0.00     0.198 C 
BRANCH  26  27
HETATM   27  O5  UNL     1      -0.720   8.740  38.853  1.00  0.00    -0.398 OA
ATOM     28  H5  UNL     1      -1.228   9.295  39.433  1.00  0.00     0.209 HD
ENDBRANCH  26  27
ENDBRANCH  25  26
BRANCH  25  29
HETATM   29  C12 UNL     1       0.750   9.372  40.759  1.00  0.00     0.198 C 
BRANCH  29  30
HETATM   30  O6  UNL     1       2.070   9.235  40.407  1.00  0.00    -0.398 OA
ATOM     31  H6  UNL     1       2.117   9.162  39.461  1.00  0.00     0.209 HD
ENDBRANCH  29  30
ENDBRANCH  25  29
ENDBRANCH  24  25
ENDBRANCH  23  24
ENDBRANCH  21  23
BRANCH  14  32
HETATM   32  N5  UNL     1      -7.655   9.723  40.820  1.00  0.00    -0.344 N 
ATOM     33  H52 UNL     1      -7.822  10.685  41.117  1.00  0.00     0.176 HD
ATOM     34  H51 UNL     1      -7.719   9.592  39.810  1.00  0.00     0.176 HD
ENDBRANCH  14  32
TORSDOF 8
ENDMDL
MODEL 3
REMARK VINA RESULT: -7.933541357      3.449      6.255
REMARK  8 active torsions:
REMARK  status: ('A' for Active; 'I' for Inactive)
REMARK    1  A    between atoms: N4_14  and  N5_16 
REMARK    2  A    between atoms: N7_24  and  C9_25 
REMARK    3  A    between atoms: C9_25  and  O4_26 
REMARK    4  A    between atoms: O4_26  and  C10_27 
REMARK    5  A    between atoms: C10_27  and  C11_28 
REMARK    6  A    between atoms: C10_27  and  C12_31 
REMARK    7  A    between atoms: C11_28  and  O5_29 
REMARK    8  A    between atoms: C12_31  and  O6_32 
ROOT
HETATM    1  C1  UNL     1      -1.241   9.211  39.511  1.00  0.00     0.163 C 
HETATM    2  N1  UNL     1      -1.553   8.788  40.867  1.00  0.00    -0.289 N 
HETATM    3  C2  UNL     1      -0.642   8.724  41.833  1.00  0.00     0.330 A 
HETATM    4  O1  UNL     1       0.535   9.053  41.525  1.00  0.00    -0.246 OA
HETATM    5  N2  UNL     1      -0.915   8.340  43.074  1.00  0.00    -0.274 N 
ATOM      6  H2  UNL     1      -0.166   8.315  43.766  1.00  0.00     0.173 HD
HETATM    7  C3  UNL     1      -2.188   7.975  43.445  1.00  0.00     0.265 A 
HETATM    8  O2  UNL     1      -2.251   7.658  44.596  1.00  0.00    -0.267 OA
HETATM    9  C4  UNL     1      -3.150   8.025  42.487  1.00  0.00     0.106 A 
HETATM   10  C5  UNL     1      -2.812   8.441  41.181  1.00  0.00     0.131 A 
HETATM   11  N3  UNL     1      -3.735   8.512  40.214  1.00  0.00    -0.325 N 
ATOM     12  H3  UNL     1      -3.459   8.814  39.279  1.00  0.00     0.169 HD
HETATM   13  C6  UNL     1      -5.012   8.193  40.449  1.00  0.00     0.150 A 
HETATM   14  N4  UNL     1      -5.832   8.280  39.501  1.00  0.00    -0.290 N 
ATOM     15  H4  UNL     1      -5.391   8.598  38.638  1.00  0.00     0.188 HD
HETATM   16  C7  UNL     1      -5.405   7.782  41.701  1.00  0.00     0.111 A 
HETATM   17  N6  UNL     1      -6.571   7.425  42.207  1.00  0.00    -0.303 N 
ATOM     18  H6  UNL     1      -7.454   7.386  41.698  1.00  0.00     0.171 HD
HETATM   19  C8  UNL     1      -6.399   7.123  43.494  1.00  0.00     0.333 A 
HETATM   20  O3  UNL     1      -7.305   6.750  44.275  1.00  0.00    -0.246 OA
HETATM   21  N7  UNL     1      -5.075   7.282  43.860  1.00  0.00    -0.251 N 
HETATM   22  C13 UNL     1      -4.465   7.689  42.758  1.00  0.00     0.095 A 
ENDROOT
BRANCH  21  23
HETATM   23  C9  UNL     1      -4.639   6.998  45.185  1.00  0.00     0.239 C 
BRANCH  23  24
HETATM   24  O4  UNL     1      -4.562   5.713  45.594  1.00  0.00    -0.336 OA
BRANCH  24  25
HETATM   25  C10 UNL     1      -4.621   5.258  46.816  1.00  0.00     0.176 C 
BRANCH  25  26
HETATM   26  C11 UNL     1      -5.535   4.015  46.849  1.00  0.00     0.198 C 
BRANCH  26  27
HETATM   27  O5  UNL     1      -4.831   3.001  47.493  1.00  0.00    -0.398 OA
ATOM     28  H5  UNL     1      -4.865   2.235  46.933  1.00  0.00     0.209 HD
ENDBRANCH  26  27
ENDBRANCH  25  26
BRANCH  25  29
HETATM   29  C12 UNL     1      -3.284   4.863  47.444  1.00  0.00     0.198 C 
BRANCH  29  30
HETATM   30  O6  UNL     1      -2.406   4.570  46.428  1.00  0.00    -0.398 OA
ATOM     31  H6  UNL     1      -1.630   5.106  46.546  1.00  0.00     0.209 HD
ENDBRANCH  29  30
ENDBRANCH  25  29
ENDBRANCH  24  25
ENDBRANCH  23  24
ENDBRANCH  21  23
BRANCH  14  32
HETATM   32  N5  UNL     1      -7.149   8.055  39.345  1.00  0.00    -0.344 N 
ATOM     33  H52 UNL     1      -7.331   7.557  38.474  1.00  0.00     0.176 HD
ATOM     34  H51 UNL     1      -7.993   8.260  39.881  1.00  0.00     0.176 HD
ENDBRANCH  14  32
TORSDOF 8
ENDMDL
MODEL 4
REMARK VINA RESULT: -7.921307571      1.874      6.161
REMARK  8 active torsions:
REMARK  status: ('A' for Active; 'I' for Inactive)
REMARK    1  A    between atoms: N4_14  and  N5_16 
REMARK    2  A    between atoms: N7_24  and  C9_25 
REMARK    3  A    between atoms: C9_25  and  O4_26 
REMARK    4  A    between atoms: O4_26  and  C10_27 
REMARK    5  A    between atoms: C10_27  and  C11_28 
REMARK    6  A    between atoms: C10_27  and  C12_31 
REMARK    7  A    between atoms: C11_28  and  O5_29 
REMARK    8  A    between atoms: C12_31  and  O6_32 
ROOT
HETATM    1  C1  UNL     1      -0.348   8.479  40.868  1.00  0.00     0.163 C 
HETATM    2  N1  UNL     1      -1.625   7.888  40.500  1.00  0.00    -0.289 N 
HETATM    3  C2  UNL     1      -2.366   7.181  41.348  1.00  0.00     0.330 A 
HETATM    4  O1  UNL     1      -1.911   7.038  42.514  1.00  0.00    -0.246 OA
HETATM    5  N2  UNL     1      -3.532   6.637  41.023  1.00  0.00    -0.274 N 
ATOM      6  H2  UNL     1      -4.049   6.107  41.725  1.00  0.00     0.173 HD
HETATM    7  C3  UNL     1      -4.058   6.774  39.760  1.00  0.00     0.265 A 
HETATM    8  O2  UNL     1      -5.111   6.221  39.645  1.00  0.00    -0.267 OA
HETATM    9  C4  UNL     1      -3.331   7.489  38.862  1.00  0.00     0.106 A 
HETATM   10  C5  UNL     1      -2.096   8.050  39.253  1.00  0.00     0.131 A 
HETATM   11  N3  UNL     1      -1.357   8.768  38.398  1.00  0.00    -0.325 N 
ATOM     12  H3  UNL     1      -0.468   9.159  38.710  1.00  0.00     0.169 HD
HETATM   13  C6  UNL     1      -1.763   8.983  37.143  1.00  0.00     0.150 A 
HETATM   14  N4  UNL     1      -1.026   9.665  36.387  1.00  0.00    -0.290 N 
ATOM     15  H4  UNL     1      -0.177   9.979  36.858  1.00  0.00     0.188 HD
HETATM   16  C7  UNL     1      -2.957   8.465  36.701  1.00  0.00     0.111 A 
HETATM   17  N6  UNL     1      -3.593   8.526  35.545  1.00  0.00    -0.303 N 
ATOM     18  H6  UNL     1      -3.265   9.010  34.709  1.00  0.00     0.171 HD
HETATM   19  C8  UNL     1      -4.736   7.848  35.655  1.00  0.00     0.333 A 
HETATM   20  O3  UNL     1      -5.583   7.710  34.743  1.00  0.00    -0.246 OA
HETATM   21  N7  UNL     1      -4.867   7.315  36.924  1.00  0.00    -0.251 N 
HETATM   22  C13 UNL     1      -3.774   7.696  37.566  1.00  0.00     0.095 A 
ENDROOT
BRANCH  21  23
HETATM   23  C9  UNL     1      -5.999   6.528  37.278  1.00  0.00     0.239 C 
BRANCH  23  24
HETATM   24  O4  UNL     1      -6.031   5.222  36.930  1.00  0.00    -0.336 OA
BRANCH  24  25
HETATM   25  C10 UNL     1      -6.779   4.654  36.023  1.00  0.00     0.176 C 
BRANCH  25  26
HETATM   26  C11 UNL     1      -5.904   4.281  34.809  1.00  0.00     0.198 C 
BRANCH  26  27
HETATM   27  O5  UNL     1      -5.353   3.029  35.066  1.00  0.00    -0.398 OA
ATOM     28  H5  UNL     1      -4.636   2.906  34.455  1.00  0.00     0.209 HD
ENDBRANCH  26  27
ENDBRANCH  25  26
BRANCH  25  29
HETATM   29  C12 UNL     1      -7.516   3.390  36.467  1.00  0.00     0.198 C 
BRANCH  29  30
HETATM   30  O6  UNL     1      -6.844   2.858  37.540  1.00  0.00    -0.398 OA
ATOM     31  H6  UNL     1      -7.459   2.337  38.043  1.00  0.00     0.209 HD
ENDBRANCH  29  30
ENDBRANCH  25  29
ENDBRANCH  24  25
ENDBRANCH  23  24
ENDBRANCH  21  23
BRANCH  14  32
HETATM   32  N5  UNL     1      -1.082  10.083  35.110  1.00  0.00    -0.344 N 
ATOM     33  H52 UNL     1      -0.519  10.924  34.979  1.00  0.00     0.176 HD
ATOM     34  H51 UNL     1      -1.545   9.766  34.258  1.00  0.00     0.176 HD
ENDBRANCH  14  32
TORSDOF 8
ENDMDL
MODEL 5
REMARK VINA RESULT: -7.884141326      2.353      3.599
REMARK  8 active torsions:
REMARK  status: ('A' for Active; 'I' for Inactive)
REMARK    1  A    between atoms: N4_14  and  N5_16 
REMARK    2  A    between atoms: N7_24  and  C9_25 
REMARK    3  A    between atoms: C9_25  and  O4_26 
REMARK    4  A    between atoms: O4_26  and  C10_27 
REMARK    5  A    between atoms: C10_27  and  C11_28 
REMARK    6  A    between atoms: C10_27  and  C12_31 
REMARK    7  A    between atoms: C11_28  and  O5_29 
REMARK    8  A    between atoms: C12_31  and  O6_32 
ROOT
HETATM    1  C1  UNL     1      -4.371   7.738  37.235  1.00  0.00     0.163 C 
HETATM    2  N1  UNL     1      -4.696   7.656  38.650  1.00  0.00    -0.289 N 
HETATM    3  C2  UNL     1      -5.793   7.063  39.108  1.00  0.00     0.330 A 
HETATM    4  O1  UNL     1      -6.565   6.557  38.249  1.00  0.00    -0.246 OA
HETATM    5  N2  UNL     1      -6.100   6.983  40.397  1.00  0.00    -0.274 N 
ATOM      6  H2  UNL     1      -6.960   6.511  40.678  1.00  0.00     0.173 HD
HETATM    7  C3  UNL     1      -5.282   7.523  41.361  1.00  0.00     0.265 A 
HETATM    8  O2  UNL     1      -5.711   7.358  42.464  1.00  0.00    -0.267 OA
HETATM    9  C4  UNL     1      -4.149   8.139  40.936  1.00  0.00     0.106 A 
HETATM   10  C5  UNL     1      -3.864   8.199  39.554  1.00  0.00     0.131 A 
HETATM   11  N3  UNL     1      -2.752   8.791  39.099  1.00  0.00    -0.325 N 
ATOM     12  H3  UNL     1      -2.576   8.820  38.095  1.00  0.00     0.169 HD
HETATM   13  C6  UNL     1      -1.870   9.346  39.936  1.00  0.00     0.150 A 
HETATM   14  N4  UNL     1      -0.845   9.886  39.449  1.00  0.00    -0.290 N 
ATOM     15  H4  UNL     1      -0.824   9.825  38.430  1.00  0.00     0.188 HD
HETATM   16  C7  UNL     1      -2.089   9.320  41.293  1.00  0.00     0.111 A 
HETATM   17  N6  UNL     1      -1.399   9.768  42.325  1.00  0.00    -0.303 N 
ATOM     18  H6  UNL     1      -0.507  10.261  42.278  1.00  0.00     0.171 HD
HETATM   19  C8  UNL     1      -2.065   9.468  43.441  1.00  0.00     0.333 A 
HETATM   20  O3  UNL     1      -1.687   9.746  44.603  1.00  0.00    -0.246 OA
HETATM   21  N7  UNL     1      -3.238   8.799  43.144  1.00  0.00    -0.251 N 
HETATM   22  C13 UNL     1      -3.251   8.707  41.824  1.00  0.00     0.095 A 
ENDROOT
BRANCH  21  23
HETATM   23  C9  UNL     1      -4.133   8.393  44.174  1.00  0.00     0.239 C 
BRANCH  23  24
HETATM   24  O4  UNL     1      -3.666   7.647  45.199  1.00  0.00    -0.336 OA
BRANCH  24  25
HETATM   25  C10 UNL     1      -3.883   6.380  45.430  1.00  0.00     0.176 C 
BRANCH  25  26
HETATM   26  C11 UNL     1      -3.003   5.924  46.611  1.00  0.00     0.198 C 
BRANCH  26  27
HETATM   27  O5  UNL     1      -2.519   4.657  46.301  1.00  0.00    -0.398 OA
ATOM     28  H5  UNL     1      -3.266   4.072  46.258  1.00  0.00     0.209 HD
ENDBRANCH  26  27
ENDBRANCH  25  26
BRANCH  25  29
HETATM   29  C12 UNL     1      -5.328   6.002  45.759  1.00  0.00     0.198 C 
BRANCH  29  30
HETATM   30  O6  UNL     1      -5.318   5.220  46.888  1.00  0.00    -0.398 OA
ATOM     31  H6  UNL     1      -6.144   5.345  47.340  1.00  0.00     0.209 HD
ENDBRANCH  29  30
ENDBRANCH  25  29
ENDBRANCH  24  25
ENDBRANCH  23  24
ENDBRANCH  21  23
BRANCH  14  32
HETATM   32  N5  UNL     1       0.231  10.527  39.941  1.00  0.00    -0.344 N 
ATOM     33  H52 UNL     1       0.164  11.530  39.771  1.00  0.00     0.176 HD
ATOM     34  H51 UNL     1       1.081  10.253  40.433  1.00  0.00     0.176 HD
ENDBRANCH  14  32
TORSDOF 8
ENDMDL
