MODEL 1
REMARK VINA RESULT: -8.428592808      0.000      0.000
REMARK  7 active torsions:
REMARK  status: ('A' for Active; 'I' for Inactive)
REMARK    1  A    between atoms: C3_5  and  N2_6 
REMARK    2  A    between atoms: C5_13  and  C6_14 
REMARK    3  A    between atoms: N4_15  and  N5_17 
REMARK    4  A    between atoms: N5_17  and  C7_19 
REMARK    5  A    between atoms: N7_24  and  N8_25 
REMARK       I    between atoms: N8_25  and  C10_27 
REMARK    6  A    between atoms: C10_27  and  C11_29 
REMARK    7  A    between atoms: N9_30  and  N10_32 
ROOT
HETATM    1  C7  UNL     1      -1.562   7.432  42.376  1.00  0.00     0.709 C 
HETATM    2  N6  UNL     1      -0.608   6.763  41.824  1.00  0.00    -0.222 N 
ATOM      3  H6  UNL     1       0.151   6.314  42.336  1.00  0.00     0.177 HD
HETATM    4  C8  UNL     1      -0.754   6.731  40.382  1.00  0.00     0.160 C 
HETATM    5  C9  UNL     1      -1.608   7.974  40.155  1.00  0.00     0.188 C 
HETATM    6  N7  UNL     1      -2.442   7.916  41.366  1.00  0.00    -0.118 N 
ENDROOT
BRANCH   1   7
HETATM    7  N5  UNL     1      -1.754   7.680  43.771  1.00  0.00    -0.131 N 
ATOM      8  H5  UNL     1      -1.319   8.475  44.236  1.00  0.00     0.205 HD
BRANCH   7   9
HETATM    9  N4  UNL     1      -2.565   6.781  44.464  1.00  0.00    -0.297 N 
HETATM   10  C6  UNL     1      -3.549   7.151  45.219  1.00  0.00     0.126 C 
ATOM     11  H4  UNL     1      -2.374   5.783  44.371  1.00  0.00     0.186 HD
BRANCH  10  12
HETATM   12  C5  UNL     1      -4.314   6.103  45.885  1.00  0.00     0.072 A 
HETATM   13  C2  UNL     1      -5.693   6.032  45.773  1.00  0.00     0.040 A 
HETATM   14  C1  UNL     1      -6.349   7.076  44.941  1.00  0.00     0.070 C 
HETATM   15  N1  UNL     1      -6.421   5.077  46.377  1.00  0.00    -0.195 N 
HETATM   16  C3  UNL     1      -5.786   4.149  47.122  1.00  0.00     0.679 A 
ATOM     17  H1  UNL     1      -7.435   5.054  46.274  1.00  0.00     0.184 HD
HETATM   18  N3  UNL     1      -4.451   4.191  47.249  1.00  0.00    -0.156 N 
HETATM   19  C4  UNL     1      -3.706   5.136  46.654  1.00  0.00     0.273 A 
ATOM     20  H3  UNL     1      -3.987   3.482  47.817  1.00  0.00     0.187 HD
HETATM   21  O1  UNL     1      -2.455   5.166  46.781  1.00  0.00    -0.267 OA
BRANCH  16  22
HETATM   22  N2  UNL     1      -6.457   3.213  47.717  1.00  0.00    -0.234 N 
ATOM     23  H22 UNL     1      -6.314   3.047  48.713  1.00  0.00     0.174 HD
ATOM     24  H21 UNL     1      -7.123   2.643  47.197  1.00  0.00     0.174 HD
ENDBRANCH  16  22
ENDBRANCH  10  12
ENDBRANCH   7   9
ENDBRANCH   1   7
BRANCH   6  25
HETATM   25  N8  UNL     1      -3.784   8.270  41.433  1.00  0.00    -0.249 N 
HETATM   26  C10 UNL     1      -4.286   9.375  42.172  1.00  0.00     0.277 C 
HETATM   27  O2  UNL     1      -3.518  10.109  42.824  1.00  0.00    -0.265 OA
ATOM     28  H8  UNL     1      -4.454   7.699  40.918  1.00  0.00     0.191 HD
BRANCH  26  29
HETATM   29  C11 UNL     1      -5.706   9.700  42.208  1.00  0.00     0.182 C 
HETATM   30  N9  UNL     1      -6.435   9.356  41.202  1.00  0.00    -0.304 N 
ATOM     31  H9  UNL     1      -5.992   8.871  40.421  1.00  0.00     0.186 HD
BRANCH  30  32
HETATM   32  N10 UNL     1      -7.794   9.617  41.135  1.00  0.00    -0.276 N 
HETATM   33  C12 UNL     1      -8.397   9.989  40.036  1.00  0.00     0.215 C 
HETATM   34  N11 UNL     1      -7.600  10.123  38.879  1.00  0.00    -0.065 NA
HETATM   35  N12 UNL     1      -9.789  10.237  40.043  1.00  0.00    -0.065 NA
ATOM     36  H10 UNL     1      -8.352   9.514  41.983  1.00  0.00     0.189 HD
ENDBRANCH  30  32
ENDBRANCH  26  29
ENDBRANCH   6  25
TORSDOF 7
ENDMDL
MODEL 2
REMARK VINA RESULT: -8.428459373      3.427      8.288
REMARK  7 active torsions:
REMARK  status: ('A' for Active; 'I' for Inactive)
REMARK    1  A    between atoms: C3_5  and  N2_6 
REMARK    2  A    between atoms: C5_13  and  C6_14 
REMARK    3  A    between atoms: N4_15  and  N5_17 
REMARK    4  A    between atoms: N5_17  and  C7_19 
REMARK    5  A    between atoms: N7_24  and  N8_25 
REMARK       I    between atoms: N8_25  and  C10_27 
REMARK    6  A    between atoms: C10_27  and  C11_29 
REMARK    7  A    between atoms: N9_30  and  N10_32 
ROOT
HETATM    1  C7  UNL     1      -5.735   7.474  41.684  1.00  0.00     0.709 C 
HETATM    2  N6  UNL     1      -6.707   7.308  42.514  1.00  0.00    -0.222 N 
ATOM      3  H6  UNL     1      -7.579   6.830  42.291  1.00  0.00     0.177 HD
HETATM    4  C8  UNL     1      -6.400   7.890  43.806  1.00  0.00     0.160 C 
HETATM    5  C9  UNL     1      -5.349   8.922  43.411  1.00  0.00     0.188 C 
HETATM    6  N7  UNL     1      -4.681   8.180  42.330  1.00  0.00    -0.118 N 
ENDROOT
BRANCH   1   7
HETATM    7  N5  UNL     1      -5.672   7.039  40.323  1.00  0.00    -0.131 N 
ATOM      8  H5  UNL     1      -6.275   6.295  39.973  1.00  0.00     0.205 HD
BRANCH   7   9
HETATM    9  N4  UNL     1      -4.749   7.682  39.499  1.00  0.00    -0.297 N 
HETATM   10  C6  UNL     1      -4.295   7.163  38.404  1.00  0.00     0.126 C 
ATOM     11  H4  UNL     1      -4.414   8.606  39.773  1.00  0.00     0.186 HD
BRANCH  10  12
HETATM   12  C5  UNL     1      -3.331   7.947  37.640  1.00  0.00     0.072 A 
HETATM   13  C2  UNL     1      -3.579   8.317  36.328  1.00  0.00     0.040 A 
HETATM   14  C1  UNL     1      -4.873   7.875  35.743  1.00  0.00     0.070 C 
HETATM   15  N1  UNL     1      -2.707   9.039  35.602  1.00  0.00    -0.195 N 
HETATM   16  C3  UNL     1      -1.546   9.420  36.171  1.00  0.00     0.679 A 
ATOM     17  H1  UNL     1      -2.921   9.294  34.638  1.00  0.00     0.184 HD
HETATM   18  N3  UNL     1      -1.277   9.076  37.440  1.00  0.00    -0.156 N 
HETATM   19  C4  UNL     1      -2.133   8.357  38.182  1.00  0.00     0.273 A 
ATOM     20  H3  UNL     1      -0.393   9.372  37.855  1.00  0.00     0.187 HD
HETATM   21  O1  UNL     1      -1.871   8.040  39.370  1.00  0.00    -0.267 OA
BRANCH  16  22
HETATM   22  N2  UNL     1      -0.683  10.118  35.500  1.00  0.00    -0.234 N 
ATOM     23  H22 UNL     1       0.059  10.611  35.996  1.00  0.00     0.174 HD
ATOM     24  H21 UNL     1      -0.742  10.176  34.484  1.00  0.00     0.174 HD
ENDBRANCH  16  22
ENDBRANCH  10  12
ENDBRANCH   7   9
ENDBRANCH   1   7
BRANCH   6  25
HETATM   25  N8  UNL     1      -3.317   8.211  42.060  1.00  0.00    -0.249 N 
HETATM   26  C10 UNL     1      -2.337   7.509  42.810  1.00  0.00     0.277 C 
HETATM   27  O2  UNL     1      -2.661   6.804  43.785  1.00  0.00    -0.265 OA
ATOM     28  H8  UNL     1      -3.000   8.776  41.273  1.00  0.00     0.191 HD
BRANCH  26  29
HETATM   29  C11 UNL     1      -0.917   7.578  42.483  1.00  0.00     0.182 C 
HETATM   30  N9  UNL     1      -0.510   8.553  41.744  1.00  0.00    -0.304 N 
ATOM     31  H9  UNL     1      -1.194   9.236  41.417  1.00  0.00     0.186 HD
BRANCH  30  32
HETATM   32  N10 UNL     1       0.816   8.712  41.375  1.00  0.00    -0.276 N 
HETATM   33  C12 UNL     1       1.232   9.687  40.610  1.00  0.00     0.215 C 
HETATM   34  N11 UNL     1       0.262  10.606  40.154  1.00  0.00    -0.065 NA
HETATM   35  N12 UNL     1       2.603   9.786  40.275  1.00  0.00    -0.065 NA
ATOM     36  H10 UNL     1       1.500   8.037  41.715  1.00  0.00     0.189 HD
ENDBRANCH  30  32
ENDBRANCH  26  29
ENDBRANCH   6  25
TORSDOF 7
ENDMDL
MODEL 3
REMARK VINA RESULT: -8.363072828      3.196      7.648
REMARK  7 active torsions:
REMARK  status: ('A' for Active; 'I' for Inactive)
REMARK    1  A    between atoms: C3_5  and  N2_6 
REMARK    2  A    between atoms: C5_13  and  C6_14 
REMARK    3  A    between atoms: N4_15  and  N5_17 
REMARK    4  A    between atoms: N5_17  and  C7_19 
REMARK    5  A    between atoms: N7_24  and  N8_25 
REMARK       I    between atoms: N8_25  and  C10_27 
REMARK    6  A    between atoms: C10_27  and  C11_29 
REMARK    7  A    between atoms: N9_30  and  N10_32 
ROOT
HETATM    1  C7  UNL     1      -0.942   9.721  40.769  1.00  0.00     0.709 C 
HETATM    2  N6  UNL     1       0.226  10.069  40.349  1.00  0.00    -0.222 N 
ATOM      3  H6  UNL     1       0.402  10.857  39.727  1.00  0.00     0.177 HD
HETATM    4  C8  UNL     1       1.256   9.195  40.875  1.00  0.00     0.160 C 
HETATM    5  C9  UNL     1       0.438   7.945  41.185  1.00  0.00     0.188 C 
HETATM    6  N7  UNL     1      -0.817   8.583  41.615  1.00  0.00    -0.118 N 
ENDROOT
BRANCH   1   7
HETATM    7  N5  UNL     1      -2.194  10.341  40.465  1.00  0.00    -0.131 N 
ATOM      8  H5  UNL     1      -2.518  11.165  40.971  1.00  0.00     0.205 HD
BRANCH   7   9
HETATM    9  N4  UNL     1      -2.950   9.766  39.444  1.00  0.00    -0.297 N 
HETATM   10  C6  UNL     1      -2.518   8.797  38.702  1.00  0.00     0.126 C 
ATOM     11  H4  UNL     1      -3.889  10.126  39.274  1.00  0.00     0.186 HD
BRANCH  10  12
HETATM   12  C5  UNL     1      -3.417   8.292  37.670  1.00  0.00     0.072 A 
HETATM   13  C2  UNL     1      -3.149   8.481  36.324  1.00  0.00     0.040 A 
HETATM   14  C1  UNL     1      -1.903   9.221  35.988  1.00  0.00     0.070 C 
HETATM   15  N1  UNL     1      -3.961   8.026  35.353  1.00  0.00    -0.195 N 
HETATM   16  C3  UNL     1      -5.080   7.359  35.700  1.00  0.00     0.679 A 
ATOM     17  H1  UNL     1      -3.734   8.182  34.371  1.00  0.00     0.184 HD
HETATM   18  N3  UNL     1      -5.367   7.160  36.997  1.00  0.00    -0.156 N 
HETATM   19  C4  UNL     1      -4.570   7.605  37.980  1.00  0.00     0.273 A 
ATOM     20  H3  UNL     1      -6.218   6.654  37.242  1.00  0.00     0.187 HD
HETATM   21  O1  UNL     1      -4.848   7.414  39.192  1.00  0.00    -0.267 OA
BRANCH  16  22
HETATM   22  N2  UNL     1      -5.884   6.905  34.791  1.00  0.00    -0.234 N 
ATOM     23  H22 UNL     1      -5.733   5.974  34.403  1.00  0.00     0.174 HD
ATOM     24  H21 UNL     1      -6.665   7.472  34.461  1.00  0.00     0.174 HD
ENDBRANCH  16  22
ENDBRANCH  10  12
ENDBRANCH   7   9
ENDBRANCH   1   7
BRANCH   6  25
HETATM   25  N8  UNL     1      -1.644   8.119  42.632  1.00  0.00    -0.249 N 
HETATM   26  C10 UNL     1      -2.156   8.929  43.681  1.00  0.00     0.277 C 
HETATM   27  O2  UNL     1      -1.878  10.142  43.745  1.00  0.00    -0.265 OA
ATOM     28  H8  UNL     1      -1.899   7.132  42.625  1.00  0.00     0.191 HD
BRANCH  26  29
HETATM   29  C11 UNL     1      -3.019   8.389  44.724  1.00  0.00     0.182 C 
HETATM   30  N9  UNL     1      -3.504   7.206  44.560  1.00  0.00    -0.304 N 
ATOM     31  H9  UNL     1      -3.266   6.694  43.710  1.00  0.00     0.186 HD
BRANCH  30  32
HETATM   32  N10 UNL     1      -4.335   6.599  45.488  1.00  0.00    -0.276 N 
HETATM   33  C12 UNL     1      -3.949   5.616  46.258  1.00  0.00     0.215 C 
HETATM   34  N11 UNL     1      -2.617   5.172  46.114  1.00  0.00    -0.065 NA
HETATM   35  N12 UNL     1      -4.853   5.046  47.184  1.00  0.00    -0.065 NA
ATOM     36  H10 UNL     1      -5.294   6.936  45.576  1.00  0.00     0.189 HD
ENDBRANCH  30  32
ENDBRANCH  26  29
ENDBRANCH   6  25
TORSDOF 7
ENDMDL
MODEL 4
REMARK VINA RESULT: -8.335607368      2.065      5.321
REMARK  7 active torsions:
REMARK  status: ('A' for Active; 'I' for Inactive)
REMARK    1  A    between atoms: C3_5  and  N2_6 
REMARK    2  A    between atoms: C5_13  and  C6_14 
REMARK    3  A    between atoms: N4_15  and  N5_17 
REMARK    4  A    between atoms: N5_17  and  C7_19 
REMARK    5  A    between atoms: N7_24  and  N8_25 
REMARK       I    between atoms: N8_25  and  C10_27 
REMARK    6  A    between atoms: C10_27  and  C11_29 
REMARK    7  A    between atoms: N9_30  and  N10_32 
ROOT
HETATM    1  C7  UNL     1      -6.638   9.462  41.365  1.00  0.00     0.709 C 
HETATM    2  N6  UNL     1      -7.910   9.430  41.162  1.00  0.00    -0.222 N 
ATOM      3  H6  UNL     1      -8.611   9.645  41.871  1.00  0.00     0.177 HD
HETATM    4  C8  UNL     1      -8.215   9.050  39.797  1.00  0.00     0.160 C 
HETATM    5  C9  UNL     1      -6.941   8.302  39.418  1.00  0.00     0.188 C 
HETATM    6  N7  UNL     1      -5.961   9.108  40.164  1.00  0.00    -0.118 N 
ENDROOT
BRANCH   1   7
HETATM    7  N5  UNL     1      -5.961   9.793  42.581  1.00  0.00    -0.131 N 
ATOM      8  H5  UNL     1      -5.923  10.751  42.926  1.00  0.00     0.205 HD
BRANCH   7   9
HETATM    9  N4  UNL     1      -5.355   8.742  43.270  1.00  0.00    -0.297 N 
HETATM   10  C6  UNL     1      -5.592   8.482  44.516  1.00  0.00     0.126 C 
ATOM     11  H4  UNL     1      -4.694   8.149  42.768  1.00  0.00     0.186 HD
BRANCH  10  12
HETATM   12  C5  UNL     1      -4.887   7.352  45.110  1.00  0.00     0.072 A 
HETATM   13  C2  UNL     1      -5.573   6.281  45.659  1.00  0.00     0.040 A 
HETATM   14  C1  UNL     1      -7.058   6.343  45.610  1.00  0.00     0.070 C 
HETATM   15  N1  UNL     1      -4.947   5.228  46.213  1.00  0.00    -0.195 N 
HETATM   16  C3  UNL     1      -3.599   5.210  46.236  1.00  0.00     0.679 A 
ATOM     17  H1  UNL     1      -5.482   4.455  46.609  1.00  0.00     0.184 HD
HETATM   18  N3  UNL     1      -2.906   6.234  45.712  1.00  0.00    -0.156 N 
HETATM   19  C4  UNL     1      -3.511   7.294  45.154  1.00  0.00     0.273 A 
ATOM     20  H3  UNL     1      -1.887   6.205  45.739  1.00  0.00     0.187 HD
HETATM   21  O1  UNL     1      -2.853   8.248  44.667  1.00  0.00    -0.267 OA
BRANCH  16  22
HETATM   22  N2  UNL     1      -2.963   4.210  46.761  1.00  0.00    -0.234 N 
ATOM     23  H22 UNL     1      -3.375   3.709  47.548  1.00  0.00     0.174 HD
ATOM     24  H21 UNL     1      -2.057   3.922  46.393  1.00  0.00     0.174 HD
ENDBRANCH  16  22
ENDBRANCH  10  12
ENDBRANCH   7   9
ENDBRANCH   1   7
BRANCH   6  25
HETATM   25  N8  UNL     1      -4.677   9.415  39.727  1.00  0.00    -0.249 N 
HETATM   26  C10 UNL     1      -3.491   8.844  40.260  1.00  0.00     0.277 C 
HETATM   27  O2  UNL     1      -3.543   8.008  41.183  1.00  0.00    -0.265 OA
ATOM     28  H8  UNL     1      -4.581  10.096  38.974  1.00  0.00     0.191 HD
BRANCH  26  29
HETATM   29  C11 UNL     1      -2.169   9.204  39.764  1.00  0.00     0.182 C 
HETATM   30  N9  UNL     1      -1.353   9.787  40.573  1.00  0.00    -0.304 N 
ATOM     31  H9  UNL     1      -1.662   9.974  41.527  1.00  0.00     0.186 HD
BRANCH  30  32
HETATM   32  N10 UNL     1      -0.074  10.172  40.204  1.00  0.00    -0.276 N 
HETATM   33  C12 UNL     1       1.007   9.644  40.715  1.00  0.00     0.215 C 
HETATM   34  N11 UNL     1       0.832   8.637  41.689  1.00  0.00    -0.065 NA
HETATM   35  N12 UNL     1       2.280  10.087  40.288  1.00  0.00    -0.065 NA
ATOM     36  H10 UNL     1       0.030  10.901  39.498  1.00  0.00     0.189 HD
ENDBRANCH  30  32
ENDBRANCH  26  29
ENDBRANCH   6  25
TORSDOF 7
ENDMDL
MODEL 5
REMARK VINA RESULT: -8.268081584      2.939      6.413
REMARK  7 active torsions:
REMARK  status: ('A' for Active; 'I' for Inactive)
REMARK    1  A    between atoms: C3_5  and  N2_6 
REMARK    2  A    between atoms: C5_13  and  C6_14 
REMARK    3  A    between atoms: N4_15  and  N5_17 
REMARK    4  A    between atoms: N5_17  and  C7_19 
REMARK    5  A    between atoms: N7_24  and  N8_25 
REMARK       I    between atoms: N8_25  and  C10_27 
REMARK    6  A    between atoms: C10_27  and  C11_29 
REMARK    7  A    between atoms: N9_30  and  N10_32 
ROOT
HETATM    1  C7  UNL     1      -0.894   9.883  40.474  1.00  0.00     0.709 C 
HETATM    2  N6  UNL     1       0.276  10.293  40.122  1.00  0.00    -0.222 N 
ATOM      3  H6  UNL     1       0.445  11.053  39.464  1.00  0.00     0.177 HD
HETATM    4  C8  UNL     1       1.319   9.535  40.784  1.00  0.00     0.160 C 
HETATM    5  C9  UNL     1       0.571   8.248  41.114  1.00  0.00     0.188 C 
HETATM    6  N7  UNL     1      -0.758   8.812  41.402  1.00  0.00    -0.118 N 
ENDROOT
BRANCH   1   7
HETATM    7  N5  UNL     1      -2.159  10.385  40.033  1.00  0.00    -0.131 N 
ATOM      8  H5  UNL     1      -2.307  11.379  39.861  1.00  0.00     0.205 HD
BRANCH   7   9
HETATM    9  N4  UNL     1      -3.178   9.451  39.850  1.00  0.00    -0.297 N 
HETATM   10  C6  UNL     1      -3.121   8.504  38.969  1.00  0.00     0.126 C 
ATOM     11  H4  UNL     1      -4.008   9.516  40.439  1.00  0.00     0.186 HD
BRANCH  10  12
HETATM   12  C5  UNL     1      -4.261   7.597  38.886  1.00  0.00     0.072 A 
HETATM   13  C2  UNL     1      -4.923   7.376  37.689  1.00  0.00     0.040 A 
HETATM   14  C1  UNL     1      -4.411   8.107  36.498  1.00  0.00     0.070 C 
HETATM   15  N1  UNL     1      -5.975   6.546  37.585  1.00  0.00    -0.195 N 
HETATM   16  C3  UNL     1      -6.406   5.902  38.688  1.00  0.00     0.679 A 
ATOM     17  H1  UNL     1      -6.440   6.406  36.688  1.00  0.00     0.184 HD
HETATM   18  N3  UNL     1      -5.786   6.096  39.863  1.00  0.00    -0.156 N 
HETATM   19  C4  UNL     1      -4.734   6.919  39.987  1.00  0.00     0.273 A 
ATOM     20  H3  UNL     1      -6.126   5.601  40.688  1.00  0.00     0.187 HD
HETATM   21  O1  UNL     1      -4.160   7.094  41.093  1.00  0.00    -0.267 OA
BRANCH  16  22
HETATM   22  N2  UNL     1      -7.417   5.093  38.625  1.00  0.00    -0.234 N 
ATOM     23  H22 UNL     1      -7.302   4.175  38.194  1.00  0.00     0.174 HD
ATOM     24  H21 UNL     1      -8.324   5.368  39.001  1.00  0.00     0.174 HD
ENDBRANCH  16  22
ENDBRANCH  10  12
ENDBRANCH   7   9
ENDBRANCH   1   7
BRANCH   6  25
HETATM   25  N8  UNL     1      -1.630   8.350  42.381  1.00  0.00    -0.249 N 
HETATM   26  C10 UNL     1      -2.245   9.175  43.361  1.00  0.00     0.277 C 
HETATM   27  O2  UNL     1      -2.025  10.401  43.394  1.00  0.00    -0.265 OA
ATOM     28  H8  UNL     1      -1.842   7.353  42.398  1.00  0.00     0.191 HD
BRANCH  26  29
HETATM   29  C11 UNL     1      -3.152   8.635  44.367  1.00  0.00     0.182 C 
HETATM   30  N9  UNL     1      -3.522   7.406  44.256  1.00  0.00    -0.304 N 
ATOM     31  H9  UNL     1      -3.167   6.858  43.471  1.00  0.00     0.186 HD
BRANCH  30  32
HETATM   32  N10 UNL     1      -4.380   6.795  45.156  1.00  0.00    -0.276 N 
HETATM   33  C12 UNL     1      -4.002   5.850  45.976  1.00  0.00     0.215 C 
HETATM   34  N11 UNL     1      -2.649   5.453  45.919  1.00  0.00    -0.065 NA
HETATM   35  N12 UNL     1      -4.935   5.273  46.868  1.00  0.00    -0.065 NA
ATOM     36  H10 UNL     1      -5.354   7.097  45.180  1.00  0.00     0.189 HD
ENDBRANCH  30  32
ENDBRANCH  26  29
ENDBRANCH   6  25
TORSDOF 7
ENDMDL
