MODEL 1
REMARK VINA RESULT: -9.345857729      0.000      0.000
REMARK  8 active torsions:
REMARK  status: ('A' for Active; 'I' for Inactive)
REMARK    1  A    between atoms: N2_6  and  C3_8 
REMARK    2  A    between atoms: C3_8  and  C4_9 
REMARK    3  A    between atoms: C4_9  and  O2_10 
REMARK    4  A    between atoms: C4_9  and  O3_12 
REMARK    5  A    between atoms: C5_16  and  N4_17 
REMARK    6  A    between atoms: N4_17  and  N5_19 
REMARK    7  A    between atoms: C6_21  and  C7_22 
REMARK    8  A    between atoms: C8_23  and  N6_24 
ROOT
HETATM    1  O1  UNL     1      -2.933   9.531  39.745  1.00  0.00    -0.261 OA
HETATM    2  C1  UNL     1      -2.560   9.254  40.891  1.00  0.00     0.328 C 
HETATM    3  N1  UNL     1      -1.338   8.691  40.989  1.00  0.00    -0.151 N 
ATOM      4  H1  UNL     1      -0.931   8.292  40.143  1.00  0.00     0.188 HD
HETATM    5  C2  UNL     1      -0.620   8.618  42.120  1.00  0.00     0.695 C 
HETATM    6  N2  UNL     1       0.645   8.624  42.025  1.00  0.00    -0.221 N 
ATOM      7  H2  UNL     1       1.184   8.571  42.889  1.00  0.00     0.177 HD
HETATM    8  N3  UNL     1      -1.088   8.539  43.410  1.00  0.00    -0.021 N 
ATOM      9  H3  UNL     1      -0.400   8.269  44.113  1.00  0.00     0.203 HD
HETATM   10  C5  UNL     1      -2.332   8.769  43.872  1.00  0.00     0.714 C 
HETATM   11  N9  UNL     1      -3.312   9.447  43.228  1.00  0.00    -0.149 N 
ATOM     12  H9  UNL     1      -4.006   9.910  43.815  1.00  0.00     0.188 HD
HETATM   13  C12 UNL     1      -3.472   9.577  41.879  1.00  0.00     0.328 C 
HETATM   14  O6  UNL     1      -4.570  10.040  41.542  1.00  0.00    -0.261 OA
ENDROOT
BRANCH  10  15
HETATM   15  N4  UNL     1      -2.599   8.299  45.024  1.00  0.00    -0.132 N 
ATOM     16  H4  UNL     1      -1.920   8.392  45.779  1.00  0.00     0.205 HD
BRANCH  15  17
HETATM   17  N5  UNL     1      -3.806   7.663  45.254  1.00  0.00    -0.295 N 
HETATM   18  C6  UNL     1      -3.944   6.495  45.723  1.00  0.00     0.141 C 
ATOM     19  H5  UNL     1      -4.656   8.179  45.026  1.00  0.00     0.186 HD
BRANCH  18  20
HETATM   20  C7  UNL     1      -5.184   5.816  45.971  1.00  0.00     0.098 C 
HETATM   21  C8  UNL     1      -5.139   4.672  46.618  1.00  0.00     0.132 C 
HETATM   22  C9  UNL     1      -6.325   3.822  46.963  1.00  0.00     0.040 C 
HETATM   23  C10 UNL     1      -7.592   4.159  46.955  1.00  0.00     0.021 C 
HETATM   24  C11 UNL     1      -8.208   5.439  46.615  1.00  0.00     0.107 C 
HETATM   25  N7  UNL     1      -7.675   6.447  45.969  1.00  0.00    -0.311 N 
HETATM   26  N8  UNL     1      -6.375   6.488  45.470  1.00  0.00    -0.297 N 
ATOM     27  H7  UNL     1      -8.260   7.269  45.819  1.00  0.00     0.186 HD
ATOM     28  H8  UNL     1      -6.239   7.067  44.641  1.00  0.00     0.187 HD
BRANCH  21  29
HETATM   29  N6  UNL     1      -3.914   4.118  47.059  1.00  0.00    -0.113 N 
HETATM   30  O4  UNL     1      -3.155   3.572  46.263  1.00  0.00    -0.532 OA
HETATM   31  O5  UNL     1      -3.608   4.159  48.388  1.00  0.00    -0.532 OA
ENDBRANCH  21  29
ENDBRANCH  18  20
ENDBRANCH  15  17
ENDBRANCH  10  15
BRANCH   6  32
HETATM   32  C3  UNL     1       1.365   8.700  40.806  1.00  0.00     0.198 C 
BRANCH  32  33
HETATM   33  C4  UNL     1       1.876  10.094  40.464  1.00  0.00     0.272 C 
BRANCH  33  34
HETATM   34  O2  UNL     1       0.874  10.663  39.644  1.00  0.00    -0.370 OA
ATOM     35  H2  UNL     1       1.289  11.410  39.229  1.00  0.00     0.212 HD
ENDBRANCH  33  34
BRANCH  33  36
HETATM   36  O3  UNL     1       3.029  10.047  39.694  1.00  0.00    -0.370 OA
ATOM     37  H3  UNL     1       2.848  10.213  38.776  1.00  0.00     0.212 HD
ENDBRANCH  33  36
ENDBRANCH  32  33
ENDBRANCH   6  32
TORSDOF 8
ENDMDL
MODEL 2
REMARK VINA RESULT: -9.092836643      2.719      3.622
REMARK  8 active torsions:
REMARK  status: ('A' for Active; 'I' for Inactive)
REMARK    1  A    between atoms: N2_6  and  C3_8 
REMARK    2  A    between atoms: C3_8  and  C4_9 
REMARK    3  A    between atoms: C4_9  and  O2_10 
REMARK    4  A    between atoms: C4_9  and  O3_12 
REMARK    5  A    between atoms: C5_16  and  N4_17 
REMARK    6  A    between atoms: N4_17  and  N5_19 
REMARK    7  A    between atoms: C6_21  and  C7_22 
REMARK    8  A    between atoms: C8_23  and  N6_24 
ROOT
HETATM    1  O1  UNL     1       0.497   9.391  40.960  1.00  0.00    -0.261 OA
HETATM    2  C1  UNL     1      -0.732   9.333  40.834  1.00  0.00     0.328 C 
HETATM    3  N1  UNL     1      -1.198   9.456  39.574  1.00  0.00    -0.151 N 
ATOM      4  H1  UNL     1      -0.569   9.845  38.872  1.00  0.00     0.188 HD
HETATM    5  C2  UNL     1      -2.430   9.102  39.179  1.00  0.00     0.695 C 
HETATM    6  N2  UNL     1      -2.583   8.712  37.981  1.00  0.00    -0.221 N 
ATOM      7  H2  UNL     1      -3.523   8.442  37.688  1.00  0.00     0.177 HD
HETATM    8  N3  UNL     1      -3.585   9.102  39.923  1.00  0.00    -0.021 N 
ATOM      9  H3  UNL     1      -4.452   9.015  39.393  1.00  0.00     0.203 HD
HETATM   10  C5  UNL     1      -3.728   9.202  41.259  1.00  0.00     0.714 C 
HETATM   11  N9  UNL     1      -2.763   8.990  42.185  1.00  0.00    -0.149 N 
ATOM     12  H9  UNL     1      -3.075   8.676  43.104  1.00  0.00     0.188 HD
HETATM   13  C12 UNL     1      -1.418   9.151  42.022  1.00  0.00     0.328 C 
HETATM   14  O6  UNL     1      -0.773   9.125  43.079  1.00  0.00    -0.261 OA
ENDROOT
BRANCH  10  15
HETATM   15  N4  UNL     1      -4.885   9.526  41.677  1.00  0.00    -0.132 N 
ATOM     16  H4  UNL     1      -5.389  10.293  41.232  1.00  0.00     0.205 HD
BRANCH  15  17
HETATM   17  N5  UNL     1      -5.461   8.842  42.732  1.00  0.00    -0.295 N 
HETATM   18  C6  UNL     1      -5.624   7.588  42.794  1.00  0.00     0.141 C 
ATOM     19  H5  UNL     1      -5.781   9.394  43.528  1.00  0.00     0.186 HD
BRANCH  18  20
HETATM   20  C7  UNL     1      -6.217   6.856  43.877  1.00  0.00     0.098 C 
HETATM   21  C8  UNL     1      -5.497   6.675  44.962  1.00  0.00     0.132 C 
HETATM   22  C9  UNL     1      -5.945   5.936  46.188  1.00  0.00     0.040 C 
HETATM   23  C10 UNL     1      -7.165   5.596  46.528  1.00  0.00     0.021 C 
HETATM   24  C11 UNL     1      -8.423   5.835  45.825  1.00  0.00     0.107 C 
HETATM   25  N7  UNL     1      -8.597   6.180  44.573  1.00  0.00    -0.311 N 
HETATM   26  N8  UNL     1      -7.579   6.393  43.647  1.00  0.00    -0.297 N 
ATOM     27  H7  UNL     1      -9.557   6.303  44.250  1.00  0.00     0.186 HD
ATOM     28  H8  UNL     1      -7.819   6.198  42.675  1.00  0.00     0.187 HD
BRANCH  21  29
HETATM   29  N6  UNL     1      -4.179   7.177  45.070  1.00  0.00    -0.113 N 
HETATM   30  O4  UNL     1      -3.216   6.417  45.014  1.00  0.00    -0.532 OA
HETATM   31  O5  UNL     1      -3.993   8.512  45.283  1.00  0.00    -0.532 OA
ENDBRANCH  21  29
ENDBRANCH  18  20
ENDBRANCH  15  17
ENDBRANCH  10  15
BRANCH   6  32
HETATM   32  C3  UNL     1      -1.545   8.623  37.019  1.00  0.00     0.198 C 
BRANCH  32  33
HETATM   33  C4  UNL     1      -1.660   9.624  35.877  1.00  0.00     0.272 C 
BRANCH  33  34
HETATM   34  O2  UNL     1      -2.192   8.888  34.793  1.00  0.00    -0.370 OA
ATOM     35  H2  UNL     1      -3.040   8.584  35.093  1.00  0.00     0.212 HD
ENDBRANCH  33  34
BRANCH  33  36
HETATM   36  O3  UNL     1      -0.417  10.082  35.464  1.00  0.00    -0.370 OA
ATOM     37  H3  UNL     1      -0.343  10.098  34.518  1.00  0.00     0.212 HD
ENDBRANCH  33  36
ENDBRANCH  32  33
ENDBRANCH   6  32
TORSDOF 8
ENDMDL
MODEL 3
REMARK VINA RESULT: -9.086470947      2.140      2.937
REMARK  8 active torsions:
REMARK  status: ('A' for Active; 'I' for Inactive)
REMARK    1  A    between atoms: N2_6  and  C3_8 
REMARK    2  A    between atoms: C3_8  and  C4_9 
REMARK    3  A    between atoms: C4_9  and  O2_10 
REMARK    4  A    between atoms: C4_9  and  O3_12 
REMARK    5  A    between atoms: C5_16  and  N4_17 
REMARK    6  A    between atoms: N4_17  and  N5_19 
REMARK    7  A    between atoms: C6_21  and  C7_22 
REMARK    8  A    between atoms: C8_23  and  N6_24 
ROOT
HETATM    1  O1  UNL     1      -2.587   8.081  37.745  1.00  0.00    -0.261 OA
HETATM    2  C1  UNL     1      -2.794   8.274  38.949  1.00  0.00     0.328 C 
HETATM    3  N1  UNL     1      -1.735   8.075  39.763  1.00  0.00    -0.151 N 
ATOM      4  H1  UNL     1      -0.949   7.540  39.396  1.00  0.00     0.188 HD
HETATM    5  C2  UNL     1      -1.645   8.532  41.021  1.00  0.00     0.695 C 
HETATM    6  N2  UNL     1      -0.492   8.808  41.474  1.00  0.00    -0.221 N 
ATOM      7  H2  UNL     1      -0.431   9.157  42.431  1.00  0.00     0.177 HD
HETATM    8  N3  UNL     1      -2.668   8.752  41.912  1.00  0.00    -0.021 N 
ATOM      9  H3  UNL     1      -2.386   8.886  42.884  1.00  0.00     0.203 HD
HETATM   10  C5  UNL     1      -3.993   8.813  41.677  1.00  0.00     0.714 C 
HETATM   11  N9  UNL     1      -4.585   9.003  40.474  1.00  0.00    -0.149 N 
ATOM     12  H9  UNL     1      -5.502   9.448  40.484  1.00  0.00     0.188 HD
HETATM   13  C12 UNL     1      -4.086   8.663  39.250  1.00  0.00     0.328 C 
HETATM   14  O6  UNL     1      -4.914   8.723  38.332  1.00  0.00    -0.261 OA
ENDROOT
BRANCH  10  15
HETATM   15  N4  UNL     1      -4.749   8.678  42.692  1.00  0.00    -0.132 N 
ATOM     16  H4  UNL     1      -5.447   9.390  42.903  1.00  0.00     0.205 HD
BRANCH  15  17
HETATM   17  N5  UNL     1      -4.627   7.567  43.507  1.00  0.00    -0.295 N 
HETATM   18  C6  UNL     1      -4.838   7.545  44.756  1.00  0.00     0.141 C 
ATOM     19  H5  UNL     1      -4.344   6.692  43.066  1.00  0.00     0.186 HD
BRANCH  18  20
HETATM   20  C7  UNL     1      -4.719   6.406  45.622  1.00  0.00     0.098 C 
HETATM   21  C8  UNL     1      -5.808   5.717  45.882  1.00  0.00     0.132 C 
HETATM   22  C9  UNL     1      -5.879   4.506  46.764  1.00  0.00     0.040 C 
HETATM   23  C10 UNL     1      -4.891   3.757  47.191  1.00  0.00     0.021 C 
HETATM   24  C11 UNL     1      -3.458   3.881  46.938  1.00  0.00     0.107 C 
HETATM   25  N7  UNL     1      -2.805   4.918  46.473  1.00  0.00    -0.311 N 
HETATM   26  N8  UNL     1      -3.377   6.137  46.120  1.00  0.00    -0.297 N 
ATOM     27  H7  UNL     1      -1.796   4.824  46.361  1.00  0.00     0.186 HD
ATOM     28  H8  UNL     1      -2.774   6.954  46.224  1.00  0.00     0.187 HD
BRANCH  21  29
HETATM   29  N6  UNL     1      -7.062   6.076  45.334  1.00  0.00    -0.113 N 
HETATM   30  O4  UNL     1      -7.936   6.563  46.047  1.00  0.00    -0.532 OA
HETATM   31  O5  UNL     1      -7.303   5.834  44.014  1.00  0.00    -0.532 OA
ENDBRANCH  21  29
ENDBRANCH  18  20
ENDBRANCH  15  17
ENDBRANCH  10  15
BRANCH   6  32
HETATM   32  C3  UNL     1       0.718   8.667  40.749  1.00  0.00     0.198 C 
BRANCH  32  33
HETATM   33  C4  UNL     1       1.591   9.915  40.735  1.00  0.00     0.272 C 
BRANCH  33  34
HETATM   34  O2  UNL     1       0.805  10.908  40.104  1.00  0.00    -0.370 OA
ATOM     35  H2  UNL     1       1.270  11.722  40.251  1.00  0.00     0.212 HD
ENDBRANCH  33  34
BRANCH  33  36
HETATM   36  O3  UNL     1       2.717   9.749  39.942  1.00  0.00    -0.370 OA
ATOM     37  H3  UNL     1       3.191  10.564  39.826  1.00  0.00     0.212 HD
ENDBRANCH  33  36
ENDBRANCH  32  33
ENDBRANCH   6  32
TORSDOF 8
ENDMDL
MODEL 4
REMARK VINA RESULT: -9.056028150      2.626      7.687
REMARK  8 active torsions:
REMARK  status: ('A' for Active; 'I' for Inactive)
REMARK    1  A    between atoms: N2_6  and  C3_8 
REMARK    2  A    between atoms: C3_8  and  C4_9 
REMARK    3  A    between atoms: C4_9  and  O2_10 
REMARK    4  A    between atoms: C4_9  and  O3_12 
REMARK    5  A    between atoms: C5_16  and  N4_17 
REMARK    6  A    between atoms: N4_17  and  N5_19 
REMARK    7  A    between atoms: C6_21  and  C7_22 
REMARK    8  A    between atoms: C8_23  and  N6_24 
ROOT
HETATM    1  O1  UNL     1      -8.742   5.281  45.302  1.00  0.00    -0.261 OA
HETATM    2  C1  UNL     1      -7.819   5.959  44.834  1.00  0.00     0.328 C 
HETATM    3  N1  UNL     1      -6.728   6.082  45.619  1.00  0.00    -0.151 N 
ATOM      4  H1  UNL     1      -6.828   5.857  46.608  1.00  0.00     0.188 HD
HETATM    5  C2  UNL     1      -5.521   6.479  45.189  1.00  0.00     0.695 C 
HETATM    6  N2  UNL     1      -4.497   6.031  45.791  1.00  0.00    -0.221 N 
ATOM      7  H2  UNL     1      -3.582   6.336  45.457  1.00  0.00     0.177 HD
HETATM    8  N3  UNL     1      -5.236   7.331  44.149  1.00  0.00    -0.021 N 
ATOM      9  H3  UNL     1      -4.279   7.684  44.118  1.00  0.00     0.203 HD
HETATM   10  C5  UNL     1      -6.049   7.763  43.166  1.00  0.00     0.714 C 
HETATM   11  N9  UNL     1      -7.223   7.201  42.793  1.00  0.00    -0.149 N 
ATOM     12  H9  UNL     1      -7.503   7.335  41.821  1.00  0.00     0.188 HD
HETATM   13  C12 UNL     1      -8.072   6.475  43.576  1.00  0.00     0.328 C 
HETATM   14  O6  UNL     1      -9.184   6.275  43.068  1.00  0.00    -0.261 OA
ENDROOT
BRANCH  10  15
HETATM   15  N4  UNL     1      -5.665   8.800  42.536  1.00  0.00    -0.132 N 
ATOM     16  H4  UNL     1      -6.354   9.427  42.122  1.00  0.00     0.205 HD
BRANCH  15  17
HETATM   17  N5  UNL     1      -4.316   9.079  42.413  1.00  0.00    -0.295 N 
HETATM   18  C6  UNL     1      -3.590   8.772  41.422  1.00  0.00     0.141 C 
ATOM     19  H5  UNL     1      -3.868   9.573  43.185  1.00  0.00     0.186 HD
BRANCH  18  20
HETATM   20  C7  UNL     1      -2.190   9.051  41.270  1.00  0.00     0.098 C 
HETATM   21  C8  UNL     1      -1.335   8.125  41.647  1.00  0.00     0.132 C 
HETATM   22  C9  UNL     1       0.158   8.239  41.569  1.00  0.00     0.040 C 
HETATM   23  C10 UNL     1       0.870   9.101  40.884  1.00  0.00     0.021 C 
HETATM   24  C11 UNL     1       0.424  10.183  40.011  1.00  0.00     0.107 C 
HETATM   25  N7  UNL     1      -0.767  10.724  39.937  1.00  0.00    -0.311 N 
HETATM   26  N8  UNL     1      -1.870  10.353  40.702  1.00  0.00    -0.297 N 
ATOM     27  H7  UNL     1      -0.897  11.479  39.263  1.00  0.00     0.186 HD
ATOM     28  H8  UNL     1      -2.545  11.094  40.890  1.00  0.00     0.187 HD
BRANCH  21  29
HETATM   29  N6  UNL     1      -1.768   6.891  42.187  1.00  0.00    -0.113 N 
HETATM   30  O4  UNL     1      -1.776   5.877  41.494  1.00  0.00    -0.532 OA
HETATM   31  O5  UNL     1      -2.220   6.852  43.473  1.00  0.00    -0.532 OA
ENDBRANCH  21  29
ENDBRANCH  18  20
ENDBRANCH  15  17
ENDBRANCH  10  15
BRANCH   6  32
HETATM   32  C3  UNL     1      -4.530   5.138  46.891  1.00  0.00     0.198 C 
BRANCH  32  33
HETATM   33  C4  UNL     1      -3.371   4.150  46.934  1.00  0.00     0.272 C 
BRANCH  33  34
HETATM   34  O2  UNL     1      -3.012   4.061  48.299  1.00  0.00    -0.370 OA
ATOM     35  H2  UNL     1      -2.092   4.294  48.329  1.00  0.00     0.212 HD
ENDBRANCH  33  34
BRANCH  33  36
HETATM   36  O3  UNL     1      -2.255   4.635  46.268  1.00  0.00    -0.370 OA
ATOM     37  H3  UNL     1      -2.488   5.275  45.607  1.00  0.00     0.212 HD
ENDBRANCH  33  36
ENDBRANCH  32  33
ENDBRANCH   6  32
TORSDOF 8
ENDMDL
MODEL 5
REMARK VINA RESULT: -8.915964879      1.666      3.289
REMARK  8 active torsions:
REMARK  status: ('A' for Active; 'I' for Inactive)
REMARK    1  A    between atoms: N2_6  and  C3_8 
REMARK    2  A    between atoms: C3_8  and  C4_9 
REMARK    3  A    between atoms: C4_9  and  O2_10 
REMARK    4  A    between atoms: C4_9  and  O3_12 
REMARK    5  A    between atoms: C5_16  and  N4_17 
REMARK    6  A    between atoms: N4_17  and  N5_19 
REMARK    7  A    between atoms: C6_21  and  C7_22 
REMARK    8  A    between atoms: C8_23  and  N6_24 
ROOT
HETATM    1  O1  UNL     1      -0.269  10.164  39.725  1.00  0.00    -0.261 OA
HETATM    2  C1  UNL     1      -0.915   9.517  40.558  1.00  0.00     0.328 C 
HETATM    3  N1  UNL     1      -2.257   9.561  40.419  1.00  0.00    -0.151 N 
ATOM      4  H1  UNL     1      -2.649  10.304  39.841  1.00  0.00     0.188 HD
HETATM    5  C2  UNL     1      -3.111   8.696  40.987  1.00  0.00     0.695 C 
HETATM    6  N2  UNL     1      -4.199   8.449  40.383  1.00  0.00    -0.221 N 
ATOM      7  H2  UNL     1      -4.843   7.789  40.820  1.00  0.00     0.177 HD
HETATM    8  N3  UNL     1      -2.957   8.017  42.172  1.00  0.00    -0.021 N 
ATOM      9  H3  UNL     1      -3.801   7.582  42.543  1.00  0.00     0.203 HD
HETATM   10  C5  UNL     1      -1.842   7.849  42.909  1.00  0.00     0.714 C 
HETATM   11  N9  UNL     1      -0.568   8.024  42.485  1.00  0.00    -0.149 N 
ATOM     12  H9  UNL     1       0.149   7.474  42.959  1.00  0.00     0.188 HD
HETATM   13  C12 UNL     1      -0.139   8.857  41.493  1.00  0.00     0.328 C 
HETATM   14  O6  UNL     1       1.089   9.013  41.458  1.00  0.00    -0.261 OA
ENDROOT
BRANCH  10  15
HETATM   15  N4  UNL     1      -2.018   7.491  44.117  1.00  0.00    -0.132 N 
ATOM     16  H4  UNL     1      -1.346   7.769  44.832  1.00  0.00     0.205 HD
BRANCH  15  17
HETATM   17  N5  UNL     1      -3.118   6.726  44.463  1.00  0.00    -0.295 N 
HETATM   18  C6  UNL     1      -3.742   6.792  45.563  1.00  0.00     0.141 C 
ATOM     19  H5  UNL     1      -3.454   6.053  43.775  1.00  0.00     0.186 HD
BRANCH  18  20
HETATM   20  C7  UNL     1      -4.884   6.010  45.944  1.00  0.00     0.098 C 
HETATM   21  C8  UNL     1      -4.681   4.955  46.702  1.00  0.00     0.132 C 
HETATM   22  C9  UNL     1      -5.746   4.022  47.194  1.00  0.00     0.040 C 
HETATM   23  C10 UNL     1      -7.043   4.214  47.218  1.00  0.00     0.021 C 
HETATM   24  C11 UNL     1      -7.816   5.373  46.781  1.00  0.00     0.107 C 
HETATM   25  N7  UNL     1      -7.429   6.358  46.008  1.00  0.00    -0.311 N 
HETATM   26  N8  UNL     1      -6.164   6.488  45.440  1.00  0.00    -0.297 N 
ATOM     27  H7  UNL     1      -8.111   7.090  45.805  1.00  0.00     0.186 HD
ATOM     28  H8  UNL     1      -6.130   6.986  44.550  1.00  0.00     0.187 HD
BRANCH  21  29
HETATM   29  N6  UNL     1      -3.384   4.591  47.133  1.00  0.00    -0.113 N 
HETATM   30  O4  UNL     1      -2.573   4.122  46.339  1.00  0.00    -0.532 OA
HETATM   31  O5  UNL     1      -3.061   4.725  48.452  1.00  0.00    -0.532 OA
ENDBRANCH  21  29
ENDBRANCH  18  20
ENDBRANCH  15  17
ENDBRANCH  10  15
BRANCH   6  32
HETATM   32  C3  UNL     1      -4.588   9.024  39.146  1.00  0.00     0.198 C 
BRANCH  32  33
HETATM   33  C4  UNL     1      -4.302   8.150  37.931  1.00  0.00     0.272 C 
BRANCH  33  34
HETATM   34  O2  UNL     1      -4.573   6.828  38.356  1.00  0.00    -0.370 OA
ATOM     35  H2  UNL     1      -5.132   6.461  37.682  1.00  0.00     0.212 HD
ENDBRANCH  33  34
BRANCH  33  36
HETATM   36  O3  UNL     1      -2.961   8.179  37.578  1.00  0.00    -0.370 OA
ATOM     37  H3  UNL     1      -2.734   8.979  37.120  1.00  0.00     0.212 HD
ENDBRANCH  33  36
ENDBRANCH  32  33
ENDBRANCH   6  32
TORSDOF 8
ENDMDL
