MODEL 1
REMARK VINA RESULT: -8.032346014      0.000      0.000
REMARK  9 active torsions:
REMARK  status: ('A' for Active; 'I' for Inactive)
REMARK    1  A    between atoms: C2_5  and  N3_6 
REMARK    2  A    between atoms: N3_6  and  N4_8 
REMARK    3  A    between atoms: N4_8  and  C3_10 
REMARK    4  A    between atoms: C3_10  and  C4_11 
REMARK    5  A    between atoms: C5_12  and  S1_13 
REMARK    6  A    between atoms: S1_13  and  C6_16 
REMARK    7  A    between atoms: C6_16  and  C7_17 
REMARK    8  A    between atoms: C7_17  and  O3_18 
REMARK    9  A    between atoms: C8_22  and  N6_23 
ROOT
HETATM    1  C4  UNL     1      -2.864   8.120  38.529  1.00  0.00     0.088 A 
HETATM    2  C5  UNL     1      -1.743   8.843  38.765  1.00  0.00     0.161 A 
HETATM    3  N5  UNL     1      -1.102   9.443  37.705  1.00  0.00    -0.180 N 
ATOM      4  H5  UNL     1      -0.257   9.987  37.886  1.00  0.00     0.185 HD
HETATM    5  C8  UNL     1      -1.545   9.340  36.446  1.00  0.00     0.679 A 
HETATM    6  N7  UNL     1      -2.651   8.632  36.171  1.00  0.00    -0.156 N 
ATOM      7  H7  UNL     1      -3.001   8.543  35.218  1.00  0.00     0.187 HD
HETATM    8  C9  UNL     1      -3.276   8.049  37.198  1.00  0.00     0.274 A 
HETATM    9  O4  UNL     1      -4.309   7.392  36.921  1.00  0.00    -0.267 OA
ENDROOT
BRANCH   1  10
HETATM   10  C3  UNL     1      -3.637   7.445  39.496  1.00  0.00     0.127 C 
BRANCH  10  11
HETATM   11  N4  UNL     1      -4.813   7.731  39.903  1.00  0.00    -0.297 N 
ATOM     12  H4  UNL     1      -5.610   7.216  39.527  1.00  0.00     0.186 HD
BRANCH  11  13
HETATM   13  N3  UNL     1      -5.033   8.731  40.848  1.00  0.00    -0.131 N 
ATOM     14  H3  UNL     1      -5.148   9.697  40.541  1.00  0.00     0.205 HD
BRANCH  13  15
HETATM   15  C2  UNL     1      -5.091   8.454  42.103  1.00  0.00     0.715 A 
HETATM   16  N2  UNL     1      -5.824   7.568  42.786  1.00  0.00    -0.125 N 
HETATM   17  N1  UNL     1      -5.573   7.606  44.089  1.00  0.00    -0.232 N 
ATOM     18  H2  UNL     1      -6.498   6.935  42.355  1.00  0.00     0.206 HD
HETATM   19  C1  UNL     1      -6.191   6.781  45.106  1.00  0.00     0.183 C 
HETATM   20  C10 UNL     1      -4.641   8.557  44.245  1.00  0.00     0.355 A 
HETATM   21  N8  UNL     1      -4.333   9.083  43.060  1.00  0.00    -0.137 N 
HETATM   22  O5  UNL     1      -4.108   8.925  45.347  1.00  0.00    -0.244 OA
ATOM     23  H8  UNL     1      -3.653   9.823  42.893  1.00  0.00     0.189 HD
ENDBRANCH  13  15
ENDBRANCH  11  13
ENDBRANCH  10  11
ENDBRANCH   1  10
BRANCH   2  24
HETATM   24  S1  UNL     1      -1.102   9.025  40.372  1.00  0.00     0.194 S 
HETATM   25  O1  UNL     1      -2.059   9.697  41.302  1.00  0.00    -0.221 OA
HETATM   26  O2  UNL     1      -0.579   7.773  40.973  1.00  0.00    -0.221 OA
BRANCH  24  27
HETATM   27  C6  UNL     1       0.314  10.149  40.234  1.00  0.00     0.173 C 
BRANCH  27  28
HETATM   28  C7  UNL     1       1.536   9.351  40.694  1.00  0.00     0.179 C 
BRANCH  28  29
HETATM   29  O3  UNL     1       2.642   9.905  40.077  1.00  0.00    -0.400 OA
ATOM     30  H3  UNL     1       2.739  10.788  40.413  1.00  0.00     0.209 HD
ENDBRANCH  28  29
ENDBRANCH  27  28
ENDBRANCH  24  27
ENDBRANCH   2  24
BRANCH   5  31
HETATM   31  N6  UNL     1      -0.891   9.935  35.478  1.00  0.00    -0.234 N 
ATOM     32  H62 UNL     1       0.129   9.915  35.464  1.00  0.00     0.174 HD
ATOM     33  H61 UNL     1      -1.407  10.415  34.741  1.00  0.00     0.174 HD
ENDBRANCH   5  31
TORSDOF 9
ENDMDL
MODEL 2
REMARK VINA RESULT: -7.937415355      1.863      2.309
REMARK  9 active torsions:
REMARK  status: ('A' for Active; 'I' for Inactive)
REMARK    1  A    between atoms: C2_5  and  N3_6 
REMARK    2  A    between atoms: N3_6  and  N4_8 
REMARK    3  A    between atoms: N4_8  and  C3_10 
REMARK    4  A    between atoms: C3_10  and  C4_11 
REMARK    5  A    between atoms: C5_12  and  S1_13 
REMARK    6  A    between atoms: S1_13  and  C6_16 
REMARK    7  A    between atoms: C6_16  and  C7_17 
REMARK    8  A    between atoms: C7_17  and  O3_18 
REMARK    9  A    between atoms: C8_22  and  N6_23 
ROOT
HETATM    1  C4  UNL     1      -3.560   8.112  40.257  1.00  0.00     0.088 A 
HETATM    2  C5  UNL     1      -2.227   8.219  40.040  1.00  0.00     0.161 A 
HETATM    3  N5  UNL     1      -1.772   8.358  38.748  1.00  0.00    -0.180 N 
ATOM      4  H5  UNL     1      -0.767   8.438  38.587  1.00  0.00     0.185 HD
HETATM    5  C8  UNL     1      -2.598   8.393  37.695  1.00  0.00     0.679 A 
HETATM    6  N7  UNL     1      -3.925   8.289  37.869  1.00  0.00    -0.156 N 
ATOM      7  H7  UNL     1      -4.567   8.313  37.078  1.00  0.00     0.187 HD
HETATM    8  C9  UNL     1      -4.370   8.154  39.121  1.00  0.00     0.274 A 
HETATM    9  O4  UNL     1      -5.613   8.060  39.264  1.00  0.00    -0.267 OA
ENDROOT
BRANCH   1  10
HETATM   10  C3  UNL     1      -4.189   7.964  41.510  1.00  0.00     0.127 C 
BRANCH  10  11
HETATM   11  N4  UNL     1      -4.477   8.875  42.359  1.00  0.00    -0.297 N 
ATOM     12  H4  UNL     1      -5.146   9.601  42.104  1.00  0.00     0.186 HD
BRANCH  11  13
HETATM   13  N3  UNL     1      -3.897   8.896  43.626  1.00  0.00    -0.131 N 
ATOM     14  H3  UNL     1      -3.416   9.738  43.944  1.00  0.00     0.205 HD
BRANCH  13  15
HETATM   15  C2  UNL     1      -3.958   7.871  44.400  1.00  0.00     0.715 A 
HETATM   16  N2  UNL     1      -4.991   7.265  44.995  1.00  0.00    -0.125 N 
HETATM   17  N1  UNL     1      -4.611   6.220  45.720  1.00  0.00    -0.232 N 
ATOM     18  H2  UNL     1      -5.960   7.571  44.903  1.00  0.00     0.206 HD
HETATM   19  C1  UNL     1      -5.476   5.350  46.489  1.00  0.00     0.183 C 
HETATM   20  C10 UNL     1      -3.279   6.156  45.582  1.00  0.00     0.355 A 
HETATM   21  N8  UNL     1      -2.862   7.141  44.789  1.00  0.00    -0.137 N 
HETATM   22  O5  UNL     1      -2.501   5.293  46.116  1.00  0.00    -0.244 OA
ATOM     23  H8  UNL     1      -1.896   7.321  44.518  1.00  0.00     0.189 HD
ENDBRANCH  13  15
ENDBRANCH  11  13
ENDBRANCH  10  11
ENDBRANCH   1  10
BRANCH   2  24
HETATM   24  S1  UNL     1      -1.088   8.182  41.354  1.00  0.00     0.194 S 
HETATM   25  O1  UNL     1      -1.201   9.373  42.250  1.00  0.00    -0.221 OA
HETATM   26  O2  UNL     1      -1.099   6.927  42.146  1.00  0.00    -0.221 OA
BRANCH  24  27
HETATM   27  C6  UNL     1       0.560   8.291  40.606  1.00  0.00     0.173 C 
BRANCH  27  28
HETATM   28  C7  UNL     1       1.011   9.742  40.783  1.00  0.00     0.179 C 
BRANCH  28  29
HETATM   29  O3  UNL     1       0.249  10.515  39.927  1.00  0.00    -0.400 OA
ATOM     30  H3  UNL     1       0.161  11.373  40.325  1.00  0.00     0.209 HD
ENDBRANCH  28  29
ENDBRANCH  27  28
ENDBRANCH  24  27
ENDBRANCH   2  24
BRANCH   5  31
HETATM   31  N6  UNL     1      -2.105   8.528  36.488  1.00  0.00    -0.234 N 
ATOM     32  H62 UNL     1      -1.094   8.540  36.349  1.00  0.00     0.174 HD
ATOM     33  H61 UNL     1      -2.736   8.620  35.693  1.00  0.00     0.174 HD
ENDBRANCH   5  31
TORSDOF 9
ENDMDL
MODEL 3
REMARK VINA RESULT: -7.918225164      1.173      1.525
REMARK  9 active torsions:
REMARK  status: ('A' for Active; 'I' for Inactive)
REMARK    1  A    between atoms: C2_5  and  N3_6 
REMARK    2  A    between atoms: N3_6  and  N4_8 
REMARK    3  A    between atoms: N4_8  and  C3_10 
REMARK    4  A    between atoms: C3_10  and  C4_11 
REMARK    5  A    between atoms: C5_12  and  S1_13 
REMARK    6  A    between atoms: S1_13  and  C6_16 
REMARK    7  A    between atoms: C6_16  and  C7_17 
REMARK    8  A    between atoms: C7_17  and  O3_18 
REMARK    9  A    between atoms: C8_22  and  N6_23 
ROOT
HETATM    1  C4  UNL     1      -2.891   8.243  38.546  1.00  0.00     0.088 A 
HETATM    2  C5  UNL     1      -1.797   9.001  38.803  1.00  0.00     0.161 A 
HETATM    3  N5  UNL     1      -1.113   9.563  37.749  1.00  0.00    -0.180 N 
ATOM      4  H5  UNL     1      -0.290  10.133  37.945  1.00  0.00     0.185 HD
HETATM    5  C8  UNL     1      -1.488   9.389  36.475  1.00  0.00     0.679 A 
HETATM    6  N7  UNL     1      -2.565   8.645  36.180  1.00  0.00    -0.156 N 
ATOM      7  H7  UNL     1      -2.864   8.503  35.215  1.00  0.00     0.187 HD
HETATM    8  C9  UNL     1      -3.231   8.099  37.200  1.00  0.00     0.274 A 
HETATM    9  O4  UNL     1      -4.236   7.407  36.904  1.00  0.00    -0.267 OA
ENDROOT
BRANCH   1  10
HETATM   10  C3  UNL     1      -3.700   7.600  39.504  1.00  0.00     0.127 C 
BRANCH  10  11
HETATM   11  N4  UNL     1      -4.901   7.879  39.835  1.00  0.00    -0.297 N 
ATOM     12  H4  UNL     1      -5.671   7.393  39.376  1.00  0.00     0.186 HD
BRANCH  11  13
HETATM   13  N3  UNL     1      -5.183   8.834  40.811  1.00  0.00    -0.131 N 
ATOM     14  H3  UNL     1      -5.368   9.797  40.533  1.00  0.00     0.205 HD
BRANCH  13  15
HETATM   15  C2  UNL     1      -5.213   8.517  42.057  1.00  0.00     0.715 A 
HETATM   16  N2  UNL     1      -5.906   7.587  42.724  1.00  0.00    -0.125 N 
HETATM   17  N1  UNL     1      -5.636   7.594  44.023  1.00  0.00    -0.232 N 
ATOM     18  H2  UNL     1      -6.566   6.946  42.283  1.00  0.00     0.206 HD
HETATM   19  C1  UNL     1      -6.211   6.719  45.023  1.00  0.00     0.183 C 
HETATM   20  C10 UNL     1      -4.733   8.569  44.195  1.00  0.00     0.355 A 
HETATM   21  N8  UNL     1      -4.461   9.141  43.023  1.00  0.00    -0.137 N 
HETATM   22  O5  UNL     1      -4.195   8.921  45.300  1.00  0.00    -0.244 OA
ATOM     23  H8  UNL     1      -3.808   9.908  42.869  1.00  0.00     0.189 HD
ENDBRANCH  13  15
ENDBRANCH  11  13
ENDBRANCH  10  11
ENDBRANCH   1  10
BRANCH   2  24
HETATM   24  S1  UNL     1      -1.244   9.274  40.429  1.00  0.00     0.194 S 
HETATM   25  O1  UNL     1       0.042  10.035  40.481  1.00  0.00    -0.221 OA
HETATM   26  O2  UNL     1      -2.252   9.886  41.330  1.00  0.00    -0.221 OA
BRANCH  24  27
HETATM   27  C6  UNL     1      -0.872   7.642  41.125  1.00  0.00     0.173 C 
BRANCH  27  28
HETATM   28  C7  UNL     1      -1.226   7.722  42.610  1.00  0.00     0.179 C 
BRANCH  28  29
HETATM   29  O3  UNL     1      -0.423   8.699  43.170  1.00  0.00    -0.400 OA
ATOM     30  H3  UNL     1      -0.884   9.525  43.083  1.00  0.00     0.209 HD
ENDBRANCH  28  29
ENDBRANCH  27  28
ENDBRANCH  24  27
ENDBRANCH   2  24
BRANCH   5  31
HETATM   31  N6  UNL     1      -0.797   9.950  35.513  1.00  0.00    -0.234 N 
ATOM     32  H62 UNL     1      -0.383  10.872  35.654  1.00  0.00     0.174 HD
ATOM     33  H61 UNL     1      -0.675   9.461  34.627  1.00  0.00     0.174 HD
ENDBRANCH   5  31
TORSDOF 9
ENDMDL
MODEL 4
REMARK VINA RESULT: -7.670207511      1.625      1.950
REMARK  9 active torsions:
REMARK  status: ('A' for Active; 'I' for Inactive)
REMARK    1  A    between atoms: C2_5  and  N3_6 
REMARK    2  A    between atoms: N3_6  and  N4_8 
REMARK    3  A    between atoms: N4_8  and  C3_10 
REMARK    4  A    between atoms: C3_10  and  C4_11 
REMARK    5  A    between atoms: C5_12  and  S1_13 
REMARK    6  A    between atoms: S1_13  and  C6_16 
REMARK    7  A    between atoms: C6_16  and  C7_17 
REMARK    8  A    between atoms: C7_17  and  O3_18 
REMARK    9  A    between atoms: C8_22  and  N6_23 
ROOT
HETATM    1  C4  UNL     1      -2.937   7.851  39.679  1.00  0.00     0.088 A 
HETATM    2  C5  UNL     1      -1.783   8.549  39.560  1.00  0.00     0.161 A 
HETATM    3  N5  UNL     1      -1.374   8.954  38.309  1.00  0.00    -0.180 N 
ATOM      4  H5  UNL     1      -0.504   9.480  38.222  1.00  0.00     0.185 HD
HETATM    5  C8  UNL     1      -2.076   8.684  37.202  1.00  0.00     0.679 A 
HETATM    6  N7  UNL     1      -3.225   7.994  37.278  1.00  0.00    -0.156 N 
ATOM      7  H7  UNL     1      -3.771   7.779  36.444  1.00  0.00     0.187 HD
HETATM    8  C9  UNL     1      -3.624   7.600  38.490  1.00  0.00     0.274 A 
HETATM    9  O4  UNL     1      -4.701   6.957  38.541  1.00  0.00    -0.267 OA
ENDROOT
BRANCH   1  10
HETATM   10  C3  UNL     1      -3.495   7.365  40.878  1.00  0.00     0.127 C 
BRANCH  10  11
HETATM   11  N4  UNL     1      -4.316   7.953  41.660  1.00  0.00    -0.297 N 
ATOM     12  H4  UNL     1      -5.270   8.127  41.344  1.00  0.00     0.186 HD
BRANCH  11  13
HETATM   13  N3  UNL     1      -3.936   8.364  42.937  1.00  0.00    -0.131 N 
ATOM     14  H3  UNL     1      -3.568   9.305  43.074  1.00  0.00     0.205 HD
BRANCH  13  15
HETATM   15  C2  UNL     1      -4.041   7.572  43.945  1.00  0.00     0.715 A 
HETATM   16  N2  UNL     1      -3.121   6.951  44.690  1.00  0.00    -0.125 N 
HETATM   17  N1  UNL     1      -3.665   6.215  45.651  1.00  0.00    -0.232 N 
ATOM     18  H2  UNL     1      -2.116   7.033  44.538  1.00  0.00     0.206 HD
HETATM   19  C1  UNL     1      -2.953   5.418  46.629  1.00  0.00     0.183 C 
HETATM   20  C10 UNL     1      -4.989   6.371  45.514  1.00  0.00     0.355 A 
HETATM   21  N8  UNL     1      -5.241   7.187  44.492  1.00  0.00    -0.137 N 
HETATM   22  O5  UNL     1      -5.897   5.835  46.238  1.00  0.00    -0.244 OA
ATOM     23  H8  UNL     1      -6.165   7.476  44.171  1.00  0.00     0.189 HD
ENDBRANCH  13  15
ENDBRANCH  11  13
ENDBRANCH  10  11
ENDBRANCH   1  10
BRANCH   2  24
HETATM   24  S1  UNL     1      -0.812   8.940  40.949  1.00  0.00     0.194 S 
HETATM   25  O1  UNL     1      -1.565   9.722  41.977  1.00  0.00    -0.221 OA
HETATM   26  O2  UNL     1      -0.128   7.780  41.571  1.00  0.00    -0.221 OA
BRANCH  24  27
HETATM   27  C6  UNL     1       0.500  10.045  40.363  1.00  0.00     0.173 C 
BRANCH  27  28
HETATM   28  C7  UNL     1       1.821   9.352  40.701  1.00  0.00     0.179 C 
BRANCH  28  29
HETATM   29  O3  UNL     1       2.814   9.990  39.979  1.00  0.00    -0.400 OA
ATOM     30  H3  UNL     1       3.433   9.324  39.703  1.00  0.00     0.209 HD
ENDBRANCH  28  29
ENDBRANCH  27  28
ENDBRANCH  24  27
ENDBRANCH   2  24
BRANCH   5  31
HETATM   31  N6  UNL     1      -1.637   9.096  36.038  1.00  0.00    -0.234 N 
ATOM     32  H62 UNL     1      -1.633  10.093  35.819  1.00  0.00     0.174 HD
ATOM     33  H61 UNL     1      -1.300   8.417  35.356  1.00  0.00     0.174 HD
ENDBRANCH   5  31
TORSDOF 9
ENDMDL
MODEL 5
REMARK VINA RESULT: -7.650338126      1.897      2.535
REMARK  9 active torsions:
REMARK  status: ('A' for Active; 'I' for Inactive)
REMARK    1  A    between atoms: C2_5  and  N3_6 
REMARK    2  A    between atoms: N3_6  and  N4_8 
REMARK    3  A    between atoms: N4_8  and  C3_10 
REMARK    4  A    between atoms: C3_10  and  C4_11 
REMARK    5  A    between atoms: C5_12  and  S1_13 
REMARK    6  A    between atoms: S1_13  and  C6_16 
REMARK    7  A    between atoms: C6_16  and  C7_17 
REMARK    8  A    between atoms: C7_17  and  O3_18 
REMARK    9  A    between atoms: C8_22  and  N6_23 
ROOT
HETATM    1  C4  UNL     1      -3.115   8.368  39.763  1.00  0.00     0.088 A 
HETATM    2  C5  UNL     1      -1.780   8.578  39.669  1.00  0.00     0.161 A 
HETATM    3  N5  UNL     1      -1.225   8.794  38.427  1.00  0.00    -0.180 N 
ATOM      4  H5  UNL     1      -0.219   8.951  38.359  1.00  0.00     0.185 HD
HETATM    5  C8  UNL     1      -1.956   8.805  37.306  1.00  0.00     0.679 A 
HETATM    6  N7  UNL     1      -3.282   8.600  37.358  1.00  0.00    -0.156 N 
ATOM      7  H7  UNL     1      -3.853   8.605  36.513  1.00  0.00     0.187 HD
HETATM    8  C9  UNL     1      -3.823   8.391  38.560  1.00  0.00     0.274 A 
HETATM    9  O4  UNL     1      -5.063   8.203  38.588  1.00  0.00    -0.267 OA
ENDROOT
BRANCH   1  10
HETATM   10  C3  UNL     1      -3.838   8.134  40.950  1.00  0.00     0.127 C 
BRANCH  10  11
HETATM   11  N4  UNL     1      -4.397   8.991  41.714  1.00  0.00    -0.297 N 
ATOM     12  H4  UNL     1      -5.150   9.571  41.346  1.00  0.00     0.186 HD
BRANCH  11  13
HETATM   13  N3  UNL     1      -3.999   9.150  43.040  1.00  0.00    -0.131 N 
ATOM     14  H3  UNL     1      -3.652  10.056  43.356  1.00  0.00     0.205 HD
BRANCH  13  15
HETATM   15  C2  UNL     1      -4.062   8.172  43.872  1.00  0.00     0.715 A 
HETATM   16  N2  UNL     1      -5.099   7.580  44.475  1.00  0.00    -0.125 N 
HETATM   17  N1  UNL     1      -4.720   6.589  45.271  1.00  0.00    -0.232 N 
ATOM     18  H2  UNL     1      -6.071   7.859  44.338  1.00  0.00     0.206 HD
HETATM   19  C1  UNL     1      -5.589   5.747  46.067  1.00  0.00     0.183 C 
HETATM   20  C10 UNL     1      -3.383   6.545  45.174  1.00  0.00     0.355 A 
HETATM   21  N8  UNL     1      -2.963   7.490  44.335  1.00  0.00    -0.137 N 
HETATM   22  O5  UNL     1      -2.604   5.732  45.780  1.00  0.00    -0.244 OA
ATOM     23  H8  UNL     1      -1.993   7.675  44.080  1.00  0.00     0.189 HD
ENDBRANCH  13  15
ENDBRANCH  11  13
ENDBRANCH  10  11
ENDBRANCH   1  10
BRANCH   2  24
HETATM   24  S1  UNL     1      -0.760   8.578  41.078  1.00  0.00     0.194 S 
HETATM   25  O1  UNL     1       0.666   8.896  40.757  1.00  0.00    -0.221 OA
HETATM   26  O2  UNL     1      -1.247   9.427  42.193  1.00  0.00    -0.221 OA
BRANCH  24  27
HETATM   27  C6  UNL     1      -0.751   6.877  41.704  1.00  0.00     0.173 C 
BRANCH  27  28
HETATM   28  C7  UNL     1      -0.742   5.971  40.472  1.00  0.00     0.179 C 
BRANCH  28  29
HETATM   29  O3  UNL     1      -1.719   5.012  40.662  1.00  0.00    -0.400 OA
ATOM     30  H3  UNL     1      -2.553   5.413  40.447  1.00  0.00     0.209 HD
ENDBRANCH  28  29
ENDBRANCH  27  28
ENDBRANCH  24  27
ENDBRANCH   2  24
BRANCH   5  31
HETATM   31  N6  UNL     1      -1.371   9.016  36.152  1.00  0.00    -0.234 N 
ATOM     32  H62 UNL     1      -1.263   9.968  35.802  1.00  0.00     0.174 HD
ATOM     33  H61 UNL     1      -1.026   8.225  35.609  1.00  0.00     0.174 HD
ENDBRANCH   5  31
TORSDOF 9
ENDMDL
