MODEL 1
REMARK VINA RESULT: -8.204391852      0.000      0.000
REMARK  9 active torsions:
REMARK  status: ('A' for Active; 'I' for Inactive)
REMARK    1  A    between atoms: C2_2  and  C3_3 
REMARK    2  A    between atoms: C3_3  and  C4_4 
REMARK    3  A    between atoms: C4_4  and  C5_5 
REMARK    4  A    between atoms: C5_5  and  C6_6 
REMARK    5  A    between atoms: C6_6  and  C7_7 
REMARK    6  A    between atoms: C7_7  and  C8_8 
REMARK    7  A    between atoms: C10_10  and  C11_11 
REMARK    8  A    between atoms: C11_11  and  O1_12 
REMARK    9  A    between atoms: C15_17  and  O2_18 
ROOT
HETATM    1  C8  UNL     1     -37.183 133.375  10.003  1.00  0.00    -0.024 A 
HETATM    2  C9  UNL     1     -38.025 133.920   9.015  1.00  0.00     0.019 A 
HETATM    3  C10 UNL     1     -38.972 134.876   9.277  1.00  0.00    -0.028 A 
HETATM    4  C12 UNL     1     -39.142 135.356  10.545  1.00  0.00    -0.051 A 
HETATM    5  C13 UNL     1     -40.153 136.389  10.867  1.00  0.00     0.049 C 
HETATM    6  C14 UNL     1     -38.343 134.852  11.530  1.00  0.00     0.044 A 
HETATM    7  C15 UNL     1     -37.370 133.870  11.259  1.00  0.00     0.075 A 
ENDROOT
BRANCH   1   8
HETATM    8  C7  UNL     1     -36.226 132.319   9.611  1.00  0.00     0.041 C 
BRANCH   8   9
HETATM    9  C6  UNL     1     -36.161 131.923   8.214  1.00  0.00     0.005 C 
BRANCH   9  10
HETATM   10  C5  UNL     1     -35.482 130.752   7.691  1.00  0.00     0.001 C 
BRANCH  10  11
HETATM   11  C4  UNL     1     -34.105 130.842   7.169  1.00  0.00     0.004 C 
BRANCH  11  12
HETATM   12  C3  UNL     1     -33.207 129.725   7.733  1.00  0.00     0.026 C 
BRANCH  12  13
HETATM   13  C2  UNL     1     -32.539 129.117   6.552  1.00  0.00    -0.037 C 
HETATM   14  C1  UNL     1     -32.605 127.813   6.348  1.00  0.00     0.007 C 
ENDBRANCH  12  13
ENDBRANCH  11  12
ENDBRANCH  10  11
ENDBRANCH   9  10
ENDBRANCH   8   9
ENDBRANCH   1   8
BRANCH   7  15
HETATM   15  O2  UNL     1     -36.594 133.410  12.306  1.00  0.00    -0.355 OA
HETATM   16  C16 UNL     1     -36.548 134.124  13.518  1.00  0.00     0.210 C 
ENDBRANCH   7  15
BRANCH   3  17
HETATM   17  C11 UNL     1     -39.798 135.372   8.147  1.00  0.00     0.203 C 
BRANCH  17  18
HETATM   18  O1  UNL     1     -39.141 136.333   7.399  1.00  0.00    -0.396 OA
ATOM     19  H1  UNL     1     -39.145 137.184   7.823  1.00  0.00     0.209 HD
ENDBRANCH  17  18
ENDBRANCH   3  17
TORSDOF 9
ENDMDL
MODEL 2
REMARK VINA RESULT: -8.143693908      5.806     10.696
REMARK  9 active torsions:
REMARK  status: ('A' for Active; 'I' for Inactive)
REMARK    1  A    between atoms: C2_2  and  C3_3 
REMARK    2  A    between atoms: C3_3  and  C4_4 
REMARK    3  A    between atoms: C4_4  and  C5_5 
REMARK    4  A    between atoms: C5_5  and  C6_6 
REMARK    5  A    between atoms: C6_6  and  C7_7 
REMARK    6  A    between atoms: C7_7  and  C8_8 
REMARK    7  A    between atoms: C10_10  and  C11_11 
REMARK    8  A    between atoms: C11_11  and  O1_12 
REMARK    9  A    between atoms: C15_17  and  O2_18 
ROOT
HETATM    1  C8  UNL     1     -33.918 124.821   5.810  1.00  0.00    -0.024 A 
HETATM    2  C9  UNL     1     -34.673 125.146   4.668  1.00  0.00     0.019 A 
HETATM    3  C10 UNL     1     -35.316 124.210   3.900  1.00  0.00    -0.028 A 
HETATM    4  C12 UNL     1     -35.251 122.883   4.222  1.00  0.00    -0.051 A 
HETATM    5  C13 UNL     1     -35.933 121.843   3.418  1.00  0.00     0.049 C 
HETATM    6  C14 UNL     1     -34.529 122.530   5.325  1.00  0.00     0.044 A 
HETATM    7  C15 UNL     1     -33.869 123.493   6.113  1.00  0.00     0.075 A 
ENDROOT
BRANCH   1   8
HETATM    8  C7  UNL     1     -33.234 125.911   6.538  1.00  0.00     0.041 C 
BRANCH   8   9
HETATM    9  C6  UNL     1     -33.137 127.216   5.905  1.00  0.00     0.005 C 
BRANCH   9  10
HETATM   10  C5  UNL     1     -32.315 128.323   6.357  1.00  0.00     0.001 C 
BRANCH  10  11
HETATM   11  C4  UNL     1     -32.850 129.338   7.284  1.00  0.00     0.004 C 
BRANCH  11  12
HETATM   12  C3  UNL     1     -34.082 130.053   6.699  1.00  0.00     0.026 C 
BRANCH  12  13
HETATM   13  C2  UNL     1     -34.641 130.861   7.815  1.00  0.00    -0.037 C 
HETATM   14  C1  UNL     1     -35.917 131.204   7.814  1.00  0.00     0.007 C 
ENDBRANCH  12  13
ENDBRANCH  11  12
ENDBRANCH  10  11
ENDBRANCH   9  10
ENDBRANCH   8   9
ENDBRANCH   1   8
BRANCH   7  15
HETATM   15  O2  UNL     1     -33.161 123.061   7.219  1.00  0.00    -0.355 OA
HETATM   16  C16 UNL     1     -32.100 122.149   7.067  1.00  0.00     0.210 C 
ENDBRANCH   7  15
BRANCH   3  17
HETATM   17  C11 UNL     1     -36.082 124.679   2.718  1.00  0.00     0.203 C 
BRANCH  17  18
HETATM   18  O1  UNL     1     -35.363 124.550   1.542  1.00  0.00    -0.396 OA
ATOM     19  H1  UNL     1     -34.425 124.560   1.691  1.00  0.00     0.209 HD
ENDBRANCH  17  18
ENDBRANCH   3  17
TORSDOF 9
ENDMDL
MODEL 3
REMARK VINA RESULT: -7.955549169      5.471     10.965
REMARK  9 active torsions:
REMARK  status: ('A' for Active; 'I' for Inactive)
REMARK    1  A    between atoms: C2_2  and  C3_3 
REMARK    2  A    between atoms: C3_3  and  C4_4 
REMARK    3  A    between atoms: C4_4  and  C5_5 
REMARK    4  A    between atoms: C5_5  and  C6_6 
REMARK    5  A    between atoms: C6_6  and  C7_7 
REMARK    6  A    between atoms: C7_7  and  C8_8 
REMARK    7  A    between atoms: C10_10  and  C11_11 
REMARK    8  A    between atoms: C11_11  and  O1_12 
REMARK    9  A    between atoms: C15_17  and  O2_18 
ROOT
HETATM    1  C8  UNL     1     -33.983 125.411   5.426  1.00  0.00    -0.024 A 
HETATM    2  C9  UNL     1     -33.440 124.593   6.436  1.00  0.00     0.019 A 
HETATM    3  C10 UNL     1     -33.629 123.236   6.487  1.00  0.00    -0.028 A 
HETATM    4  C12 UNL     1     -34.372 122.601   5.532  1.00  0.00    -0.051 A 
HETATM    5  C13 UNL     1     -34.598 121.138   5.554  1.00  0.00     0.049 C 
HETATM    6  C14 UNL     1     -34.914 123.362   4.536  1.00  0.00     0.044 A 
HETATM    7  C15 UNL     1     -34.718 124.755   4.484  1.00  0.00     0.075 A 
ENDROOT
BRANCH   1   8
HETATM    8  C7  UNL     1     -33.746 126.868   5.495  1.00  0.00     0.041 C 
BRANCH   8   9
HETATM    9  C6  UNL     1     -32.669 127.359   6.339  1.00  0.00     0.005 C 
BRANCH   9  10
HETATM   10  C5  UNL     1     -32.330 128.752   6.563  1.00  0.00     0.001 C 
BRANCH  10  11
HETATM   11  C4  UNL     1     -33.076 129.566   7.542  1.00  0.00     0.004 C 
BRANCH  11  12
HETATM   12  C3  UNL     1     -34.268 130.293   6.888  1.00  0.00     0.026 C 
BRANCH  12  13
HETATM   13  C2  UNL     1     -34.932 131.038   7.991  1.00  0.00    -0.037 C 
HETATM   14  C1  UNL     1     -36.210 131.357   7.902  1.00  0.00     0.007 C 
ENDBRANCH  12  13
ENDBRANCH  11  12
ENDBRANCH  10  11
ENDBRANCH   9  10
ENDBRANCH   8   9
ENDBRANCH   1   8
BRANCH   7  15
HETATM   15  O2  UNL     1     -35.292 125.459   3.442  1.00  0.00    -0.355 OA
HETATM   16  C16 UNL     1     -34.688 125.458   2.171  1.00  0.00     0.210 C 
ENDBRANCH   7  15
BRANCH   3  17
HETATM   17  C11 UNL     1     -33.004 122.484   7.605  1.00  0.00     0.203 C 
BRANCH  17  18
HETATM   18  O1  UNL     1     -31.662 122.788   7.756  1.00  0.00    -0.396 OA
ATOM     19  H1  UNL     1     -31.520 123.481   8.389  1.00  0.00     0.209 HD
ENDBRANCH  17  18
ENDBRANCH   3  17
TORSDOF 9
ENDMDL
MODEL 4
REMARK VINA RESULT: -7.944602217      0.924      3.299
REMARK  9 active torsions:
REMARK  status: ('A' for Active; 'I' for Inactive)
REMARK    1  A    between atoms: C2_2  and  C3_3 
REMARK    2  A    between atoms: C3_3  and  C4_4 
REMARK    3  A    between atoms: C4_4  and  C5_5 
REMARK    4  A    between atoms: C5_5  and  C6_6 
REMARK    5  A    between atoms: C6_6  and  C7_7 
REMARK    6  A    between atoms: C7_7  and  C8_8 
REMARK    7  A    between atoms: C10_10  and  C11_11 
REMARK    8  A    between atoms: C11_11  and  O1_12 
REMARK    9  A    between atoms: C15_17  and  O2_18 
ROOT
HETATM    1  C8  UNL     1     -38.183 133.631   9.114  1.00  0.00    -0.024 A 
HETATM    2  C9  UNL     1     -37.708 133.590  10.439  1.00  0.00     0.019 A 
HETATM    3  C10 UNL     1     -38.121 134.461  11.414  1.00  0.00    -0.028 A 
HETATM    4  C12 UNL     1     -39.041 135.432  11.133  1.00  0.00    -0.051 A 
HETATM    5  C13 UNL     1     -39.512 136.390  12.160  1.00  0.00     0.049 C 
HETATM    6  C14 UNL     1     -39.526 135.502   9.859  1.00  0.00     0.044 A 
HETATM    7  C15 UNL     1     -39.100 134.607   8.859  1.00  0.00     0.075 A 
ENDROOT
BRANCH   1   8
HETATM    8  C7  UNL     1     -37.635 132.667   8.137  1.00  0.00     0.041 C 
BRANCH   8   9
HETATM    9  C6  UNL     1     -36.761 131.610   8.619  1.00  0.00     0.005 C 
BRANCH   9  10
HETATM   10  C5  UNL     1     -35.329 131.525   8.402  1.00  0.00     0.001 C 
BRANCH  10  11
HETATM   11  C4  UNL     1     -34.776 130.766   7.263  1.00  0.00     0.004 C 
BRANCH  11  12
HETATM   12  C3  UNL     1     -33.502 129.995   7.656  1.00  0.00     0.026 C 
BRANCH  12  13
HETATM   13  C2  UNL     1     -33.040 129.330   6.408  1.00  0.00    -0.037 C 
HETATM   14  C1  UNL     1     -32.454 128.147   6.464  1.00  0.00     0.007 C 
ENDBRANCH  12  13
ENDBRANCH  11  12
ENDBRANCH  10  11
ENDBRANCH   9  10
ENDBRANCH   8   9
ENDBRANCH   1   8
BRANCH   7  15
HETATM   15  O2  UNL     1     -39.639 134.734   7.593  1.00  0.00    -0.355 OA
HETATM   16  C16 UNL     1     -40.501 135.807   7.297  1.00  0.00     0.210 C 
ENDBRANCH   7  15
BRANCH   3  17
HETATM   17  C11 UNL     1     -37.545 134.314  12.774  1.00  0.00     0.203 C 
BRANCH  17  18
HETATM   18  O1  UNL     1     -36.503 133.403  12.807  1.00  0.00    -0.396 OA
ATOM     19  H1  UNL     1     -35.914 133.557  13.536  1.00  0.00     0.209 HD
ENDBRANCH  17  18
ENDBRANCH   3  17
TORSDOF 9
ENDMDL
MODEL 5
REMARK VINA RESULT: -7.857659819      6.321     11.150
REMARK  9 active torsions:
REMARK  status: ('A' for Active; 'I' for Inactive)
REMARK    1  A    between atoms: C2_2  and  C3_3 
REMARK    2  A    between atoms: C3_3  and  C4_4 
REMARK    3  A    between atoms: C4_4  and  C5_5 
REMARK    4  A    between atoms: C5_5  and  C6_6 
REMARK    5  A    between atoms: C6_6  and  C7_7 
REMARK    6  A    between atoms: C7_7  and  C8_8 
REMARK    7  A    between atoms: C10_10  and  C11_11 
REMARK    8  A    between atoms: C11_11  and  O1_12 
REMARK    9  A    between atoms: C15_17  and  O2_18 
ROOT
HETATM    1  C8  UNL     1     -34.596 125.018   5.151  1.00  0.00    -0.024 A 
HETATM    2  C9  UNL     1     -33.830 124.342   6.119  1.00  0.00     0.019 A 
HETATM    3  C10 UNL     1     -33.840 122.979   6.271  1.00  0.00    -0.028 A 
HETATM    4  C12 UNL     1     -34.617 122.197   5.464  1.00  0.00    -0.051 A 
HETATM    5  C13 UNL     1     -34.654 120.722   5.597  1.00  0.00     0.049 C 
HETATM    6  C14 UNL     1     -35.374 122.817   4.512  1.00  0.00     0.044 A 
HETATM    7  C15 UNL     1     -35.361 124.216   4.357  1.00  0.00     0.075 A 
ENDROOT
BRANCH   1   8
HETATM    8  C7  UNL     1     -34.536 126.494   5.107  1.00  0.00     0.041 C 
BRANCH   8   9
HETATM    9  C6  UNL     1     -33.350 127.125   4.551  1.00  0.00     0.005 C 
BRANCH   9  10
HETATM   10  C5  UNL     1     -32.754 128.367   5.006  1.00  0.00     0.001 C 
BRANCH  10  11
HETATM   11  C4  UNL     1     -31.957 128.419   6.246  1.00  0.00     0.004 C 
BRANCH  11  12
HETATM   12  C3  UNL     1     -32.706 129.153   7.375  1.00  0.00     0.026 C 
BRANCH  12  13
HETATM   13  C2  UNL     1     -33.735 129.983   6.695  1.00  0.00    -0.037 C 
HETATM   14  C1  UNL     1     -34.570 130.720   7.405  1.00  0.00     0.007 C 
ENDBRANCH  12  13
ENDBRANCH  11  12
ENDBRANCH  10  11
ENDBRANCH   9  10
ENDBRANCH   8   9
ENDBRANCH   1   8
BRANCH   7  15
HETATM   15  O2  UNL     1     -36.150 124.773   3.368  1.00  0.00    -0.355 OA
HETATM   16  C16 UNL     1     -36.235 124.160   2.104  1.00  0.00     0.210 C 
ENDBRANCH   7  15
BRANCH   3  17
HETATM   17  C11 UNL     1     -32.986 122.386   7.331  1.00  0.00     0.203 C 
BRANCH  17  18
HETATM   18  O1  UNL     1     -31.971 123.240   7.726  1.00  0.00    -0.396 OA
ATOM     19  H1  UNL     1     -31.836 123.226   8.667  1.00  0.00     0.209 HD
ENDBRANCH  17  18
ENDBRANCH   3  17
TORSDOF 9
ENDMDL
