MODEL 1
REMARK VINA RESULT: -8.661668397      0.000      0.000
REMARK  9 active torsions:
REMARK  status: ('A' for Active; 'I' for Inactive)
REMARK    1  A    between atoms: C2_2  and  C3_3 
REMARK    2  A    between atoms: C5_5  and  C6_6 
REMARK    3  A    between atoms: C6_6  and  C7_7 
REMARK    4  A    between atoms: C7_7  and  C8_8 
REMARK    5  A    between atoms: C8_8  and  O1_9 
REMARK    6  A    between atoms: C8_8  and  C9_11 
REMARK    7  A    between atoms: C9_11  and  C10_12 
REMARK    8  A    between atoms: C10_12  and  C11_13 
REMARK    9  A    between atoms: C11_13  and  O2_14 
ROOT
HETATM    1  C6  UNL     1     -34.073 127.267   4.874  1.00  0.00     0.041 C 
ENDROOT
BRANCH   1   2
HETATM    2  C5  UNL     1     -34.630 125.981   4.470  1.00  0.00    -0.057 A 
HETATM    3  C4  UNL     1     -34.273 124.821   5.130  1.00  0.00     0.019 A 
HETATM    4  C3  UNL     1     -34.808 123.603   4.769  1.00  0.00    -0.031 A 
HETATM    5  C15 UNL     1     -35.720 123.542   3.727  1.00  0.00    -0.052 A 
HETATM    6  C14 UNL     1     -36.093 124.691   3.051  1.00  0.00     0.008 A 
HETATM    7  C16 UNL     1     -36.292 122.210   3.348  1.00  0.00     0.049 C 
HETATM    8  C13 UNL     1     -35.535 125.914   3.437  1.00  0.00     0.007 A 
BRANCH   4   9
HETATM    9  C2  UNL     1     -34.440 122.361   5.460  1.00  0.00     0.002 C 
HETATM   10  C1  UNL     1     -33.219 122.034   5.794  1.00  0.00     0.012 C 
ENDBRANCH   4   9
ENDBRANCH   1   2
BRANCH   1  11
HETATM   11  C7  UNL     1     -33.078 127.276   5.963  1.00  0.00     0.036 C 
BRANCH  11  12
HETATM   12  C8  UNL     1     -32.326 128.520   6.222  1.00  0.00     0.118 C 
BRANCH  12  13
HETATM   13  O1  UNL     1     -32.110 129.356   5.161  1.00  0.00    -0.396 OA
ATOM     14  H1  UNL     1     -31.229 129.693   5.044  1.00  0.00     0.210 HD
ENDBRANCH  12  13
BRANCH  12  15
HETATM   15  C9  UNL     1     -32.874 129.339   7.372  1.00  0.00     0.034 C 
BRANCH  15  16
HETATM   16  C10 UNL     1     -33.859 130.329   6.763  1.00  0.00     0.029 C 
BRANCH  16  17
HETATM   17  C11 UNL     1     -34.809 130.877   7.767  1.00  0.00     0.167 C 
BRANCH  17  18
HETATM   18  O2  UNL     1     -36.116 130.866   7.373  1.00  0.00    -0.396 OA
HETATM   19  C12 UNL     1     -36.851 131.762   8.126  1.00  0.00     0.201 C 
ENDBRANCH  17  18
ENDBRANCH  16  17
ENDBRANCH  15  16
ENDBRANCH  12  15
ENDBRANCH  11  12
ENDBRANCH   1  11
TORSDOF 9
ENDMDL
MODEL 2
REMARK VINA RESULT: -8.507765832      0.816      2.117
REMARK  9 active torsions:
REMARK  status: ('A' for Active; 'I' for Inactive)
REMARK    1  A    between atoms: C2_2  and  C3_3 
REMARK    2  A    between atoms: C5_5  and  C6_6 
REMARK    3  A    between atoms: C6_6  and  C7_7 
REMARK    4  A    between atoms: C7_7  and  C8_8 
REMARK    5  A    between atoms: C8_8  and  O1_9 
REMARK    6  A    between atoms: C8_8  and  C9_11 
REMARK    7  A    between atoms: C9_11  and  C10_12 
REMARK    8  A    between atoms: C10_12  and  C11_13 
REMARK    9  A    between atoms: C11_13  and  O2_14 
ROOT
HETATM    1  C6  UNL     1     -33.627 127.090   5.545  1.00  0.00     0.041 C 
ENDROOT
BRANCH   1   2
HETATM    2  C5  UNL     1     -33.982 125.677   5.481  1.00  0.00    -0.057 A 
HETATM    3  C4  UNL     1     -34.793 125.199   4.468  1.00  0.00     0.019 A 
HETATM    4  C3  UNL     1     -35.119 123.862   4.388  1.00  0.00    -0.031 A 
HETATM    5  C15 UNL     1     -34.624 122.983   5.338  1.00  0.00    -0.052 A 
HETATM    6  C14 UNL     1     -33.811 123.437   6.361  1.00  0.00     0.008 A 
HETATM    7  C16 UNL     1     -34.988 121.533   5.235  1.00  0.00     0.049 C 
HETATM    8  C13 UNL     1     -33.495 124.799   6.421  1.00  0.00     0.007 A 
BRANCH   4   9
HETATM    9  C2  UNL     1     -35.977 123.339   3.318  1.00  0.00     0.002 C 
HETATM   10  C1  UNL     1     -36.287 123.995   2.231  1.00  0.00     0.012 C 
ENDBRANCH   4   9
ENDBRANCH   1   2
BRANCH   1  11
HETATM   11  C7  UNL     1     -32.511 127.481   6.424  1.00  0.00     0.036 C 
BRANCH  11  12
HETATM   12  C8  UNL     1     -32.189 128.916   6.561  1.00  0.00     0.118 C 
BRANCH  12  13
HETATM   13  O1  UNL     1     -32.208 129.675   5.424  1.00  0.00    -0.396 OA
ATOM     14  H1  UNL     1     -31.478 130.267   5.282  1.00  0.00     0.210 HD
ENDBRANCH  12  13
BRANCH  12  15
HETATM   15  C9  UNL     1     -32.999 129.627   7.624  1.00  0.00     0.034 C 
BRANCH  15  16
HETATM   16  C10 UNL     1     -34.083 130.404   6.889  1.00  0.00     0.029 C 
BRANCH  16  17
HETATM   17  C11 UNL     1     -35.033 131.074   7.817  1.00  0.00     0.167 C 
BRANCH  17  18
HETATM   18  O2  UNL     1     -36.342 131.004   7.434  1.00  0.00    -0.396 OA
HETATM   19  C12 UNL     1     -37.111 131.863   8.195  1.00  0.00     0.201 C 
ENDBRANCH  17  18
ENDBRANCH  16  17
ENDBRANCH  15  16
ENDBRANCH  12  15
ENDBRANCH  11  12
ENDBRANCH   1  11
TORSDOF 9
ENDMDL
MODEL 3
REMARK VINA RESULT: -8.295267781      3.575     10.101
REMARK  9 active torsions:
REMARK  status: ('A' for Active; 'I' for Inactive)
REMARK    1  A    between atoms: C2_2  and  C3_3 
REMARK    2  A    between atoms: C5_5  and  C6_6 
REMARK    3  A    between atoms: C6_6  and  C7_7 
REMARK    4  A    between atoms: C7_7  and  C8_8 
REMARK    5  A    between atoms: C8_8  and  O1_9 
REMARK    6  A    between atoms: C8_8  and  C9_11 
REMARK    7  A    between atoms: C9_11  and  C10_12 
REMARK    8  A    between atoms: C10_12  and  C11_13 
REMARK    9  A    between atoms: C11_13  and  O2_14 
ROOT
HETATM    1  C6  UNL     1     -36.200 132.194  10.115  1.00  0.00     0.041 C 
ENDROOT
BRANCH   1   2
HETATM    2  C5  UNL     1     -37.123 133.271  10.455  1.00  0.00    -0.057 A 
HETATM    3  C4  UNL     1     -37.729 134.019   9.463  1.00  0.00     0.019 A 
HETATM    4  C3  UNL     1     -38.617 135.026   9.774  1.00  0.00    -0.031 A 
HETATM    5  C15 UNL     1     -38.909 135.292  11.102  1.00  0.00    -0.052 A 
HETATM    6  C14 UNL     1     -38.316 134.556  12.113  1.00  0.00     0.008 A 
HETATM    7  C16 UNL     1     -39.877 136.389  11.421  1.00  0.00     0.049 C 
HETATM    8  C13 UNL     1     -37.417 133.539  11.772  1.00  0.00     0.007 A 
BRANCH   4   9
HETATM    9  C2  UNL     1     -39.270 135.830   8.732  1.00  0.00     0.002 C 
HETATM   10  C1  UNL     1     -40.133 135.362   7.870  1.00  0.00     0.012 C 
ENDBRANCH   4   9
ENDBRANCH   1   2
BRANCH   1  11
HETATM   11  C7  UNL     1     -35.407 132.331   8.880  1.00  0.00     0.036 C 
BRANCH  11  12
HETATM   12  C8  UNL     1     -35.297 131.166   7.980  1.00  0.00     0.118 C 
BRANCH  12  13
HETATM   13  O1  UNL     1     -35.959 131.229   6.785  1.00  0.00    -0.396 OA
ATOM     14  H1  UNL     1     -35.474 130.991   6.004  1.00  0.00     0.210 HD
ENDBRANCH  12  13
BRANCH  12  15
HETATM   15  C9  UNL     1     -33.871 130.730   7.714  1.00  0.00     0.034 C 
BRANCH  15  16
HETATM   16  C10 UNL     1     -33.930 129.763   6.538  1.00  0.00     0.029 C 
BRANCH  16  17
HETATM   17  C11 UNL     1     -32.592 129.222   6.179  1.00  0.00     0.167 C 
BRANCH  17  18
HETATM   18  O2  UNL     1     -32.397 129.042   4.839  1.00  0.00    -0.396 OA
HETATM   19  C12 UNL     1     -33.265 128.083   4.353  1.00  0.00     0.201 C 
ENDBRANCH  17  18
ENDBRANCH  16  17
ENDBRANCH  15  16
ENDBRANCH  12  15
ENDBRANCH  11  12
ENDBRANCH   1  11
TORSDOF 9
ENDMDL
MODEL 4
REMARK VINA RESULT: -8.293580562      1.086      1.612
REMARK  9 active torsions:
REMARK  status: ('A' for Active; 'I' for Inactive)
REMARK    1  A    between atoms: C2_2  and  C3_3 
REMARK    2  A    between atoms: C5_5  and  C6_6 
REMARK    3  A    between atoms: C6_6  and  C7_7 
REMARK    4  A    between atoms: C7_7  and  C8_8 
REMARK    5  A    between atoms: C8_8  and  O1_9 
REMARK    6  A    between atoms: C8_8  and  C9_11 
REMARK    7  A    between atoms: C9_11  and  C10_12 
REMARK    8  A    between atoms: C10_12  and  C11_13 
REMARK    9  A    between atoms: C11_13  and  O2_14 
ROOT
HETATM    1  C6  UNL     1     -34.988 126.636   4.683  1.00  0.00     0.041 C 
ENDROOT
BRANCH   1   2
HETATM    2  C5  UNL     1     -34.944 125.184   4.811  1.00  0.00    -0.057 A 
HETATM    3  C4  UNL     1     -34.138 124.585   5.761  1.00  0.00     0.019 A 
HETATM    4  C3  UNL     1     -34.103 123.215   5.903  1.00  0.00    -0.031 A 
HETATM    5  C15 UNL     1     -34.888 122.424   5.079  1.00  0.00    -0.052 A 
HETATM    6  C14 UNL     1     -35.703 123.001   4.120  1.00  0.00     0.008 A 
HETATM    7  C16 UNL     1     -34.838 120.937   5.247  1.00  0.00     0.049 C 
HETATM    8  C13 UNL     1     -35.721 124.395   3.996  1.00  0.00     0.007 A 
BRANCH   4   9
HETATM    9  C2  UNL     1     -33.254 122.563   6.908  1.00  0.00     0.002 C 
HETATM   10  C1  UNL     1     -32.269 123.149   7.536  1.00  0.00     0.012 C 
ENDBRANCH   4   9
ENDBRANCH   1   2
BRANCH   1  11
HETATM   11  C7  UNL     1     -33.841 127.308   4.046  1.00  0.00     0.036 C 
BRANCH  11  12
HETATM   12  C8  UNL     1     -32.754 127.817   4.906  1.00  0.00     0.118 C 
BRANCH  12  13
HETATM   13  O1  UNL     1     -32.014 128.864   4.430  1.00  0.00    -0.396 OA
ATOM     14  H1  UNL     1     -31.068 128.785   4.474  1.00  0.00     0.210 HD
ENDBRANCH  12  13
BRANCH  12  15
HETATM   15  C9  UNL     1     -33.193 128.144   6.318  1.00  0.00     0.034 C 
BRANCH  15  16
HETATM   16  C10 UNL     1     -32.901 129.625   6.526  1.00  0.00     0.029 C 
BRANCH  16  17
HETATM   17  C11 UNL     1     -33.880 130.277   7.435  1.00  0.00     0.167 C 
BRANCH  17  18
HETATM   18  O2  UNL     1     -35.140 130.388   6.921  1.00  0.00    -0.396 OA
HETATM   19  C12 UNL     1     -35.933 131.153   7.756  1.00  0.00     0.201 C 
ENDBRANCH  17  18
ENDBRANCH  16  17
ENDBRANCH  15  16
ENDBRANCH  12  15
ENDBRANCH  11  12
ENDBRANCH   1  11
TORSDOF 9
ENDMDL
MODEL 5
REMARK VINA RESULT: -8.262603552      3.545      9.603
REMARK  9 active torsions:
REMARK  status: ('A' for Active; 'I' for Inactive)
REMARK    1  A    between atoms: C2_2  and  C3_3 
REMARK    2  A    between atoms: C5_5  and  C6_6 
REMARK    3  A    between atoms: C6_6  and  C7_7 
REMARK    4  A    between atoms: C7_7  and  C8_8 
REMARK    5  A    between atoms: C8_8  and  O1_9 
REMARK    6  A    between atoms: C8_8  and  C9_11 
REMARK    7  A    between atoms: C9_11  and  C10_12 
REMARK    8  A    between atoms: C10_12  and  C11_13 
REMARK    9  A    between atoms: C11_13  and  O2_14 
ROOT
HETATM    1  C6  UNL     1     -36.867 131.836   8.517  1.00  0.00     0.041 C 
ENDROOT
BRANCH   1   2
HETATM    2  C5  UNL     1     -37.470 132.878   9.340  1.00  0.00    -0.057 A 
HETATM    3  C4  UNL     1     -37.278 132.894  10.709  1.00  0.00     0.019 A 
HETATM    4  C3  UNL     1     -37.827 133.885  11.493  1.00  0.00    -0.031 A 
HETATM    5  C15 UNL     1     -38.584 134.883  10.899  1.00  0.00    -0.052 A 
HETATM    6  C14 UNL     1     -38.789 134.889   9.531  1.00  0.00     0.008 A 
HETATM    7  C16 UNL     1     -39.172 135.953  11.767  1.00  0.00     0.049 C 
HETATM    8  C13 UNL     1     -38.221 133.871   8.756  1.00  0.00     0.007 A 
BRANCH   4   9
HETATM    9  C2  UNL     1     -37.632 133.917  12.948  1.00  0.00     0.002 C 
HETATM   10  C1  UNL     1     -36.503 134.211  13.536  1.00  0.00     0.012 C 
ENDBRANCH   4   9
ENDBRANCH   1   2
BRANCH   1  11
HETATM   11  C7  UNL     1     -35.441 131.529   8.729  1.00  0.00     0.036 C 
BRANCH  11  12
HETATM   12  C8  UNL     1     -34.608 131.196   7.555  1.00  0.00     0.118 C 
BRANCH  12  13
HETATM   13  O1  UNL     1     -33.889 132.211   6.987  1.00  0.00    -0.396 OA
ATOM     14  H1  UNL     1     -33.413 132.015   6.188  1.00  0.00     0.210 HD
ENDBRANCH  12  13
BRANCH  12  15
HETATM   15  C9  UNL     1     -33.683 130.019   7.774  1.00  0.00     0.034 C 
BRANCH  15  16
HETATM   16  C10 UNL     1     -33.613 129.275   6.447  1.00  0.00     0.029 C 
BRANCH  16  17
HETATM   17  C11 UNL     1     -32.233 129.223   5.895  1.00  0.00     0.167 C 
BRANCH  17  18
HETATM   18  O2  UNL     1     -32.162 128.836   4.587  1.00  0.00    -0.396 OA
HETATM   19  C12 UNL     1     -33.159 127.924   4.302  1.00  0.00     0.201 C 
ENDBRANCH  17  18
ENDBRANCH  16  17
ENDBRANCH  15  16
ENDBRANCH  12  15
ENDBRANCH  11  12
ENDBRANCH   1  11
TORSDOF 9
ENDMDL
