MODEL 1
REMARK VINA RESULT: -6.494157785      0.000      0.000
REMARK  7 active torsions:
REMARK  status: ('A' for Active; 'I' for Inactive)
REMARK    1  A    between atoms: N1_2  and  C2_4 
REMARK    2  A    between atoms: C5_11  and  N4_12 
REMARK    3  A    between atoms: N4_12  and  C6_14 
REMARK    4  A    between atoms: C6_14  and  C7_15 
REMARK    5  A    between atoms: C7_15  and  O1_16 
REMARK    6  A    between atoms: O1_16  and  N5_17 
REMARK    7  A    between atoms: C9_22  and  N9_23 
ROOT
HETATM    1  C2  UNL     1     -17.648  37.130  25.393  1.00  0.00     0.131 A 
HETATM    2  N2  UNL     1     -18.629  36.835  24.532  1.00  0.00    -0.337 N 
ATOM      3  H2  UNL     1     -18.813  35.870  24.255  1.00  0.00     0.168 HD
HETATM    4  C3  UNL     1     -19.358  37.841  24.048  1.00  0.00     0.182 A 
HETATM    5  N3  UNL     1     -19.133  39.102  24.397  1.00  0.00    -0.347 N 
ATOM      6  H3  UNL     1     -19.726  39.826  23.991  1.00  0.00     0.167 HD
HETATM    7  C4  UNL     1     -18.174  39.477  25.249  1.00  0.00     0.108 A 
HETATM    8  C5  UNL     1     -17.956  40.775  25.597  1.00  0.00     0.135 A 
HETATM    9  N10 UNL     1     -16.942  40.999  26.477  1.00  0.00    -0.337 N 
ATOM     10  H10 UNL     1     -16.742  41.956  26.769  1.00  0.00     0.168 HD
HETATM   11  C10 UNL     1     -16.199  39.999  26.973  1.00  0.00     0.182 A 
HETATM   12  N11 UNL     1     -16.421  38.720  26.624  1.00  0.00    -0.347 N 
ATOM     13  H11 UNL     1     -15.844  37.975  27.015  1.00  0.00     0.167 HD
HETATM   14  C11 UNL     1     -17.405  38.426  25.762  1.00  0.00     0.108 A 
ENDROOT
BRANCH   8  15
HETATM   15  N4  UNL     1     -18.589  41.755  25.191  1.00  0.00    -0.352 N 
ATOM     16  H4  UNL     1     -18.164  42.138  24.346  1.00  0.00     0.166 HD
BRANCH  15  17
HETATM   17  C6  UNL     1     -19.719  42.490  25.555  1.00  0.00     0.090 C 
BRANCH  17  18
HETATM   18  C7  UNL     1     -19.354  43.561  26.570  1.00  0.00     0.238 C 
BRANCH  18  19
HETATM   19  O1  UNL     1     -18.524  44.539  26.026  1.00  0.00    -0.294 OA
BRANCH  19  20
HETATM   20  N5  UNL     1     -17.274  44.277  26.443  1.00  0.00    -0.134 NA
HETATM   21  C8  UNL     1     -16.968  44.914  27.708  1.00  0.00     0.256 C 
HETATM   22  N6  UNL     1     -15.533  44.827  27.899  1.00  0.00    -0.113 NA
HETATM   23  N7  UNL     1     -14.835  45.602  26.970  1.00  0.00    -0.035 NA
HETATM   24  N8  UNL     1     -15.426  45.640  25.727  1.00  0.00    -0.079 NA
HETATM   25  C9  UNL     1     -16.269  44.494  25.451  1.00  0.00     0.394 C 
BRANCH  25  26
HETATM   26  N9  UNL     1     -16.797  44.651  24.120  1.00  0.00    -0.045 N 
ATOM     27  H93 UNL     1     -17.725  45.073  24.148  1.00  0.00     0.278 HD
ATOM     28  H92 UNL     1     -16.293  45.380  23.615  1.00  0.00     0.278 HD
ATOM     29  H91 UNL     1     -16.811  43.784  23.582  1.00  0.00     0.278 HD
ENDBRANCH  25  26
ENDBRANCH  19  20
ENDBRANCH  18  19
ENDBRANCH  17  18
ENDBRANCH  15  17
ENDBRANCH   8  15
BRANCH   1  30
HETATM   30  N1  UNL     1     -16.940  36.153  25.863  1.00  0.00    -0.379 N 
HETATM   31  C1  UNL     1     -16.515  35.052  25.034  1.00  0.00     0.147 C 
ATOM     32  H1  UNL     1     -16.674  36.163  26.847  1.00  0.00     0.160 HD
ENDBRANCH   1  30
TORSDOF 7
ENDMDL
MODEL 2
REMARK VINA RESULT: -6.301124413      1.335      1.826
REMARK  7 active torsions:
REMARK  status: ('A' for Active; 'I' for Inactive)
REMARK    1  A    between atoms: N1_2  and  C2_4 
REMARK    2  A    between atoms: C5_11  and  N4_12 
REMARK    3  A    between atoms: N4_12  and  C6_14 
REMARK    4  A    between atoms: C6_14  and  C7_15 
REMARK    5  A    between atoms: C7_15  and  O1_16 
REMARK    6  A    between atoms: O1_16  and  N5_17 
REMARK    7  A    between atoms: C9_22  and  N9_23 
ROOT
HETATM    1  C2  UNL     1     -17.601  37.643  25.490  1.00  0.00     0.131 A 
HETATM    2  N2  UNL     1     -18.697  37.457  24.748  1.00  0.00    -0.337 N 
ATOM      3  H2  UNL     1     -18.781  36.654  24.124  1.00  0.00     0.168 HD
HETATM    4  C3  UNL     1     -19.678  38.355  24.848  1.00  0.00     0.182 A 
HETATM    5  N3  UNL     1     -19.588  39.407  25.654  1.00  0.00    -0.347 N 
ATOM      6  H3  UNL     1     -20.373  40.057  25.685  1.00  0.00     0.167 HD
HETATM    7  C4  UNL     1     -18.527  39.661  26.425  1.00  0.00     0.108 A 
HETATM    8  C5  UNL     1     -18.450  40.744  27.246  1.00  0.00     0.135 A 
HETATM    9  N10 UNL     1     -17.304  40.868  27.971  1.00  0.00    -0.337 N 
ATOM     10  H10 UNL     1     -17.201  41.663  28.602  1.00  0.00     0.168 HD
HETATM   11  C10 UNL     1     -16.308  39.975  27.882  1.00  0.00     0.182 A 
HETATM   12  N11 UNL     1     -16.393  38.908  27.069  1.00  0.00    -0.347 N 
ATOM     13  H11 UNL     1     -15.623  38.241  27.018  1.00  0.00     0.167 HD
HETATM   14  C11 UNL     1     -17.493  38.723  26.326  1.00  0.00     0.108 A 
ENDROOT
BRANCH   8  15
HETATM   15  N4  UNL     1     -19.316  41.614  27.390  1.00  0.00    -0.352 N 
ATOM     16  H4  UNL     1     -19.990  41.586  26.625  1.00  0.00     0.166 HD
BRANCH  15  17
HETATM   17  C6  UNL     1     -19.636  42.624  28.300  1.00  0.00     0.090 C 
BRANCH  17  18
HETATM   18  C7  UNL     1     -19.068  43.956  27.839  1.00  0.00     0.238 C 
BRANCH  18  19
HETATM   19  O1  UNL     1     -17.706  44.069  28.113  1.00  0.00    -0.294 OA
BRANCH  19  20
HETATM   20  N5  UNL     1     -17.132  44.638  27.040  1.00  0.00    -0.134 NA
HETATM   21  C8  UNL     1     -16.376  43.690  26.248  1.00  0.00     0.256 C 
HETATM   22  N6  UNL     1     -15.562  44.452  25.321  1.00  0.00    -0.113 NA
HETATM   23  N7  UNL     1     -14.571  45.185  25.979  1.00  0.00    -0.035 NA
HETATM   24  N8  UNL     1     -14.965  45.668  27.206  1.00  0.00    -0.079 NA
HETATM   25  C9  UNL     1     -16.400  45.830  27.333  1.00  0.00     0.394 C 
BRANCH  25  26
HETATM   26  N9  UNL     1     -16.665  46.363  28.645  1.00  0.00    -0.045 N 
ATOM     27  H93 UNL     1     -17.510  46.935  28.638  1.00  0.00     0.278 HD
ATOM     28  H92 UNL     1     -16.966  45.623  29.280  1.00  0.00     0.278 HD
ATOM     29  H91 UNL     1     -15.881  46.882  29.041  1.00  0.00     0.278 HD
ENDBRANCH  25  26
ENDBRANCH  19  20
ENDBRANCH  18  19
ENDBRANCH  17  18
ENDBRANCH  15  17
ENDBRANCH   8  15
BRANCH   1  30
HETATM   30  N1  UNL     1     -16.647  36.772  25.393  1.00  0.00    -0.379 N 
HETATM   31  C1  UNL     1     -16.865  35.464  24.825  1.00  0.00     0.147 C 
ATOM     32  H1  UNL     1     -15.716  37.018  25.728  1.00  0.00     0.160 HD
ENDBRANCH   1  30
TORSDOF 7
ENDMDL
MODEL 3
REMARK VINA RESULT: -6.251067376      1.705      2.827
REMARK  7 active torsions:
REMARK  status: ('A' for Active; 'I' for Inactive)
REMARK    1  A    between atoms: N1_2  and  C2_4 
REMARK    2  A    between atoms: C5_11  and  N4_12 
REMARK    3  A    between atoms: N4_12  and  C6_14 
REMARK    4  A    between atoms: C6_14  and  C7_15 
REMARK    5  A    between atoms: C7_15  and  O1_16 
REMARK    6  A    between atoms: O1_16  and  N5_17 
REMARK    7  A    between atoms: C9_22  and  N9_23 
ROOT
HETATM    1  C2  UNL     1     -17.378  39.051  26.161  1.00  0.00     0.131 A 
HETATM    2  N2  UNL     1     -16.236  39.244  26.829  1.00  0.00    -0.337 N 
ATOM      3  H2  UNL     1     -15.405  38.690  26.623  1.00  0.00     0.168 HD
HETATM    4  C3  UNL     1     -16.219  40.185  27.775  1.00  0.00     0.182 A 
HETATM    5  N3  UNL     1     -17.290  40.917  28.058  1.00  0.00    -0.347 N 
ATOM      6  H3  UNL     1     -17.212  41.620  28.792  1.00  0.00     0.167 HD
HETATM    7  C4  UNL     1     -18.465  40.783  27.436  1.00  0.00     0.108 A 
HETATM    8  C5  UNL     1     -19.554  41.540  27.738  1.00  0.00     0.135 A 
HETATM    9  N10 UNL     1     -20.681  41.287  27.016  1.00  0.00    -0.337 N 
ATOM     10  H10 UNL     1     -21.523  41.831  27.206  1.00  0.00     0.168 HD
HETATM   11  C10 UNL     1     -20.717  40.345  26.063  1.00  0.00     0.182 A 
HETATM   12  N11 UNL     1     -19.636  39.601  25.771  1.00  0.00    -0.347 N 
ATOM     13  H11 UNL     1     -19.685  38.891  25.041  1.00  0.00     0.167 HD
HETATM   14  C11 UNL     1     -18.492  39.797  26.442  1.00  0.00     0.108 A 
ENDROOT
BRANCH   8  15
HETATM   15  N4  UNL     1     -19.612  42.427  28.597  1.00  0.00    -0.352 N 
ATOM     16  H4  UNL     1     -19.163  42.125  29.461  1.00  0.00     0.166 HD
BRANCH  15  17
HETATM   17  C6  UNL     1     -20.115  43.723  28.724  1.00  0.00     0.090 C 
BRANCH  17  18
HETATM   18  C7  UNL     1     -19.040  44.747  28.395  1.00  0.00     0.238 C 
BRANCH  18  19
HETATM   19  O1  UNL     1     -18.579  44.621  27.085  1.00  0.00    -0.294 OA
BRANCH  19  20
HETATM   20  N5  UNL     1     -17.278  44.297  27.152  1.00  0.00    -0.134 NA
HETATM   21  C8  UNL     1     -16.463  45.378  27.667  1.00  0.00     0.256 C 
HETATM   22  N6  UNL     1     -15.077  45.039  27.404  1.00  0.00    -0.113 NA
HETATM   23  N7  UNL     1     -14.791  45.042  26.036  1.00  0.00    -0.035 NA
HETATM   24  N8  UNL     1     -15.834  44.603  25.253  1.00  0.00    -0.079 NA
HETATM   25  C9  UNL     1     -16.755  43.727  25.949  1.00  0.00     0.394 C 
BRANCH  25  26
HETATM   26  N9  UNL     1     -17.772  43.327  25.011  1.00  0.00    -0.045 N 
ATOM     27  H93 UNL     1     -17.997  42.339  25.123  1.00  0.00     0.278 HD
ATOM     28  H92 UNL     1     -18.673  43.736  25.260  1.00  0.00     0.278 HD
ATOM     29  H91 UNL     1     -17.537  43.536  24.041  1.00  0.00     0.278 HD
ENDBRANCH  25  26
ENDBRANCH  19  20
ENDBRANCH  18  19
ENDBRANCH  17  18
ENDBRANCH  15  17
ENDBRANCH   8  15
BRANCH   1  30
HETATM   30  N1  UNL     1     -17.397  38.137  25.243  1.00  0.00    -0.379 N 
HETATM   31  C1  UNL     1     -17.403  36.732  25.568  1.00  0.00     0.147 C 
ATOM     32  H1  UNL     1     -17.407  38.419  24.264  1.00  0.00     0.160 HD
ENDBRANCH   1  30
TORSDOF 7
ENDMDL
MODEL 4
REMARK VINA RESULT: -6.199777068      1.219      1.297
REMARK  7 active torsions:
REMARK  status: ('A' for Active; 'I' for Inactive)
REMARK    1  A    between atoms: N1_2  and  C2_4 
REMARK    2  A    between atoms: C5_11  and  N4_12 
REMARK    3  A    between atoms: N4_12  and  C6_14 
REMARK    4  A    between atoms: C6_14  and  C7_15 
REMARK    5  A    between atoms: C7_15  and  O1_16 
REMARK    6  A    between atoms: O1_16  and  N5_17 
REMARK    7  A    between atoms: C9_22  and  N9_23 
ROOT
HETATM    1  C2  UNL     1     -17.614  37.836  25.657  1.00  0.00     0.131 A 
HETATM    2  N2  UNL     1     -18.718  37.677  24.919  1.00  0.00    -0.337 N 
ATOM      3  H2  UNL     1     -18.850  36.847  24.341  1.00  0.00     0.168 HD
HETATM    4  C3  UNL     1     -19.641  38.640  24.963  1.00  0.00     0.182 A 
HETATM    5  N3  UNL     1     -19.486  39.728  25.708  1.00  0.00    -0.347 N 
ATOM      6  H3  UNL     1     -20.228  40.427  25.698  1.00  0.00     0.167 HD
HETATM    7  C4  UNL     1     -18.413  39.958  26.470  1.00  0.00     0.108 A 
HETATM    8  C5  UNL     1     -18.270  41.079  27.229  1.00  0.00     0.135 A 
HETATM    9  N10 UNL     1     -17.120  41.171  27.953  1.00  0.00    -0.337 N 
ATOM     10  H10 UNL     1     -16.968  41.993  28.539  1.00  0.00     0.168 HD
HETATM   11  C10 UNL     1     -16.182  40.213  27.920  1.00  0.00     0.182 A 
HETATM   12  N11 UNL     1     -16.332  39.110  27.169  1.00  0.00    -0.347 N 
ATOM     13  H11 UNL     1     -15.606  38.393  27.160  1.00  0.00     0.167 HD
HETATM   14  C11 UNL     1     -17.440  38.953  26.430  1.00  0.00     0.108 A 
ENDROOT
BRANCH   8  15
HETATM   15  N4  UNL     1     -19.079  42.008  27.319  1.00  0.00    -0.352 N 
ATOM     16  H4  UNL     1     -19.541  42.176  26.426  1.00  0.00     0.166 HD
BRANCH  15  17
HETATM   17  C6  UNL     1     -19.543  42.895  28.293  1.00  0.00     0.090 C 
BRANCH  17  18
HETATM   18  C7  UNL     1     -18.810  44.223  28.198  1.00  0.00     0.238 C 
BRANCH  18  19
HETATM   19  O1  UNL     1     -18.449  44.530  26.887  1.00  0.00    -0.294 OA
BRANCH  19  20
HETATM   20  N5  UNL     1     -17.116  44.387  26.799  1.00  0.00    -0.134 NA
HETATM   21  C8  UNL     1     -16.399  45.442  27.486  1.00  0.00     0.256 C 
HETATM   22  N6  UNL     1     -15.012  45.366  27.068  1.00  0.00    -0.113 NA
HETATM   23  N7  UNL     1     -14.856  45.695  25.719  1.00  0.00    -0.035 NA
HETATM   24  N8  UNL     1     -15.904  45.285  24.926  1.00  0.00    -0.079 NA
HETATM   25  C9  UNL     1     -16.639  44.161  25.470  1.00  0.00     0.394 C 
BRANCH  25  26
HETATM   26  N9  UNL     1     -17.681  43.825  24.533  1.00  0.00    -0.045 N 
ATOM     27  H93 UNL     1     -17.822  42.815  24.499  1.00  0.00     0.278 HD
ATOM     28  H92 UNL     1     -18.592  44.113  24.890  1.00  0.00     0.278 HD
ATOM     29  H91 UNL     1     -17.524  44.200  23.598  1.00  0.00     0.278 HD
ENDBRANCH  25  26
ENDBRANCH  19  20
ENDBRANCH  18  19
ENDBRANCH  17  18
ENDBRANCH  15  17
ENDBRANCH   8  15
BRANCH   1  30
HETATM   30  N1  UNL     1     -16.717  36.902  25.615  1.00  0.00    -0.379 N 
HETATM   31  C1  UNL     1     -16.915  35.690  24.860  1.00  0.00     0.147 C 
ATOM     32  H1  UNL     1     -15.847  37.029  26.129  1.00  0.00     0.160 HD
ENDBRANCH   1  30
TORSDOF 7
ENDMDL
MODEL 5
REMARK VINA RESULT: -6.165212905      1.090      1.655
REMARK  7 active torsions:
REMARK  status: ('A' for Active; 'I' for Inactive)
REMARK    1  A    between atoms: N1_2  and  C2_4 
REMARK    2  A    between atoms: C5_11  and  N4_12 
REMARK    3  A    between atoms: N4_12  and  C6_14 
REMARK    4  A    between atoms: C6_14  and  C7_15 
REMARK    5  A    between atoms: C7_15  and  O1_16 
REMARK    6  A    between atoms: O1_16  and  N5_17 
REMARK    7  A    between atoms: C9_22  and  N9_23 
ROOT
HETATM    1  C2  UNL     1     -17.969  36.929  25.876  1.00  0.00     0.131 A 
HETATM    2  N2  UNL     1     -18.759  36.690  24.823  1.00  0.00    -0.337 N 
ATOM      3  H2  UNL     1     -19.020  35.737  24.566  1.00  0.00     0.168 HD
HETATM    4  C3  UNL     1     -19.193  37.736  24.119  1.00  0.00     0.182 A 
HETATM    5  N3  UNL     1     -18.864  38.982  24.437  1.00  0.00    -0.347 N 
ATOM      6  H3  UNL     1     -19.229  39.739  23.859  1.00  0.00     0.167 HD
HETATM    7  C4  UNL     1     -18.081  39.301  25.472  1.00  0.00     0.108 A 
HETATM    8  C5  UNL     1     -17.753  40.585  25.785  1.00  0.00     0.135 A 
HETATM    9  N10 UNL     1     -16.946  40.751  26.869  1.00  0.00    -0.337 N 
ATOM     10  H10 UNL     1     -16.674  41.695  27.144  1.00  0.00     0.168 HD
HETATM   11  C10 UNL     1     -16.499  39.710  27.587  1.00  0.00     0.182 A 
HETATM   12  N11 UNL     1     -16.829  38.446  27.271  1.00  0.00    -0.347 N 
ATOM     13  H11 UNL     1     -16.479  37.670  27.832  1.00  0.00     0.167 HD
HETATM   14  C11 UNL     1     -17.621  38.209  26.216  1.00  0.00     0.108 A 
ENDROOT
BRANCH   8  15
HETATM   15  N4  UNL     1     -18.117  41.599  25.181  1.00  0.00    -0.352 N 
ATOM     16  H4  UNL     1     -17.324  42.065  24.741  1.00  0.00     0.166 HD
BRANCH  15  17
HETATM   17  C6  UNL     1     -19.303  42.292  24.929  1.00  0.00     0.090 C 
BRANCH  17  18
HETATM   18  C7  UNL     1     -19.012  43.753  24.626  1.00  0.00     0.238 C 
BRANCH  18  19
HETATM   19  O1  UNL     1     -19.047  44.545  25.773  1.00  0.00    -0.294 OA
BRANCH  19  20
HETATM   20  N5  UNL     1     -17.818  45.061  25.936  1.00  0.00    -0.134 NA
HETATM   21  C8  UNL     1     -17.037  45.029  24.716  1.00  0.00     0.256 C 
HETATM   22  N6  UNL     1     -15.660  45.309  25.076  1.00  0.00    -0.113 NA
HETATM   23  N7  UNL     1     -15.103  44.284  25.844  1.00  0.00    -0.035 NA
HETATM   24  N8  UNL     1     -15.998  43.689  26.704  1.00  0.00    -0.079 NA
HETATM   25  C9  UNL     1     -17.112  44.544  27.065  1.00  0.00     0.394 C 
BRANCH  25  26
HETATM   26  N9  UNL     1     -17.947  43.809  27.981  1.00  0.00    -0.045 N 
ATOM     27  H93 UNL     1     -18.675  43.302  27.477  1.00  0.00     0.278 HD
ATOM     28  H92 UNL     1     -17.437  43.022  28.382  1.00  0.00     0.278 HD
ATOM     29  H91 UNL     1     -18.354  44.388  28.715  1.00  0.00     0.278 HD
ENDBRANCH  25  26
ENDBRANCH  19  20
ENDBRANCH  18  19
ENDBRANCH  17  18
ENDBRANCH  15  17
ENDBRANCH   8  15
BRANCH   1  30
HETATM   30  N1  UNL     1     -17.546  35.914  26.559  1.00  0.00    -0.379 N 
HETATM   31  C1  UNL     1     -18.437  34.872  27.006  1.00  0.00     0.147 C 
ATOM     32  H1  UNL     1     -16.555  35.849  26.788  1.00  0.00     0.160 HD
ENDBRANCH   1  30
TORSDOF 7
ENDMDL
