MODEL 1
REMARK VINA RESULT: -6.456244082      0.000      0.000
REMARK  6 active torsions:
REMARK  status: ('A' for Active; 'I' for Inactive)
REMARK    1  A    between atoms: C2_2  and  O1_4 
REMARK    2  A    between atoms: C2_2  and  C4_6 
REMARK    3  A    between atoms: C5_8  and  N1_9 
REMARK       I    between atoms: N4_12  and  C6_13 
REMARK    4  A    between atoms: N6_15  and  N7_17 
REMARK    5  A    between atoms: C8_22  and  N10_23 
REMARK    6  A    between atoms: C10_27  and  N11_28 
ROOT
HETATM    1  N1  UNL     1     -18.849  36.858  25.044  1.00  0.00    -0.079 N 
HETATM    2  N2  UNL     1     -20.060  36.344  25.157  1.00  0.00     0.012 NA
HETATM    3  N3  UNL     1     -19.958  35.030  25.250  1.00  0.00     0.017 NA
HETATM    4  N4  UNL     1     -18.683  34.657  25.200  1.00  0.00    -0.040 N 
HETATM    5  C6  UNL     1     -18.136  33.347  25.265  1.00  0.00     0.244 C 
HETATM    6  N5  UNL     1     -17.499  32.742  24.142  1.00  0.00    -0.060 NA
HETATM    7  N6  UNL     1     -18.219  32.690  26.360  1.00  0.00    -0.270 N 
ATOM      8  H6  UNL     1     -17.834  31.747  26.429  1.00  0.00     0.189 HD
HETATM    9  C8  UNL     1     -17.993  35.822  25.069  1.00  0.00     0.715 A 
ENDROOT
BRANCH   1  10
HETATM   10  C5  UNL     1     -18.499  38.226  24.919  1.00  0.00     0.263 C 
HETATM   11  O2  UNL     1     -17.755  38.712  26.017  1.00  0.00    -0.354 OA
HETATM   12  C4  UNL     1     -17.634  40.052  25.656  1.00  0.00     0.188 C 
HETATM   13  C10 UNL     1     -18.976  40.493  25.131  1.00  0.00     0.219 C 
HETATM   14  C9  UNL     1     -19.716  39.155  25.022  1.00  0.00     0.091 C 
BRANCH  12  15
HETATM   15  C2  UNL     1     -17.143  40.911  26.788  1.00  0.00     0.079 C 
HETATM   16  C1  UNL     1     -16.206  40.118  27.663  1.00  0.00     0.048 C 
HETATM   17  C3  UNL     1     -18.237  41.485  27.621  1.00  0.00     0.048 C 
BRANCH  15  18
HETATM   18  O1  UNL     1     -16.388  41.945  26.220  1.00  0.00    -0.388 OA
ATOM     19  H1  UNL     1     -17.005  42.595  25.907  1.00  0.00     0.210 HD
ENDBRANCH  15  18
ENDBRANCH  12  15
BRANCH  13  20
HETATM   20  N11 UNL     1     -18.820  41.026  23.792  1.00  0.00    -0.072 N 
ATOM     21 3H11 UNL     1     -19.557  41.688  23.552  1.00  0.00     0.274 HD
ATOM     22 2H11 UNL     1     -18.025  41.660  23.720  1.00  0.00     0.274 HD
ATOM     23 1H11 UNL     1     -18.760  40.256  23.125  1.00  0.00     0.274 HD
ENDBRANCH  13  20
ENDBRANCH   1  10
BRANCH   9  24
HETATM   24  N10 UNL     1     -16.701  35.885  24.985  1.00  0.00    -0.232 N 
ATOM     25 2H10 UNL     1     -16.069  35.418  25.635  1.00  0.00     0.174 HD
ATOM     26 1H10 UNL     1     -16.163  36.392  24.282  1.00  0.00     0.174 HD
ENDBRANCH   9  24
BRANCH   7  27
HETATM   27  N7  UNL     1     -18.841  33.280  27.456  1.00  0.00    -0.274 N 
HETATM   28  C7  UNL     1     -19.305  32.506  28.404  1.00  0.00     0.215 C 
HETATM   29  N8  UNL     1     -19.190  31.095  28.344  1.00  0.00    -0.065 NA
HETATM   30  N9  UNL     1     -19.932  33.188  29.497  1.00  0.00    -0.065 NA
ATOM     31  H7  UNL     1     -18.934  34.294  27.519  1.00  0.00     0.189 HD
ENDBRANCH   7  27
TORSDOF 6
ENDMDL
MODEL 2
REMARK VINA RESULT: -6.439884144      1.332      1.491
REMARK  6 active torsions:
REMARK  status: ('A' for Active; 'I' for Inactive)
REMARK    1  A    between atoms: C2_2  and  O1_4 
REMARK    2  A    between atoms: C2_2  and  C4_6 
REMARK    3  A    between atoms: C5_8  and  N1_9 
REMARK       I    between atoms: N4_12  and  C6_13 
REMARK    4  A    between atoms: N6_15  and  N7_17 
REMARK    5  A    between atoms: C8_22  and  N10_23 
REMARK    6  A    between atoms: C10_27  and  N11_28 
ROOT
HETATM    1  N1  UNL     1     -19.211  37.855  25.425  1.00  0.00    -0.079 N 
HETATM    2  N2  UNL     1     -20.343  37.175  25.402  1.00  0.00     0.012 NA
HETATM    3  N3  UNL     1     -20.064  35.890  25.278  1.00  0.00     0.017 NA
HETATM    4  N4  UNL     1     -18.750  35.702  25.218  1.00  0.00    -0.040 N 
HETATM    5  C6  UNL     1     -18.031  34.482  25.086  1.00  0.00     0.244 C 
HETATM    6  N5  UNL     1     -17.297  34.167  23.905  1.00  0.00    -0.060 NA
HETATM    7  N6  UNL     1     -18.043  33.643  26.052  1.00  0.00    -0.270 N 
ATOM      8  H6  UNL     1     -17.535  32.761  25.978  1.00  0.00     0.189 HD
HETATM    9  C8  UNL     1     -18.223  36.951  25.312  1.00  0.00     0.715 A 
ENDROOT
BRANCH   1  10
HETATM   10  C5  UNL     1     -19.048  39.259  25.544  1.00  0.00     0.263 C 
HETATM   11  O2  UNL     1     -18.014  39.624  26.435  1.00  0.00    -0.354 OA
HETATM   12  C4  UNL     1     -18.145  41.011  26.404  1.00  0.00     0.188 C 
HETATM   13  C10 UNL     1     -19.619  41.319  26.461  1.00  0.00     0.219 C 
HETATM   14  C9  UNL     1     -20.230  39.928  26.259  1.00  0.00     0.091 C 
BRANCH  12  15
HETATM   15  C2  UNL     1     -17.369  41.687  27.499  1.00  0.00     0.079 C 
HETATM   16  C1  UNL     1     -16.696  42.925  26.961  1.00  0.00     0.048 C 
HETATM   17  C3  UNL     1     -16.353  40.808  28.142  1.00  0.00     0.048 C 
BRANCH  15  18
HETATM   18  O1  UNL     1     -18.298  42.116  28.456  1.00  0.00    -0.388 OA
ATOM     19  H1  UNL     1     -18.451  41.380  29.037  1.00  0.00     0.210 HD
ENDBRANCH  15  18
ENDBRANCH  12  15
BRANCH  13  20
HETATM   20  N11 UNL     1     -19.986  42.136  25.321  1.00  0.00    -0.072 N 
ATOM     21 3H11 UNL     1     -19.202  42.688  24.974  1.00  0.00     0.274 HD
ATOM     22 2H11 UNL     1     -20.154  41.578  24.485  1.00  0.00     0.274 HD
ATOM     23 1H11 UNL     1     -20.789  42.717  25.564  1.00  0.00     0.274 HD
ENDBRANCH  13  20
ENDBRANCH   1  10
BRANCH   9  24
HETATM   24  N10 UNL     1     -16.950  37.197  25.292  1.00  0.00    -0.232 N 
ATOM     25 2H10 UNL     1     -16.341  36.957  24.509  1.00  0.00     0.174 HD
ATOM     26 1H10 UNL     1     -16.407  37.647  26.028  1.00  0.00     0.174 HD
ENDBRANCH   9  24
BRANCH   7  27
HETATM   27  N7  UNL     1     -18.759  33.950  27.205  1.00  0.00    -0.274 N 
HETATM   28  C7  UNL     1     -19.188  32.969  27.956  1.00  0.00     0.215 C 
HETATM   29  N8  UNL     1     -18.944  31.612  27.628  1.00  0.00    -0.065 NA
HETATM   30  N9  UNL     1     -19.917  33.366  29.123  1.00  0.00    -0.065 NA
ATOM     31  H7  UNL     1     -18.946  34.921  27.459  1.00  0.00     0.189 HD
ENDBRANCH   7  27
TORSDOF 6
ENDMDL
MODEL 3
REMARK VINA RESULT: -6.414959146      5.144      9.784
REMARK  6 active torsions:
REMARK  status: ('A' for Active; 'I' for Inactive)
REMARK    1  A    between atoms: C2_2  and  O1_4 
REMARK    2  A    between atoms: C2_2  and  C4_6 
REMARK    3  A    between atoms: C5_8  and  N1_9 
REMARK       I    between atoms: N4_12  and  C6_13 
REMARK    4  A    between atoms: N6_15  and  N7_17 
REMARK    5  A    between atoms: C8_22  and  N10_23 
REMARK    6  A    between atoms: C10_27  and  N11_28 
ROOT
HETATM    1  N1  UNL     1     -16.328  42.989  27.087  1.00  0.00    -0.079 N 
HETATM    2  N2  UNL     1     -15.980  43.363  28.305  1.00  0.00     0.012 NA
HETATM    3  N3  UNL     1     -15.641  44.640  28.278  1.00  0.00     0.017 NA
HETATM    4  N4  UNL     1     -15.759  45.127  27.047  1.00  0.00    -0.040 N 
HETATM    5  C6  UNL     1     -15.496  46.445  26.583  1.00  0.00     0.244 C 
HETATM    6  N5  UNL     1     -14.412  46.730  25.703  1.00  0.00    -0.060 NA
HETATM    7  N6  UNL     1     -16.254  47.404  26.966  1.00  0.00    -0.270 N 
ATOM      8  H6  UNL     1     -16.083  48.357  26.647  1.00  0.00     0.189 HD
HETATM    9  C8  UNL     1     -16.193  44.074  26.304  1.00  0.00     0.715 A 
ENDROOT
BRANCH   1  10
HETATM   10  C5  UNL     1     -16.759  41.706  26.666  1.00  0.00     0.263 C 
HETATM   11  O2  UNL     1     -18.080  41.700  26.167  1.00  0.00    -0.354 OA
HETATM   12  C4  UNL     1     -18.241  40.338  25.918  1.00  0.00     0.188 C 
HETATM   13  C10 UNL     1     -17.651  39.600  27.093  1.00  0.00     0.219 C 
HETATM   14  C9  UNL     1     -16.940  40.734  27.840  1.00  0.00     0.091 C 
BRANCH  12  15
HETATM   15  C2  UNL     1     -19.673  39.966  25.659  1.00  0.00     0.079 C 
HETATM   16  C1  UNL     1     -20.109  40.506  24.320  1.00  0.00     0.048 C 
HETATM   17  C3  UNL     1     -20.614  40.433  26.715  1.00  0.00     0.048 C 
BRANCH  15  18
HETATM   18  O1  UNL     1     -19.723  38.568  25.565  1.00  0.00    -0.388 OA
ATOM     19  H1  UNL     1     -20.000  38.363  24.680  1.00  0.00     0.210 HD
ENDBRANCH  15  18
ENDBRANCH  12  15
BRANCH  13  20
HETATM   20  N11 UNL     1     -16.641  38.674  26.623  1.00  0.00    -0.072 N 
ATOM     21 3H11 UNL     1     -16.091  38.282  27.388  1.00  0.00     0.274 HD
ATOM     22 2H11 UNL     1     -17.046  37.805  26.275  1.00  0.00     0.274 HD
ATOM     23 1H11 UNL     1     -16.056  39.134  25.924  1.00  0.00     0.274 HD
ENDBRANCH  13  20
ENDBRANCH   1  10
BRANCH   9  24
HETATM   24  N10 UNL     1     -16.432  44.143  25.032  1.00  0.00    -0.232 N 
ATOM     25 2H10 UNL     1     -16.590  43.326  24.442  1.00  0.00     0.174 HD
ATOM     26 1H10 UNL     1     -16.492  44.993  24.470  1.00  0.00     0.174 HD
ENDBRANCH   9  24
BRANCH   7  27
HETATM   27  N7  UNL     1     -17.313  47.126  27.825  1.00  0.00    -0.274 N 
HETATM   28  C7  UNL     1     -17.344  47.716  28.992  1.00  0.00     0.215 C 
HETATM   29  N8  UNL     1     -16.335  48.625  29.400  1.00  0.00    -0.065 NA
HETATM   30  N9  UNL     1     -18.463  47.378  29.819  1.00  0.00    -0.065 NA
ATOM     31  H7  UNL     1     -18.049  46.475  27.551  1.00  0.00     0.189 HD
ENDBRANCH   7  27
TORSDOF 6
ENDMDL
MODEL 4
REMARK VINA RESULT: -5.934896831      3.196      8.120
REMARK  6 active torsions:
REMARK  status: ('A' for Active; 'I' for Inactive)
REMARK    1  A    between atoms: C2_2  and  O1_4 
REMARK    2  A    between atoms: C2_2  and  C4_6 
REMARK    3  A    between atoms: C5_8  and  N1_9 
REMARK       I    between atoms: N4_12  and  C6_13 
REMARK    4  A    between atoms: N6_15  and  N7_17 
REMARK    5  A    between atoms: C8_22  and  N10_23 
REMARK    6  A    between atoms: C10_27  and  N11_28 
ROOT
HETATM    1  N1  UNL     1     -17.884  39.410  25.583  1.00  0.00    -0.079 N 
HETATM    2  N2  UNL     1     -19.002  40.084  25.385  1.00  0.00     0.012 NA
HETATM    3  N3  UNL     1     -18.882  41.279  25.935  1.00  0.00     0.017 NA
HETATM    4  N4  UNL     1     -17.687  41.412  26.503  1.00  0.00    -0.040 N 
HETATM    5  C6  UNL     1     -17.154  42.530  27.200  1.00  0.00     0.244 C 
HETATM    6  N5  UNL     1     -16.900  42.491  28.602  1.00  0.00    -0.060 NA
HETATM    7  N6  UNL     1     -16.894  43.604  26.551  1.00  0.00    -0.270 N 
ATOM      8  H6  UNL     1     -16.512  44.419  27.031  1.00  0.00     0.189 HD
HETATM    9  C8  UNL     1     -17.067  40.224  26.274  1.00  0.00     0.715 A 
ENDROOT
BRANCH   1  10
HETATM   10  C5  UNL     1     -17.583  38.090  25.161  1.00  0.00     0.263 C 
HETATM   11  O2  UNL     1     -18.574  37.536  24.322  1.00  0.00    -0.354 OA
HETATM   12  C4  UNL     1     -18.056  36.254  24.145  1.00  0.00     0.188 C 
HETATM   13  C10 UNL     1     -17.560  35.787  25.489  1.00  0.00     0.219 C 
HETATM   14  C9  UNL     1     -17.648  37.077  26.312  1.00  0.00     0.091 C 
BRANCH  12  15
HETATM   15  C2  UNL     1     -19.052  35.310  23.533  1.00  0.00     0.079 C 
HETATM   16  C1  UNL     1     -20.008  36.073  22.652  1.00  0.00     0.048 C 
HETATM   17  C3  UNL     1     -19.820  34.519  24.534  1.00  0.00     0.048 C 
BRANCH  15  18
HETATM   18  O1  UNL     1     -18.335  34.444  22.696  1.00  0.00    -0.388 OA
ATOM     19  H1  UNL     1     -17.776  34.988  22.154  1.00  0.00     0.210 HD
ENDBRANCH  15  18
ENDBRANCH  12  15
BRANCH  13  20
HETATM   20  N11 UNL     1     -16.163  35.417  25.387  1.00  0.00    -0.072 N 
ATOM     21 3H11 UNL     1     -15.798  35.545  24.443  1.00  0.00     0.274 HD
ATOM     22 2H11 UNL     1     -15.553  36.078  25.870  1.00  0.00     0.274 HD
ATOM     23 1H11 UNL     1     -16.038  34.462  25.723  1.00  0.00     0.274 HD
ENDBRANCH  13  20
ENDBRANCH   1  10
BRANCH   9  24
HETATM   24  N10 UNL     1     -15.865  39.952  26.677  1.00  0.00    -0.232 N 
ATOM     25 2H10 UNL     1     -15.408  40.432  27.452  1.00  0.00     0.174 HD
ATOM     26 1H10 UNL     1     -15.238  39.249  26.286  1.00  0.00     0.174 HD
ENDBRANCH   9  24
BRANCH   7  27
HETATM   27  N7  UNL     1     -17.142  43.642  25.182  1.00  0.00    -0.274 N 
HETATM   28  C7  UNL     1     -16.961  44.770  24.545  1.00  0.00     0.215 C 
HETATM   29  N8  UNL     1     -16.523  45.944  25.207  1.00  0.00    -0.065 NA
HETATM   30  N9  UNL     1     -17.238  44.729  23.140  1.00  0.00    -0.065 NA
ATOM     31  H7  UNL     1     -17.458  42.808  24.686  1.00  0.00     0.189 HD
ENDBRANCH   7  27
TORSDOF 6
ENDMDL
MODEL 5
REMARK VINA RESULT: -5.869160462      3.299      7.225
REMARK  6 active torsions:
REMARK  status: ('A' for Active; 'I' for Inactive)
REMARK    1  A    between atoms: C2_2  and  O1_4 
REMARK    2  A    between atoms: C2_2  and  C4_6 
REMARK    3  A    between atoms: C5_8  and  N1_9 
REMARK       I    between atoms: N4_12  and  C6_13 
REMARK    4  A    between atoms: N6_15  and  N7_17 
REMARK    5  A    between atoms: C8_22  and  N10_23 
REMARK    6  A    between atoms: C10_27  and  N11_28 
ROOT
HETATM    1  N1  UNL     1     -17.048  38.793  26.519  1.00  0.00    -0.079 N 
HETATM    2  N2  UNL     1     -16.671  38.854  27.783  1.00  0.00     0.012 NA
HETATM    3  N3  UNL     1     -16.573  40.122  28.138  1.00  0.00     0.017 NA
HETATM    4  N4  UNL     1     -16.883  40.917  27.118  1.00  0.00    -0.040 N 
HETATM    5  C6  UNL     1     -16.905  42.337  27.072  1.00  0.00     0.244 C 
HETATM    6  N5  UNL     1     -15.971  43.078  26.292  1.00  0.00    -0.060 NA
HETATM    7  N6  UNL     1     -17.788  42.970  27.750  1.00  0.00    -0.270 N 
ATOM      8  H6  UNL     1     -17.822  43.989  27.733  1.00  0.00     0.189 HD
HETATM    9  C8  UNL     1     -17.181  40.064  26.102  1.00  0.00     0.715 A 
ENDROOT
BRANCH   1  10
HETATM   10  C5  UNL     1     -17.274  37.631  25.739  1.00  0.00     0.263 C 
HETATM   11  O2  UNL     1     -18.350  37.770  24.834  1.00  0.00    -0.354 OA
HETATM   12  C4  UNL     1     -18.376  36.488  24.288  1.00  0.00     0.188 C 
HETATM   13  C10 UNL     1     -18.194  35.517  25.427  1.00  0.00     0.219 C 
HETATM   14  C9  UNL     1     -17.810  36.460  26.573  1.00  0.00     0.091 C 
BRANCH  12  15
HETATM   15  C2  UNL     1     -19.626  36.225  23.497  1.00  0.00     0.079 C 
HETATM   16  C1  UNL     1     -20.809  36.118  24.426  1.00  0.00     0.048 C 
HETATM   17  C3  UNL     1     -19.550  35.006  22.645  1.00  0.00     0.048 C 
BRANCH  15  18
HETATM   18  O1  UNL     1     -19.847  37.352  22.692  1.00  0.00    -0.388 OA
ATOM     19  H1  UNL     1     -19.728  37.072  21.792  1.00  0.00     0.210 HD
ENDBRANCH  15  18
ENDBRANCH  12  15
BRANCH  13  20
HETATM   20  N11 UNL     1     -17.056  34.661  25.154  1.00  0.00    -0.072 N 
ATOM     21 3H11 UNL     1     -16.446  35.048  24.433  1.00  0.00     0.274 HD
ATOM     22 2H11 UNL     1     -16.387  34.653  25.923  1.00  0.00     0.274 HD
ATOM     23 1H11 UNL     1     -17.385  33.724  24.918  1.00  0.00     0.274 HD
ENDBRANCH  13  20
ENDBRANCH   1  10
BRANCH   9  24
HETATM   24  N10 UNL     1     -17.538  40.455  24.918  1.00  0.00    -0.232 N 
ATOM     25 2H10 UNL     1     -17.019  41.142  24.370  1.00  0.00     0.174 HD
ATOM     26 1H10 UNL     1     -18.355  40.140  24.395  1.00  0.00     0.174 HD
ENDBRANCH   9  24
BRANCH   7  27
HETATM   27  N7  UNL     1     -18.701  42.246  28.512  1.00  0.00    -0.274 N 
HETATM   28  C7  UNL     1     -19.954  42.619  28.509  1.00  0.00     0.215 C 
HETATM   29  N8  UNL     1     -20.403  43.732  27.754  1.00  0.00    -0.065 NA
HETATM   30  N9  UNL     1     -20.831  41.826  29.317  1.00  0.00    -0.065 NA
ATOM     31  H7  UNL     1     -18.398  41.441  29.062  1.00  0.00     0.189 HD
ENDBRANCH   7  27
TORSDOF 6
ENDMDL
