MODEL 1
REMARK VINA RESULT: -6.206309618      0.000      0.000
REMARK  6 active torsions:
REMARK  status: ('A' for Active; 'I' for Inactive)
REMARK    1  A    between atoms: N1_1  and  N2_4 
REMARK       I    between atoms: N6_10  and  C2_12 
REMARK    2  A    between atoms: C2_12  and  C3_14 
REMARK    3  A    between atoms: C5_16  and  C6_17 
REMARK    4  A    between atoms: C6_17  and  O2_18 
REMARK    5  A    between atoms: C6_17  and  O3_20 
REMARK    6  A    between atoms: C7_22  and  N7_23 
ROOT
HETATM    1  C3  UNL     1     -17.294  37.024  25.279  1.00  0.00     0.117 A 
HETATM    2  C4  UNL     1     -18.112  37.899  24.607  1.00  0.00     0.052 A 
HETATM    3  C5  UNL     1     -18.424  39.173  25.088  1.00  0.00     0.043 A 
HETATM    4  C7  UNL     1     -17.879  39.541  26.281  1.00  0.00     0.129 A 
HETATM    5  N8  UNL     1     -17.065  38.635  26.921  1.00  0.00    -0.284 N 
ATOM      6  H8  UNL     1     -16.653  38.904  27.814  1.00  0.00     0.188 HD
HETATM    7  N9  UNL     1     -16.790  37.446  26.447  1.00  0.00    -0.294 N 
ATOM      8  H9  UNL     1     -16.178  36.827  26.978  1.00  0.00     0.187 HD
ENDROOT
BRANCH   1   9
HETATM    9  C2  UNL     1     -16.998  35.701  24.732  1.00  0.00     0.287 C 
HETATM   10  N6  UNL     1     -18.006  34.985  24.089  1.00  0.00    -0.150 N 
HETATM   11  C1  UNL     1     -18.972  34.347  24.634  1.00  0.00     0.732 C 
ATOM     12  H6  UNL     1     -17.969  34.968  23.070  1.00  0.00     0.188 HD
HETATM   13  N2  UNL     1     -19.319  34.165  26.000  1.00  0.00    -0.012 N 
HETATM   14  N5  UNL     1     -19.990  33.623  23.923  1.00  0.00    -0.115 N 
HETATM   15  N3  UNL     1     -20.641  33.680  26.047  1.00  0.00     0.030 NA
HETATM   16  N4  UNL     1     -20.766  32.936  24.867  1.00  0.00     0.008 NA
ATOM     17  H5  UNL     1     -20.124  33.611  22.911  1.00  0.00     0.203 HD
HETATM   18  O1  UNL     1     -15.827  35.212  24.845  1.00  0.00    -0.265 OA
BRANCH  13  19
HETATM   19  N1  UNL     1     -18.541  34.406  27.105  1.00  0.00    -0.311 N 
ATOM     20  H12 UNL     1     -18.351  33.775  27.885  1.00  0.00     0.179 HD
ATOM     21  H11 UNL     1     -18.043  35.278  27.281  1.00  0.00     0.179 HD
ENDBRANCH  13  19
ENDBRANCH   1   9
BRANCH   3  22
HETATM   22  C6  UNL     1     -19.302  40.066  24.305  1.00  0.00     0.292 C 
BRANCH  22  23
HETATM   23  O2  UNL     1     -20.223  39.430  23.513  1.00  0.00    -0.367 OA
ATOM     24  H2  UNL     1     -20.216  39.689  22.598  1.00  0.00     0.213 HD
ENDBRANCH  22  23
BRANCH  22  25
HETATM   25  O3  UNL     1     -18.615  41.112  23.698  1.00  0.00    -0.367 OA
ATOM     26  H3  UNL     1     -18.390  40.934  22.792  1.00  0.00     0.213 HD
ENDBRANCH  22  25
ENDBRANCH   3  22
BRANCH   4  27
HETATM   27  N7  UNL     1     -18.113  40.802  26.909  1.00  0.00    -0.366 N 
HETATM   28  C8  UNL     1     -19.224  41.316  27.645  1.00  0.00     0.124 C 
HETATM   29  C9  UNL     1     -19.139  42.819  27.534  1.00  0.00     0.021 C 
HETATM   30  C10 UNL     1     -17.651  43.058  27.507  1.00  0.00     0.021 C 
HETATM   31  C11 UNL     1     -17.090  41.827  26.865  1.00  0.00     0.124 C 
ENDBRANCH   4  27
TORSDOF 6
ENDMDL
MODEL 2
REMARK VINA RESULT: -6.120529935      2.051      2.501
REMARK  6 active torsions:
REMARK  status: ('A' for Active; 'I' for Inactive)
REMARK    1  A    between atoms: N1_1  and  N2_4 
REMARK       I    between atoms: N6_10  and  C2_12 
REMARK    2  A    between atoms: C2_12  and  C3_14 
REMARK    3  A    between atoms: C5_16  and  C6_17 
REMARK    4  A    between atoms: C6_17  and  O2_18 
REMARK    5  A    between atoms: C6_17  and  O3_20 
REMARK    6  A    between atoms: C7_22  and  N7_23 
ROOT
HETATM    1  C3  UNL     1     -17.640  36.724  24.723  1.00  0.00     0.117 A 
HETATM    2  C4  UNL     1     -17.120  37.643  25.600  1.00  0.00     0.052 A 
HETATM    3  C5  UNL     1     -17.618  38.942  25.728  1.00  0.00     0.043 A 
HETATM    4  C7  UNL     1     -18.668  39.289  24.933  1.00  0.00     0.129 A 
HETATM    5  N8  UNL     1     -19.159  38.338  24.069  1.00  0.00    -0.284 N 
ATOM      6  H8  UNL     1     -19.947  38.591  23.471  1.00  0.00     0.188 HD
HETATM    7  N9  UNL     1     -18.673  37.127  23.970  1.00  0.00    -0.294 N 
ATOM      8  H9  UNL     1     -19.090  36.475  23.305  1.00  0.00     0.187 HD
ENDROOT
BRANCH   1   9
HETATM    9  C2  UNL     1     -17.083  35.376  24.628  1.00  0.00     0.287 C 
HETATM   10  N6  UNL     1     -17.917  34.313  24.287  1.00  0.00    -0.150 N 
HETATM   11  C1  UNL     1     -18.760  33.718  25.042  1.00  0.00     0.732 C 
ATOM     12  H6  UNL     1     -17.847  33.971  23.329  1.00  0.00     0.188 HD
HETATM   13  N2  UNL     1     -19.109  33.929  26.404  1.00  0.00    -0.012 N 
HETATM   14  N5  UNL     1     -19.602  32.623  24.641  1.00  0.00    -0.115 N 
HETATM   15  N3  UNL     1     -20.315  33.246  26.651  1.00  0.00     0.030 NA
HETATM   16  N4  UNL     1     -20.262  32.148  25.783  1.00  0.00     0.008 NA
ATOM     17  H5  UNL     1     -19.700  32.256  23.694  1.00  0.00     0.203 HD
HETATM   18  O1  UNL     1     -15.844  35.181  24.854  1.00  0.00    -0.265 OA
BRANCH  13  19
HETATM   19  N1  UNL     1     -18.423  34.660  27.343  1.00  0.00    -0.311 N 
ATOM     20  H12 UNL     1     -18.484  34.585  28.360  1.00  0.00     0.179 HD
ATOM     21  H11 UNL     1     -17.747  35.391  27.125  1.00  0.00     0.179 HD
ENDBRANCH  13  19
ENDBRANCH   1   9
BRANCH   3  22
HETATM   22  C6  UNL     1     -17.015  39.874  26.702  1.00  0.00     0.292 C 
BRANCH  22  23
HETATM   23  O2  UNL     1     -16.363  40.949  26.154  1.00  0.00    -0.367 OA
ATOM     24  H2  UNL     1     -15.651  41.298  26.677  1.00  0.00     0.213 HD
ENDBRANCH  22  23
BRANCH  22  25
HETATM   25  O3  UNL     1     -16.337  39.226  27.729  1.00  0.00    -0.367 OA
ATOM     26  H3  UNL     1     -15.662  39.764  28.127  1.00  0.00     0.213 HD
ENDBRANCH  22  25
ENDBRANCH   3  22
BRANCH   4  27
HETATM   27  N7  UNL     1     -19.278  40.580  24.937  1.00  0.00    -0.366 N 
HETATM   28  C8  UNL     1     -19.138  41.711  24.075  1.00  0.00     0.124 C 
HETATM   29  C9  UNL     1     -19.551  42.912  24.890  1.00  0.00     0.021 C 
HETATM   30  C10 UNL     1     -20.634  42.347  25.772  1.00  0.00     0.021 C 
HETATM   31  C11 UNL     1     -20.252  40.912  25.958  1.00  0.00     0.124 C 
ENDBRANCH   4  27
TORSDOF 6
ENDMDL
MODEL 3
REMARK VINA RESULT: -6.105089257      2.457      6.996
REMARK  6 active torsions:
REMARK  status: ('A' for Active; 'I' for Inactive)
REMARK    1  A    between atoms: N1_1  and  N2_4 
REMARK       I    between atoms: N6_10  and  C2_12 
REMARK    2  A    between atoms: C2_12  and  C3_14 
REMARK    3  A    between atoms: C5_16  and  C6_17 
REMARK    4  A    between atoms: C6_17  and  O2_18 
REMARK    5  A    between atoms: C6_17  and  O3_20 
REMARK    6  A    between atoms: C7_22  and  N7_23 
ROOT
HETATM    1  C3  UNL     1     -19.039  40.170  24.838  1.00  0.00     0.117 A 
HETATM    2  C4  UNL     1     -20.084  39.297  25.022  1.00  0.00     0.052 A 
HETATM    3  C5  UNL     1     -19.950  37.912  24.905  1.00  0.00     0.043 A 
HETATM    4  C7  UNL     1     -18.716  37.428  24.591  1.00  0.00     0.129 A 
HETATM    5  N8  UNL     1     -17.697  38.336  24.416  1.00  0.00    -0.284 N 
ATOM      6  H8  UNL     1     -16.770  37.981  24.183  1.00  0.00     0.188 HD
HETATM    7  N9  UNL     1     -17.851  39.631  24.533  1.00  0.00    -0.294 N 
ATOM      8  H9  UNL     1     -17.048  40.243  24.388  1.00  0.00     0.187 HD
ENDROOT
BRANCH   1   9
HETATM    9  C2  UNL     1     -19.232  41.613  24.973  1.00  0.00     0.287 C 
HETATM   10  N6  UNL     1     -18.140  42.422  25.280  1.00  0.00    -0.150 N 
HETATM   11  C1  UNL     1     -17.582  42.570  26.421  1.00  0.00     0.732 C 
ATOM     12  H6  UNL     1     -17.742  42.957  24.509  1.00  0.00     0.188 HD
HETATM   13  N2  UNL     1     -17.873  41.991  27.686  1.00  0.00    -0.012 N 
HETATM   14  N5  UNL     1     -16.454  43.421  26.687  1.00  0.00    -0.115 N 
HETATM   15  N3  UNL     1     -16.767  42.217  28.528  1.00  0.00     0.030 NA
HETATM   16  N4  UNL     1     -16.242  43.432  28.073  1.00  0.00     0.008 NA
ATOM     17  H5  UNL     1     -15.905  43.926  25.991  1.00  0.00     0.203 HD
HETATM   18  O1  UNL     1     -20.389  42.120  24.809  1.00  0.00    -0.265 OA
BRANCH  13  19
HETATM   19  N1  UNL     1     -19.013  41.325  28.064  1.00  0.00    -0.311 N 
ATOM     20  H12 UNL     1     -19.287  41.039  29.005  1.00  0.00     0.179 HD
ATOM     21  H11 UNL     1     -19.746  41.026  27.422  1.00  0.00     0.179 HD
ENDBRANCH  13  19
ENDBRANCH   1   9
BRANCH   3  22
HETATM   22  C6  UNL     1     -21.116  37.033  25.128  1.00  0.00     0.292 C 
BRANCH  22  23
HETATM   23  O2  UNL     1     -22.320  37.547  24.718  1.00  0.00    -0.367 OA
ATOM     24  H2  UNL     1     -23.000  36.903  24.560  1.00  0.00     0.213 HD
ENDBRANCH  22  23
BRANCH  22  25
HETATM   25  O3  UNL     1     -21.119  36.440  26.386  1.00  0.00    -0.367 OA
ATOM     26  H3  UNL     1     -21.443  35.547  26.376  1.00  0.00     0.213 HD
ENDBRANCH  22  25
ENDBRANCH   3  22
BRANCH   4  27
HETATM   27  N7  UNL     1     -18.422  36.041  24.423  1.00  0.00    -0.366 N 
HETATM   28  C8  UNL     1     -18.670  35.131  23.350  1.00  0.00     0.124 C 
HETATM   29  C9  UNL     1     -18.680  33.752  23.966  1.00  0.00     0.021 C 
HETATM   30  C10 UNL     1     -17.659  33.882  25.066  1.00  0.00     0.021 C 
HETATM   31  C11 UNL     1     -17.733  35.320  25.474  1.00  0.00     0.124 C 
ENDBRANCH   4  27
TORSDOF 6
ENDMDL
MODEL 4
REMARK VINA RESULT: -6.057231291      1.997      2.567
REMARK  6 active torsions:
REMARK  status: ('A' for Active; 'I' for Inactive)
REMARK    1  A    between atoms: N1_1  and  N2_4 
REMARK       I    between atoms: N6_10  and  C2_12 
REMARK    2  A    between atoms: C2_12  and  C3_14 
REMARK    3  A    between atoms: C5_16  and  C6_17 
REMARK    4  A    between atoms: C6_17  and  O2_18 
REMARK    5  A    between atoms: C6_17  and  O3_20 
REMARK    6  A    between atoms: C7_22  and  N7_23 
ROOT
HETATM    1  C3  UNL     1     -18.002  37.117  25.623  1.00  0.00     0.117 A 
HETATM    2  C4  UNL     1     -17.164  38.056  26.173  1.00  0.00     0.052 A 
HETATM    3  C5  UNL     1     -17.552  39.376  26.417  1.00  0.00     0.043 A 
HETATM    4  C7  UNL     1     -18.826  39.724  26.084  1.00  0.00     0.129 A 
HETATM    5  N8  UNL     1     -19.633  38.753  25.536  1.00  0.00    -0.284 N 
ATOM      6  H8  UNL     1     -20.589  39.007  25.285  1.00  0.00     0.188 HD
HETATM    7  N9  UNL     1     -19.243  37.523  25.319  1.00  0.00    -0.294 N 
ATOM      8  H9  UNL     1     -19.898  36.857  24.908  1.00  0.00     0.187 HD
ENDROOT
BRANCH   1   9
HETATM    9  C2  UNL     1     -17.548  35.748  25.389  1.00  0.00     0.287 C 
HETATM   10  N6  UNL     1     -18.477  34.710  25.385  1.00  0.00    -0.150 N 
HETATM   11  C1  UNL     1     -19.032  34.162  26.398  1.00  0.00     0.732 C 
ATOM     12  H6  UNL     1     -18.745  34.346  24.470  1.00  0.00     0.188 HD
HETATM   13  N2  UNL     1     -18.893  34.415  27.790  1.00  0.00    -0.012 N 
HETATM   14  N5  UNL     1     -19.989  33.091  26.340  1.00  0.00    -0.115 N 
HETATM   15  N3  UNL     1     -19.963  33.782  28.452  1.00  0.00     0.030 NA
HETATM   16  N4  UNL     1     -20.237  32.665  27.652  1.00  0.00     0.008 NA
ATOM     17  H5  UNL     1     -20.412  32.709  25.494  1.00  0.00     0.203 HD
HETATM   18  O1  UNL     1     -16.311  35.512  25.190  1.00  0.00    -0.265 OA
BRANCH  13  19
HETATM   19  N1  UNL     1     -17.910  35.139  28.420  1.00  0.00    -0.311 N 
ATOM     20  H12 UNL     1     -17.909  35.490  29.378  1.00  0.00     0.179 HD
ATOM     21  H11 UNL     1     -17.032  35.420  27.984  1.00  0.00     0.179 HD
ENDBRANCH  13  19
ENDBRANCH   1   9
BRANCH   3  22
HETATM   22  C6  UNL     1     -16.599  40.328  27.022  1.00  0.00     0.292 C 
BRANCH  22  23
HETATM   23  O2  UNL     1     -16.243  41.384  26.222  1.00  0.00    -0.367 OA
ATOM     24  H2  UNL     1     -15.311  41.567  26.187  1.00  0.00     0.213 HD
ENDBRANCH  22  23
BRANCH  22  25
HETATM   25  O3  UNL     1     -15.549  39.702  27.685  1.00  0.00    -0.367 OA
ATOM     26  H3  UNL     1     -14.700  39.894  27.303  1.00  0.00     0.213 HD
ENDBRANCH  22  25
ENDBRANCH   3  22
BRANCH   4  27
HETATM   27  N7  UNL     1     -19.366  41.033  26.258  1.00  0.00    -0.366 N 
HETATM   28  C8  UNL     1     -19.461  42.157  25.380  1.00  0.00     0.124 C 
HETATM   29  C9  UNL     1     -19.568  43.373  26.269  1.00  0.00     0.021 C 
HETATM   30  C10 UNL     1     -20.347  42.846  27.446  1.00  0.00     0.021 C 
HETATM   31  C11 UNL     1     -19.970  41.399  27.523  1.00  0.00     0.124 C 
ENDBRANCH   4  27
TORSDOF 6
ENDMDL
MODEL 5
REMARK VINA RESULT: -5.967439053      3.210      7.805
REMARK  6 active torsions:
REMARK  status: ('A' for Active; 'I' for Inactive)
REMARK    1  A    between atoms: N1_1  and  N2_4 
REMARK       I    between atoms: N6_10  and  C2_12 
REMARK    2  A    between atoms: C2_12  and  C3_14 
REMARK    3  A    between atoms: C5_16  and  C6_17 
REMARK    4  A    between atoms: C6_17  and  O2_18 
REMARK    5  A    between atoms: C6_17  and  O3_20 
REMARK    6  A    between atoms: C7_22  and  N7_23 
ROOT
HETATM    1  C3  UNL     1     -18.361  42.092  24.927  1.00  0.00     0.117 A 
HETATM    2  C4  UNL     1     -17.774  41.517  26.027  1.00  0.00     0.052 A 
HETATM    3  C5  UNL     1     -17.675  40.135  26.205  1.00  0.00     0.043 A 
HETATM    4  C7  UNL     1     -18.195  39.341  25.227  1.00  0.00     0.129 A 
HETATM    5  N8  UNL     1     -18.774  39.958  24.142  1.00  0.00    -0.284 N 
ATOM      6  H8  UNL     1     -19.164  39.370  23.405  1.00  0.00     0.188 HD
HETATM    7  N9  UNL     1     -18.852  41.257  24.001  1.00  0.00    -0.294 N 
ATOM      8  H9  UNL     1     -19.297  41.642  23.168  1.00  0.00     0.187 HD
ENDROOT
BRANCH   1   9
HETATM    9  C2  UNL     1     -18.438  43.545  24.789  1.00  0.00     0.287 C 
HETATM   10  N6  UNL     1     -17.268  44.299  24.834  1.00  0.00    -0.150 N 
HETATM   11  C1  UNL     1     -16.588  44.614  25.870  1.00  0.00     0.732 C 
ATOM     12  H6  UNL     1     -16.914  44.640  23.939  1.00  0.00     0.188 HD
HETATM   13  N2  UNL     1     -16.787  44.315  27.245  1.00  0.00    -0.012 N 
HETATM   14  N5  UNL     1     -15.381  45.397  25.862  1.00  0.00    -0.115 N 
HETATM   15  N3  UNL     1     -15.588  44.599  27.926  1.00  0.00     0.030 NA
HETATM   16  N4  UNL     1     -15.029  45.654  27.194  1.00  0.00     0.008 NA
ATOM     17  H5  UNL     1     -14.873  45.709  25.035  1.00  0.00     0.203 HD
HETATM   18  O1  UNL     1     -19.569  44.111  24.628  1.00  0.00    -0.265 OA
BRANCH  13  19
HETATM   19  N1  UNL     1     -17.926  43.836  27.845  1.00  0.00    -0.311 N 
ATOM     20  H12 UNL     1     -18.461  43.003  27.595  1.00  0.00     0.179 HD
ATOM     21  H11 UNL     1     -18.386  44.275  28.642  1.00  0.00     0.179 HD
ENDBRANCH  13  19
ENDBRANCH   1   9
BRANCH   3  22
HETATM   22  C6  UNL     1     -17.019  39.587  27.409  1.00  0.00     0.292 C 
BRANCH  22  23
HETATM   23  O2  UNL     1     -17.235  40.296  28.563  1.00  0.00    -0.367 OA
ATOM     24  H2  UNL     1     -16.504  40.831  28.850  1.00  0.00     0.213 HD
ENDBRANCH  22  23
BRANCH  22  25
HETATM   25  O3  UNL     1     -15.703  39.200  27.185  1.00  0.00    -0.367 OA
ATOM     26  H3  UNL     1     -15.495  38.350  27.557  1.00  0.00     0.213 HD
ENDBRANCH  22  25
ENDBRANCH   3  22
BRANCH   4  27
HETATM   27  N7  UNL     1     -18.184  37.915  25.268  1.00  0.00    -0.366 N 
HETATM   28  C8  UNL     1     -19.137  36.961  25.742  1.00  0.00     0.124 C 
HETATM   29  C9  UNL     1     -18.353  35.711  26.062  1.00  0.00     0.021 C 
HETATM   30  C10 UNL     1     -17.267  35.734  25.018  1.00  0.00     0.021 C 
HETATM   31  C11 UNL     1     -17.044  37.189  24.746  1.00  0.00     0.124 C 
ENDBRANCH   4  27
TORSDOF 6
ENDMDL
