MODEL 1
REMARK VINA RESULT: -5.895128947      0.000      0.000
REMARK  5 active torsions:
REMARK  status: ('A' for Active; 'I' for Inactive)
REMARK    1  A    between atoms: C3_7  and  N4_8 
REMARK    2  A    between atoms: N4_8  and  C4_10 
REMARK    3  A    between atoms: C7_18  and  O1_19 
REMARK    4  A    between atoms: O1_19  and  C8_20 
REMARK    5  A    between atoms: C8_20  and  C9_21 
ROOT
HETATM    1  C4  UNL     1     -19.440  37.207  23.878  1.00  0.00     0.216 C 
HETATM    2  N5  UNL     1     -20.513  37.620  23.001  1.00  0.00    -0.341 N 
ATOM      3  H5  UNL     1     -20.317  38.226  22.204  1.00  0.00     0.164 HD
HETATM    4  C5  UNL     1     -21.857  37.176  23.252  1.00  0.00     0.185 C 
HETATM    5  N6  UNL     1     -22.930  37.821  22.587  1.00  0.00    -0.064 NA
HETATM    6  N7  UNL     1     -22.125  36.209  24.063  1.00  0.00    -0.362 N 
ATOM      7  H7  UNL     1     -23.085  35.908  24.228  1.00  0.00     0.162 HD
HETATM    8  C6  UNL     1     -21.010  35.569  24.728  1.00  0.00     0.158 C 
HETATM    9  C7  UNL     1     -20.026  36.663  25.162  1.00  0.00     0.182 C 
ENDROOT
BRANCH   1  10
HETATM   10  N4  UNL     1     -18.382  38.126  24.031  1.00  0.00    -0.351 N 
ATOM     11  H4  UNL     1     -17.510  37.826  23.595  1.00  0.00     0.163 HD
BRANCH  10  12
HETATM   12  C3  UNL     1     -18.305  39.247  24.602  1.00  0.00     0.136 A 
HETATM   13  C2  UNL     1     -17.622  39.361  25.791  1.00  0.00     0.135 A 
HETATM   14  N3  UNL     1     -16.959  38.485  26.555  1.00  0.00    -0.277 N 
HETATM   15  C11 UNL     1     -17.514  40.587  26.453  1.00  0.00     0.153 A 
HETATM   16  N2  UNL     1     -16.474  39.112  27.613  1.00  0.00    -0.018 NA
ATOM     17  H3  UNL     1     -16.845  37.491  26.353  1.00  0.00     0.184 HD
HETATM   18  N1  UNL     1     -16.795  40.392  27.580  1.00  0.00    -0.263 N 
HETATM   19  C1  UNL     1     -16.484  41.447  28.518  1.00  0.00     0.177 C 
HETATM   20  N11 UNL     1     -18.104  41.665  25.890  1.00  0.00    -0.336 N 
HETATM   21  C10 UNL     1     -18.772  41.555  24.730  1.00  0.00     0.183 A 
ATOM     22  H11 UNL     1     -18.043  42.572  26.352  1.00  0.00     0.168 HD
HETATM   23  N10 UNL     1     -18.866  40.343  24.095  1.00  0.00    -0.337 N 
ATOM     24  H10 UNL     1     -19.377  40.281  23.214  1.00  0.00     0.168 HD
ENDBRANCH  10  12
ENDBRANCH   1  10
BRANCH   9  25
HETATM   25  O1  UNL     1     -19.054  36.036  25.937  1.00  0.00    -0.373 OA
BRANCH  25  26
HETATM   26  C8  UNL     1     -18.805  34.773  25.397  1.00  0.00     0.240 C 
BRANCH  26  27
HETATM   27  C9  UNL     1     -17.345  34.603  25.240  1.00  0.00     0.110 C 
HETATM   28  N8  UNL     1     -16.814  33.440  25.149  1.00  0.00    -0.389 N 
ATOM     29  H82 UNL     1     -17.413  32.614  25.187  1.00  0.00     0.157 HD
ATOM     30  H81 UNL     1     -15.806  33.323  25.041  1.00  0.00     0.157 HD
HETATM   31  N9  UNL     1     -16.516  35.746  25.187  1.00  0.00    -0.086 NA
ENDBRANCH  26  27
ENDBRANCH  25  26
ENDBRANCH   9  25
TORSDOF 5
ENDMDL
MODEL 2
REMARK VINA RESULT: -5.845710286      2.299      4.712
REMARK  5 active torsions:
REMARK  status: ('A' for Active; 'I' for Inactive)
REMARK    1  A    between atoms: C3_7  and  N4_8 
REMARK    2  A    between atoms: N4_8  and  C4_10 
REMARK    3  A    between atoms: C7_18  and  O1_19 
REMARK    4  A    between atoms: O1_19  and  C8_20 
REMARK    5  A    between atoms: C8_20  and  C9_21 
ROOT
HETATM    1  C4  UNL     1     -17.910  38.654  26.084  1.00  0.00     0.216 C 
HETATM    2  N5  UNL     1     -16.914  37.611  25.987  1.00  0.00    -0.341 N 
ATOM      3  H5  UNL     1     -16.026  37.705  26.480  1.00  0.00     0.164 HD
HETATM    4  C5  UNL     1     -17.175  36.440  25.195  1.00  0.00     0.185 C 
HETATM    5  N6  UNL     1     -16.097  35.583  24.858  1.00  0.00    -0.064 NA
HETATM    6  N7  UNL     1     -18.357  36.138  24.778  1.00  0.00    -0.362 N 
ATOM      7  H7  UNL     1     -18.523  35.303  24.217  1.00  0.00     0.162 HD
HETATM    8  C6  UNL     1     -19.438  37.031  25.137  1.00  0.00     0.158 C 
HETATM    9  C7  UNL     1     -18.934  38.472  24.986  1.00  0.00     0.182 C 
ENDROOT
BRANCH   1  10
HETATM   10  N4  UNL     1     -17.415  39.964  26.246  1.00  0.00    -0.351 N 
ATOM     11  H4  UNL     1     -16.540  40.138  25.753  1.00  0.00     0.163 HD
BRANCH  10  12
HETATM   12  C3  UNL     1     -17.847  40.962  26.884  1.00  0.00     0.136 A 
HETATM   13  C2  UNL     1     -17.150  42.148  26.847  1.00  0.00     0.135 A 
HETATM   14  N3  UNL     1     -16.019  42.529  26.241  1.00  0.00    -0.277 N 
HETATM   15  C11 UNL     1     -17.597  43.277  27.540  1.00  0.00     0.153 A 
HETATM   16  N2  UNL     1     -15.776  43.796  26.531  1.00  0.00    -0.018 NA
ATOM     17  H3  UNL     1     -15.437  41.935  25.649  1.00  0.00     0.184 HD
HETATM   18  N1  UNL     1     -16.718  44.279  27.319  1.00  0.00    -0.263 N 
HETATM   19  C1  UNL     1     -16.862  45.602  27.884  1.00  0.00     0.177 C 
HETATM   20  N11 UNL     1     -18.741  43.170  28.252  1.00  0.00    -0.336 N 
HETATM   21  C10 UNL     1     -19.422  42.013  28.289  1.00  0.00     0.183 A 
ATOM     22  H11 UNL     1     -19.091  43.977  28.768  1.00  0.00     0.168 HD
HETATM   23  N10 UNL     1     -18.967  40.917  27.602  1.00  0.00    -0.337 N 
ATOM     24  H10 UNL     1     -19.500  40.048  27.641  1.00  0.00     0.168 HD
ENDBRANCH  10  12
ENDBRANCH   1  10
BRANCH   9  25
HETATM   25  O1  UNL     1     -20.036  39.300  25.177  1.00  0.00    -0.373 OA
BRANCH  25  26
HETATM   26  C8  UNL     1     -20.369  39.883  23.954  1.00  0.00     0.240 C 
BRANCH  26  27
HETATM   27  C9  UNL     1     -19.885  41.279  23.945  1.00  0.00     0.110 C 
HETATM   28  N8  UNL     1     -18.966  41.661  23.137  1.00  0.00    -0.389 N 
ATOM     29  H82 UNL     1     -18.561  40.987  22.487  1.00  0.00     0.157 HD
ATOM     30  H81 UNL     1     -18.631  42.625  23.131  1.00  0.00     0.157 HD
HETATM   31  N9  UNL     1     -20.445  42.213  24.845  1.00  0.00    -0.086 NA
ENDBRANCH  26  27
ENDBRANCH  25  26
ENDBRANCH   9  25
TORSDOF 5
ENDMDL
MODEL 3
REMARK VINA RESULT: -5.776429188      3.284      7.321
REMARK  5 active torsions:
REMARK  status: ('A' for Active; 'I' for Inactive)
REMARK    1  A    between atoms: C3_7  and  N4_8 
REMARK    2  A    between atoms: N4_8  and  C4_10 
REMARK    3  A    between atoms: C7_18  and  O1_19 
REMARK    4  A    between atoms: O1_19  and  C8_20 
REMARK    5  A    between atoms: C8_20  and  C9_21 
ROOT
HETATM    1  C4  UNL     1     -17.359  42.628  26.454  1.00  0.00     0.216 C 
HETATM    2  N5  UNL     1     -16.272  43.342  25.823  1.00  0.00    -0.341 N 
ATOM      3  H5  UNL     1     -15.844  42.974  24.974  1.00  0.00     0.164 HD
HETATM    4  C5  UNL     1     -15.795  44.573  26.393  1.00  0.00     0.185 C 
HETATM    5  N6  UNL     1     -14.551  45.096  25.956  1.00  0.00    -0.064 NA
HETATM    6  N7  UNL     1     -16.457  45.221  27.290  1.00  0.00    -0.362 N 
ATOM      7  H7  UNL     1     -16.102  46.093  27.683  1.00  0.00     0.162 HD
HETATM    8  C6  UNL     1     -17.722  44.664  27.716  1.00  0.00     0.158 C 
HETATM    9  C7  UNL     1     -17.547  43.147  27.863  1.00  0.00     0.182 C 
ENDROOT
BRANCH   1  10
HETATM   10  N4  UNL     1     -17.335  41.225  26.318  1.00  0.00    -0.351 N 
ATOM     11  H4  UNL     1     -16.660  40.763  26.928  1.00  0.00     0.163 HD
BRANCH  10  12
HETATM   12  C3  UNL     1     -17.986  40.431  25.588  1.00  0.00     0.136 A 
HETATM   13  C2  UNL     1     -17.686  39.089  25.603  1.00  0.00     0.135 A 
HETATM   14  N3  UNL     1     -16.783  38.358  26.269  1.00  0.00    -0.277 N 
HETATM   15  C11 UNL     1     -18.386  38.177  24.808  1.00  0.00     0.153 A 
HETATM   16  N2  UNL     1     -16.908  37.089  25.919  1.00  0.00    -0.018 NA
ATOM     17  H3  UNL     1     -16.107  38.723  26.940  1.00  0.00     0.184 HD
HETATM   18  N1  UNL     1     -17.875  36.946  25.032  1.00  0.00    -0.263 N 
HETATM   19  C1  UNL     1     -18.358  35.753  24.376  1.00  0.00     0.177 C 
HETATM   20  N11 UNL     1     -19.374  38.654  24.018  1.00  0.00    -0.336 N 
HETATM   21  C10 UNL     1     -19.668  39.965  24.002  1.00  0.00     0.183 A 
ATOM     22  H11 UNL     1     -19.902  38.012  23.427  1.00  0.00     0.168 HD
HETATM   23  N10 UNL     1     -18.970  40.843  24.790  1.00  0.00    -0.337 N 
ATOM     24  H10 UNL     1     -19.210  41.834  24.765  1.00  0.00     0.168 HD
ENDBRANCH  10  12
ENDBRANCH   1  10
BRANCH   9  25
HETATM   25  O1  UNL     1     -18.724  42.665  28.427  1.00  0.00    -0.373 OA
BRANCH  25  26
HETATM   26  C8  UNL     1     -19.609  43.733  28.586  1.00  0.00     0.240 C 
BRANCH  26  27
HETATM   27  C9  UNL     1     -20.551  43.411  29.678  1.00  0.00     0.110 C 
HETATM   28  N8  UNL     1     -20.856  42.198  29.960  1.00  0.00    -0.389 N 
ATOM     29  H82 UNL     1     -20.439  41.440  29.418  1.00  0.00     0.157 HD
ATOM     30  H81 UNL     1     -21.506  41.975  30.714  1.00  0.00     0.157 HD
HETATM   31  N9  UNL     1     -21.128  44.460  30.428  1.00  0.00    -0.086 NA
ENDBRANCH  26  27
ENDBRANCH  25  26
ENDBRANCH   9  25
TORSDOF 5
ENDMDL
MODEL 4
REMARK VINA RESULT: -5.698153452      3.027      6.376
REMARK  5 active torsions:
REMARK  status: ('A' for Active; 'I' for Inactive)
REMARK    1  A    between atoms: C3_7  and  N4_8 
REMARK    2  A    between atoms: N4_8  and  C4_10 
REMARK    3  A    between atoms: C7_18  and  O1_19 
REMARK    4  A    between atoms: O1_19  and  C8_20 
REMARK    5  A    between atoms: C8_20  and  C9_21 
ROOT
HETATM    1  C4  UNL     1     -18.307  40.165  25.156  1.00  0.00     0.216 C 
HETATM    2  N5  UNL     1     -18.150  38.728  25.154  1.00  0.00    -0.341 N 
ATOM      3  H5  UNL     1     -18.589  38.168  24.422  1.00  0.00     0.164 HD
HETATM    4  C5  UNL     1     -17.376  38.089  26.182  1.00  0.00     0.185 C 
HETATM    5  N6  UNL     1     -17.481  36.685  26.349  1.00  0.00    -0.064 NA
HETATM    6  N7  UNL     1     -16.586  38.746  26.961  1.00  0.00    -0.362 N 
ATOM      7  H7  UNL     1     -16.044  38.275  27.686  1.00  0.00     0.162 HD
HETATM    8  C6  UNL     1     -16.498  40.177  26.767  1.00  0.00     0.158 C 
HETATM    9  C7  UNL     1     -17.914  40.709  26.512  1.00  0.00     0.182 C 
ENDROOT
BRANCH   1  10
HETATM   10  N4  UNL     1     -19.521  40.653  24.631  1.00  0.00    -0.351 N 
ATOM     11  H4  UNL     1     -20.307  40.586  25.278  1.00  0.00     0.163 HD
BRANCH  10  12
HETATM   12  C3  UNL     1     -19.824  41.156  23.515  1.00  0.00     0.136 A 
HETATM   13  C2  UNL     1     -19.366  42.410  23.186  1.00  0.00     0.135 A 
HETATM   14  N3  UNL     1     -18.606  43.307  23.827  1.00  0.00    -0.277 N 
HETATM   15  C11 UNL     1     -19.679  43.000  21.958  1.00  0.00     0.153 A 
HETATM   16  N2  UNL     1     -18.455  44.374  23.062  1.00  0.00    -0.018 NA
ATOM     17  H3  UNL     1     -18.207  43.185  24.758  1.00  0.00     0.184 HD
HETATM   18  N1  UNL     1     -19.096  44.219  21.918  1.00  0.00    -0.263 N 
HETATM   19  C1  UNL     1     -19.208  45.117  20.792  1.00  0.00     0.177 C 
HETATM   20  N11 UNL     1     -20.450  42.299  21.097  1.00  0.00    -0.336 N 
HETATM   21  C10 UNL     1     -20.898  41.074  21.418  1.00  0.00     0.183 A 
ATOM     22  H11 UNL     1     -20.695  42.705  20.194  1.00  0.00     0.168 HD
HETATM   23  N10 UNL     1     -20.579  40.512  22.627  1.00  0.00    -0.337 N 
ATOM     24  H10 UNL     1     -20.928  39.581  22.851  1.00  0.00     0.168 HD
ENDBRANCH  10  12
ENDBRANCH   1  10
BRANCH   9  25
HETATM   25  O1  UNL     1     -17.819  42.097  26.493  1.00  0.00    -0.373 OA
BRANCH  25  26
HETATM   26  C8  UNL     1     -16.997  42.499  27.547  1.00  0.00     0.240 C 
BRANCH  26  27
HETATM   27  C9  UNL     1     -16.208  43.671  27.113  1.00  0.00     0.110 C 
HETATM   28  N8  UNL     1     -15.899  43.848  25.882  1.00  0.00    -0.389 N 
ATOM     29  H82 UNL     1     -16.203  43.165  25.188  1.00  0.00     0.157 HD
ATOM     30  H81 UNL     1     -15.354  44.658  25.582  1.00  0.00     0.157 HD
HETATM   31  N9  UNL     1     -15.787  44.617  28.074  1.00  0.00    -0.086 NA
ENDBRANCH  26  27
ENDBRANCH  25  26
ENDBRANCH   9  25
TORSDOF 5
ENDMDL
MODEL 5
REMARK VINA RESULT: -5.661849659      0.935      1.997
REMARK  5 active torsions:
REMARK  status: ('A' for Active; 'I' for Inactive)
REMARK    1  A    between atoms: C3_7  and  N4_8 
REMARK    2  A    between atoms: N4_8  and  C4_10 
REMARK    3  A    between atoms: C7_18  and  O1_19 
REMARK    4  A    between atoms: O1_19  and  C8_20 
REMARK    5  A    between atoms: C8_20  and  C9_21 
ROOT
HETATM    1  C4  UNL     1     -19.127  37.555  24.047  1.00  0.00     0.216 C 
HETATM    2  N5  UNL     1     -20.120  38.213  23.228  1.00  0.00    -0.341 N 
ATOM      3  H5  UNL     1     -19.836  38.923  22.553  1.00  0.00     0.164 HD
HETATM    4  C5  UNL     1     -21.508  37.867  23.366  1.00  0.00     0.185 C 
HETATM    5  N6  UNL     1     -22.489  38.718  22.796  1.00  0.00    -0.064 NA
HETATM    6  N7  UNL     1     -21.897  36.809  23.991  1.00  0.00    -0.362 N 
ATOM      7  H7  UNL     1     -22.887  36.579  24.079  1.00  0.00     0.162 HD
HETATM    8  C6  UNL     1     -20.875  35.959  24.563  1.00  0.00     0.158 C 
HETATM    9  C7  UNL     1     -19.812  36.861  25.203  1.00  0.00     0.182 C 
ENDROOT
BRANCH   1  10
HETATM   10  N4  UNL     1     -17.995  38.326  24.382  1.00  0.00    -0.351 N 
ATOM     11  H4  UNL     1     -17.285  38.356  23.650  1.00  0.00     0.163 HD
BRANCH  10  12
HETATM   12  C3  UNL     1     -17.691  38.987  25.411  1.00  0.00     0.136 A 
HETATM   13  C2  UNL     1     -18.074  40.305  25.514  1.00  0.00     0.135 A 
HETATM   14  N3  UNL     1     -18.754  41.127  24.707  1.00  0.00    -0.277 N 
HETATM   15  C11 UNL     1     -17.756  41.069  26.640  1.00  0.00     0.153 A 
HETATM   16  N2  UNL     1     -18.855  42.314  25.281  1.00  0.00    -0.018 NA
ATOM     17  H3  UNL     1     -19.135  40.878  23.793  1.00  0.00     0.184 HD
HETATM   18  N1  UNL     1     -18.258  42.311  26.458  1.00  0.00    -0.263 N 
HETATM   19  C1  UNL     1     -18.118  43.375  27.426  1.00  0.00     0.177 C 
HETATM   20  N11 UNL     1     -17.057  40.475  27.632  1.00  0.00    -0.336 N 
HETATM   21  C10 UNL     1     -16.683  39.188  27.533  1.00  0.00     0.183 A 
ATOM     22  H11 UNL     1     -16.811  41.008  28.466  1.00  0.00     0.168 HD
HETATM   23  N10 UNL     1     -17.005  38.455  26.421  1.00  0.00    -0.337 N 
ATOM     24  H10 UNL     1     -16.712  37.480  26.365  1.00  0.00     0.168 HD
ENDBRANCH  10  12
ENDBRANCH   1  10
BRANCH   9  25
HETATM   25  O1  UNL     1     -18.935  36.021  25.882  1.00  0.00    -0.373 OA
BRANCH  25  26
HETATM   26  C8  UNL     1     -18.735  34.874  25.111  1.00  0.00     0.240 C 
BRANCH  26  27
HETATM   27  C9  UNL     1     -17.294  34.545  25.114  1.00  0.00     0.110 C 
HETATM   28  N8  UNL     1     -16.888  33.329  25.131  1.00  0.00    -0.389 N 
ATOM     29  H82 UNL     1     -17.574  32.574  25.142  1.00  0.00     0.157 HD
ATOM     30  H81 UNL     1     -15.893  33.102  25.133  1.00  0.00     0.157 HD
HETATM   31  N9  UNL     1     -16.344  35.591  25.098  1.00  0.00    -0.086 NA
ENDBRANCH  26  27
ENDBRANCH  25  26
ENDBRANCH   9  25
TORSDOF 5
ENDMDL
