MODEL 1
REMARK VINA RESULT: -5.953388912      0.000      0.000
REMARK  8 active torsions:
REMARK  status: ('A' for Active; 'I' for Inactive)
REMARK    1  A    between atoms: N2_3  and  O1_4 
REMARK       I    between atoms: N2_3  and  C2_6 
REMARK    2  A    between atoms: C2_6  and  C3_8 
REMARK    3  A    between atoms: N4_12  and  N5_14 
REMARK    4  A    between atoms: C6_18  and  N6_19 
REMARK    5  A    between atoms: N6_19  and  N8_23 
REMARK    6  A    between atoms: N10_28  and  C7_29 
REMARK    7  A    between atoms: C7_29  and  C8_30 
REMARK    8  A    between atoms: C8_30  and  O3_31 
ROOT
HETATM    1  N1  UNL     1     -16.632  42.117  26.797  1.00  0.00    -0.169 NA
HETATM    2  C1  UNL     1     -16.724  40.971  26.737  1.00  0.00     0.214 C 
HETATM    3  N2  UNL     1     -16.853  39.538  26.684  1.00  0.00    -0.114 N 
HETATM    4  C2  UNL     1     -17.665  39.012  25.677  1.00  0.00     0.325 C 
HETATM    5  O2  UNL     1     -18.244  39.842  24.866  1.00  0.00    -0.261 OA
ENDROOT
BRANCH   3   6
HETATM    6  O1  UNL     1     -16.195  38.803  27.594  1.00  0.00    -0.271 OA
ATOM      7  H1  UNL     1     -16.453  37.897  27.717  1.00  0.00     0.246 HD
ENDBRANCH   3   6
BRANCH   4   8
HETATM    8  C3  UNL     1     -17.965  37.623  25.400  1.00  0.00     0.181 A 
HETATM    9  N3  UNL     1     -16.947  36.700  25.382  1.00  0.00    -0.322 N 
HETATM   10  C4  UNL     1     -17.131  35.408  25.136  1.00  0.00     0.139 A 
ATOM     11  H3  UNL     1     -15.999  37.024  25.568  1.00  0.00     0.169 HD
HETATM   12  N4  UNL     1     -16.166  34.550  25.117  1.00  0.00    -0.291 N 
HETATM   13  C5  UNL     1     -18.418  34.987  24.887  1.00  0.00     0.104 A 
ATOM     14  H4  UNL     1     -16.393  33.576  24.920  1.00  0.00     0.188 HD
HETATM   15  C6  UNL     1     -19.001  33.757  24.595  1.00  0.00     0.176 A 
HETATM   16  C9  UNL     1     -19.468  35.875  24.894  1.00  0.00     0.142 A 
HETATM   17  N9  UNL     1     -20.299  33.958  24.450  1.00  0.00    -0.278 N 
HETATM   18  N10 UNL     1     -20.627  35.225  24.621  1.00  0.00    -0.272 N 
ATOM     19  H9  UNL     1     -20.968  33.220  24.231  1.00  0.00     0.189 HD
HETATM   20  N11 UNL     1     -19.198  37.166  25.152  1.00  0.00    -0.322 N 
ATOM     21  H11 UNL     1     -19.972  37.831  25.158  1.00  0.00     0.169 HD
BRANCH  12  22
HETATM   22  N5  UNL     1     -14.833  34.881  25.351  1.00  0.00    -0.344 N 
ATOM     23  H52 UNL     1     -14.629  35.422  26.192  1.00  0.00     0.176 HD
ATOM     24  H51 UNL     1     -14.066  34.612  24.735  1.00  0.00     0.176 HD
ENDBRANCH  12  22
BRANCH  15  25
HETATM   25  N6  UNL     1     -18.231  32.566  24.500  1.00  0.00    -0.191 N 
HETATM   26  N7  UNL     1     -17.837  32.221  23.351  1.00  0.00    -0.323 N 
ATOM     27  H72 UNL     1     -18.065  32.773  22.523  1.00  0.00     0.179 HD
ATOM     28  H71 UNL     1     -17.283  31.367  23.282  1.00  0.00     0.179 HD
BRANCH  25  29
HETATM   29  N8  UNL     1     -17.919  31.815  25.628  1.00  0.00    -0.323 N 
ATOM     30  H82 UNL     1     -18.611  31.210  26.070  1.00  0.00     0.179 HD
ATOM     31  H81 UNL     1     -16.989  31.844  26.044  1.00  0.00     0.179 HD
ENDBRANCH  25  29
ENDBRANCH  15  25
BRANCH  18  32
HETATM   32  C7  UNL     1     -21.932  35.805  24.536  1.00  0.00     0.177 C 
BRANCH  32  33
HETATM   33  C8  UNL     1     -23.016  34.859  24.116  1.00  0.00     0.185 C 
BRANCH  33  34
HETATM   34  O3  UNL     1     -23.288  33.976  25.186  1.00  0.00    -0.399 OA
ATOM     35  H3  UNL     1     -24.096  33.510  25.000  1.00  0.00     0.209 HD
ENDBRANCH  33  34
ENDBRANCH  32  33
ENDBRANCH  18  32
ENDBRANCH   4   8
TORSDOF 8
ENDMDL
MODEL 2
REMARK VINA RESULT: -5.849346744      1.825      2.228
REMARK  8 active torsions:
REMARK  status: ('A' for Active; 'I' for Inactive)
REMARK    1  A    between atoms: N2_3  and  O1_4 
REMARK       I    between atoms: N2_3  and  C2_6 
REMARK    2  A    between atoms: C2_6  and  C3_8 
REMARK    3  A    between atoms: N4_12  and  N5_14 
REMARK    4  A    between atoms: C6_18  and  N6_19 
REMARK    5  A    between atoms: N6_19  and  N8_23 
REMARK    6  A    between atoms: N10_28  and  C7_29 
REMARK    7  A    between atoms: C7_29  and  C8_30 
REMARK    8  A    between atoms: C8_30  and  O3_31 
ROOT
HETATM    1  N1  UNL     1     -16.631  42.072  28.520  1.00  0.00    -0.169 NA
HETATM    2  C1  UNL     1     -17.170  41.326  27.829  1.00  0.00     0.214 C 
HETATM    3  N2  UNL     1     -17.838  40.407  26.944  1.00  0.00    -0.114 N 
HETATM    4  C2  UNL     1     -17.263  39.143  26.792  1.00  0.00     0.325 C 
HETATM    5  O2  UNL     1     -16.176  38.886  27.451  1.00  0.00    -0.261 OA
ENDROOT
BRANCH   3   6
HETATM    6  O1  UNL     1     -18.957  40.815  26.325  1.00  0.00    -0.271 OA
ATOM      7  H1  UNL     1     -19.794  40.626  26.733  1.00  0.00     0.246 HD
ENDBRANCH   3   6
BRANCH   4   8
HETATM    8  C3  UNL     1     -17.723  38.040  25.974  1.00  0.00     0.181 A 
HETATM    9  N3  UNL     1     -16.895  36.966  25.756  1.00  0.00    -0.322 N 
HETATM   10  C4  UNL     1     -17.234  35.914  25.020  1.00  0.00     0.139 A 
ATOM     11  H3  UNL     1     -15.969  36.976  26.184  1.00  0.00     0.169 HD
HETATM   12  N4  UNL     1     -16.446  34.912  24.818  1.00  0.00    -0.291 N 
HETATM   13  C5  UNL     1     -18.488  35.917  24.450  1.00  0.00     0.104 A 
ATOM     14  H4  UNL     1     -16.784  34.143  24.240  1.00  0.00     0.188 HD
HETATM   15  C6  UNL     1     -19.191  35.031  23.639  1.00  0.00     0.176 A 
HETATM   16  C9  UNL     1     -19.350  36.971  24.641  1.00  0.00     0.142 A 
HETATM   17  N9  UNL     1     -20.373  35.568  23.396  1.00  0.00    -0.278 N 
HETATM   18  N10 UNL     1     -20.514  36.742  23.982  1.00  0.00    -0.272 N 
ATOM     19  H9  UNL     1     -21.092  35.127  22.823  1.00  0.00     0.189 HD
HETATM   20  N11 UNL     1     -18.931  37.997  25.400  1.00  0.00    -0.322 N 
ATOM     21  H11 UNL     1     -19.566  38.783  25.545  1.00  0.00     0.169 HD
BRANCH  12  22
HETATM   22  N5  UNL     1     -15.159  34.821  25.346  1.00  0.00    -0.344 N 
ATOM     23  H52 UNL     1     -15.069  34.869  26.361  1.00  0.00     0.176 HD
ATOM     24  H51 UNL     1     -14.319  34.711  24.777  1.00  0.00     0.176 HD
ENDBRANCH  12  22
BRANCH  15  25
HETATM   25  N6  UNL     1     -18.628  33.796  23.214  1.00  0.00    -0.191 N 
HETATM   26  N7  UNL     1     -18.330  33.685  21.992  1.00  0.00    -0.323 N 
ATOM     27  H72 UNL     1     -18.491  34.449  21.335  1.00  0.00     0.179 HD
ATOM     28  H71 UNL     1     -17.926  32.799  21.687  1.00  0.00     0.179 HD
BRANCH  25  29
HETATM   29  N8  UNL     1     -18.410  32.756  24.110  1.00  0.00    -0.323 N 
ATOM     30  H82 UNL     1     -17.585  32.736  24.710  1.00  0.00     0.179 HD
ATOM     31  H81 UNL     1     -19.070  31.983  24.196  1.00  0.00     0.179 HD
ENDBRANCH  25  29
ENDBRANCH  15  25
BRANCH  18  32
HETATM   32  C7  UNL     1     -21.654  37.607  23.937  1.00  0.00     0.177 C 
BRANCH  32  33
HETATM   33  C8  UNL     1     -21.625  38.629  22.841  1.00  0.00     0.185 C 
BRANCH  33  34
HETATM   34  O3  UNL     1     -20.783  38.162  21.805  1.00  0.00    -0.399 OA
ATOM     35  H3  UNL     1     -20.866  37.217  21.747  1.00  0.00     0.209 HD
ENDBRANCH  33  34
ENDBRANCH  32  33
ENDBRANCH  18  32
ENDBRANCH   4   8
TORSDOF 8
ENDMDL
MODEL 3
REMARK VINA RESULT: -5.744129110      2.944      4.200
REMARK  8 active torsions:
REMARK  status: ('A' for Active; 'I' for Inactive)
REMARK    1  A    between atoms: N2_3  and  O1_4 
REMARK       I    between atoms: N2_3  and  C2_6 
REMARK    2  A    between atoms: C2_6  and  C3_8 
REMARK    3  A    between atoms: N4_12  and  N5_14 
REMARK    4  A    between atoms: C6_18  and  N6_19 
REMARK    5  A    between atoms: N6_19  and  N8_23 
REMARK    6  A    between atoms: N10_28  and  C7_29 
REMARK    7  A    between atoms: C7_29  and  C8_30 
REMARK    8  A    between atoms: C8_30  and  O3_31 
ROOT
HETATM    1  N1  UNL     1     -19.902  45.064  23.058  1.00  0.00    -0.169 NA
HETATM    2  C1  UNL     1     -19.708  43.930  23.041  1.00  0.00     0.214 C 
HETATM    3  N2  UNL     1     -19.440  42.515  23.009  1.00  0.00    -0.114 N 
HETATM    4  C2  UNL     1     -19.269  41.875  24.239  1.00  0.00     0.325 C 
HETATM    5  O2  UNL     1     -19.361  42.592  25.316  1.00  0.00    -0.261 OA
ENDROOT
BRANCH   3   6
HETATM    6  O1  UNL     1     -19.370  41.905  21.816  1.00  0.00    -0.271 OA
ATOM      7  H1  UNL     1     -20.085  42.027  21.203  1.00  0.00     0.246 HD
ENDBRANCH   3   6
BRANCH   4   8
HETATM    8  C3  UNL     1     -18.994  40.477  24.492  1.00  0.00     0.181 A 
HETATM    9  N3  UNL     1     -17.965  40.130  25.334  1.00  0.00    -0.322 N 
HETATM   10  C4  UNL     1     -17.642  38.874  25.621  1.00  0.00     0.139 A 
ATOM     11  H3  UNL     1     -17.420  40.877  25.763  1.00  0.00     0.169 HD
HETATM   12  N4  UNL     1     -16.670  38.560  26.410  1.00  0.00    -0.291 N 
HETATM   13  C5  UNL     1     -18.389  37.877  25.034  1.00  0.00     0.104 A 
ATOM     14  H4  UNL     1     -16.488  37.571  26.578  1.00  0.00     0.188 HD
HETATM   15  C6  UNL     1     -18.364  36.486  25.080  1.00  0.00     0.176 A 
HETATM   16  C9  UNL     1     -19.428  38.178  24.184  1.00  0.00     0.142 A 
HETATM   17  N9  UNL     1     -19.335  36.046  24.299  1.00  0.00    -0.278 N 
HETATM   18  N10 UNL     1     -20.005  37.034  23.735  1.00  0.00    -0.272 N 
ATOM     19  H9  UNL     1     -19.542  35.059  24.149  1.00  0.00     0.189 HD
HETATM   20  N11 UNL     1     -19.690  39.473  23.945  1.00  0.00    -0.322 N 
ATOM     21  H11 UNL     1     -20.460  39.703  23.316  1.00  0.00     0.169 HD
BRANCH  12  22
HETATM   22  N5  UNL     1     -15.856  39.495  27.046  1.00  0.00    -0.344 N 
ATOM     23  H52 UNL     1     -14.868  39.499  26.792  1.00  0.00     0.176 HD
ATOM     24  H51 UNL     1     -16.194  40.163  27.738  1.00  0.00     0.176 HD
ENDBRANCH  12  22
BRANCH  15  25
HETATM   25  N6  UNL     1     -17.415  35.779  25.867  1.00  0.00    -0.191 N 
HETATM   26  N7  UNL     1     -17.719  35.546  27.071  1.00  0.00    -0.323 N 
ATOM     27  H72 UNL     1     -18.609  35.855  27.463  1.00  0.00     0.179 HD
ATOM     28  H71 UNL     1     -17.038  35.038  27.636  1.00  0.00     0.179 HD
BRANCH  25  29
HETATM   29  N8  UNL     1     -16.203  35.358  25.332  1.00  0.00    -0.323 N 
ATOM     30  H82 UNL     1     -16.147  34.954  24.398  1.00  0.00     0.179 HD
ATOM     31  H81 UNL     1     -15.333  35.445  25.857  1.00  0.00     0.179 HD
ENDBRANCH  25  29
ENDBRANCH  15  25
BRANCH  18  32
HETATM   32  C7  UNL     1     -21.111  36.933  22.833  1.00  0.00     0.177 C 
BRANCH  32  33
HETATM   33  C8  UNL     1     -20.761  37.108  21.386  1.00  0.00     0.185 C 
BRANCH  33  34
HETATM   34  O3  UNL     1     -20.767  38.489  21.081  1.00  0.00    -0.399 OA
ATOM     35  H3  UNL     1     -19.870  38.803  21.069  1.00  0.00     0.209 HD
ENDBRANCH  33  34
ENDBRANCH  32  33
ENDBRANCH  18  32
ENDBRANCH   4   8
TORSDOF 8
ENDMDL
MODEL 4
REMARK VINA RESULT: -5.721030964      3.358      5.978
REMARK  8 active torsions:
REMARK  status: ('A' for Active; 'I' for Inactive)
REMARK    1  A    between atoms: N2_3  and  O1_4 
REMARK       I    between atoms: N2_3  and  C2_6 
REMARK    2  A    between atoms: C2_6  and  C3_8 
REMARK    3  A    between atoms: N4_12  and  N5_14 
REMARK    4  A    between atoms: C6_18  and  N6_19 
REMARK    5  A    between atoms: N6_19  and  N8_23 
REMARK    6  A    between atoms: N10_28  and  C7_29 
REMARK    7  A    between atoms: C7_29  and  C8_30 
REMARK    8  A    between atoms: C8_30  and  O3_31 
ROOT
HETATM    1  N1  UNL     1     -21.846  43.963  21.376  1.00  0.00    -0.169 NA
HETATM    2  C1  UNL     1     -21.245  43.028  21.674  1.00  0.00     0.214 C 
HETATM    3  N2  UNL     1     -20.471  41.869  22.035  1.00  0.00    -0.114 N 
HETATM    4  C2  UNL     1     -20.230  41.668  23.397  1.00  0.00     0.325 C 
HETATM    5  O2  UNL     1     -20.713  42.532  24.234  1.00  0.00    -0.261 OA
ENDROOT
BRANCH   3   6
HETATM    6  O1  UNL     1     -20.032  41.063  21.056  1.00  0.00    -0.271 OA
ATOM      7  H1  UNL     1     -20.374  40.177  21.013  1.00  0.00     0.246 HD
ENDBRANCH   3   6
BRANCH   4   8
HETATM    8  C3  UNL     1     -19.489  40.596  24.028  1.00  0.00     0.181 A 
HETATM    9  N3  UNL     1     -19.780  39.292  23.709  1.00  0.00    -0.322 N 
HETATM   10  C4  UNL     1     -19.154  38.248  24.240  1.00  0.00     0.139 A 
ATOM     11  H3  UNL     1     -20.518  39.115  23.027  1.00  0.00     0.169 HD
HETATM   12  N4  UNL     1     -19.439  37.026  23.936  1.00  0.00    -0.291 N 
HETATM   13  C5  UNL     1     -18.160  38.505  25.158  1.00  0.00     0.104 A 
ATOM     14  H4  UNL     1     -18.909  36.282  24.389  1.00  0.00     0.188 HD
HETATM   15  C6  UNL     1     -17.302  37.710  25.912  1.00  0.00     0.176 A 
HETATM   16  C9  UNL     1     -17.836  39.794  25.508  1.00  0.00     0.142 A 
HETATM   17  N9  UNL     1     -16.547  38.517  26.637  1.00  0.00    -0.278 N 
HETATM   18  N10 UNL     1     -16.835  39.788  26.425  1.00  0.00    -0.272 N 
ATOM     19  H9  UNL     1     -15.827  38.196  27.283  1.00  0.00     0.189 HD
HETATM   20  N11 UNL     1     -18.517  40.795  24.925  1.00  0.00    -0.322 N 
ATOM     21  H11 UNL     1     -18.281  41.754  25.180  1.00  0.00     0.169 HD
BRANCH  12  22
HETATM   22  N5  UNL     1     -20.429  36.666  23.024  1.00  0.00    -0.344 N 
ATOM     23  H52 UNL     1     -21.380  36.975  23.225  1.00  0.00     0.176 HD
ATOM     24  H51 UNL     1     -20.252  36.120  22.181  1.00  0.00     0.176 HD
ENDBRANCH  12  22
BRANCH  15  25
HETATM   25  N6  UNL     1     -17.328  36.291  25.829  1.00  0.00    -0.191 N 
HETATM   26  N7  UNL     1     -16.515  35.742  25.032  1.00  0.00    -0.323 N 
ATOM     27  H72 UNL     1     -15.869  36.295  24.469  1.00  0.00     0.179 HD
ATOM     28  H71 UNL     1     -16.533  34.724  24.972  1.00  0.00     0.179 HD
BRANCH  25  29
HETATM   29  N8  UNL     1     -18.209  35.538  26.597  1.00  0.00    -0.323 N 
ATOM     30  H82 UNL     1     -18.993  35.971  27.083  1.00  0.00     0.179 HD
ATOM     31  H81 UNL     1     -18.098  34.528  26.693  1.00  0.00     0.179 HD
ENDBRANCH  25  29
ENDBRANCH  15  25
BRANCH  18  32
HETATM   32  C7  UNL     1     -16.227  40.931  27.033  1.00  0.00     0.177 C 
BRANCH  32  33
HETATM   33  C8  UNL     1     -17.139  41.741  27.905  1.00  0.00     0.185 C 
BRANCH  33  34
HETATM   34  O3  UNL     1     -16.597  41.789  29.210  1.00  0.00    -0.399 OA
ATOM     35  H3  UNL     1     -17.037  42.476  29.698  1.00  0.00     0.209 HD
ENDBRANCH  33  34
ENDBRANCH  32  33
ENDBRANCH  18  32
ENDBRANCH   4   8
TORSDOF 8
ENDMDL
MODEL 5
REMARK VINA RESULT: -5.686089433      4.265      5.740
REMARK  8 active torsions:
REMARK  status: ('A' for Active; 'I' for Inactive)
REMARK    1  A    between atoms: N2_3  and  O1_4 
REMARK       I    between atoms: N2_3  and  C2_6 
REMARK    2  A    between atoms: C2_6  and  C3_8 
REMARK    3  A    between atoms: N4_12  and  N5_14 
REMARK    4  A    between atoms: C6_18  and  N6_19 
REMARK    5  A    between atoms: N6_19  and  N8_23 
REMARK    6  A    between atoms: N10_28  and  C7_29 
REMARK    7  A    between atoms: C7_29  and  C8_30 
REMARK    8  A    between atoms: C8_30  and  O3_31 
ROOT
HETATM    1  N1  UNL     1     -15.041  46.399  27.052  1.00  0.00    -0.169 NA
HETATM    2  C1  UNL     1     -15.580  45.583  26.446  1.00  0.00     0.214 C 
HETATM    3  N2  UNL     1     -16.231  44.551  25.681  1.00  0.00    -0.114 N 
HETATM    4  C2  UNL     1     -16.871  43.538  26.399  1.00  0.00     0.325 C 
HETATM    5  O2  UNL     1     -16.834  43.594  27.695  1.00  0.00    -0.261 OA
ENDROOT
BRANCH   3   6
HETATM    6  O1  UNL     1     -16.183  44.623  24.342  1.00  0.00    -0.271 OA
ATOM      7  H1  UNL     1     -15.864  43.869  23.860  1.00  0.00     0.246 HD
ENDBRANCH   3   6
BRANCH   4   8
HETATM    8  C3  UNL     1     -17.594  42.393  25.886  1.00  0.00     0.181 A 
HETATM    9  N3  UNL     1     -17.268  41.133  26.325  1.00  0.00    -0.322 N 
HETATM   10  C4  UNL     1     -17.877  40.029  25.907  1.00  0.00     0.139 A 
ATOM     11  H3  UNL     1     -16.517  41.040  27.009  1.00  0.00     0.169 HD
HETATM   12  N4  UNL     1     -17.558  38.849  26.323  1.00  0.00    -0.291 N 
HETATM   13  C5  UNL     1     -18.888  40.174  24.984  1.00  0.00     0.104 A 
ATOM     14  H4  UNL     1     -18.076  38.053  25.952  1.00  0.00     0.188 HD
HETATM   15  C6  UNL     1     -19.737  39.291  24.323  1.00  0.00     0.176 A 
HETATM   16  C9  UNL     1     -19.248  41.416  24.516  1.00  0.00     0.142 A 
HETATM   17  N9  UNL     1     -20.520  40.006  23.536  1.00  0.00    -0.278 N 
HETATM   18  N10 UNL     1     -20.260  41.298  23.620  1.00  0.00    -0.272 N 
ATOM     19  H9  UNL     1     -21.241  39.608  22.935  1.00  0.00     0.189 HD
HETATM   20  N11 UNL     1     -18.583  42.483  24.989  1.00  0.00    -0.322 N 
ATOM     21  H11 UNL     1     -18.845  43.408  24.646  1.00  0.00     0.169 HD
BRANCH  12  22
HETATM   22  N5  UNL     1     -16.548  38.602  27.250  1.00  0.00    -0.344 N 
ATOM     23  H52 UNL     1     -15.701  38.150  26.904  1.00  0.00     0.176 HD
ATOM     24  H51 UNL     1     -16.613  38.846  28.238  1.00  0.00     0.176 HD
ENDBRANCH  12  22
BRANCH  15  25
HETATM   25  N6  UNL     1     -19.677  37.887  24.543  1.00  0.00    -0.191 N 
HETATM   26  N7  UNL     1     -18.985  37.203  23.737  1.00  0.00    -0.323 N 
ATOM     27  H72 UNL     1     -18.493  37.640  22.958  1.00  0.00     0.179 HD
ATOM     28  H71 UNL     1     -18.942  36.197  23.895  1.00  0.00     0.179 HD
BRANCH  25  29
HETATM   29  N8  UNL     1     -20.348  37.293  25.606  1.00  0.00    -0.323 N 
ATOM     30  H82 UNL     1     -20.863  36.421  25.488  1.00  0.00     0.179 HD
ATOM     31  H81 UNL     1     -20.342  37.710  26.537  1.00  0.00     0.179 HD
ENDBRANCH  25  29
ENDBRANCH  15  25
BRANCH  18  32
HETATM   32  C7  UNL     1     -20.903  42.363  22.914  1.00  0.00     0.177 C 
BRANCH  32  33
HETATM   33  C8  UNL     1     -20.395  42.593  21.522  1.00  0.00     0.185 C 
BRANCH  33  34
HETATM   34  O3  UNL     1     -20.047  41.346  20.954  1.00  0.00    -0.399 OA
ATOM     35  H3  UNL     1     -20.844  40.867  20.756  1.00  0.00     0.209 HD
ENDBRANCH  33  34
ENDBRANCH  32  33
ENDBRANCH  18  32
ENDBRANCH   4   8
TORSDOF 8
ENDMDL
