MODEL 1
REMARK VINA RESULT: -5.419007898      0.000      0.000
REMARK  3 active torsions:
REMARK  status: ('A' for Active; 'I' for Inactive)
REMARK    1  A    between atoms: C4_12  and  C5_13 
REMARK    2  A    between atoms: C5_13  and  O3_14 
REMARK    3  A    between atoms: C5_13  and  N4_16 
ROOT
HETATM    1  O1  UNL     1     -62.418 -45.238  53.922  1.00  0.00    -0.247 OA
HETATM    2  C1  UNL     1     -62.581 -44.230  53.186  1.00  0.00     0.327 A 
HETATM    3  N1  UNL     1     -63.292 -44.409  52.063  1.00  0.00    -0.273 N 
ATOM      4  H1  UNL     1     -63.669 -45.332  51.844  1.00  0.00     0.173 HD
HETATM    5  C2  UNL     1     -63.512 -43.379  51.219  1.00  0.00     0.280 A 
HETATM    6  O2  UNL     1     -64.172 -43.529  50.167  1.00  0.00    -0.265 OA
HETATM    7  C3  UNL     1     -62.988 -42.144  51.545  1.00  0.00     0.145 A 
HETATM    8  N2  UNL     1     -63.035 -40.971  50.931  1.00  0.00    -0.293 N 
ATOM      9  H2  UNL     1     -63.505 -40.780  50.047  1.00  0.00     0.187 HD
HETATM   10  N3  UNL     1     -62.371 -40.091  51.656  1.00  0.00    -0.298 N 
ATOM     11  H3  UNL     1     -62.253 -39.109  51.409  1.00  0.00     0.187 HD
HETATM   12  C4  UNL     1     -61.871 -40.663  52.766  1.00  0.00     0.099 A 
HETATM   13  C7  UNL     1     -62.262 -41.983  52.705  1.00  0.00     0.098 A 
HETATM   14  N6  UNL     1     -62.059 -43.031  53.528  1.00  0.00    -0.304 N 
ATOM     15  H6  UNL     1     -61.522 -42.923  54.390  1.00  0.00     0.171 HD
ENDROOT
BRANCH  12  16
HETATM   16  C5  UNL     1     -61.068 -39.989  53.822  1.00  0.00     0.264 C 
BRANCH  16  17
HETATM   17  O3  UNL     1     -60.941 -38.646  53.433  1.00  0.00    -0.374 OA
ATOM     18  H3  UNL     1     -61.813 -38.271  53.467  1.00  0.00     0.212 HD
ENDBRANCH  16  17
BRANCH  16  19
HETATM   19  N4  UNL     1     -59.778 -40.600  53.863  1.00  0.00    -0.184 NA
HETATM   20  C6  UNL     1     -59.228 -41.228  54.961  1.00  0.00     0.241 A 
HETATM   21  N5  UNL     1     -58.685 -39.975  54.422  1.00  0.00    -0.145 NA
ENDBRANCH  16  19
ENDBRANCH  12  16
TORSDOF 3
ENDMDL
MODEL 2
REMARK VINA RESULT: -5.407120113      2.552      5.827
REMARK  3 active torsions:
REMARK  status: ('A' for Active; 'I' for Inactive)
REMARK    1  A    between atoms: C4_12  and  C5_13 
REMARK    2  A    between atoms: C5_13  and  O3_14 
REMARK    3  A    between atoms: C5_13  and  N4_16 
ROOT
HETATM    1  O1  UNL     1     -63.472 -42.290  48.177  1.00  0.00    -0.247 OA
HETATM    2  C1  UNL     1     -63.219 -42.402  49.406  1.00  0.00     0.327 A 
HETATM    3  N1  UNL     1     -62.686 -41.333  50.014  1.00  0.00    -0.273 N 
ATOM      4  H1  UNL     1     -62.507 -40.483  49.479  1.00  0.00     0.173 HD
HETATM    5  C2  UNL     1     -62.384 -41.372  51.329  1.00  0.00     0.280 A 
HETATM    6  O2  UNL     1     -61.886 -40.383  51.911  1.00  0.00    -0.265 OA
HETATM    7  C3  UNL     1     -62.640 -42.537  52.023  1.00  0.00     0.145 A 
HETATM    8  N2  UNL     1     -62.457 -42.871  53.292  1.00  0.00    -0.293 N 
ATOM      9  H2  UNL     1     -62.065 -42.268  54.016  1.00  0.00     0.187 HD
HETATM   10  N3  UNL     1     -62.866 -44.114  53.463  1.00  0.00    -0.298 N 
ATOM     11  H3  UNL     1     -62.835 -44.616  54.350  1.00  0.00     0.187 HD
HETATM   12  C4  UNL     1     -63.328 -44.629  52.309  1.00  0.00     0.099 A 
HETATM   13  C7  UNL     1     -63.189 -43.624  51.378  1.00  0.00     0.098 A 
HETATM   14  N6  UNL     1     -63.479 -43.554  50.063  1.00  0.00    -0.304 N 
ATOM     15  H6  UNL     1     -63.886 -44.353  49.575  1.00  0.00     0.171 HD
ENDROOT
BRANCH  12  16
HETATM   16  C5  UNL     1     -63.873 -45.999  52.110  1.00  0.00     0.264 C 
BRANCH  16  17
HETATM   17  O3  UNL     1     -63.021 -46.639  51.195  1.00  0.00    -0.374 OA
ATOM     18  H3  UNL     1     -63.106 -47.572  51.354  1.00  0.00     0.212 HD
ENDBRANCH  16  17
BRANCH  16  19
HETATM   19  N4  UNL     1     -65.181 -45.885  51.548  1.00  0.00    -0.184 NA
HETATM   20  C6  UNL     1     -66.358 -46.177  52.204  1.00  0.00     0.241 A 
HETATM   21  N5  UNL     1     -65.874 -46.974  51.069  1.00  0.00    -0.145 NA
ENDBRANCH  16  19
ENDBRANCH  12  16
TORSDOF 3
ENDMDL
MODEL 3
REMARK VINA RESULT: -5.278412618      1.634      2.715
REMARK  3 active torsions:
REMARK  status: ('A' for Active; 'I' for Inactive)
REMARK    1  A    between atoms: C4_12  and  C5_13 
REMARK    2  A    between atoms: C5_13  and  O3_14 
REMARK    3  A    between atoms: C5_13  and  N4_16 
ROOT
HETATM    1  O1  UNL     1     -63.029 -42.118  48.388  1.00  0.00    -0.247 OA
HETATM    2  C1  UNL     1     -63.072 -42.303  49.633  1.00  0.00     0.327 A 
HETATM    3  N1  UNL     1     -63.442 -43.522  50.051  1.00  0.00    -0.273 N 
ATOM      4  H1  UNL     1     -63.671 -44.244  49.368  1.00  0.00     0.173 HD
HETATM    5  C2  UNL     1     -63.514 -43.801  51.370  1.00  0.00     0.280 A 
HETATM    6  O2  UNL     1     -63.857 -44.933  51.777  1.00  0.00    -0.265 OA
HETATM    7  C3  UNL     1     -63.196 -42.802  52.268  1.00  0.00     0.145 A 
HETATM    8  N2  UNL     1     -63.173 -42.775  53.592  1.00  0.00    -0.293 N 
ATOM      9  H2  UNL     1     -63.405 -43.554  54.208  1.00  0.00     0.187 HD
HETATM   10  N3  UNL     1     -62.798 -41.570  53.981  1.00  0.00    -0.298 N 
ATOM     11  H3  UNL     1     -62.699 -41.281  54.954  1.00  0.00     0.187 HD
HETATM   12  C4  UNL     1     -62.566 -40.775  52.921  1.00  0.00     0.099 A 
HETATM   13  C7  UNL     1     -62.817 -41.557  51.815  1.00  0.00     0.098 A 
HETATM   14  N6  UNL     1     -62.755 -41.308  50.491  1.00  0.00    -0.304 N 
ATOM     15  H6  UNL     1     -62.476 -40.389  50.145  1.00  0.00     0.171 HD
ENDROOT
BRANCH  12  16
HETATM   16  C5  UNL     1     -62.127 -39.354  52.963  1.00  0.00     0.264 C 
BRANCH  16  17
HETATM   17  O3  UNL     1     -61.924 -38.958  51.631  1.00  0.00    -0.374 OA
ATOM     18  H3  UNL     1     -61.105 -38.478  51.613  1.00  0.00     0.212 HD
ENDBRANCH  16  17
BRANCH  16  19
HETATM   19  N4  UNL     1     -60.893 -39.286  53.677  1.00  0.00    -0.184 NA
HETATM   20  C6  UNL     1     -60.211 -40.368  54.194  1.00  0.00     0.241 A 
HETATM   21  N5  UNL     1     -60.832 -39.349  55.051  1.00  0.00    -0.145 NA
ENDBRANCH  16  19
ENDBRANCH  12  16
TORSDOF 3
ENDMDL
MODEL 4
REMARK VINA RESULT: -5.240155751      2.699      4.517
REMARK  3 active torsions:
REMARK  status: ('A' for Active; 'I' for Inactive)
REMARK    1  A    between atoms: C4_12  and  C5_13 
REMARK    2  A    between atoms: C5_13  and  O3_14 
REMARK    3  A    between atoms: C5_13  and  N4_16 
ROOT
HETATM    1  O1  UNL     1     -65.669 -46.336  51.257  1.00  0.00    -0.247 OA
HETATM    2  C1  UNL     1     -64.808 -45.661  51.881  1.00  0.00     0.327 A 
HETATM    3  N1  UNL     1     -64.396 -46.148  53.060  1.00  0.00    -0.273 N 
ATOM      4  H1  UNL     1     -64.782 -47.026  53.408  1.00  0.00     0.173 HD
HETATM    5  C2  UNL     1     -63.476 -45.485  53.791  1.00  0.00     0.280 A 
HETATM    6  O2  UNL     1     -63.081 -45.925  54.894  1.00  0.00    -0.265 OA
HETATM    7  C3  UNL     1     -62.974 -44.300  53.291  1.00  0.00     0.145 A 
HETATM    8  N2  UNL     1     -62.082 -43.444  53.767  1.00  0.00    -0.293 N 
ATOM      9  H2  UNL     1     -61.583 -43.535  54.652  1.00  0.00     0.187 HD
HETATM   10  N3  UNL     1     -61.947 -42.456  52.904  1.00  0.00    -0.298 N 
ATOM     11  H3  UNL     1     -61.319 -41.661  53.028  1.00  0.00     0.187 HD
HETATM   12  C4  UNL     1     -62.747 -42.636  51.838  1.00  0.00     0.099 A 
HETATM   13  C7  UNL     1     -63.412 -43.819  52.076  1.00  0.00     0.098 A 
HETATM   14  N6  UNL     1     -64.332 -44.504  51.369  1.00  0.00    -0.304 N 
ATOM     15  H6  UNL     1     -64.663 -44.157  50.468  1.00  0.00     0.171 HD
ENDROOT
BRANCH  12  16
HETATM   16  C5  UNL     1     -62.868 -41.733  50.662  1.00  0.00     0.264 C 
BRANCH  16  17
HETATM   17  O3  UNL     1     -63.757 -40.711  51.032  1.00  0.00    -0.374 OA
ATOM     18  H3  UNL     1     -63.224 -39.984  51.332  1.00  0.00     0.212 HD
ENDBRANCH  16  17
BRANCH  16  19
HETATM   19  N4  UNL     1     -63.421 -42.480  49.578  1.00  0.00    -0.184 NA
HETATM   20  C6  UNL     1     -63.203 -42.224  48.240  1.00  0.00     0.241 A 
HETATM   21  N5  UNL     1     -64.519 -42.046  48.868  1.00  0.00    -0.145 NA
ENDBRANCH  16  19
ENDBRANCH  12  16
TORSDOF 3
ENDMDL
MODEL 5
REMARK VINA RESULT: -5.194873691      1.933      2.569
REMARK  3 active torsions:
REMARK  status: ('A' for Active; 'I' for Inactive)
REMARK    1  A    between atoms: C4_12  and  C5_13 
REMARK    2  A    between atoms: C5_13  and  O3_14 
REMARK    3  A    between atoms: C5_13  and  N4_16 
ROOT
HETATM    1  O1  UNL     1     -62.763 -42.093  48.753  1.00  0.00    -0.247 OA
HETATM    2  C1  UNL     1     -63.212 -42.049  49.929  1.00  0.00     0.327 A 
HETATM    3  N1  UNL     1     -64.305 -42.781  50.187  1.00  0.00    -0.273 N 
ATOM      4  H1  UNL     1     -64.729 -43.337  49.444  1.00  0.00     0.173 HD
HETATM    5  C2  UNL     1     -64.849 -42.789  51.423  1.00  0.00     0.280 A 
HETATM    6  O2  UNL     1     -65.869 -43.466  51.680  1.00  0.00    -0.265 OA
HETATM    7  C3  UNL     1     -64.249 -42.027  52.405  1.00  0.00     0.145 A 
HETATM    8  N2  UNL     1     -64.544 -41.836  53.682  1.00  0.00    -0.293 N 
ATOM      9  H2  UNL     1     -65.326 -42.258  54.183  1.00  0.00     0.187 HD
HETATM   10  N3  UNL     1     -63.656 -41.008  54.199  1.00  0.00    -0.298 N 
ATOM     11  H3  UNL     1     -63.654 -40.694  55.170  1.00  0.00     0.187 HD
HETATM   12  C4  UNL     1     -62.754 -40.633  53.274  1.00  0.00     0.099 A 
HETATM   13  C7  UNL     1     -63.125 -41.283  52.117  1.00  0.00     0.098 A 
HETATM   14  N6  UNL     1     -62.605 -41.295  50.873  1.00  0.00    -0.304 N 
ATOM     15  H6  UNL     1     -61.774 -40.748  50.649  1.00  0.00     0.171 HD
ENDROOT
BRANCH  12  16
HETATM   16  C5  UNL     1     -61.606 -39.711  53.483  1.00  0.00     0.264 C 
BRANCH  16  17
HETATM   17  O3  UNL     1     -61.590 -38.835  52.385  1.00  0.00    -0.374 OA
ATOM     18  H3  UNL     1     -61.850 -37.984  52.714  1.00  0.00     0.212 HD
ENDBRANCH  16  17
BRANCH  16  19
HETATM   19  N4  UNL     1     -60.406 -40.484  53.497  1.00  0.00    -0.184 NA
HETATM   20  C6  UNL     1     -59.951 -41.231  54.564  1.00  0.00     0.241 A 
HETATM   21  N5  UNL     1     -59.245 -40.034  54.086  1.00  0.00    -0.145 NA
ENDBRANCH  16  19
ENDBRANCH  12  16
TORSDOF 3
ENDMDL
