MODEL 1
REMARK VINA RESULT: -5.324465423      0.000      0.000
REMARK  2 active torsions:
REMARK  status: ('A' for Active; 'I' for Inactive)
REMARK    1  A    between atoms: N4_12  and  N5_14 
REMARK    2  A    between atoms: N5_14  and  C5_16 
ROOT
HETATM    1  O1  UNL     1     -63.361 -42.688  49.073  1.00  0.00    -0.267 OA
HETATM    2  C1  UNL     1     -63.004 -42.257  50.206  1.00  0.00     0.257 A 
HETATM    3  N1  UNL     1     -62.455 -40.983  50.506  1.00  0.00    -0.351 N 
ATOM      4  H1  UNL     1     -62.283 -40.250  49.818  1.00  0.00     0.163 HD
HETATM    5  C2  UNL     1     -62.173 -40.864  51.914  1.00  0.00     0.182 A 
HETATM    6  C3  UNL     1     -62.589 -42.170  52.483  1.00  0.00     0.063 A 
HETATM    7  N2  UNL     1     -62.691 -42.917  53.622  1.00  0.00    -0.300 N 
ATOM      8  H2  UNL     1     -62.414 -42.610  54.555  1.00  0.00     0.186 HD
HETATM    9  N3  UNL     1     -63.202 -44.098  53.329  1.00  0.00    -0.283 N 
ATOM     10  H3  UNL     1     -63.378 -44.836  54.010  1.00  0.00     0.188 HD
HETATM   11  C4  UNL     1     -63.460 -44.200  52.023  1.00  0.00     0.153 A 
HETATM   12  N4  UNL     1     -63.953 -45.163  51.322  1.00  0.00    -0.269 N 
ATOM     13  H4  UNL     1     -64.062 -45.013  50.319  1.00  0.00     0.189 HD
HETATM   14  C6  UNL     1     -63.072 -42.977  51.479  1.00  0.00     0.104 A 
ENDROOT
BRANCH  12  15
HETATM   15  N5  UNL     1     -64.344 -46.379  51.834  1.00  0.00    -0.128 N 
ATOM     16  H5  UNL     1     -65.280 -46.472  52.227  1.00  0.00     0.205 HD
BRANCH  15  17
HETATM   17  C5  UNL     1     -63.568 -47.400  51.832  1.00  0.00     0.728 A 
HETATM   18  N6  UNL     1     -63.971 -48.635  52.196  1.00  0.00    -0.114 N 
HETATM   19  N7  UNL     1     -62.951 -49.454  52.087  1.00  0.00    -0.213 N 
ATOM     20  H6  UNL     1     -64.910 -48.890  52.504  1.00  0.00     0.207 HD
HETATM   21  N8  UNL     1     -61.918 -48.756  51.662  1.00  0.00    -0.213 N 
ATOM     22  H7  UNL     1     -62.957 -50.453  52.293  1.00  0.00     0.210 HD
HETATM   23  N9  UNL     1     -62.264 -47.498  51.498  1.00  0.00    -0.114 N 
ATOM     24  H8  UNL     1     -60.987 -49.135  51.487  1.00  0.00     0.210 HD
ATOM     25  H9  UNL     1     -61.660 -46.740  51.179  1.00  0.00     0.207 HD
ENDBRANCH  15  17
ENDBRANCH  12  15
TORSDOF 2
ENDMDL
MODEL 2
REMARK VINA RESULT: -5.306378663      1.438      2.137
REMARK  2 active torsions:
REMARK  status: ('A' for Active; 'I' for Inactive)
REMARK    1  A    between atoms: N4_12  and  N5_14 
REMARK    2  A    between atoms: N5_14  and  C5_16 
ROOT
HETATM    1  O1  UNL     1     -63.350 -42.848  49.011  1.00  0.00    -0.267 OA
HETATM    2  C1  UNL     1     -63.042 -42.391  50.149  1.00  0.00     0.257 A 
HETATM    3  N1  UNL     1     -62.542 -41.096  50.447  1.00  0.00    -0.351 N 
ATOM      4  H1  UNL     1     -62.371 -40.368  49.754  1.00  0.00     0.163 HD
HETATM    5  C2  UNL     1     -62.309 -40.950  51.862  1.00  0.00     0.182 A 
HETATM    6  C3  UNL     1     -62.702 -42.260  52.436  1.00  0.00     0.063 A 
HETATM    7  N2  UNL     1     -62.817 -42.995  53.582  1.00  0.00    -0.300 N 
ATOM      8  H2  UNL     1     -62.579 -42.667  54.518  1.00  0.00     0.186 HD
HETATM    9  N3  UNL     1     -63.282 -44.195  53.290  1.00  0.00    -0.283 N 
ATOM     10  H3  UNL     1     -63.457 -44.929  53.976  1.00  0.00     0.188 HD
HETATM   11  C4  UNL     1     -63.496 -44.322  51.978  1.00  0.00     0.153 A 
HETATM   12  N4  UNL     1     -63.937 -45.310  51.277  1.00  0.00    -0.269 N 
ATOM     13  H4  UNL     1     -64.017 -45.177  50.268  1.00  0.00     0.189 HD
HETATM   14  C6  UNL     1     -63.128 -43.096  51.429  1.00  0.00     0.104 A 
ENDROOT
BRANCH  12  15
HETATM   15  N5  UNL     1     -64.305 -46.531  51.794  1.00  0.00    -0.128 N 
ATOM     16  H5  UNL     1     -63.717 -46.964  52.505  1.00  0.00     0.205 HD
BRANCH  15  17
HETATM   17  C5  UNL     1     -65.365 -47.141  51.409  1.00  0.00     0.728 A 
HETATM   18  N6  UNL     1     -65.444 -48.484  51.295  1.00  0.00    -0.114 N 
HETATM   19  N7  UNL     1     -66.651 -48.795  50.882  1.00  0.00    -0.213 N 
ATOM     20  H6  UNL     1     -64.693 -49.144  51.496  1.00  0.00     0.207 HD
HETATM   21  N8  UNL     1     -67.328 -47.675  50.735  1.00  0.00    -0.213 N 
ATOM     22  H7  UNL     1     -67.002 -49.737  50.708  1.00  0.00     0.210 HD
HETATM   23  N9  UNL     1     -66.569 -46.648  51.049  1.00  0.00    -0.114 N 
ATOM     24  H8  UNL     1     -68.297 -47.613  50.424  1.00  0.00     0.210 HD
ATOM     25  H9  UNL     1     -66.839 -45.665  51.025  1.00  0.00     0.207 HD
ENDBRANCH  15  17
ENDBRANCH  12  15
TORSDOF 2
ENDMDL
MODEL 3
REMARK VINA RESULT: -5.178266452      4.054      5.783
REMARK  2 active torsions:
REMARK  status: ('A' for Active; 'I' for Inactive)
REMARK    1  A    between atoms: N4_12  and  N5_14 
REMARK    2  A    between atoms: N5_14  and  C5_16 
ROOT
HETATM    1  O1  UNL     1     -65.266 -44.131  51.398  1.00  0.00    -0.267 OA
HETATM    2  C1  UNL     1     -64.519 -45.095  51.732  1.00  0.00     0.257 A 
HETATM    3  N1  UNL     1     -63.217 -45.016  52.295  1.00  0.00    -0.351 N 
ATOM      4  H1  UNL     1     -62.726 -44.146  52.497  1.00  0.00     0.163 HD
HETATM    5  C2  UNL     1     -62.685 -46.332  52.541  1.00  0.00     0.182 A 
HETATM    6  C3  UNL     1     -63.757 -47.252  52.087  1.00  0.00     0.063 A 
HETATM    7  N2  UNL     1     -64.127 -48.560  51.942  1.00  0.00    -0.300 N 
ATOM      8  H2  UNL     1     -63.557 -49.366  52.197  1.00  0.00     0.186 HD
HETATM    9  N3  UNL     1     -65.338 -48.617  51.419  1.00  0.00    -0.283 N 
ATOM     10  H3  UNL     1     -65.837 -49.482  51.214  1.00  0.00     0.188 HD
HETATM   11  C4  UNL     1     -65.824 -47.394  51.194  1.00  0.00     0.153 A 
HETATM   12  N4  UNL     1     -66.948 -46.999  50.703  1.00  0.00    -0.269 N 
ATOM     13  H4  UNL     1     -67.104 -45.994  50.623  1.00  0.00     0.189 HD
HETATM   14  C6  UNL     1     -64.824 -46.522  51.616  1.00  0.00     0.104 A 
ENDROOT
BRANCH  12  15
HETATM   15  N5  UNL     1     -67.952 -47.839  50.278  1.00  0.00    -0.128 N 
ATOM     16  H5  UNL     1     -67.833 -48.846  50.389  1.00  0.00     0.205 HD
BRANCH  15  17
HETATM   17  C5  UNL     1     -69.032 -47.396  49.748  1.00  0.00     0.728 A 
HETATM   18  N6  UNL     1     -69.972 -48.198  49.206  1.00  0.00    -0.114 N 
HETATM   19  N7  UNL     1     -70.948 -47.447  48.751  1.00  0.00    -0.213 N 
ATOM     20  H6  UNL     1     -69.932 -49.217  49.159  1.00  0.00     0.207 HD
HETATM   21  N8  UNL     1     -70.636 -46.191  48.995  1.00  0.00    -0.213 N 
ATOM     22  H7  UNL     1     -71.796 -47.777  48.290  1.00  0.00     0.210 HD
HETATM   23  N9  UNL     1     -69.472 -46.128  49.603  1.00  0.00    -0.114 N 
ATOM     24  H8  UNL     1     -71.212 -45.386  48.750  1.00  0.00     0.210 HD
ATOM     25  H9  UNL     1     -68.992 -45.281  49.908  1.00  0.00     0.207 HD
ENDBRANCH  15  17
ENDBRANCH  12  15
TORSDOF 2
ENDMDL
MODEL 4
REMARK VINA RESULT: -5.152686477      2.773      5.972
REMARK  2 active torsions:
REMARK  status: ('A' for Active; 'I' for Inactive)
REMARK    1  A    between atoms: N4_12  and  N5_14 
REMARK    2  A    between atoms: N5_14  and  C5_16 
ROOT
HETATM    1  O1  UNL     1     -68.197 -44.598  51.363  1.00  0.00    -0.267 OA
HETATM    2  C1  UNL     1     -67.732 -45.772  51.302  1.00  0.00     0.257 A 
HETATM    3  N1  UNL     1     -68.463 -46.976  51.119  1.00  0.00    -0.351 N 
ATOM      4  H1  UNL     1     -69.476 -47.028  51.014  1.00  0.00     0.163 HD
HETATM    5  C2  UNL     1     -67.580 -48.114  51.104  1.00  0.00     0.182 A 
HETATM    6  C3  UNL     1     -66.228 -47.532  51.291  1.00  0.00     0.063 A 
HETATM    7  N2  UNL     1     -64.893 -47.805  51.400  1.00  0.00    -0.300 N 
ATOM      8  H2  UNL     1     -64.476 -48.735  51.358  1.00  0.00     0.186 HD
HETATM    9  N3  UNL     1     -64.227 -46.678  51.569  1.00  0.00    -0.283 N 
ATOM     10  H3  UNL     1     -63.215 -46.616  51.675  1.00  0.00     0.188 HD
HETATM   11  C4  UNL     1     -65.052 -45.628  51.582  1.00  0.00     0.153 A 
HETATM   12  N4  UNL     1     -64.827 -44.367  51.720  1.00  0.00    -0.269 N 
ATOM     13  H4  UNL     1     -65.629 -43.736  51.699  1.00  0.00     0.189 HD
HETATM   14  C6  UNL     1     -66.326 -46.164  51.407  1.00  0.00     0.104 A 
ENDROOT
BRANCH  12  15
HETATM   15  N5  UNL     1     -63.580 -43.811  51.895  1.00  0.00    -0.128 N 
ATOM     16  H5  UNL     1     -62.966 -44.194  52.614  1.00  0.00     0.205 HD
BRANCH  15  17
HETATM   17  C5  UNL     1     -63.166 -42.829  51.184  1.00  0.00     0.728 A 
HETATM   18  N6  UNL     1     -63.272 -42.793  49.840  1.00  0.00    -0.114 N 
HETATM   19  N7  UNL     1     -62.759 -41.662  49.412  1.00  0.00    -0.213 N 
ATOM     20  H6  UNL     1     -63.681 -43.521  49.254  1.00  0.00     0.207 HD
HETATM   21  N8  UNL     1     -62.335 -40.990  50.462  1.00  0.00    -0.213 N 
ATOM     22  H7  UNL     1     -62.701 -41.358  48.440  1.00  0.00     0.210 HD
HETATM   23  N9  UNL     1     -62.569 -41.677  51.558  1.00  0.00    -0.114 N 
ATOM     24  H8  UNL     1     -61.890 -40.073  50.430  1.00  0.00     0.210 HD
ATOM     25  H9  UNL     1     -62.342 -41.393  52.512  1.00  0.00     0.207 HD
ENDBRANCH  15  17
ENDBRANCH  12  15
TORSDOF 2
ENDMDL
MODEL 5
REMARK VINA RESULT: -5.125776763      3.384      5.919
REMARK  2 active torsions:
REMARK  status: ('A' for Active; 'I' for Inactive)
REMARK    1  A    between atoms: N4_12  and  N5_14 
REMARK    2  A    between atoms: N5_14  and  C5_16 
ROOT
HETATM    1  O1  UNL     1     -66.087 -47.865  50.611  1.00  0.00    -0.267 OA
HETATM    2  C1  UNL     1     -67.010 -47.049  50.893  1.00  0.00     0.257 A 
HETATM    3  N1  UNL     1     -68.409 -47.282  50.835  1.00  0.00    -0.351 N 
ATOM      4  H1  UNL     1     -68.838 -48.162  50.550  1.00  0.00     0.163 HD
HETATM    5  C2  UNL     1     -69.142 -46.107  51.233  1.00  0.00     0.182 A 
HETATM    6  C3  UNL     1     -68.091 -45.108  51.549  1.00  0.00     0.063 A 
HETATM    7  N2  UNL     1     -67.845 -43.831  51.967  1.00  0.00    -0.300 N 
ATOM      8  H2  UNL     1     -68.558 -43.141  52.203  1.00  0.00     0.186 HD
HETATM    9  N3  UNL     1     -66.541 -43.628  52.016  1.00  0.00    -0.283 N 
ATOM     10  H3  UNL     1     -66.104 -42.752  52.301  1.00  0.00     0.188 HD
HETATM   11  C4  UNL     1     -65.870 -44.721  51.646  1.00  0.00     0.153 A 
HETATM   12  N4  UNL     1     -64.606 -44.956  51.551  1.00  0.00    -0.269 N 
ATOM     13  H4  UNL     1     -64.317 -45.884  51.240  1.00  0.00     0.189 HD
HETATM   14  C6  UNL     1     -66.849 -45.666  51.347  1.00  0.00     0.104 A 
ENDROOT
BRANCH  12  15
HETATM   15  N5  UNL     1     -63.619 -44.041  51.840  1.00  0.00    -0.128 N 
ATOM     16  H5  UNL     1     -63.130 -44.108  52.733  1.00  0.00     0.205 HD
BRANCH  15  17
HETATM   17  C5  UNL     1     -63.295 -43.108  51.023  1.00  0.00     0.728 A 
HETATM   18  N6  UNL     1     -62.771 -41.929  51.418  1.00  0.00    -0.114 N 
HETATM   19  N7  UNL     1     -62.549 -41.195  50.352  1.00  0.00    -0.213 N 
ATOM     20  H6  UNL     1     -62.580 -41.654  52.381  1.00  0.00     0.207 HD
HETATM   21  N8  UNL     1     -62.924 -41.891  49.299  1.00  0.00    -0.213 N 
ATOM     22  H7  UNL     1     -62.156 -40.254  50.342  1.00  0.00     0.210 HD
HETATM   23  N9  UNL     1     -63.384 -43.063  49.676  1.00  0.00    -0.114 N 
ATOM     24  H8  UNL     1     -62.867 -41.568  48.333  1.00  0.00     0.210 HD
ATOM     25  H9  UNL     1     -63.741 -43.799  49.067  1.00  0.00     0.207 HD
ENDBRANCH  15  17
ENDBRANCH  12  15
TORSDOF 2
ENDMDL
