MODEL 1
REMARK VINA RESULT: -6.148496589      0.000      0.000
REMARK  4 active torsions:
REMARK  status: ('A' for Active; 'I' for Inactive)
REMARK    1  A    between atoms: C4_4  and  N1_5 
REMARK    2  A    between atoms: N1_5  and  C5_7 
REMARK    3  A    between atoms: C5_7  and  C6_8 
REMARK    4  A    between atoms: C6_8  and  N2_9 
ROOT
HETATM    1  N1  UNL     1      -4.372   3.038  13.065  1.00  0.00    -0.415 N 
ATOM      2  H1  UNL     1      -5.049   3.461  12.430  1.00  0.00     0.153 HD
ENDROOT
BRANCH   1   3
HETATM    3  C4  UNL     1      -3.651   1.858  12.732  1.00  0.00     0.076 C 
HETATM    4  C3  UNL     1      -4.428   0.626  12.480  1.00  0.00     0.024 C 
HETATM    5  C2  UNL     1      -4.732   0.433  10.999  1.00  0.00     0.002 C 
HETATM    6  C1  UNL     1      -3.451  -0.013  10.335  1.00  0.00     0.000 C 
HETATM    7  C12 UNL     1      -2.324   0.753  10.948  1.00  0.00     0.002 C 
HETATM    8  C11 UNL     1      -2.762   2.092  11.510  1.00  0.00     0.024 C 
ENDBRANCH   1   3
BRANCH   1   9
HETATM    9  C5  UNL     1      -4.082   3.585  14.343  1.00  0.00     0.144 C 
BRANCH   9  10
HETATM   10  C6  UNL     1      -5.349   3.732  15.146  1.00  0.00     0.291 C 
BRANCH  10  11
HETATM   11  N2  UNL     1      -5.800   2.541  15.749  1.00  0.00     0.094 N 
HETATM   12  C7  UNL     1      -4.851   1.627  16.270  1.00  0.00     0.298 C 
HETATM   13  C8  UNL     1      -5.485   0.760  17.356  1.00  0.00     0.198 C 
HETATM   14  O1  UNL     1      -6.758   0.345  17.011  1.00  0.00    -0.388 OA
HETATM   15  C9  UNL     1      -7.621   1.371  16.710  1.00  0.00     0.198 C 
HETATM   16  C10 UNL     1      -6.871   2.707  16.701  1.00  0.00     0.298 C 
ENDBRANCH  10  11
ENDBRANCH   9  10
ENDBRANCH   1   9
TORSDOF 4
ENDMDL
MODEL 2
REMARK VINA RESULT: -6.116539101      0.619      1.390
REMARK  4 active torsions:
REMARK  status: ('A' for Active; 'I' for Inactive)
REMARK    1  A    between atoms: C4_4  and  N1_5 
REMARK    2  A    between atoms: N1_5  and  C5_7 
REMARK    3  A    between atoms: C5_7  and  C6_8 
REMARK    4  A    between atoms: C6_8  and  N2_9 
ROOT
HETATM    1  N1  UNL     1      -3.382   2.913  13.310  1.00  0.00    -0.415 N 
ATOM      2  H1  UNL     1      -2.448   2.748  13.686  1.00  0.00     0.153 HD
ENDROOT
BRANCH   1   3
HETATM    3  C4  UNL     1      -3.801   2.384  12.058  1.00  0.00     0.076 C 
HETATM    4  C3  UNL     1      -2.762   2.128  11.037  1.00  0.00     0.024 C 
HETATM    5  C2  UNL     1      -2.262   0.689  11.077  1.00  0.00     0.002 C 
HETATM    6  C1  UNL     1      -3.340  -0.175  10.468  1.00  0.00     0.000 C 
HETATM    7  C12 UNL     1      -4.663   0.350  10.926  1.00  0.00     0.002 C 
HETATM    8  C11 UNL     1      -4.577   1.081  12.251  1.00  0.00     0.024 C 
ENDBRANCH   1   3
BRANCH   1   9
HETATM    9  C5  UNL     1      -4.354   3.686  13.998  1.00  0.00     0.144 C 
BRANCH   9  10
HETATM   10  C6  UNL     1      -4.344   3.347  15.467  1.00  0.00     0.291 C 
BRANCH  10  11
HETATM   11  N2  UNL     1      -5.258   2.341  15.841  1.00  0.00     0.094 N 
HETATM   12  C7  UNL     1      -4.768   1.060  16.195  1.00  0.00     0.298 C 
HETATM   13  C8  UNL     1      -5.763   0.340  17.102  1.00  0.00     0.198 C 
HETATM   14  O1  UNL     1      -7.068   0.512  16.678  1.00  0.00    -0.388 OA
HETATM   15  C9  UNL     1      -7.453   1.825  16.562  1.00  0.00     0.198 C 
HETATM   16  C10 UNL     1      -6.254   2.750  16.799  1.00  0.00     0.298 C 
ENDBRANCH  10  11
ENDBRANCH   9  10
ENDBRANCH   1   9
TORSDOF 4
ENDMDL
MODEL 3
REMARK VINA RESULT: -6.055181494      2.140      5.577
REMARK  4 active torsions:
REMARK  status: ('A' for Active; 'I' for Inactive)
REMARK    1  A    between atoms: C4_4  and  N1_5 
REMARK    2  A    between atoms: N1_5  and  C5_7 
REMARK    3  A    between atoms: C5_7  and  C6_8 
REMARK    4  A    between atoms: C6_8  and  N2_9 
ROOT
HETATM    1  N1  UNL     1      -3.632   2.151  14.842  1.00  0.00    -0.415 N 
ATOM      2  H1  UNL     1      -3.074   1.404  14.429  1.00  0.00     0.153 HD
ENDROOT
BRANCH   1   3
HETATM    3  C4  UNL     1      -4.316   1.994  16.079  1.00  0.00     0.076 C 
HETATM    4  C3  UNL     1      -5.347   2.996  16.426  1.00  0.00     0.024 C 
HETATM    5  C2  UNL     1      -6.742   2.553  16.003  1.00  0.00     0.002 C 
HETATM    6  C1  UNL     1      -7.184   1.484  16.974  1.00  0.00     0.000 C 
HETATM    7  C12 UNL     1      -6.001   0.623  17.280  1.00  0.00     0.002 C 
HETATM    8  C11 UNL     1      -4.976   0.617  16.163  1.00  0.00     0.024 C 
ENDBRANCH   1   3
BRANCH   1   9
HETATM    9  C5  UNL     1      -3.780   3.421  14.224  1.00  0.00     0.144 C 
BRANCH   9  10
HETATM   10  C6  UNL     1      -4.330   3.260  12.829  1.00  0.00     0.291 C 
BRANCH  10  11
HETATM   11  N2  UNL     1      -3.935   2.074  12.178  1.00  0.00     0.094 N 
HETATM   12  C7  UNL     1      -4.927   1.218  11.639  1.00  0.00     0.298 C 
HETATM   13  C8  UNL     1      -4.342   0.366  10.514  1.00  0.00     0.198 C 
HETATM   14  O1  UNL     1      -3.083  -0.112  10.827  1.00  0.00    -0.388 OA
HETATM   15  C9  UNL     1      -2.175   0.866  11.152  1.00  0.00     0.198 C 
HETATM   16  C10 UNL     1      -2.870   2.231  11.219  1.00  0.00     0.298 C 
ENDBRANCH  10  11
ENDBRANCH   9  10
ENDBRANCH   1   9
TORSDOF 4
ENDMDL
MODEL 4
REMARK VINA RESULT: -6.028985354      2.237      5.559
REMARK  4 active torsions:
REMARK  status: ('A' for Active; 'I' for Inactive)
REMARK    1  A    between atoms: C4_4  and  N1_5 
REMARK    2  A    between atoms: N1_5  and  C5_7 
REMARK    3  A    between atoms: C5_7  and  C6_8 
REMARK    4  A    between atoms: C6_8  and  N2_9 
ROOT
HETATM    1  N1  UNL     1      -4.179   3.553  15.092  1.00  0.00    -0.415 N 
ATOM      2  H1  UNL     1      -3.867   4.132  15.871  1.00  0.00     0.153 HD
ENDROOT
BRANCH   1   3
HETATM    3  C4  UNL     1      -5.302   2.686  15.191  1.00  0.00     0.076 C 
HETATM    4  C3  UNL     1      -5.065   1.305  15.662  1.00  0.00     0.024 C 
HETATM    5  C2  UNL     1      -5.273   1.168  17.166  1.00  0.00     0.002 C 
HETATM    6  C1  UNL     1      -6.762   1.198  17.415  1.00  0.00     0.000 C 
HETATM    7  C12 UNL     1      -7.362   2.212  16.494  1.00  0.00     0.002 C 
HETATM    8  C11 UNL     1      -6.378   3.293  16.093  1.00  0.00     0.024 C 
ENDBRANCH   1   3
BRANCH   1   9
HETATM    9  C5  UNL     1      -3.524   3.555  13.832  1.00  0.00     0.144 C 
BRANCH   9  10
HETATM   10  C6  UNL     1      -4.523   3.334  12.725  1.00  0.00     0.291 C 
BRANCH  10  11
HETATM   11  N2  UNL     1      -4.129   2.381  11.764  1.00  0.00     0.094 N 
HETATM   12  C7  UNL     1      -2.769   2.316  11.371  1.00  0.00     0.298 C 
HETATM   13  C8  UNL     1      -2.435   0.927  10.832  1.00  0.00     0.198 C 
HETATM   14  O1  UNL     1      -3.436   0.434  10.015  1.00  0.00    -0.388 OA
HETATM   15  C9  UNL     1      -4.674   0.387  10.609  1.00  0.00     0.198 C 
HETATM   16  C10 UNL     1      -4.622   1.045  11.992  1.00  0.00     0.298 C 
ENDBRANCH  10  11
ENDBRANCH   9  10
ENDBRANCH   1   9
TORSDOF 4
ENDMDL
MODEL 5
REMARK VINA RESULT: -5.961146201      2.234      5.600
REMARK  4 active torsions:
REMARK  status: ('A' for Active; 'I' for Inactive)
REMARK    1  A    between atoms: C4_4  and  N1_5 
REMARK    2  A    between atoms: N1_5  and  C5_7 
REMARK    3  A    between atoms: C5_7  and  C6_8 
REMARK    4  A    between atoms: C6_8  and  N2_9 
ROOT
HETATM    1  N1  UNL     1      -5.346   3.635  14.444  1.00  0.00    -0.415 N 
ATOM      2  H1  UNL     1      -6.132   4.158  14.057  1.00  0.00     0.153 HD
ENDROOT
BRANCH   1   3
HETATM    3  C4  UNL     1      -5.352   3.127  15.772  1.00  0.00     0.076 C 
HETATM    4  C3  UNL     1      -6.601   3.256  16.553  1.00  0.00     0.024 C 
HETATM    5  C2  UNL     1      -7.472   2.011  16.450  1.00  0.00     0.002 C 
HETATM    6  C1  UNL     1      -6.828   0.943  17.302  1.00  0.00     0.000 C 
HETATM    7  C12 UNL     1      -5.348   1.045  17.124  1.00  0.00     0.002 C 
HETATM    8  C11 UNL     1      -4.958   1.649  15.790  1.00  0.00     0.024 C 
ENDBRANCH   1   3
BRANCH   1   9
HETATM    9  C5  UNL     1      -4.171   3.362  13.695  1.00  0.00     0.144 C 
BRANCH   9  10
HETATM   10  C6  UNL     1      -4.431   3.567  12.225  1.00  0.00     0.291 C 
BRANCH  10  11
HETATM   11  N2  UNL     1      -4.109   2.459  11.414  1.00  0.00     0.094 N 
HETATM   12  C7  UNL     1      -2.761   2.252  11.031  1.00  0.00     0.298 C 
HETATM   13  C8  UNL     1      -2.519   0.781  10.702  1.00  0.00     0.198 C 
HETATM   14  O1  UNL     1      -3.559   0.235   9.973  1.00  0.00    -0.388 OA
HETATM   15  C9  UNL     1      -4.789   0.354  10.572  1.00  0.00     0.198 C 
HETATM   16  C10 UNL     1      -4.679   1.206  11.841  1.00  0.00     0.298 C 
ENDBRANCH  10  11
ENDBRANCH   9  10
ENDBRANCH   1   9
TORSDOF 4
ENDMDL
