MODEL 1
REMARK VINA RESULT: -6.206866191      0.000      0.000
REMARK  5 active torsions:
REMARK  status: ('A' for Active; 'I' for Inactive)
REMARK    1  A    between atoms: C2_2  and  C3_3 
REMARK    2  A    between atoms: C3_3  and  N1_4 
REMARK    3  A    between atoms: C6_7  and  C7_8 
REMARK    4  A    between atoms: C7_8  and  O1_9 
REMARK    5  A    between atoms: C7_8  and  C8_11 
ROOT
HETATM    1  N1  UNL     1      -3.390   3.944  12.942  1.00  0.00     0.092 N 
HETATM    2  C4  UNL     1      -4.064   3.127  11.984  1.00  0.00     0.273 C 
HETATM    3  C5  UNL     1      -4.847   2.087  12.821  1.00  0.00     0.039 C 
HETATM    4  C6  UNL     1      -3.893   1.962  13.976  1.00  0.00     0.047 C 
HETATM    5  C12 UNL     1      -3.657   3.431  14.277  1.00  0.00     0.280 C 
ENDROOT
BRANCH   4   6
HETATM    6  C7  UNL     1      -4.322   1.162  15.130  1.00  0.00     0.152 C 
BRANCH   6   7
HETATM    7  O1  UNL     1      -3.320   1.358  16.135  1.00  0.00    -0.393 OA
ATOM      8  H1  UNL     1      -3.130   2.289  16.133  1.00  0.00     0.210 HD
ENDBRANCH   6   7
BRANCH   6   9
HETATM    9  C8  UNL     1      -5.597   1.512  15.790  1.00  0.00     0.150 C 
HETATM   10  C9  UNL     1      -5.254   2.136  17.153  1.00  0.00     0.036 C 
HETATM   11  C10 UNL     1      -6.591   2.083  17.873  1.00  0.00     0.029 C 
HETATM   12  C11 UNL     1      -7.343   1.044  17.063  1.00  0.00     0.168 C 
HETATM   13  O2  UNL     1      -6.400   0.473  16.196  1.00  0.00    -0.383 OA
ENDBRANCH   6   9
ENDBRANCH   4   6
BRANCH   1  14
HETATM   14  C3  UNL     1      -3.620   5.349  12.806  1.00  0.00     0.299 C 
BRANCH  14  15
HETATM   15  C2  UNL     1      -3.471   5.979  14.136  1.00  0.00    -0.007 C 
HETATM   16  C1  UNL     1      -2.688   7.033  14.308  1.00  0.00     0.008 C 
ENDBRANCH  14  15
ENDBRANCH   1  14
TORSDOF 5
ENDMDL
MODEL 2
REMARK VINA RESULT: -6.130044010      2.255      3.828
REMARK  5 active torsions:
REMARK  status: ('A' for Active; 'I' for Inactive)
REMARK    1  A    between atoms: C2_2  and  C3_3 
REMARK    2  A    between atoms: C3_3  and  N1_4 
REMARK    3  A    between atoms: C6_7  and  C7_8 
REMARK    4  A    between atoms: C7_8  and  O1_9 
REMARK    5  A    between atoms: C7_8  and  C8_11 
ROOT
HETATM    1  N1  UNL     1      -4.762   0.948  11.780  1.00  0.00     0.092 N 
HETATM    2  C4  UNL     1      -4.367   2.295  11.511  1.00  0.00     0.273 C 
HETATM    3  C5  UNL     1      -3.637   2.764  12.792  1.00  0.00     0.039 C 
HETATM    4  C6  UNL     1      -4.419   1.971  13.801  1.00  0.00     0.047 C 
HETATM    5  C12 UNL     1      -4.383   0.605  13.141  1.00  0.00     0.280 C 
ENDROOT
BRANCH   4   6
HETATM    6  C7  UNL     1      -3.951   1.990  15.193  1.00  0.00     0.152 C 
BRANCH   6   7
HETATM    7  O1  UNL     1      -2.993   3.052  15.268  1.00  0.00    -0.393 OA
ATOM      8  H1  UNL     1      -3.176   3.619  14.528  1.00  0.00     0.210 HD
ENDBRANCH   6   7
BRANCH   6   9
HETATM    9  C8  UNL     1      -4.933   2.286  16.258  1.00  0.00     0.150 C 
HETATM   10  C9  UNL     1      -5.606   0.959  16.644  1.00  0.00     0.036 C 
HETATM   11  C10 UNL     1      -6.822   1.434  17.421  1.00  0.00     0.029 C 
HETATM   12  C11 UNL     1      -6.941   2.877  16.968  1.00  0.00     0.168 C 
HETATM   13  O2  UNL     1      -6.037   3.023  15.905  1.00  0.00    -0.383 OA
ENDBRANCH   6   9
ENDBRANCH   4   6
BRANCH   1  14
HETATM   14  C3  UNL     1      -4.344  -0.009  10.803  1.00  0.00     0.299 C 
BRANCH  14  15
HETATM   15  C2  UNL     1      -3.109  -0.664  11.288  1.00  0.00    -0.007 C 
HETATM   16  C1  UNL     1      -3.000  -1.983  11.310  1.00  0.00     0.008 C 
ENDBRANCH  14  15
ENDBRANCH   1  14
TORSDOF 5
ENDMDL
MODEL 3
REMARK VINA RESULT: -6.116818165      2.280      3.869
REMARK  5 active torsions:
REMARK  status: ('A' for Active; 'I' for Inactive)
REMARK    1  A    between atoms: C2_2  and  C3_3 
REMARK    2  A    between atoms: C3_3  and  N1_4 
REMARK    3  A    between atoms: C6_7  and  C7_8 
REMARK    4  A    between atoms: C7_8  and  O1_9 
REMARK    5  A    between atoms: C7_8  and  C8_11 
ROOT
HETATM    1  N1  UNL     1      -4.374   1.196  11.408  1.00  0.00     0.092 N 
HETATM    2  C4  UNL     1      -3.751   2.466  11.211  1.00  0.00     0.273 C 
HETATM    3  C5  UNL     1      -3.346   2.940  12.628  1.00  0.00     0.039 C 
HETATM    4  C6  UNL     1      -4.470   2.315  13.405  1.00  0.00     0.047 C 
HETATM    5  C12 UNL     1      -4.431   0.909  12.833  1.00  0.00     0.280 C 
ENDROOT
BRANCH   4   6
HETATM    6  C7  UNL     1      -4.404   2.380  14.871  1.00  0.00     0.152 C 
BRANCH   6   7
HETATM    7  O1  UNL     1      -4.846   3.696  15.224  1.00  0.00    -0.393 OA
ATOM      8  H1  UNL     1      -5.568   3.573  15.829  1.00  0.00     0.210 HD
ENDBRANCH   6   7
BRANCH   6   9
HETATM    9  C8  UNL     1      -5.264   1.466  15.652  1.00  0.00     0.150 C 
HETATM   10  C9  UNL     1      -6.465   2.283  16.155  1.00  0.00     0.036 C 
HETATM   11  C10 UNL     1      -7.037   1.378  17.232  1.00  0.00     0.029 C 
HETATM   12  C11 UNL     1      -5.866   0.460  17.526  1.00  0.00     0.168 C 
HETATM   13  O2  UNL     1      -4.767   1.008  16.849  1.00  0.00    -0.383 OA
ENDBRANCH   6   9
ENDBRANCH   4   6
BRANCH   1  14
HETATM   14  C3  UNL     1      -3.832   0.130  10.624  1.00  0.00     0.299 C 
BRANCH  14  15
HETATM   15  C2  UNL     1      -3.784  -1.089  11.461  1.00  0.00    -0.007 C 
HETATM   16  C1  UNL     1      -2.827  -1.989  11.301  1.00  0.00     0.008 C 
ENDBRANCH  14  15
ENDBRANCH   1  14
TORSDOF 5
ENDMDL
MODEL 4
REMARK VINA RESULT: -6.088350050      1.610      2.713
REMARK  5 active torsions:
REMARK  status: ('A' for Active; 'I' for Inactive)
REMARK    1  A    between atoms: C2_2  and  C3_3 
REMARK    2  A    between atoms: C3_3  and  N1_4 
REMARK    3  A    between atoms: C6_7  and  C7_8 
REMARK    4  A    between atoms: C7_8  and  O1_9 
REMARK    5  A    between atoms: C7_8  and  C8_11 
ROOT
HETATM    1  N1  UNL     1      -4.199   2.667  12.060  1.00  0.00     0.092 N 
HETATM    2  C4  UNL     1      -3.735   3.762  12.851  1.00  0.00     0.273 C 
HETATM    3  C5  UNL     1      -3.452   3.158  14.247  1.00  0.00     0.039 C 
HETATM    4  C6  UNL     1      -4.518   2.099  14.257  1.00  0.00     0.047 C 
HETATM    5  C12 UNL     1      -4.277   1.477  12.893  1.00  0.00     0.280 C 
ENDROOT
BRANCH   4   6
HETATM    6  C7  UNL     1      -4.521   1.144  15.373  1.00  0.00     0.152 C 
BRANCH   6   7
HETATM    7  O1  UNL     1      -3.298   1.370  16.083  1.00  0.00    -0.393 OA
ATOM      8  H1  UNL     1      -3.515   1.289  17.005  1.00  0.00     0.210 HD
ENDBRANCH   6   7
BRANCH   6   9
HETATM    9  C8  UNL     1      -5.582   1.263  16.394  1.00  0.00     0.150 C 
HETATM   10  C9  UNL     1      -6.395   2.527  16.068  1.00  0.00     0.036 C 
HETATM   11  C10 UNL     1      -7.164   2.752  17.358  1.00  0.00     0.029 C 
HETATM   12  C11 UNL     1      -6.358   1.937  18.351  1.00  0.00     0.168 C 
HETATM   13  O2  UNL     1      -5.189   1.555  17.677  1.00  0.00    -0.383 OA
ENDBRANCH   6   9
ENDBRANCH   4   6
BRANCH   1  14
HETATM   14  C3  UNL     1      -3.494   2.468  10.832  1.00  0.00     0.299 C 
BRANCH  14  15
HETATM   15  C2  UNL     1      -2.346   1.571  11.091  1.00  0.00    -0.007 C 
HETATM   16  C1  UNL     1      -1.103   1.979  10.892  1.00  0.00     0.008 C 
ENDBRANCH  14  15
ENDBRANCH   1  14
TORSDOF 5
ENDMDL
MODEL 5
REMARK VINA RESULT: -6.068654660      1.836      2.816
REMARK  5 active torsions:
REMARK  status: ('A' for Active; 'I' for Inactive)
REMARK    1  A    between atoms: C2_2  and  C3_3 
REMARK    2  A    between atoms: C3_3  and  N1_4 
REMARK    3  A    between atoms: C6_7  and  C7_8 
REMARK    4  A    between atoms: C7_8  and  O1_9 
REMARK    5  A    between atoms: C7_8  and  C8_11 
ROOT
HETATM    1  N1  UNL     1      -3.817   1.436  11.365  1.00  0.00     0.092 N 
HETATM    2  C4  UNL     1      -3.912   2.815  11.727  1.00  0.00     0.273 C 
HETATM    3  C5  UNL     1      -3.857   2.830  13.273  1.00  0.00     0.039 C 
HETATM    4  C6  UNL     1      -4.542   1.519  13.537  1.00  0.00     0.047 C 
HETATM    5  C12 UNL     1      -3.776   0.629  12.575  1.00  0.00     0.280 C 
ENDROOT
BRANCH   4   6
HETATM    6  C7  UNL     1      -4.575   1.034  14.923  1.00  0.00     0.152 C 
BRANCH   6   7
HETATM    7  O1  UNL     1      -3.418   1.591  15.559  1.00  0.00    -0.393 OA
ATOM      8  H1  UNL     1      -3.063   0.897  16.103  1.00  0.00     0.210 HD
ENDBRANCH   6   7
BRANCH   6   9
HETATM    9  C8  UNL     1      -5.711   1.436  15.779  1.00  0.00     0.150 C 
HETATM   10  C9  UNL     1      -5.126   2.081  17.047  1.00  0.00     0.036 C 
HETATM   11  C10 UNL     1      -6.322   2.082  17.983  1.00  0.00     0.029 C 
HETATM   12  C11 UNL     1      -7.225   1.047  17.341  1.00  0.00     0.168 C 
HETATM   13  O2  UNL     1      -6.457   0.430  16.344  1.00  0.00    -0.383 OA
ENDBRANCH   6   9
ENDBRANCH   4   6
BRANCH   1  14
HETATM   14  C3  UNL     1      -2.780   1.128  10.429  1.00  0.00     0.299 C 
BRANCH  14  15
HETATM   15  C2  UNL     1      -1.474   1.366  11.082  1.00  0.00    -0.007 C 
HETATM   16  C1  UNL     1      -0.761   2.447  10.807  1.00  0.00     0.008 C 
ENDBRANCH  14  15
ENDBRANCH   1  14
TORSDOF 5
ENDMDL
