MODEL 1
REMARK VINA RESULT: -6.423470392      0.000      0.000
REMARK  5 active torsions:
REMARK  status: ('A' for Active; 'I' for Inactive)
REMARK    1  A    between atoms: C2_2  and  C3_3 
REMARK    2  A    between atoms: C3_3  and  C4_4 
REMARK    3  A    between atoms: C3_3  and  N2_12 
REMARK    4  A    between atoms: C4_4  and  O1_5 
REMARK    5  A    between atoms: C4_4  and  N1_7 
ROOT
HETATM    1  C3  UNL     1      -4.757   1.855  14.533  1.00  0.00     0.055 C 
ENDROOT
BRANCH   1   2
HETATM    2  C2  UNL     1      -4.188   1.452  13.243  1.00  0.00     0.019 C 
HETATM    3  C1  UNL     1      -4.239   0.223  12.746  1.00  0.00     0.013 C 
ENDBRANCH   1   2
BRANCH   1   4
HETATM    4  C4  UNL     1      -4.233   1.045  15.702  1.00  0.00     0.268 C 
BRANCH   4   5
HETATM    5  O1  UNL     1      -3.050   1.524  16.228  1.00  0.00    -0.373 OA
ATOM      6  H1  UNL     1      -2.321   1.501  15.618  1.00  0.00     0.212 HD
ENDBRANCH   4   5
BRANCH   4   7
HETATM    7  N1  UNL     1      -5.261   0.841  16.661  1.00  0.00    -0.162 NA
HETATM    8  C5  UNL     1      -5.381   1.851  17.653  1.00  0.00     0.126 C 
HETATM    9  C6  UNL     1      -6.880   2.016  17.840  1.00  0.00     0.045 C 
HETATM   10  C7  UNL     1      -7.416   0.849  17.080  1.00  0.00     0.195 C 
HETATM   11  O2  UNL     1      -6.464   0.658  16.088  1.00  0.00    -0.301 OA
ENDBRANCH   4   7
ENDBRANCH   1   4
BRANCH   1  12
HETATM   12  N2  UNL     1      -4.848   3.237  14.805  1.00  0.00    -0.361 N 
HETATM   13  C8  UNL     1      -6.146   3.828  14.682  1.00  0.00     0.128 C 
HETATM   14  C9  UNL     1      -5.839   5.307  14.898  1.00  0.00     0.025 C 
HETATM   15  C10 UNL     1      -4.558   5.431  14.103  1.00  0.00     0.046 C 
HETATM   16  C11 UNL     1      -3.863   4.123  14.414  1.00  0.00     0.064 C 
ENDBRANCH   1  12
TORSDOF 5
ENDMDL
MODEL 2
REMARK VINA RESULT: -6.340889702      1.901      4.346
REMARK  5 active torsions:
REMARK  status: ('A' for Active; 'I' for Inactive)
REMARK    1  A    between atoms: C2_2  and  C3_3 
REMARK    2  A    between atoms: C3_3  and  C4_4 
REMARK    3  A    between atoms: C3_3  and  N2_12 
REMARK    4  A    between atoms: C4_4  and  O1_5 
REMARK    5  A    between atoms: C4_4  and  N1_7 
ROOT
HETATM    1  C3  UNL     1      -4.607   2.194  14.900  1.00  0.00     0.055 C 
ENDROOT
BRANCH   1   2
HETATM    2  C2  UNL     1      -3.519   3.116  15.242  1.00  0.00     0.019 C 
HETATM    3  C1  UNL     1      -3.350   4.317  14.704  1.00  0.00     0.013 C 
ENDBRANCH   1   2
BRANCH   1   4
HETATM    4  C4  UNL     1      -4.138   0.949  14.174  1.00  0.00     0.268 C 
BRANCH   4   5
HETATM    5  O1  UNL     1      -4.848  -0.189  14.501  1.00  0.00    -0.373 OA
ATOM      6  H1  UNL     1      -4.970  -0.310  15.436  1.00  0.00     0.212 HD
ENDBRANCH   4   5
BRANCH   4   7
HETATM    7  N1  UNL     1      -4.040   1.199  12.778  1.00  0.00    -0.162 NA
HETATM    8  C5  UNL     1      -4.031   0.044  11.951  1.00  0.00     0.126 C 
HETATM    9  C6  UNL     1      -4.879   0.436  10.752  1.00  0.00     0.045 C 
HETATM   10  C7  UNL     1      -5.047   1.904  10.960  1.00  0.00     0.195 C 
HETATM   11  O2  UNL     1      -5.001   2.032  12.341  1.00  0.00    -0.301 OA
ENDBRANCH   4   7
ENDBRANCH   1   4
BRANCH   1  12
HETATM   12  N2  UNL     1      -5.578   1.933  15.891  1.00  0.00    -0.361 N 
HETATM   13  C8  UNL     1      -6.669   2.857  15.976  1.00  0.00     0.128 C 
HETATM   14  C9  UNL     1      -7.409   2.353  17.212  1.00  0.00     0.025 C 
HETATM   15  C10 UNL     1      -6.237   2.038  18.114  1.00  0.00     0.046 C 
HETATM   16  C11 UNL     1      -5.233   1.458  17.142  1.00  0.00     0.064 C 
ENDBRANCH   1  12
TORSDOF 5
ENDMDL
MODEL 3
REMARK VINA RESULT: -6.171053867      1.350      1.613
REMARK  5 active torsions:
REMARK  status: ('A' for Active; 'I' for Inactive)
REMARK    1  A    between atoms: C2_2  and  C3_3 
REMARK    2  A    between atoms: C3_3  and  C4_4 
REMARK    3  A    between atoms: C3_3  and  N2_12 
REMARK    4  A    between atoms: C4_4  and  O1_5 
REMARK    5  A    between atoms: C4_4  and  N1_7 
ROOT
HETATM    1  C3  UNL     1      -4.163   2.901  14.584  1.00  0.00     0.055 C 
ENDROOT
BRANCH   1   2
HETATM    2  C2  UNL     1      -4.388   2.174  13.330  1.00  0.00     0.019 C 
HETATM    3  C1  UNL     1      -4.285   0.858  13.191  1.00  0.00     0.013 C 
ENDBRANCH   1   2
BRANCH   1   4
HETATM    4  C4  UNL     1      -3.691   2.014  15.719  1.00  0.00     0.268 C 
BRANCH   4   5
HETATM    5  O1  UNL     1      -2.488   2.406  16.270  1.00  0.00    -0.373 OA
ATOM      6  H1  UNL     1      -2.026   1.708  16.720  1.00  0.00     0.212 HD
ENDBRANCH   4   5
BRANCH   4   7
HETATM    7  N1  UNL     1      -4.736   1.825  16.664  1.00  0.00    -0.162 NA
HETATM    8  C5  UNL     1      -5.974   2.439  16.336  1.00  0.00     0.126 C 
HETATM    9  C6  UNL     1      -7.020   1.423  16.762  1.00  0.00     0.045 C 
HETATM   10  C7  UNL     1      -6.202   0.442  17.534  1.00  0.00     0.195 C 
HETATM   11  O2  UNL     1      -4.958   0.524  16.924  1.00  0.00    -0.301 OA
ENDBRANCH   4   7
ENDBRANCH   1   4
BRANCH   1  12
HETATM   12  N2  UNL     1      -3.476   4.132  14.511  1.00  0.00    -0.361 N 
HETATM   13  C8  UNL     1      -4.233   5.306  14.827  1.00  0.00     0.128 C 
HETATM   14  C9  UNL     1      -3.237   6.416  14.507  1.00  0.00     0.025 C 
HETATM   15  C10 UNL     1      -2.638   5.875  13.228  1.00  0.00     0.046 C 
HETATM   16  C11 UNL     1      -2.551   4.393  13.518  1.00  0.00     0.064 C 
ENDBRANCH   1  12
TORSDOF 5
ENDMDL
MODEL 4
REMARK VINA RESULT: -6.161836778      2.265      4.792
REMARK  5 active torsions:
REMARK  status: ('A' for Active; 'I' for Inactive)
REMARK    1  A    between atoms: C2_2  and  C3_3 
REMARK    2  A    between atoms: C3_3  and  C4_4 
REMARK    3  A    between atoms: C3_3  and  N2_12 
REMARK    4  A    between atoms: C4_4  and  O1_5 
REMARK    5  A    between atoms: C4_4  and  N1_7 
ROOT
HETATM    1  C3  UNL     1      -4.835   2.866  14.514  1.00  0.00     0.055 C 
ENDROOT
BRANCH   1   2
HETATM    2  C2  UNL     1      -3.494   3.217  14.993  1.00  0.00     0.019 C 
HETATM    3  C1  UNL     1      -2.902   4.387  14.789  1.00  0.00     0.013 C 
ENDBRANCH   1   2
BRANCH   1   4
HETATM    4  C4  UNL     1      -4.874   2.492  13.046  1.00  0.00     0.268 C 
BRANCH   4   5
HETATM    5  O1  UNL     1      -5.022   3.572  12.199  1.00  0.00    -0.373 OA
ATOM      6  H1  UNL     1      -4.983   3.346  11.277  1.00  0.00     0.212 HD
ENDBRANCH   4   5
BRANCH   4   7
HETATM    7  N1  UNL     1      -3.783   1.640  12.725  1.00  0.00    -0.162 NA
HETATM    8  C5  UNL     1      -4.134   0.312  12.361  1.00  0.00     0.126 C 
HETATM    9  C6  UNL     1      -3.185  -0.026  11.223  1.00  0.00     0.045 C 
HETATM   10  C7  UNL     1      -2.224   1.114  11.274  1.00  0.00     0.195 C 
HETATM   11  O2  UNL     1      -2.998   2.156  11.763  1.00  0.00    -0.301 OA
ENDBRANCH   4   7
ENDBRANCH   1   4
BRANCH   1  12
HETATM   12  N2  UNL     1      -5.620   2.021  15.329  1.00  0.00    -0.361 N 
HETATM   13  C8  UNL     1      -6.621   2.656  16.132  1.00  0.00     0.128 C 
HETATM   14  C9  UNL     1      -7.148   1.487  16.958  1.00  0.00     0.025 C 
HETATM   15  C10 UNL     1      -5.850   0.781  17.278  1.00  0.00     0.046 C 
HETATM   16  C11 UNL     1      -5.078   0.933  15.985  1.00  0.00     0.064 C 
ENDBRANCH   1  12
TORSDOF 5
ENDMDL
MODEL 5
REMARK VINA RESULT: -6.115921076      1.657      3.858
REMARK  5 active torsions:
REMARK  status: ('A' for Active; 'I' for Inactive)
REMARK    1  A    between atoms: C2_2  and  C3_3 
REMARK    2  A    between atoms: C3_3  and  C4_4 
REMARK    3  A    between atoms: C3_3  and  N2_12 
REMARK    4  A    between atoms: C4_4  and  O1_5 
REMARK    5  A    between atoms: C4_4  and  N1_7 
ROOT
HETATM    1  C3  UNL     1      -4.854   1.864  15.548  1.00  0.00     0.055 C 
ENDROOT
BRANCH   1   2
HETATM    2  C2  UNL     1      -5.958   1.396  16.393  1.00  0.00     0.019 C 
HETATM    3  C1  UNL     1      -6.023   1.559  17.709  1.00  0.00     0.013 C 
ENDBRANCH   1   2
BRANCH   1   4
HETATM    4  C4  UNL     1      -4.275   0.783  14.657  1.00  0.00     0.268 C 
BRANCH   4   5
HETATM    5  O1  UNL     1      -4.648  -0.496  15.018  1.00  0.00    -0.373 OA
ATOM      6  H1  UNL     1      -4.263  -1.176  14.476  1.00  0.00     0.212 HD
ENDBRANCH   4   5
BRANCH   4   7
HETATM    7  N1  UNL     1      -4.501   1.097  13.290  1.00  0.00    -0.162 NA
HETATM    8  C5  UNL     1      -3.434   1.767  12.634  1.00  0.00     0.126 C 
HETATM    9  C6  UNL     1      -3.396   1.142  11.249  1.00  0.00     0.045 C 
HETATM   10  C7  UNL     1      -4.661   0.351  11.233  1.00  0.00     0.195 C 
HETATM   11  O2  UNL     1      -4.838   0.014  12.567  1.00  0.00    -0.301 OA
ENDBRANCH   4   7
ENDBRANCH   1   4
BRANCH   1  12
HETATM   12  N2  UNL     1      -5.013   3.105  14.894  1.00  0.00    -0.361 N 
HETATM   13  C8  UNL     1      -3.998   4.087  15.131  1.00  0.00     0.128 C 
HETATM   14  C9  UNL     1      -4.565   5.303  14.405  1.00  0.00     0.025 C 
HETATM   15  C10 UNL     1      -6.021   5.194  14.798  1.00  0.00     0.046 C 
HETATM   16  C11 UNL     1      -6.252   3.699  14.750  1.00  0.00     0.064 C 
ENDBRANCH   1  12
TORSDOF 5
ENDMDL
