MODEL 1
REMARK VINA RESULT: -6.344295519      0.000      0.000
REMARK  5 active torsions:
REMARK  status: ('A' for Active; 'I' for Inactive)
REMARK    1  A    between atoms: C2_2  and  C3_3 
REMARK    2  A    between atoms: C2_2  and  N2_12 
REMARK    3  A    between atoms: C3_3  and  O1_4 
REMARK    4  A    between atoms: C3_3  and  C4_6 
REMARK    5  A    between atoms: C4_6  and  N1_7 
ROOT
HETATM    1  C3  UNL     1      -4.030   2.820  14.459  1.00  0.00     0.179 C 
ENDROOT
BRANCH   1   2
HETATM    2  C2  UNL     1      -5.369   3.178  15.053  1.00  0.00     0.249 C 
HETATM    3  C1  UNL     1      -5.634   4.633  14.892  1.00  0.00     0.045 C 
BRANCH   2   4
HETATM    4  N2  UNL     1      -5.437   2.696  16.408  1.00  0.00     0.095 N 
HETATM    5  C9  UNL     1      -5.013   1.307  16.474  1.00  0.00     0.273 C 
HETATM    6  C10 UNL     1      -6.099   0.520  17.137  1.00  0.00     0.032 C 
HETATM    7  C11 UNL     1      -7.339   1.373  16.977  1.00  0.00     0.032 C 
HETATM    8  C12 UNL     1      -6.726   2.768  17.012  1.00  0.00     0.273 C 
ENDBRANCH   2   4
ENDBRANCH   1   2
BRANCH   1   9
HETATM    9  O1  UNL     1      -3.073   3.606  15.076  1.00  0.00    -0.392 OA
ATOM     10  H1  UNL     1      -2.648   3.075  15.739  1.00  0.00     0.210 HD
ENDBRANCH   1   9
BRANCH   1  11
HETATM   11  C4  UNL     1      -4.015   2.875  12.973  1.00  0.00     0.306 C 
BRANCH  11  12
HETATM   12  N1  UNL     1      -3.810   1.688  12.267  1.00  0.00     0.090 N 
HETATM   13  C5  UNL     1      -4.221   0.465  12.833  1.00  0.00     0.272 C 
HETATM   14  C6  UNL     1      -4.128  -0.465  11.608  1.00  0.00     0.032 C 
HETATM   15  C7  UNL     1      -4.918   0.377  10.608  1.00  0.00     0.032 C 
HETATM   16  C8  UNL     1      -4.471   1.767  10.976  1.00  0.00     0.272 C 
ENDBRANCH  11  12
ENDBRANCH   1  11
TORSDOF 5
ENDMDL
MODEL 2
REMARK VINA RESULT: -6.337708303      0.221      1.026
REMARK  5 active torsions:
REMARK  status: ('A' for Active; 'I' for Inactive)
REMARK    1  A    between atoms: C2_2  and  C3_3 
REMARK    2  A    between atoms: C2_2  and  N2_12 
REMARK    3  A    between atoms: C3_3  and  O1_4 
REMARK    4  A    between atoms: C3_3  and  C4_6 
REMARK    5  A    between atoms: C4_6  and  N1_7 
ROOT
HETATM    1  C3  UNL     1      -4.035   2.827  14.495  1.00  0.00     0.179 C 
ENDROOT
BRANCH   1   2
HETATM    2  C2  UNL     1      -5.376   3.177  15.090  1.00  0.00     0.249 C 
HETATM    3  C1  UNL     1      -5.645   4.632  14.939  1.00  0.00     0.045 C 
BRANCH   2   4
HETATM    4  N2  UNL     1      -5.444   2.685  16.442  1.00  0.00     0.095 N 
HETATM    5  C9  UNL     1      -5.016   1.297  16.497  1.00  0.00     0.273 C 
HETATM    6  C10 UNL     1      -6.100   0.502  17.154  1.00  0.00     0.032 C 
HETATM    7  C11 UNL     1      -7.343   1.351  16.997  1.00  0.00     0.032 C 
HETATM    8  C12 UNL     1      -6.735   2.748  17.043  1.00  0.00     0.273 C 
ENDBRANCH   2   4
ENDBRANCH   1   2
BRANCH   1   9
HETATM    9  O1  UNL     1      -3.081   3.611  15.118  1.00  0.00    -0.392 OA
ATOM     10  H1  UNL     1      -2.581   3.049  15.698  1.00  0.00     0.210 HD
ENDBRANCH   1   9
BRANCH   1  11
HETATM   11  C4  UNL     1      -4.018   2.892  13.009  1.00  0.00     0.306 C 
BRANCH  11  12
HETATM   12  N1  UNL     1      -4.622   1.857  12.292  1.00  0.00     0.090 N 
HETATM   13  C5  UNL     1      -4.438   1.781  10.898  1.00  0.00     0.272 C 
HETATM   14  C6  UNL     1      -4.956   0.357  10.616  1.00  0.00     0.032 C 
HETATM   15  C7  UNL     1      -4.158  -0.401  11.673  1.00  0.00     0.032 C 
HETATM   16  C8  UNL     1      -4.182   0.577  12.818  1.00  0.00     0.272 C 
ENDBRANCH  11  12
ENDBRANCH   1  11
TORSDOF 5
ENDMDL
MODEL 3
REMARK VINA RESULT: -5.964419777      0.729      4.872
REMARK  5 active torsions:
REMARK  status: ('A' for Active; 'I' for Inactive)
REMARK    1  A    between atoms: C2_2  and  C3_3 
REMARK    2  A    between atoms: C2_2  and  N2_12 
REMARK    3  A    between atoms: C3_3  and  O1_4 
REMARK    4  A    between atoms: C3_3  and  C4_6 
REMARK    5  A    between atoms: C4_6  and  N1_7 
ROOT
HETATM    1  C3  UNL     1      -4.099   3.387  14.100  1.00  0.00     0.179 C 
ENDROOT
BRANCH   1   2
HETATM    2  C2  UNL     1      -3.731   2.692  12.813  1.00  0.00     0.249 C 
HETATM    3  C1  UNL     1      -3.556   3.687  11.721  1.00  0.00     0.045 C 
BRANCH   2   4
HETATM    4  N2  UNL     1      -4.688   1.652  12.538  1.00  0.00     0.095 N 
HETATM    5  C9  UNL     1      -4.126   0.350  12.856  1.00  0.00     0.273 C 
HETATM    6  C10 UNL     1      -4.247  -0.518  11.644  1.00  0.00     0.032 C 
HETATM    7  C11 UNL     1      -4.405   0.455  10.495  1.00  0.00     0.032 C 
HETATM    8  C12 UNL     1      -5.144   1.592  11.190  1.00  0.00     0.273 C 
ENDBRANCH   2   4
ENDBRANCH   1   2
BRANCH   1   9
HETATM    9  O1  UNL     1      -3.040   3.238  14.977  1.00  0.00    -0.392 OA
ATOM     10  H1  UNL     1      -2.311   2.875  14.488  1.00  0.00     0.210 HD
ENDBRANCH   1   9
BRANCH   1  11
HETATM   11  C4  UNL     1      -5.418   2.961  14.640  1.00  0.00     0.306 C 
BRANCH  11  12
HETATM   12  N1  UNL     1      -5.498   2.596  15.985  1.00  0.00     0.090 N 
HETATM   13  C5  UNL     1      -6.609   3.006  16.749  1.00  0.00     0.272 C 
HETATM   14  C6  UNL     1      -6.447   2.112  17.994  1.00  0.00     0.032 C 
HETATM   15  C7  UNL     1      -6.278   0.763  17.300  1.00  0.00     0.032 C 
HETATM   16  C8  UNL     1      -5.451   1.150  16.103  1.00  0.00     0.272 C 
ENDBRANCH  11  12
ENDBRANCH   1  11
TORSDOF 5
ENDMDL
MODEL 4
REMARK VINA RESULT: -5.905676402      1.254      5.060
REMARK  5 active torsions:
REMARK  status: ('A' for Active; 'I' for Inactive)
REMARK    1  A    between atoms: C2_2  and  C3_3 
REMARK    2  A    between atoms: C2_2  and  N2_12 
REMARK    3  A    between atoms: C3_3  and  O1_4 
REMARK    4  A    between atoms: C3_3  and  C4_6 
REMARK    5  A    between atoms: C4_6  and  N1_7 
ROOT
HETATM    1  C3  UNL     1      -5.028   2.795  13.659  1.00  0.00     0.179 C 
ENDROOT
BRANCH   1   2
HETATM    2  C2  UNL     1      -4.223   2.249  12.505  1.00  0.00     0.249 C 
HETATM    3  C1  UNL     1      -4.044   3.294  11.461  1.00  0.00     0.045 C 
BRANCH   2   4
HETATM    4  N2  UNL     1      -4.820   1.024  12.042  1.00  0.00     0.095 N 
HETATM    5  C9  UNL     1      -4.153  -0.121  12.637  1.00  0.00     0.273 C 
HETATM    6  C10 UNL     1      -3.704  -1.025  11.532  1.00  0.00     0.032 C 
HETATM    7  C11 UNL     1      -3.664  -0.137  10.308  1.00  0.00     0.032 C 
HETATM    8  C12 UNL     1      -4.793   0.835  10.629  1.00  0.00     0.273 C 
ENDBRANCH   2   4
ENDBRANCH   1   2
BRANCH   1   9
HETATM    9  O1  UNL     1      -5.611   3.979  13.242  1.00  0.00    -0.392 OA
ATOM     10  H1  UNL     1      -6.421   3.760  12.798  1.00  0.00     0.210 HD
ENDBRANCH   1   9
BRANCH   1  11
HETATM   11  C4  UNL     1      -4.248   2.898  14.920  1.00  0.00     0.306 C 
BRANCH  11  12
HETATM   12  N1  UNL     1      -4.861   2.510  16.114  1.00  0.00     0.090 N 
HETATM   13  C5  UNL     1      -6.196   2.886  16.360  1.00  0.00     0.272 C 
HETATM   14  C6  UNL     1      -6.535   1.976  17.557  1.00  0.00     0.032 C 
HETATM   15  C7  UNL     1      -6.065   0.642  16.983  1.00  0.00     0.032 C 
HETATM   16  C8  UNL     1      -4.832   1.063  16.230  1.00  0.00     0.272 C 
ENDBRANCH  11  12
ENDBRANCH   1  11
TORSDOF 5
ENDMDL
MODEL 5
REMARK VINA RESULT: -5.889381390      1.324      1.517
REMARK  5 active torsions:
REMARK  status: ('A' for Active; 'I' for Inactive)
REMARK    1  A    between atoms: C2_2  and  C3_3 
REMARK    2  A    between atoms: C2_2  and  N2_12 
REMARK    3  A    between atoms: C3_3  and  O1_4 
REMARK    4  A    between atoms: C3_3  and  C4_6 
REMARK    5  A    between atoms: C4_6  and  N1_7 
ROOT
HETATM    1  C3  UNL     1      -4.159   3.062  14.431  1.00  0.00     0.179 C 
ENDROOT
BRANCH   1   2
HETATM    2  C2  UNL     1      -5.568   3.198  14.952  1.00  0.00     0.249 C 
HETATM    3  C1  UNL     1      -6.090   4.565  14.681  1.00  0.00     0.045 C 
BRANCH   2   4
HETATM    4  N2  UNL     1      -5.609   2.796  16.334  1.00  0.00     0.095 N 
HETATM    5  C9  UNL     1      -5.019   1.478  16.497  1.00  0.00     0.273 C 
HETATM    6  C10 UNL     1      -6.014   0.604  17.191  1.00  0.00     0.032 C 
HETATM    7  C11 UNL     1      -7.346   1.284  16.955  1.00  0.00     0.032 C 
HETATM    8  C12 UNL     1      -6.912   2.744  16.910  1.00  0.00     0.273 C 
ENDBRANCH   2   4
ENDBRANCH   1   2
BRANCH   1   9
HETATM    9  O1  UNL     1      -3.419   4.113  14.942  1.00  0.00    -0.392 OA
ATOM     10  H1  UNL     1      -4.025   4.805  15.177  1.00  0.00     0.210 HD
ENDBRANCH   1   9
BRANCH   1  11
HETATM   11  C4  UNL     1      -4.092   2.916  12.953  1.00  0.00     0.306 C 
BRANCH  11  12
HETATM   12  N1  UNL     1      -2.980   2.281  12.398  1.00  0.00     0.090 N 
HETATM   13  C5  UNL     1      -3.157   1.092  11.662  1.00  0.00     0.272 C 
HETATM   14  C6  UNL     1      -1.780   0.968  10.980  1.00  0.00     0.032 C 
HETATM   15  C7  UNL     1      -1.672   2.378  10.404  1.00  0.00     0.032 C 
HETATM   16  C8  UNL     1      -2.288   3.196  11.508  1.00  0.00     0.272 C 
ENDBRANCH  11  12
ENDBRANCH   1  11
TORSDOF 5
ENDMDL
