MODEL 1
REMARK VINA RESULT: -6.286704975      0.000      0.000
REMARK  5 active torsions:
REMARK  status: ('A' for Active; 'I' for Inactive)
REMARK    1  A    between atoms: O1_1  and  C1_3 
REMARK    2  A    between atoms: C1_3  and  C2_4 
REMARK    3  A    between atoms: C1_3  and  C8_10 
REMARK    4  A    between atoms: C2_4  and  C3_5 
REMARK    5  A    between atoms: C8_10  and  N1_11 
ROOT
HETATM    1  C1  UNL     1      -5.178   3.250  13.957  1.00  0.00     0.146 C 
ENDROOT
BRANCH   1   2
HETATM    2  O1  UNL     1      -5.667   4.509  13.618  1.00  0.00    -0.394 OA
ATOM      3  H1  UNL     1      -5.003   4.987  13.136  1.00  0.00     0.210 HD
ENDBRANCH   1   2
BRANCH   1   4
HETATM    4  C2  UNL     1      -4.428   3.339  15.267  1.00  0.00     0.038 C 
BRANCH   4   5
HETATM    5  C3  UNL     1      -5.086   2.575  16.390  1.00  0.00    -0.012 C 
HETATM    6  C4  UNL     1      -6.551   2.856  16.494  1.00  0.00     0.005 C 
HETATM    7  C5  UNL     1      -7.218   1.561  16.897  1.00  0.00     0.000 C 
HETATM    8  C6  UNL     1      -6.106   0.565  17.108  1.00  0.00     0.000 C 
HETATM    9  C7  UNL     1      -4.996   1.099  16.230  1.00  0.00     0.005 C 
ENDBRANCH   4   5
ENDBRANCH   1   4
BRANCH   1  10
HETATM   10  C8  UNL     1      -4.391   2.651  12.849  1.00  0.00     0.304 C 
BRANCH  10  11
HETATM   11  N1  UNL     1      -4.740   1.354  12.410  1.00  0.00     0.095 N 
HETATM   12  C9  UNL     1      -3.750   0.342  12.403  1.00  0.00     0.298 C 
HETATM   13  C10 UNL     1      -2.736   0.570  11.293  1.00  0.00     0.198 C 
HETATM   14  O2  UNL     1      -3.379   0.280  10.094  1.00  0.00    -0.388 OA
HETATM   15  C11 UNL     1      -4.748   0.378  10.142  1.00  0.00     0.198 C 
HETATM   16  C12 UNL     1      -5.257   1.469  11.045  1.00  0.00     0.298 C 
ENDBRANCH  10  11
ENDBRANCH   1  10
TORSDOF 5
ENDMDL
MODEL 2
REMARK VINA RESULT: -6.273605093      0.748      1.309
REMARK  5 active torsions:
REMARK  status: ('A' for Active; 'I' for Inactive)
REMARK    1  A    between atoms: O1_1  and  C1_3 
REMARK    2  A    between atoms: C1_3  and  C2_4 
REMARK    3  A    between atoms: C1_3  and  C8_10 
REMARK    4  A    between atoms: C2_4  and  C3_5 
REMARK    5  A    between atoms: C8_10  and  N1_11 
ROOT
HETATM    1  C1  UNL     1      -5.179   2.959  14.013  1.00  0.00     0.146 C 
ENDROOT
BRANCH   1   2
HETATM    2  O1  UNL     1      -5.328   4.150  13.307  1.00  0.00    -0.394 OA
ATOM      3  H1  UNL     1      -6.206   4.196  12.947  1.00  0.00     0.210 HD
ENDBRANCH   1   2
BRANCH   1   4
HETATM    4  C2  UNL     1      -4.556   3.249  15.360  1.00  0.00     0.038 C 
BRANCH   4   5
HETATM    5  C3  UNL     1      -5.247   2.550  16.506  1.00  0.00    -0.012 C 
HETATM    6  C4  UNL     1      -6.735   2.678  16.442  1.00  0.00     0.005 C 
HETATM    7  C5  UNL     1      -7.309   1.372  16.942  1.00  0.00     0.000 C 
HETATM    8  C6  UNL     1      -6.132   0.536  17.374  1.00  0.00     0.000 C 
HETATM    9  C7  UNL     1      -4.995   1.084  16.540  1.00  0.00     0.005 C 
ENDBRANCH   4   5
ENDBRANCH   1   4
BRANCH   1  10
HETATM   10  C8  UNL     1      -4.453   1.936  13.217  1.00  0.00     0.304 C 
BRANCH  10  11
HETATM   11  N1  UNL     1      -4.077   2.265  11.896  1.00  0.00     0.095 N 
HETATM   12  C9  UNL     1      -4.879   1.810  10.821  1.00  0.00     0.298 C 
HETATM   13  C10 UNL     1      -4.725   0.312  10.615  1.00  0.00     0.198 C 
HETATM   14  O2  UNL     1      -3.461   0.107  10.070  1.00  0.00    -0.388 OA
HETATM   15  C11 UNL     1      -2.560   1.112  10.327  1.00  0.00     0.198 C 
HETATM   16  C12 UNL     1      -2.722   1.756  11.677  1.00  0.00     0.298 C 
ENDBRANCH  10  11
ENDBRANCH   1  10
TORSDOF 5
ENDMDL
MODEL 3
REMARK VINA RESULT: -6.268722875      1.980      2.925
REMARK  5 active torsions:
REMARK  status: ('A' for Active; 'I' for Inactive)
REMARK    1  A    between atoms: O1_1  and  C1_3 
REMARK    2  A    between atoms: C1_3  and  C2_4 
REMARK    3  A    between atoms: C1_3  and  C8_10 
REMARK    4  A    between atoms: C2_4  and  C3_5 
REMARK    5  A    between atoms: C8_10  and  N1_11 
ROOT
HETATM    1  C1  UNL     1      -4.325   0.743  15.180  1.00  0.00     0.146 C 
ENDROOT
BRANCH   1   2
HETATM    2  O1  UNL     1      -5.155  -0.115  15.899  1.00  0.00    -0.394 OA
ATOM      3  H1  UNL     1      -5.238  -0.938  15.433  1.00  0.00     0.210 HD
ENDBRANCH   1   2
BRANCH   1   4
HETATM    4  C2  UNL     1      -4.274   2.087  15.870  1.00  0.00     0.038 C 
BRANCH   4   5
HETATM    5  C3  UNL     1      -4.830   3.214  15.035  1.00  0.00    -0.012 C 
HETATM    6  C4  UNL     1      -6.083   3.791  15.610  1.00  0.00     0.005 C 
HETATM    7  C5  UNL     1      -6.047   5.278  15.339  1.00  0.00     0.000 C 
HETATM    8  C6  UNL     1      -4.803   5.524  14.524  1.00  0.00     0.000 C 
HETATM    9  C7  UNL     1      -3.903   4.371  14.913  1.00  0.00     0.005 C 
ENDBRANCH   4   5
ENDBRANCH   1   4
BRANCH   1  10
HETATM   10  C8  UNL     1      -4.716   0.811  13.749  1.00  0.00     0.304 C 
BRANCH  10  11
HETATM   11  N1  UNL     1      -3.698   0.705  12.775  1.00  0.00     0.095 N 
HETATM   12  C9  UNL     1      -3.412   1.825  11.956  1.00  0.00     0.298 C 
HETATM   13  C10 UNL     1      -4.518   2.061  10.941  1.00  0.00     0.198 C 
HETATM   14  O2  UNL     1      -4.421   1.046   9.994  1.00  0.00    -0.388 OA
HETATM   15  C11 UNL     1      -3.789  -0.090  10.440  1.00  0.00     0.198 C 
HETATM   16  C12 UNL     1      -4.041  -0.408  11.889  1.00  0.00     0.298 C 
ENDBRANCH  10  11
ENDBRANCH   1  10
TORSDOF 5
ENDMDL
MODEL 4
REMARK VINA RESULT: -6.206120353      1.364      1.830
REMARK  5 active torsions:
REMARK  status: ('A' for Active; 'I' for Inactive)
REMARK    1  A    between atoms: O1_1  and  C1_3 
REMARK    2  A    between atoms: C1_3  and  C2_4 
REMARK    3  A    between atoms: C1_3  and  C8_10 
REMARK    4  A    between atoms: C2_4  and  C3_5 
REMARK    5  A    between atoms: C8_10  and  N1_11 
ROOT
HETATM    1  C1  UNL     1      -4.169   2.114  14.710  1.00  0.00     0.146 C 
ENDROOT
BRANCH   1   2
HETATM    2  O1  UNL     1      -3.052   2.485  15.456  1.00  0.00    -0.394 OA
ATOM      3  H1  UNL     1      -3.330   2.985  16.214  1.00  0.00     0.210 HD
ENDBRANCH   1   2
BRANCH   1   4
HETATM    4  C2  UNL     1      -4.894   0.991  15.416  1.00  0.00     0.038 C 
BRANCH   4   5
HETATM    5  C3  UNL     1      -6.056   1.460  16.258  1.00  0.00    -0.012 C 
HETATM    6  C4  UNL     1      -5.801   1.310  17.723  1.00  0.00     0.005 C 
HETATM    7  C5  UNL     1      -6.449   2.494  18.405  1.00  0.00     0.000 C 
HETATM    8  C6  UNL     1      -7.151   3.269  17.319  1.00  0.00     0.000 C 
HETATM    9  C7  UNL     1      -6.370   2.903  16.075  1.00  0.00     0.005 C 
ENDBRANCH   4   5
ENDBRANCH   1   4
BRANCH   1  10
HETATM   10  C8  UNL     1      -3.811   1.813  13.300  1.00  0.00     0.304 C 
BRANCH  10  11
HETATM   11  N1  UNL     1      -4.594   0.866  12.603  1.00  0.00     0.095 N 
HETATM   12  C9  UNL     1      -4.008  -0.368  12.231  1.00  0.00     0.298 C 
HETATM   13  C10 UNL     1      -3.012  -0.185  11.097  1.00  0.00     0.198 C 
HETATM   14  O2  UNL     1      -3.751   0.081   9.949  1.00  0.00    -0.388 OA
HETATM   15  C11 UNL     1      -5.003   0.595  10.183  1.00  0.00     0.198 C 
HETATM   16  C12 UNL     1      -5.082   1.505  11.379  1.00  0.00     0.298 C 
ENDBRANCH  10  11
ENDBRANCH   1  10
TORSDOF 5
ENDMDL
MODEL 5
REMARK VINA RESULT: -6.203667414      1.647      2.288
REMARK  5 active torsions:
REMARK  status: ('A' for Active; 'I' for Inactive)
REMARK    1  A    between atoms: O1_1  and  C1_3 
REMARK    2  A    between atoms: C1_3  and  C2_4 
REMARK    3  A    between atoms: C1_3  and  C8_10 
REMARK    4  A    between atoms: C2_4  and  C3_5 
REMARK    5  A    between atoms: C8_10  and  N1_11 
ROOT
HETATM    1  C1  UNL     1      -4.186   1.127  14.106  1.00  0.00     0.146 C 
ENDROOT
BRANCH   1   2
HETATM    2  O1  UNL     1      -4.696  -0.170  14.136  1.00  0.00    -0.394 OA
ATOM      3  H1  UNL     1      -5.411  -0.242  13.515  1.00  0.00     0.210 HD
ENDBRANCH   1   2
BRANCH   1   4
HETATM    4  C2  UNL     1      -4.166   1.691  15.508  1.00  0.00     0.038 C 
BRANCH   4   5
HETATM    5  C3  UNL     1      -5.541   1.859  16.109  1.00  0.00    -0.012 C 
HETATM    6  C4  UNL     1      -5.604   1.409  17.533  1.00  0.00     0.005 C 
HETATM    7  C5  UNL     1      -6.545   2.350  18.249  1.00  0.00     0.000 C 
HETATM    8  C6  UNL     1      -7.084   3.284  17.196  1.00  0.00     0.000 C 
HETATM    9  C7  UNL     1      -6.001   3.273  16.139  1.00  0.00     0.005 C 
ENDBRANCH   4   5
ENDBRANCH   1   4
BRANCH   1  10
HETATM   10  C8  UNL     1      -4.905   1.976  13.122  1.00  0.00     0.304 C 
BRANCH  10  11
HETATM   11  N1  UNL     1      -4.264   2.264  11.897  1.00  0.00     0.095 N 
HETATM   12  C9  UNL     1      -4.872   1.846  10.688  1.00  0.00     0.298 C 
HETATM   13  C10 UNL     1      -4.777   0.338  10.517  1.00  0.00     0.198 C 
HETATM   14  O2  UNL     1      -3.448   0.048  10.224  1.00  0.00    -0.388 OA
HETATM   15  C11 UNL     1      -2.550   0.998  10.648  1.00  0.00     0.198 C 
HETATM   16  C12 UNL     1      -2.927   1.668  11.942  1.00  0.00     0.298 C 
ENDBRANCH  10  11
ENDBRANCH   1  10
TORSDOF 5
ENDMDL
