MODEL 1
REMARK VINA RESULT: -6.664270923      0.000      0.000
REMARK  5 active torsions:
REMARK  status: ('A' for Active; 'I' for Inactive)
REMARK    1  A    between atoms: O1_1  and  C1_3 
REMARK    2  A    between atoms: C1_3  and  C2_4 
REMARK    3  A    between atoms: N1_8  and  C6_9 
REMARK    4  A    between atoms: C6_9  and  C7_10 
REMARK    5  A    between atoms: C7_10  and  C8_11 
ROOT
HETATM    1  C2  UNL     1      -6.031   1.870  16.335  1.00  0.00     0.037 C 
HETATM    2  C3  UNL     1      -6.774   3.075  16.788  1.00  0.00     0.010 C 
HETATM    3  C4  UNL     1      -6.531   4.282  15.904  1.00  0.00     0.031 C 
HETATM    4  C5  UNL     1      -5.876   3.745  14.646  1.00  0.00     0.272 C 
HETATM    5  N1  UNL     1      -4.513   3.355  15.053  1.00  0.00     0.088 N 
HETATM    6  C12 UNL     1      -4.630   2.140  15.850  1.00  0.00     0.279 C 
ENDROOT
BRANCH   5   7
HETATM    7  C6  UNL     1      -3.717   3.115  13.857  1.00  0.00     0.275 C 
BRANCH   7   8
HETATM    8  C7  UNL     1      -4.603   2.787  12.676  1.00  0.00     0.062 C 
BRANCH   8   9
HETATM    9  C8  UNL     1      -3.846   1.823  11.830  1.00  0.00     0.123 C 
HETATM   10  C9  UNL     1      -4.347   0.401  11.893  1.00  0.00     0.034 C 
HETATM   11  C10 UNL     1      -3.208  -0.333  11.172  1.00  0.00     0.029 C 
HETATM   12  C11 UNL     1      -2.171   0.784  11.024  1.00  0.00     0.168 C 
HETATM   13  O2  UNL     1      -2.501   1.684  12.078  1.00  0.00    -0.386 OA
ENDBRANCH   8   9
ENDBRANCH   7   8
ENDBRANCH   5   7
BRANCH   1  14
HETATM   14  C1  UNL     1      -5.983   0.872  17.474  1.00  0.00     0.170 C 
BRANCH  14  15
HETATM   15  O1  UNL     1      -5.810  -0.440  17.052  1.00  0.00    -0.400 OA
ATOM     16  H1  UNL     1      -6.606  -0.957  17.090  1.00  0.00     0.209 HD
ENDBRANCH  14  15
ENDBRANCH   1  14
TORSDOF 5
ENDMDL
MODEL 2
REMARK VINA RESULT: -6.553583197      0.806      1.088
REMARK  5 active torsions:
REMARK  status: ('A' for Active; 'I' for Inactive)
REMARK    1  A    between atoms: O1_1  and  C1_3 
REMARK    2  A    between atoms: C1_3  and  C2_4 
REMARK    3  A    between atoms: N1_8  and  C6_9 
REMARK    4  A    between atoms: C6_9  and  C7_10 
REMARK    5  A    between atoms: C7_10  and  C8_11 
ROOT
HETATM    1  C2  UNL     1      -5.998   1.974  16.333  1.00  0.00     0.037 C 
HETATM    2  C3  UNL     1      -6.794   3.177  16.689  1.00  0.00     0.010 C 
HETATM    3  C4  UNL     1      -6.482   4.370  15.807  1.00  0.00     0.031 C 
HETATM    4  C5  UNL     1      -5.703   3.817  14.629  1.00  0.00     0.272 C 
HETATM    5  N1  UNL     1      -4.381   3.453  15.171  1.00  0.00     0.088 N 
HETATM    6  C12 UNL     1      -4.561   2.252  15.979  1.00  0.00     0.279 C 
ENDROOT
BRANCH   5   7
HETATM    7  C6  UNL     1      -3.472   3.200  14.062  1.00  0.00     0.275 C 
BRANCH   7   8
HETATM    8  C7  UNL     1      -4.239   2.869  12.801  1.00  0.00     0.062 C 
BRANCH   8   9
HETATM    9  C8  UNL     1      -3.876   1.472  12.436  1.00  0.00     0.123 C 
HETATM   10  C9  UNL     1      -2.864   1.354  11.323  1.00  0.00     0.034 C 
HETATM   11  C10 UNL     1      -2.947  -0.149  11.021  1.00  0.00     0.029 C 
HETATM   12  C11 UNL     1      -4.147  -0.565  11.876  1.00  0.00     0.168 C 
HETATM   13  O2  UNL     1      -4.889   0.644  12.016  1.00  0.00    -0.386 OA
ENDBRANCH   8   9
ENDBRANCH   7   8
ENDBRANCH   5   7
BRANCH   1  14
HETATM   14  C1  UNL     1      -6.048   0.999  17.492  1.00  0.00     0.170 C 
BRANCH  14  15
HETATM   15  O1  UNL     1      -5.880  -0.326  17.108  1.00  0.00    -0.400 OA
ATOM     16  H1  UNL     1      -5.828  -0.928  17.840  1.00  0.00     0.209 HD
ENDBRANCH  14  15
ENDBRANCH   1  14
TORSDOF 5
ENDMDL
MODEL 3
REMARK VINA RESULT: -6.254236383      1.719      5.605
REMARK  5 active torsions:
REMARK  status: ('A' for Active; 'I' for Inactive)
REMARK    1  A    between atoms: O1_1  and  C1_3 
REMARK    2  A    between atoms: C1_3  and  C2_4 
REMARK    3  A    between atoms: N1_8  and  C6_9 
REMARK    4  A    between atoms: C6_9  and  C7_10 
REMARK    5  A    between atoms: C7_10  and  C8_11 
ROOT
HETATM    1  C2  UNL     1      -3.168  -0.115  11.687  1.00  0.00     0.037 C 
HETATM    2  C3  UNL     1      -2.441   0.581  10.594  1.00  0.00     0.010 C 
HETATM    3  C4  UNL     1      -2.426   2.087  10.763  1.00  0.00     0.031 C 
HETATM    4  C5  UNL     1      -2.868   2.345  12.190  1.00  0.00     0.272 C 
HETATM    5  N1  UNL     1      -4.307   2.024  12.217  1.00  0.00     0.088 N 
HETATM    6  C12 UNL     1      -4.429   0.573  12.142  1.00  0.00     0.279 C 
ENDROOT
BRANCH   5   7
HETATM    7  C6  UNL     1      -4.878   2.528  13.459  1.00  0.00     0.275 C 
BRANCH   7   8
HETATM    8  C7  UNL     1      -4.125   1.990  14.655  1.00  0.00     0.062 C 
BRANCH   8   9
HETATM    9  C8  UNL     1      -5.150   1.503  15.619  1.00  0.00     0.123 C 
HETATM   10  C9  UNL     1      -6.066   2.574  16.160  1.00  0.00     0.034 C 
HETATM   11  C10 UNL     1      -6.764   1.807  17.292  1.00  0.00     0.029 C 
HETATM   12  C11 UNL     1      -5.958   0.506  17.319  1.00  0.00     0.168 C 
HETATM   13  O2  UNL     1      -4.702   0.882  16.760  1.00  0.00    -0.386 OA
ENDBRANCH   8   9
ENDBRANCH   7   8
ENDBRANCH   5   7
BRANCH   1  14
HETATM   14  C1  UNL     1      -3.501  -1.521  11.232  1.00  0.00     0.170 C 
BRANCH  14  15
HETATM   15  O1  UNL     1      -2.452  -2.418  11.395  1.00  0.00    -0.400 OA
ATOM     16  H1  UNL     1      -2.634  -3.281  11.042  1.00  0.00     0.209 HD
ENDBRANCH  14  15
ENDBRANCH   1  14
TORSDOF 5
ENDMDL
MODEL 4
REMARK VINA RESULT: -6.244612257      1.584      5.561
REMARK  5 active torsions:
REMARK  status: ('A' for Active; 'I' for Inactive)
REMARK    1  A    between atoms: O1_1  and  C1_3 
REMARK    2  A    between atoms: C1_3  and  C2_4 
REMARK    3  A    between atoms: N1_8  and  C6_9 
REMARK    4  A    between atoms: C6_9  and  C7_10 
REMARK    5  A    between atoms: C7_10  and  C8_11 
ROOT
HETATM    1  C2  UNL     1      -3.181   0.890  11.635  1.00  0.00     0.037 C 
HETATM    2  C3  UNL     1      -2.367   1.804  10.792  1.00  0.00     0.010 C 
HETATM    3  C4  UNL     1      -2.414   3.242  11.270  1.00  0.00     0.031 C 
HETATM    4  C5  UNL     1      -3.006   3.192  12.666  1.00  0.00     0.272 C 
HETATM    5  N1  UNL     1      -4.431   2.862  12.472  1.00  0.00     0.088 N 
HETATM    6  C12 UNL     1      -4.502   1.457  12.085  1.00  0.00     0.279 C 
ENDROOT
BRANCH   5   7
HETATM    7  C6  UNL     1      -5.140   3.090  13.724  1.00  0.00     0.275 C 
BRANCH   7   8
HETATM    8  C7  UNL     1      -4.335   2.583  14.900  1.00  0.00     0.062 C 
BRANCH   8   9
HETATM    9  C8  UNL     1      -5.263   1.762  15.727  1.00  0.00     0.123 C 
HETATM   10  C9  UNL     1      -6.542   2.460  16.120  1.00  0.00     0.034 C 
HETATM   11  C10 UNL     1      -7.093   1.478  17.163  1.00  0.00     0.029 C 
HETATM   12  C11 UNL     1      -5.916   0.512  17.323  1.00  0.00     0.168 C 
HETATM   13  O2  UNL     1      -4.790   1.293  16.930  1.00  0.00    -0.386 OA
ENDBRANCH   8   9
ENDBRANCH   7   8
ENDBRANCH   5   7
BRANCH   1  14
HETATM   14  C1  UNL     1      -3.424  -0.393  10.865  1.00  0.00     0.170 C 
BRANCH  14  15
HETATM   15  O1  UNL     1      -3.580  -0.197   9.499  1.00  0.00    -0.400 OA
ATOM     16  H1  UNL     1      -3.224  -0.902   8.972  1.00  0.00     0.209 HD
ENDBRANCH  14  15
ENDBRANCH   1  14
TORSDOF 5
ENDMDL
MODEL 5
REMARK VINA RESULT: -6.180091782      1.070      1.299
REMARK  5 active torsions:
REMARK  status: ('A' for Active; 'I' for Inactive)
REMARK    1  A    between atoms: O1_1  and  C1_3 
REMARK    2  A    between atoms: C1_3  and  C2_4 
REMARK    3  A    between atoms: N1_8  and  C6_9 
REMARK    4  A    between atoms: C6_9  and  C7_10 
REMARK    5  A    between atoms: C7_10  and  C8_11 
ROOT
HETATM    1  C2  UNL     1      -6.536   1.991  16.249  1.00  0.00     0.037 C 
HETATM    2  C3  UNL     1      -6.804   3.345  16.800  1.00  0.00     0.010 C 
HETATM    3  C4  UNL     1      -6.416   4.455  15.843  1.00  0.00     0.031 C 
HETATM    4  C5  UNL     1      -6.206   3.785  14.499  1.00  0.00     0.272 C 
HETATM    5  N1  UNL     1      -4.954   3.017  14.638  1.00  0.00     0.088 N 
HETATM    6  C12 UNL     1      -5.244   1.866  15.485  1.00  0.00     0.279 C 
ENDROOT
BRANCH   5   7
HETATM    7  C6  UNL     1      -4.517   2.591  13.316  1.00  0.00     0.275 C 
BRANCH   7   8
HETATM    8  C7  UNL     1      -3.816   3.717  12.590  1.00  0.00     0.062 C 
BRANCH   8   9
HETATM    9  C8  UNL     1      -2.765   3.089  11.743  1.00  0.00     0.123 C 
HETATM   10  C9  UNL     1      -2.880   1.590  11.603  1.00  0.00     0.034 C 
HETATM   11  C10 UNL     1      -1.531   1.262  10.947  1.00  0.00     0.029 C 
HETATM   12  C11 UNL     1      -0.814   2.612  11.033  1.00  0.00     0.168 C 
HETATM   13  O2  UNL     1      -1.456   3.260  12.128  1.00  0.00    -0.386 OA
ENDBRANCH   8   9
ENDBRANCH   7   8
ENDBRANCH   5   7
BRANCH   1  14
HETATM   14  C1  UNL     1      -6.540   0.993  17.390  1.00  0.00     0.170 C 
BRANCH  14  15
HETATM   15  O1  UNL     1      -5.950  -0.221  17.065  1.00  0.00    -0.400 OA
ATOM     16  H1  UNL     1      -5.852  -0.356  16.130  1.00  0.00     0.209 HD
ENDBRANCH  14  15
ENDBRANCH   1  14
TORSDOF 5
ENDMDL
