MODEL 1
REMARK VINA RESULT: -5.804072649      0.000      0.000
REMARK  4 active torsions:
REMARK  status: ('A' for Active; 'I' for Inactive)
REMARK    1  A    between atoms: C2_2  and  C3_3 
REMARK    2  A    between atoms: C3_3  and  N1_5 
REMARK    3  A    between atoms: N2_8  and  C6_9 
REMARK    4  A    between atoms: C6_9  and  C7_10 
ROOT
HETATM    1  N1  UNL     1      -3.613   1.996  12.308  1.00  0.00    -0.353 N 
HETATM    2  C4  UNL     1      -4.245   1.137  13.185  1.00  0.00     0.094 C 
HETATM    3  C5  UNL     1      -4.165   1.657  14.610  1.00  0.00     0.317 C 
HETATM    4  N2  UNL     1      -4.745   2.958  14.769  1.00  0.00     0.098 N 
HETATM    5  C10 UNL     1      -4.921   3.657  13.540  1.00  0.00     0.317 C 
HETATM    6  C11 UNL     1      -3.766   3.358  12.591  1.00  0.00     0.094 C 
ENDROOT
BRANCH   1   7
HETATM    7  C3  UNL     1      -3.125   1.594  11.074  1.00  0.00     0.183 C 
HETATM    8  S1  UNL     1      -3.642  -0.084  10.529  1.00  0.00    -0.065 SA
BRANCH   7   9
HETATM    9  C2  UNL     1      -1.583   1.491  11.114  1.00  0.00    -0.000 C 
HETATM   10  C1  UNL     1      -0.867   2.423  10.669  1.00  0.00     0.010 C 
ENDBRANCH   7   9
ENDBRANCH   1   7
BRANCH   4  11
HETATM   11  C6  UNL     1      -5.857   2.950  15.642  1.00  0.00     0.277 C 
BRANCH  11  12
HETATM   12  C7  UNL     1      -5.929   1.700  16.498  1.00  0.00     0.014 A 
HETATM   13  C8  UNL     1      -6.341   1.996  17.961  1.00  0.00     0.007 A 
HETATM   14  C9  UNL     1      -7.214   1.197  17.045  1.00  0.00     0.007 A 
ENDBRANCH  11  12
ENDBRANCH   4  11
TORSDOF 4
ENDMDL
MODEL 2
REMARK VINA RESULT: -5.574355393      0.604      1.377
REMARK  4 active torsions:
REMARK  status: ('A' for Active; 'I' for Inactive)
REMARK    1  A    between atoms: C2_2  and  C3_3 
REMARK    2  A    between atoms: C3_3  and  N1_5 
REMARK    3  A    between atoms: N2_8  and  C6_9 
REMARK    4  A    between atoms: C6_9  and  C7_10 
ROOT
HETATM    1  N1  UNL     1      -3.774   1.792  12.202  1.00  0.00    -0.353 N 
HETATM    2  C4  UNL     1      -3.625   2.938  12.957  1.00  0.00     0.094 C 
HETATM    3  C5  UNL     1      -4.819   3.145  13.874  1.00  0.00     0.317 C 
HETATM    4  N2  UNL     1      -5.038   2.049  14.771  1.00  0.00     0.098 N 
HETATM    5  C10 UNL     1      -4.372   0.852  14.381  1.00  0.00     0.317 C 
HETATM    6  C11 UNL     1      -4.375   0.714  12.863  1.00  0.00     0.094 C 
ENDROOT
BRANCH   1   7
HETATM    7  C3  UNL     1      -3.120   1.588  10.996  1.00  0.00     0.183 C 
HETATM    8  S1  UNL     1      -3.333  -0.081  10.255  1.00  0.00    -0.065 SA
BRANCH   7   9
HETATM    9  C2  UNL     1      -1.590   1.693  11.192  1.00  0.00    -0.000 C 
HETATM   10  C1  UNL     1      -0.916   2.526  10.536  1.00  0.00     0.010 C 
ENDBRANCH   7   9
ENDBRANCH   1   7
BRANCH   4  11
HETATM   11  C6  UNL     1      -4.897   2.424  16.126  1.00  0.00     0.277 C 
BRANCH  11  12
HETATM   12  C7  UNL     1      -5.547   1.443  17.083  1.00  0.00     0.014 A 
HETATM   13  C8  UNL     1      -6.388   2.141  18.180  1.00  0.00     0.007 A 
HETATM   14  C9  UNL     1      -7.020   1.265  17.144  1.00  0.00     0.007 A 
ENDBRANCH  11  12
ENDBRANCH   4  11
TORSDOF 4
ENDMDL
MODEL 3
REMARK VINA RESULT: -5.444629852      1.512      1.611
REMARK  4 active torsions:
REMARK  status: ('A' for Active; 'I' for Inactive)
REMARK    1  A    between atoms: C2_2  and  C3_3 
REMARK    2  A    between atoms: C3_3  and  N1_5 
REMARK    3  A    between atoms: N2_8  and  C6_9 
REMARK    4  A    between atoms: C6_9  and  C7_10 
ROOT
HETATM    1  N1  UNL     1      -3.386   3.467  12.878  1.00  0.00    -0.353 N 
HETATM    2  C4  UNL     1      -3.863   2.367  13.562  1.00  0.00     0.094 C 
HETATM    3  C5  UNL     1      -4.152   2.711  15.013  1.00  0.00     0.317 C 
HETATM    4  N2  UNL     1      -5.104   3.773  15.162  1.00  0.00     0.098 N 
HETATM    5  C10 UNL     1      -5.290   4.541  13.977  1.00  0.00     0.317 C 
HETATM    6  C11 UNL     1      -3.970   4.689  13.229  1.00  0.00     0.094 C 
ENDROOT
BRANCH   1   7
HETATM    7  C3  UNL     1      -2.623   3.369  11.724  1.00  0.00     0.183 C 
HETATM    8  S1  UNL     1      -3.274   4.285  10.268  1.00  0.00    -0.065 SA
BRANCH   7   9
HETATM    9  C2  UNL     1      -2.583   1.905  11.229  1.00  0.00    -0.000 C 
HETATM   10  C1  UNL     1      -1.491   1.362  10.926  1.00  0.00     0.010 C 
ENDBRANCH   7   9
ENDBRANCH   1   7
BRANCH   4  11
HETATM   11  C6  UNL     1      -6.282   3.353  15.821  1.00  0.00     0.277 C 
BRANCH  11  12
HETATM   12  C7  UNL     1      -6.171   1.954  16.397  1.00  0.00     0.014 A 
HETATM   13  C8  UNL     1      -6.383   1.918  17.930  1.00  0.00     0.007 A 
HETATM   14  C9  UNL     1      -7.339   1.255  16.989  1.00  0.00     0.007 A 
ENDBRANCH  11  12
ENDBRANCH   4  11
TORSDOF 4
ENDMDL
MODEL 4
REMARK VINA RESULT: -5.382071166      1.621      1.989
REMARK  4 active torsions:
REMARK  status: ('A' for Active; 'I' for Inactive)
REMARK    1  A    between atoms: C2_2  and  C3_3 
REMARK    2  A    between atoms: C3_3  and  N1_5 
REMARK    3  A    between atoms: N2_8  and  C6_9 
REMARK    4  A    between atoms: C6_9  and  C7_10 
ROOT
HETATM    1  N1  UNL     1      -3.494   3.197  12.799  1.00  0.00    -0.353 N 
HETATM    2  C4  UNL     1      -3.155   3.649  14.059  1.00  0.00     0.094 C 
HETATM    3  C5  UNL     1      -4.314   3.483  15.027  1.00  0.00     0.317 C 
HETATM    4  N2  UNL     1      -4.758   2.125  15.148  1.00  0.00     0.098 N 
HETATM    5  C10 UNL     1      -4.315   1.285  14.087  1.00  0.00     0.317 C 
HETATM    6  C11 UNL     1      -4.303   2.055  12.771  1.00  0.00     0.094 C 
ENDROOT
BRANCH   1   7
HETATM    7  C3  UNL     1      -2.856   3.623  11.644  1.00  0.00     0.183 C 
HETATM    8  S1  UNL     1      -3.918   4.523  10.442  1.00  0.00    -0.065 SA
BRANCH   7   9
HETATM    9  C2  UNL     1      -2.354   2.410  10.829  1.00  0.00    -0.000 C 
HETATM   10  C1  UNL     1      -1.147   2.063  10.875  1.00  0.00     0.010 C 
ENDBRANCH   7   9
ENDBRANCH   1   7
BRANCH   4  11
HETATM   11  C6  UNL     1      -4.586   1.616  16.456  1.00  0.00     0.277 C 
BRANCH  11  12
HETATM   12  C7  UNL     1      -5.866   1.055  17.045  1.00  0.00     0.014 A 
HETATM   13  C8  UNL     1      -6.487   1.980  18.121  1.00  0.00     0.007 A 
HETATM   14  C9  UNL     1      -7.182   1.706  16.824  1.00  0.00     0.007 A 
ENDBRANCH  11  12
ENDBRANCH   4  11
TORSDOF 4
ENDMDL
MODEL 5
REMARK VINA RESULT: -5.363720023      0.977      1.615
REMARK  4 active torsions:
REMARK  status: ('A' for Active; 'I' for Inactive)
REMARK    1  A    between atoms: C2_2  and  C3_3 
REMARK    2  A    between atoms: C3_3  and  N1_5 
REMARK    3  A    between atoms: N2_8  and  C6_9 
REMARK    4  A    between atoms: C6_9  and  C7_10 
ROOT
HETATM    1  N1  UNL     1      -3.424   2.727  12.311  1.00  0.00    -0.353 N 
HETATM    2  C4  UNL     1      -3.577   3.810  13.153  1.00  0.00     0.094 C 
HETATM    3  C5  UNL     1      -4.972   3.840  13.754  1.00  0.00     0.317 C 
HETATM    4  N2  UNL     1      -5.293   2.654  14.494  1.00  0.00     0.098 N 
HETATM    5  C10 UNL     1      -4.436   1.554  14.206  1.00  0.00     0.317 C 
HETATM    6  C11 UNL     1      -4.057   1.550  12.729  1.00  0.00     0.094 C 
ENDROOT
BRANCH   1   7
HETATM    7  C3  UNL     1      -2.479   2.683  11.297  1.00  0.00     0.183 C 
HETATM    8  S1  UNL     1      -1.749   1.028  10.970  1.00  0.00    -0.065 SA
BRANCH   7   9
HETATM    9  C2  UNL     1      -1.251   3.543  11.670  1.00  0.00    -0.000 C 
HETATM   10  C1  UNL     1      -0.177   3.441  11.025  1.00  0.00     0.010 C 
ENDBRANCH   7   9
ENDBRANCH   1   7
BRANCH   4  11
HETATM   11  C6  UNL     1      -5.523   2.919  15.864  1.00  0.00     0.277 C 
BRANCH  11  12
HETATM   12  C7  UNL     1      -5.699   1.658  16.688  1.00  0.00     0.014 A 
HETATM   13  C8  UNL     1      -6.285   1.938  18.094  1.00  0.00     0.007 A 
HETATM   14  C9  UNL     1      -7.042   1.153  17.070  1.00  0.00     0.007 A 
ENDBRANCH  11  12
ENDBRANCH   4  11
TORSDOF 4
ENDMDL
