MODEL 1
REMARK VINA RESULT: -6.296113680      0.000      0.000
REMARK  3 active torsions:
REMARK  status: ('A' for Active; 'I' for Inactive)
REMARK    1  A    between atoms: C3_3  and  C4_4 
REMARK    2  A    between atoms: C4_4  and  N1_5 
REMARK    3  A    between atoms: N1_5  and  C5_7 
ROOT
HETATM    1  C5  UNL     1      -3.955   3.016  14.692  1.00  0.00     0.318 C 
HETATM    2  C6  UNL     1      -3.213   4.318  14.947  1.00  0.00     0.061 C 
HETATM    3  C7  UNL     1      -4.192   5.464  14.639  1.00  0.00    -0.008 C 
HETATM    4  C8  UNL     1      -4.259   5.548  13.125  1.00  0.00     0.035 C 
HETATM    5  C9  UNL     1      -4.576   4.128  12.659  1.00  0.00     0.275 C 
HETATM    6  N2  UNL     1      -5.002   3.274  13.757  1.00  0.00     0.111 N 
HETATM    7  C10 UNL     1      -6.090   3.897  14.486  1.00  0.00     0.275 C 
HETATM    8  C11 UNL     1      -5.583   5.177  15.113  1.00  0.00     0.035 C 
ENDROOT
BRANCH   1   9
HETATM    9  N1  UNL     1      -4.450   2.538  15.941  1.00  0.00    -0.391 N 
ATOM     10  H1  UNL     1      -4.684   3.174  16.702  1.00  0.00     0.155 HD
BRANCH   9  11
HETATM   11  C4  UNL     1      -4.599   1.128  16.073  1.00  0.00     0.147 C 
BRANCH  11  12
HETATM   12  C3  UNL     1      -5.619   0.851  17.196  1.00  0.00     0.140 C 
HETATM   13  C2  UNL     1      -6.310   2.135  17.556  1.00  0.00     0.060 C 
HETATM   14  C1  UNL     1      -7.505   1.406  17.046  1.00  0.00     0.170 C 
HETATM   15  O1  UNL     1      -6.770   0.341  16.564  1.00  0.00    -0.384 OA
ENDBRANCH  11  12
ENDBRANCH   9  11
ENDBRANCH   1   9
TORSDOF 3
ENDMDL
MODEL 2
REMARK VINA RESULT: -5.869368116      3.030      4.038
REMARK  3 active torsions:
REMARK  status: ('A' for Active; 'I' for Inactive)
REMARK    1  A    between atoms: C3_3  and  C4_4 
REMARK    2  A    between atoms: C4_4  and  N1_5 
REMARK    3  A    between atoms: N1_5  and  C5_7 
ROOT
HETATM    1  C5  UNL     1      -4.590   1.008  12.684  1.00  0.00     0.318 C 
HETATM    2  C6  UNL     1      -3.968  -0.352  12.411  1.00  0.00     0.061 C 
HETATM    3  C7  UNL     1      -2.977  -0.169  11.249  1.00  0.00    -0.008 C 
HETATM    4  C8  UNL     1      -3.829  -0.066   9.997  1.00  0.00     0.035 C 
HETATM    5  C9  UNL     1      -4.856   1.023  10.300  1.00  0.00     0.275 C 
HETATM    6  N2  UNL     1      -4.510   1.785  11.490  1.00  0.00     0.111 N 
HETATM    7  C10 UNL     1      -3.153   2.287  11.389  1.00  0.00     0.275 C 
HETATM    8  C11 UNL     1      -2.204   1.110  11.346  1.00  0.00     0.035 C 
ENDROOT
BRANCH   1   9
HETATM    9  N1  UNL     1      -3.883   1.607  13.769  1.00  0.00    -0.391 N 
ATOM     10  H1  UNL     1      -2.866   1.579  13.824  1.00  0.00     0.155 HD
BRANCH   9  11
HETATM   11  C4  UNL     1      -4.668   2.247  14.770  1.00  0.00     0.147 C 
BRANCH  11  12
HETATM   12  C3  UNL     1      -4.437   1.517  16.108  1.00  0.00     0.140 C 
HETATM   13  C2  UNL     1      -5.394   2.057  17.131  1.00  0.00     0.060 C 
HETATM   14  C1  UNL     1      -5.915   0.662  17.093  1.00  0.00     0.170 C 
HETATM   15  O1  UNL     1      -5.135   0.296  16.015  1.00  0.00    -0.384 OA
ENDBRANCH  11  12
ENDBRANCH   9  11
ENDBRANCH   1   9
TORSDOF 3
ENDMDL
MODEL 3
REMARK VINA RESULT: -5.755311011      2.658      3.657
REMARK  3 active torsions:
REMARK  status: ('A' for Active; 'I' for Inactive)
REMARK    1  A    between atoms: C3_3  and  C4_4 
REMARK    2  A    between atoms: C4_4  and  N1_5 
REMARK    3  A    between atoms: N1_5  and  C5_7 
ROOT
HETATM    1  C5  UNL     1      -4.589   1.538  13.277  1.00  0.00     0.318 C 
HETATM    2  C6  UNL     1      -4.202   0.123  12.876  1.00  0.00     0.061 C 
HETATM    3  C7  UNL     1      -3.421   0.225  11.556  1.00  0.00    -0.008 C 
HETATM    4  C8  UNL     1      -4.465   0.475  10.482  1.00  0.00     0.035 C 
HETATM    5  C9  UNL     1      -5.275   1.669  10.982  1.00  0.00     0.275 C 
HETATM    6  N2  UNL     1      -4.628   2.341  12.098  1.00  0.00     0.111 N 
HETATM    7  C10 UNL     1      -3.259   2.678  11.757  1.00  0.00     0.275 C 
HETATM    8  C11 UNL     1      -2.488   1.397  11.526  1.00  0.00     0.035 C 
ENDROOT
BRANCH   1   9
HETATM    9  N1  UNL     1      -3.629   2.008  14.221  1.00  0.00    -0.391 N 
ATOM     10  H1  UNL     1      -2.628   1.871  14.079  1.00  0.00     0.155 HD
BRANCH   9  11
HETATM   11  C4  UNL     1      -4.135   2.677  15.371  1.00  0.00     0.147 C 
BRANCH  11  12
HETATM   12  C3  UNL     1      -5.500   2.058  15.731  1.00  0.00     0.140 C 
HETATM   13  C2  UNL     1      -5.561   1.839  17.216  1.00  0.00     0.060 C 
HETATM   14  C1  UNL     1      -6.661   2.839  17.119  1.00  0.00     0.170 C 
HETATM   15  O1  UNL     1      -6.413   3.129  15.792  1.00  0.00    -0.384 OA
ENDBRANCH  11  12
ENDBRANCH   9  11
ENDBRANCH   1   9
TORSDOF 3
ENDMDL
MODEL 4
REMARK VINA RESULT: -5.642711872      2.832      4.199
REMARK  3 active torsions:
REMARK  status: ('A' for Active; 'I' for Inactive)
REMARK    1  A    between atoms: C3_3  and  C4_4 
REMARK    2  A    between atoms: C4_4  and  N1_5 
REMARK    3  A    between atoms: N1_5  and  C5_7 
ROOT
HETATM    1  C5  UNL     1      -5.138   2.488  13.742  1.00  0.00     0.318 C 
HETATM    2  C6  UNL     1      -4.887   3.871  13.161  1.00  0.00     0.061 C 
HETATM    3  C7  UNL     1      -4.328   4.743  14.297  1.00  0.00    -0.008 C 
HETATM    4  C8  UNL     1      -5.520   5.090  15.170  1.00  0.00     0.035 C 
HETATM    5  C9  UNL     1      -6.183   3.753  15.492  1.00  0.00     0.275 C 
HETATM    6  N2  UNL     1      -5.332   2.624  15.149  1.00  0.00     0.111 N 
HETATM    7  C10 UNL     1      -4.023   2.778  15.755  1.00  0.00     0.275 C 
HETATM    8  C11 UNL     1      -3.360   4.005  15.170  1.00  0.00     0.035 C 
ENDROOT
BRANCH   1   9
HETATM    9  N1  UNL     1      -4.016   1.666  13.427  1.00  0.00    -0.391 N 
ATOM     10  H1  UNL     1      -3.551   1.100  14.137  1.00  0.00     0.155 HD
BRANCH   9  11
HETATM   11  C4  UNL     1      -3.576   1.674  12.073  1.00  0.00     0.147 C 
BRANCH  11  12
HETATM   12  C3  UNL     1      -4.283   0.525  11.326  1.00  0.00     0.140 C 
HETATM   13  C2  UNL     1      -3.271  -0.216  10.499  1.00  0.00     0.060 C 
HETATM   14  C1  UNL     1      -3.627  -1.332  11.419  1.00  0.00     0.170 C 
HETATM   15  O1  UNL     1      -4.391  -0.535  12.248  1.00  0.00    -0.384 OA
ENDBRANCH  11  12
ENDBRANCH   9  11
ENDBRANCH   1   9
TORSDOF 3
ENDMDL
MODEL 5
REMARK VINA RESULT: -5.579846580      3.161      4.538
REMARK  3 active torsions:
REMARK  status: ('A' for Active; 'I' for Inactive)
REMARK    1  A    between atoms: C3_3  and  C4_4 
REMARK    2  A    between atoms: C4_4  and  N1_5 
REMARK    3  A    between atoms: N1_5  and  C5_7 
ROOT
HETATM    1  C5  UNL     1      -4.843   2.685  13.362  1.00  0.00     0.318 C 
HETATM    2  C6  UNL     1      -4.618   4.129  12.945  1.00  0.00     0.061 C 
HETATM    3  C7  UNL     1      -4.259   4.916  14.216  1.00  0.00    -0.008 C 
HETATM    4  C8  UNL     1      -5.567   5.108  14.962  1.00  0.00     0.035 C 
HETATM    5  C9  UNL     1      -6.172   3.711  15.076  1.00  0.00     0.275 C 
HETATM    6  N2  UNL     1      -5.212   2.670  14.741  1.00  0.00     0.111 N 
HETATM    7  C10 UNL     1      -3.998   2.836  15.517  1.00  0.00     0.275 C 
HETATM    8  C11 UNL     1      -3.354   4.150  15.132  1.00  0.00     0.035 C 
ENDROOT
BRANCH   1   9
HETATM    9  N1  UNL     1      -3.639   1.961  13.116  1.00  0.00    -0.391 N 
ATOM     10  H1  UNL     1      -3.280   1.277  13.782  1.00  0.00     0.155 HD
BRANCH   9  11
HETATM   11  C4  UNL     1      -2.962   2.240  11.896  1.00  0.00     0.147 C 
BRANCH  11  12
HETATM   12  C3  UNL     1      -2.462   0.908  11.302  1.00  0.00     0.140 C 
HETATM   13  C2  UNL     1      -3.490  -0.157  11.557  1.00  0.00     0.060 C 
HETATM   14  C1  UNL     1      -3.569  -0.161  10.070  1.00  0.00     0.170 C 
HETATM   15  O1  UNL     1      -2.765   0.952   9.927  1.00  0.00    -0.384 OA
ENDBRANCH  11  12
ENDBRANCH   9  11
ENDBRANCH   1   9
TORSDOF 3
ENDMDL
