MODEL 1
REMARK VINA RESULT: -5.311507484      0.000      0.000
REMARK  3 active torsions:
REMARK  status: ('A' for Active; 'I' for Inactive)
REMARK    1  A    between atoms: C4_5  and  C5_6 
REMARK    2  A    between atoms: C5_6  and  S1_7 
REMARK    3  A    between atoms: S1_7  and  C6_8 
ROOT
HETATM    1  C1  UNL     1      -6.511   2.460  18.051  1.00  0.00     0.262 C 
HETATM    2  C2  UNL     1      -5.769   1.267  17.592  1.00  0.00     0.300 C 
HETATM    3  N1  UNL     1      -5.244   1.279  16.293  1.00  0.00     0.097 N 
HETATM    4  C3  UNL     1      -3.940   1.819  16.070  1.00  0.00     0.280 C 
HETATM    5  C4  UNL     1      -4.417   2.242  14.696  1.00  0.00     0.058 C 
HETATM    6  C9  UNL     1      -5.780   2.209  15.366  1.00  0.00     0.255 C 
HETATM    7  C10 UNL     1      -6.207   3.524  15.960  1.00  0.00     0.268 C 
HETATM    8  N2  UNL     1      -7.130   3.239  17.021  1.00  0.00    -0.071 N 
ATOM      9  H21 UNL     1      -7.547   4.091  17.395  1.00  0.00     0.277 HD
ATOM     10  H22 UNL     1      -7.977   2.791  16.670  1.00  0.00     0.277 HD
ENDROOT
BRANCH   5  11
HETATM   11  C5  UNL     1      -4.294   1.132  13.694  1.00  0.00     0.082 C 
BRANCH  11  12
HETATM   12  S1  UNL     1      -4.666   1.778  12.024  1.00  0.00    -0.164 SA
BRANCH  12  13
HETATM   13  C6  UNL     1      -4.649   0.375  10.879  1.00  0.00     0.047 A 
HETATM   14  C7  UNL     1      -3.288  -0.008  10.347  1.00  0.00     0.016 A 
HETATM   15  C8  UNL     1      -4.006  -0.888  11.295  1.00  0.00     0.016 A 
ENDBRANCH  12  13
ENDBRANCH  11  12
ENDBRANCH   5  11
TORSDOF 3
ENDMDL
MODEL 2
REMARK VINA RESULT: -5.269247556      2.807      5.616
REMARK  3 active torsions:
REMARK  status: ('A' for Active; 'I' for Inactive)
REMARK    1  A    between atoms: C4_5  and  C5_6 
REMARK    2  A    between atoms: C5_6  and  S1_7 
REMARK    3  A    between atoms: S1_7  and  C6_8 
ROOT
HETATM    1  C1  UNL     1      -2.898   1.545  10.989  1.00  0.00     0.262 C 
HETATM    2  C2  UNL     1      -3.245   2.973  11.144  1.00  0.00     0.300 C 
HETATM    3  N1  UNL     1      -3.980   3.352  12.275  1.00  0.00     0.097 N 
HETATM    4  C3  UNL     1      -3.289   3.688  13.479  1.00  0.00     0.280 C 
HETATM    5  C4  UNL     1      -4.483   3.155  14.242  1.00  0.00     0.058 C 
HETATM    6  C9  UNL     1      -4.694   2.346  12.974  1.00  0.00     0.255 C 
HETATM    7  C10 UNL     1      -4.034   0.993  12.990  1.00  0.00     0.268 C 
HETATM    8  N2  UNL     1      -3.785   0.619  11.627  1.00  0.00    -0.071 N 
ATOM      9  H21 UNL     1      -3.440  -0.338  11.558  1.00  0.00     0.277 HD
ATOM     10  H22 UNL     1      -4.654   0.511  11.103  1.00  0.00     0.277 HD
ENDROOT
BRANCH   5  11
HETATM   11  C5  UNL     1      -5.560   4.190  14.393  1.00  0.00     0.082 C 
BRANCH  11  12
HETATM   12  S1  UNL     1      -6.522   3.849  15.909  1.00  0.00    -0.164 SA
BRANCH  12  13
HETATM   13  C6  UNL     1      -6.175   2.142  16.405  1.00  0.00     0.047 A 
HETATM   14  C7  UNL     1      -6.139   1.897  17.894  1.00  0.00     0.016 A 
HETATM   15  C8  UNL     1      -7.236   1.352  17.064  1.00  0.00     0.016 A 
ENDBRANCH  12  13
ENDBRANCH  11  12
ENDBRANCH   5  11
TORSDOF 3
ENDMDL
MODEL 3
REMARK VINA RESULT: -5.179327683      2.414      2.948
REMARK  3 active torsions:
REMARK  status: ('A' for Active; 'I' for Inactive)
REMARK    1  A    between atoms: C4_5  and  C5_6 
REMARK    2  A    between atoms: C5_6  and  S1_7 
REMARK    3  A    between atoms: S1_7  and  C6_8 
ROOT
HETATM    1  C1  UNL     1      -6.928   1.164  17.031  1.00  0.00     0.262 C 
HETATM    2  C2  UNL     1      -6.893   2.622  16.791  1.00  0.00     0.300 C 
HETATM    3  N1  UNL     1      -5.798   3.147  16.092  1.00  0.00     0.097 N 
HETATM    4  C3  UNL     1      -5.841   3.206  14.666  1.00  0.00     0.280 C 
HETATM    5  C4  UNL     1      -4.339   3.014  14.673  1.00  0.00     0.058 C 
HETATM    6  C9  UNL     1      -4.618   2.364  16.017  1.00  0.00     0.255 C 
HETATM    7  C10 UNL     1      -4.844   0.878  15.948  1.00  0.00     0.268 C 
HETATM    8  N2  UNL     1      -5.654   0.513  17.075  1.00  0.00    -0.071 N 
ATOM      9  H21 UNL     1      -5.753  -0.500  17.153  1.00  0.00     0.277 HD
ATOM     10  H22 UNL     1      -5.172   0.691  17.956  1.00  0.00     0.277 HD
ENDROOT
BRANCH   5  11
HETATM   11  C5  UNL     1      -3.609   4.312  14.855  1.00  0.00     0.082 C 
BRANCH  11  12
HETATM   12  S1  UNL     1      -2.555   4.626  13.394  1.00  0.00    -0.164 SA
BRANCH  12  13
HETATM   13  C6  UNL     1      -2.911   3.336  12.175  1.00  0.00     0.047 A 
HETATM   14  C7  UNL     1      -3.028   3.811  10.746  1.00  0.00     0.016 A 
HETATM   15  C8  UNL     1      -1.881   2.982  11.177  1.00  0.00     0.016 A 
ENDBRANCH  12  13
ENDBRANCH  11  12
ENDBRANCH   5  11
TORSDOF 3
ENDMDL
MODEL 4
REMARK VINA RESULT: -5.178329082      3.034      4.472
REMARK  3 active torsions:
REMARK  status: ('A' for Active; 'I' for Inactive)
REMARK    1  A    between atoms: C4_5  and  C5_6 
REMARK    2  A    between atoms: C5_6  and  S1_7 
REMARK    3  A    between atoms: S1_7  and  C6_8 
ROOT
HETATM    1  C1  UNL     1      -6.878   1.151  17.010  1.00  0.00     0.262 C 
HETATM    2  C2  UNL     1      -6.865   2.613  16.795  1.00  0.00     0.300 C 
HETATM    3  N1  UNL     1      -5.789   3.165  16.087  1.00  0.00     0.097 N 
HETATM    4  C3  UNL     1      -5.858   3.248  14.663  1.00  0.00     0.280 C 
HETATM    5  C4  UNL     1      -4.354   3.076  14.641  1.00  0.00     0.058 C 
HETATM    6  C9  UNL     1      -4.601   2.399  15.978  1.00  0.00     0.255 C 
HETATM    7  C10 UNL     1      -4.809   0.911  15.887  1.00  0.00     0.268 C 
HETATM    8  N2  UNL     1      -5.595   0.516  17.021  1.00  0.00    -0.071 N 
ATOM      9  H21 UNL     1      -5.680  -0.499  17.083  1.00  0.00     0.277 HD
ATOM     10  H22 UNL     1      -5.100   0.685  17.897  1.00  0.00     0.277 HD
ENDROOT
BRANCH   5  11
HETATM   11  C5  UNL     1      -3.637   4.380  14.833  1.00  0.00     0.082 C 
BRANCH  11  12
HETATM   12  S1  UNL     1      -2.486   4.652  13.439  1.00  0.00    -0.164 SA
BRANCH  12  13
HETATM   13  C6  UNL     1      -1.752   6.294  13.649  1.00  0.00     0.047 A 
HETATM   14  C7  UNL     1      -2.503   7.427  12.990  1.00  0.00     0.016 A 
HETATM   15  C8  UNL     1      -2.460   7.303  14.464  1.00  0.00     0.016 A 
ENDBRANCH  12  13
ENDBRANCH  11  12
ENDBRANCH   5  11
TORSDOF 3
ENDMDL
MODEL 5
REMARK VINA RESULT: -5.161025858      2.906      5.850
REMARK  3 active torsions:
REMARK  status: ('A' for Active; 'I' for Inactive)
REMARK    1  A    between atoms: C4_5  and  C5_6 
REMARK    2  A    between atoms: C5_6  and  S1_7 
REMARK    3  A    between atoms: S1_7  and  C6_8 
ROOT
HETATM    1  C1  UNL     1      -1.907   1.700  10.633  1.00  0.00     0.262 C 
HETATM    2  C2  UNL     1      -2.843   0.814  11.357  1.00  0.00     0.300 C 
HETATM    3  N1  UNL     1      -3.623   1.375  12.376  1.00  0.00     0.097 N 
HETATM    4  C3  UNL     1      -4.884   1.962  12.051  1.00  0.00     0.280 C 
HETATM    5  C4  UNL     1      -4.664   2.925  13.198  1.00  0.00     0.058 C 
HETATM    6  C9  UNL     1      -3.202   2.609  12.936  1.00  0.00     0.255 C 
HETATM    7  C10 UNL     1      -2.532   3.549  11.969  1.00  0.00     0.268 C 
HETATM    8  N2  UNL     1      -1.442   2.840  11.364  1.00  0.00    -0.071 N 
ATOM      9  H21 UNL     1      -0.874   3.454  10.779  1.00  0.00     0.277 HD
ATOM     10  H22 UNL     1      -0.735   2.581  12.052  1.00  0.00     0.277 HD
ENDROOT
BRANCH   5  11
HETATM   11  C5  UNL     1      -5.103   2.343  14.510  1.00  0.00     0.082 C 
BRANCH  11  12
HETATM   12  S1  UNL     1      -6.250   3.503  15.336  1.00  0.00    -0.164 SA
BRANCH  12  13
HETATM   13  C6  UNL     1      -6.652   2.811  16.960  1.00  0.00     0.047 A 
HETATM   14  C7  UNL     1      -7.390   1.493  16.936  1.00  0.00     0.016 A 
HETATM   15  C8  UNL     1      -5.987   1.567  17.400  1.00  0.00     0.016 A 
ENDBRANCH  12  13
ENDBRANCH  11  12
ENDBRANCH   5  11
TORSDOF 3
ENDMDL
