MODEL 1
REMARK VINA RESULT: -6.163914869      0.000      0.000
REMARK  3 active torsions:
REMARK  status: ('A' for Active; 'I' for Inactive)
REMARK    1  A    between atoms: C3_4  and  C4_5 
REMARK    2  A    between atoms: C4_5  and  C5_6 
REMARK    3  A    between atoms: C5_6  and  N1_7 
ROOT
HETATM    1  N1  UNL     1      -4.752   2.192  12.559  1.00  0.00     0.090 N 
HETATM    2  C6  UNL     1      -4.177   3.109  11.639  1.00  0.00     0.274 C 
HETATM    3  C7  UNL     1      -2.704   3.303  11.772  1.00  0.00     0.057 C 
HETATM    4  C8  UNL     1      -1.924   2.367  10.841  1.00  0.00     0.234 C 
HETATM    5  N2  UNL     1      -1.937   1.019  11.380  1.00  0.00    -0.073 N 
ATOM      6  H21 UNL     1      -1.428   0.963  12.262  1.00  0.00     0.277 HD
ATOM      7  H22 UNL     1      -1.359   0.389  10.823  1.00  0.00     0.277 HD
HETATM    8  C9  UNL     1      -3.294   0.514  11.517  1.00  0.00     0.262 C 
HETATM    9  C10 UNL     1      -3.983   0.988  12.753  1.00  0.00     0.299 C 
ENDROOT
BRANCH   1  10
HETATM   10  C5  UNL     1      -5.106   2.711  13.846  1.00  0.00     0.275 C 
BRANCH  10  11
HETATM   11  C4  UNL     1      -4.267   2.193  14.958  1.00  0.00     0.062 C 
BRANCH  11  12
HETATM   12  C3  UNL     1      -5.017   1.953  16.237  1.00  0.00     0.123 C 
HETATM   13  O1  UNL     1      -5.274   0.581  16.296  1.00  0.00    -0.386 OA
HETATM   14  C2  UNL     1      -6.114   0.498  17.408  1.00  0.00     0.168 C 
HETATM   15  C1  UNL     1      -7.192   1.507  16.990  1.00  0.00     0.029 C 
HETATM   16  C11 UNL     1      -6.369   2.566  16.276  1.00  0.00     0.034 C 
ENDBRANCH  11  12
ENDBRANCH  10  11
ENDBRANCH   1  10
TORSDOF 3
ENDMDL
MODEL 2
REMARK VINA RESULT: -6.123673162      1.017      1.118
REMARK  3 active torsions:
REMARK  status: ('A' for Active; 'I' for Inactive)
REMARK    1  A    between atoms: C3_4  and  C4_5 
REMARK    2  A    between atoms: C4_5  and  C5_6 
REMARK    3  A    between atoms: C5_6  and  N1_7 
ROOT
HETATM    1  N1  UNL     1      -4.561   1.627  12.800  1.00  0.00     0.090 N 
HETATM    2  C6  UNL     1      -3.954   2.303  11.708  1.00  0.00     0.274 C 
HETATM    3  C7  UNL     1      -2.540   1.917  11.428  1.00  0.00     0.057 C 
HETATM    4  C8  UNL     1      -2.457   0.803  10.377  1.00  0.00     0.234 C 
HETATM    5  N2  UNL     1      -2.833  -0.465  10.977  1.00  0.00    -0.073 N 
ATOM      6  H21 UNL     1      -2.163  -0.754  11.690  1.00  0.00     0.277 HD
ATOM      7  H22 UNL     1      -2.710  -1.238  10.323  1.00  0.00     0.277 HD
HETATM    8  C9  UNL     1      -4.187  -0.423  11.504  1.00  0.00     0.262 C 
HETATM    9  C10 UNL     1      -4.283   0.214  12.850  1.00  0.00     0.299 C 
ENDROOT
BRANCH   1  10
HETATM   10  C5  UNL     1      -4.329   2.176  14.103  1.00  0.00     0.275 C 
BRANCH  10  11
HETATM   11  C4  UNL     1      -4.256   1.158  15.184  1.00  0.00     0.062 C 
BRANCH  11  12
HETATM   12  C3  UNL     1      -5.159   1.433  16.352  1.00  0.00     0.123 C 
HETATM   13  O1  UNL     1      -6.232   0.544  16.245  1.00  0.00    -0.386 OA
HETATM   14  C2  UNL     1      -7.081   1.000  17.254  1.00  0.00     0.168 C 
HETATM   15  C1  UNL     1      -7.204   2.472  16.840  1.00  0.00     0.029 C 
HETATM   16  C11 UNL     1      -5.807   2.770  16.322  1.00  0.00     0.034 C 
ENDBRANCH  11  12
ENDBRANCH  10  11
ENDBRANCH   1  10
TORSDOF 3
ENDMDL
MODEL 3
REMARK VINA RESULT: -5.981852522      1.567      2.322
REMARK  3 active torsions:
REMARK  status: ('A' for Active; 'I' for Inactive)
REMARK    1  A    between atoms: C3_4  and  C4_5 
REMARK    2  A    between atoms: C4_5  and  C5_6 
REMARK    3  A    between atoms: C5_6  and  N1_7 
ROOT
HETATM    1  N1  UNL     1      -3.933   1.065  13.452  1.00  0.00     0.090 N 
HETATM    2  C6  UNL     1      -3.456   0.197  12.434  1.00  0.00     0.274 C 
HETATM    3  C7  UNL     1      -4.508  -0.377  11.545  1.00  0.00     0.057 C 
HETATM    4  C8  UNL     1      -4.711   0.474  10.286  1.00  0.00     0.234 C 
HETATM    5  N2  UNL     1      -5.452   1.676  10.622  1.00  0.00    -0.073 N 
ATOM      6  H21 UNL     1      -6.403   1.458  10.922  1.00  0.00     0.277 HD
ATOM      7  H22 UNL     1      -5.672   2.225   9.790  1.00  0.00     0.277 HD
HETATM    8  C9  UNL     1      -4.751   2.474  11.615  1.00  0.00     0.262 C 
HETATM    9  C10 UNL     1      -4.948   1.991  13.013  1.00  0.00     0.299 C 
ENDROOT
BRANCH   1  10
HETATM   10  C5  UNL     1      -4.383   0.448  14.664  1.00  0.00     0.275 C 
BRANCH  10  11
HETATM   11  C4  UNL     1      -4.065   1.222  15.891  1.00  0.00     0.062 C 
BRANCH  11  12
HETATM   12  C3  UNL     1      -5.252   1.511  16.765  1.00  0.00     0.123 C 
HETATM   13  O1  UNL     1      -6.256   0.617  16.380  1.00  0.00    -0.386 OA
HETATM   14  C2  UNL     1      -7.348   1.085  17.113  1.00  0.00     0.168 C 
HETATM   15  C1  UNL     1      -7.351   2.552  16.660  1.00  0.00     0.029 C 
HETATM   16  C11 UNL     1      -5.865   2.845  16.540  1.00  0.00     0.034 C 
ENDBRANCH  11  12
ENDBRANCH  10  11
ENDBRANCH   1  10
TORSDOF 3
ENDMDL
MODEL 4
REMARK VINA RESULT: -5.875406965      1.474      1.973
REMARK  3 active torsions:
REMARK  status: ('A' for Active; 'I' for Inactive)
REMARK    1  A    between atoms: C3_4  and  C4_5 
REMARK    2  A    between atoms: C4_5  and  C5_6 
REMARK    3  A    between atoms: C5_6  and  N1_7 
ROOT
HETATM    1  N1  UNL     1      -4.401   2.657  12.994  1.00  0.00     0.090 N 
HETATM    2  C6  UNL     1      -3.626   1.473  13.123  1.00  0.00     0.274 C 
HETATM    3  C7  UNL     1      -4.364   0.200  12.871  1.00  0.00     0.057 C 
HETATM    4  C8  UNL     1      -4.232  -0.249  11.411  1.00  0.00     0.234 C 
HETATM    5  N2  UNL     1      -5.080   0.574  10.567  1.00  0.00    -0.073 N 
ATOM      6  H21 UNL     1      -6.068   0.431  10.777  1.00  0.00     0.277 HD
ATOM      7  H22 UNL     1      -5.075   0.247   9.601  1.00  0.00     0.277 HD
HETATM    8  C9  UNL     1      -4.716   1.979  10.656  1.00  0.00     0.262 C 
HETATM    9  C10 UNL     1      -5.282   2.666  11.853  1.00  0.00     0.299 C 
ENDROOT
BRANCH   1  10
HETATM   10  C5  UNL     1      -5.153   3.060  14.145  1.00  0.00     0.275 C 
BRANCH  10  11
HETATM   11  C4  UNL     1      -4.402   2.960  15.423  1.00  0.00     0.062 C 
BRANCH  11  12
HETATM   12  C3  UNL     1      -5.190   2.373  16.559  1.00  0.00     0.123 C 
HETATM   13  O1  UNL     1      -5.141   0.985  16.403  1.00  0.00    -0.386 OA
HETATM   14  C2  UNL     1      -6.038   0.558  17.384  1.00  0.00     0.168 C 
HETATM   15  C1  UNL     1      -7.271   1.376  16.977  1.00  0.00     0.029 C 
HETATM   16  C11 UNL     1      -6.643   2.680  16.515  1.00  0.00     0.034 C 
ENDBRANCH  11  12
ENDBRANCH  10  11
ENDBRANCH   1  10
TORSDOF 3
ENDMDL
MODEL 5
REMARK VINA RESULT: -5.818317468      1.746      2.224
REMARK  3 active torsions:
REMARK  status: ('A' for Active; 'I' for Inactive)
REMARK    1  A    between atoms: C3_4  and  C4_5 
REMARK    2  A    between atoms: C4_5  and  C5_6 
REMARK    3  A    between atoms: C5_6  and  N1_7 
ROOT
HETATM    1  N1  UNL     1      -4.351   3.528  12.735  1.00  0.00     0.090 N 
HETATM    2  C6  UNL     1      -4.206   4.777  13.396  1.00  0.00     0.274 C 
HETATM    3  C7  UNL     1      -3.155   4.818  14.455  1.00  0.00     0.057 C 
HETATM    4  C8  UNL     1      -1.814   5.313  13.900  1.00  0.00     0.234 C 
HETATM    5  N2  UNL     1      -1.188   4.260  13.121  1.00  0.00    -0.073 N 
ATOM      6  H21 UNL     1      -0.930   3.465  13.705  1.00  0.00     0.277 HD
ATOM      7  H22 UNL     1      -0.257   4.532  12.805  1.00  0.00     0.277 HD
HETATM    8  C9  UNL     1      -2.028   3.851  12.007  1.00  0.00     0.262 C 
HETATM    9  C10 UNL     1      -3.103   2.891  12.395  1.00  0.00     0.299 C 
ENDROOT
BRANCH   1  10
HETATM   10  C5  UNL     1      -5.192   2.559  13.371  1.00  0.00     0.275 C 
BRANCH  10  11
HETATM   11  C4  UNL     1      -4.464   1.623  14.267  1.00  0.00     0.062 C 
BRANCH  11  12
HETATM   12  C3  UNL     1      -4.921   1.655  15.698  1.00  0.00     0.123 C 
HETATM   13  O1  UNL     1      -5.421   0.383  15.985  1.00  0.00    -0.386 OA
HETATM   14  C2  UNL     1      -5.974   0.575  17.252  1.00  0.00     0.168 C 
HETATM   15  C1  UNL     1      -6.900   1.761  16.951  1.00  0.00     0.029 C 
HETATM   16  C11 UNL     1      -6.079   2.552  15.947  1.00  0.00     0.034 C 
ENDBRANCH  11  12
ENDBRANCH  10  11
ENDBRANCH   1  10
TORSDOF 3
ENDMDL
