MODEL 1
REMARK VINA RESULT: -7.172616133      0.000      0.000
REMARK  6 active torsions:
REMARK  status: ('A' for Active; 'I' for Inactive)
REMARK    1  A    between atoms: C1_2  and  C2_3 
REMARK       I    between atoms: C1_2  and  N2_12 
REMARK    2  A    between atoms: C2_3  and  C3_4 
REMARK    3  A    between atoms: C3_4  and  C4_5 
REMARK    4  A    between atoms: C4_5  and  N1_6 
REMARK    5  A    between atoms: C13_16  and  C14_17 
REMARK    6  A    between atoms: C15_21  and  C16_22 
ROOT
HETATM    1  O1  UNL     1      71.548  40.175   2.414  1.00  0.00    -0.273 OA
HETATM    2  C1  UNL     1      72.396  39.375   1.915  1.00  0.00     0.220 C 
HETATM    3  N2  UNL     1      72.977  39.730   0.654  1.00  0.00    -0.340 N 
HETATM    4  C10 UNL     1      73.948  38.909  -0.016  1.00  0.00     0.127 C 
HETATM    5  C11 UNL     1      73.765  39.249  -1.467  1.00  0.00     0.022 C 
HETATM    6  C12 UNL     1      73.567  40.767  -1.373  1.00  0.00     0.035 C 
HETATM    7  C13 UNL     1      72.704  40.902  -0.110  1.00  0.00     0.156 C 
ENDROOT
BRANCH   7   8
HETATM    8  C14 UNL     1      71.264  40.935  -0.554  1.00  0.00     0.127 A 
HETATM    9  N3  UNL     1      70.581  42.000  -0.987  1.00  0.00    -0.245 N 
HETATM   10  O2  UNL     1      69.351  41.621  -1.284  1.00  0.00    -0.222 OA
ATOM     11  H3  UNL     1      70.948  42.948  -1.074  1.00  0.00     0.196 HD
HETATM   12  C15 UNL     1      69.210  40.345  -1.058  1.00  0.00     0.152 A 
HETATM   13  N4  UNL     1      70.396  39.912  -0.604  1.00  0.00    -0.325 N 
ATOM     14  H4  UNL     1      70.607  38.949  -0.337  1.00  0.00     0.169 HD
BRANCH  12  15
HETATM   15  C16 UNL     1      67.958  39.584  -1.282  1.00  0.00     0.063 C 
HETATM   16  C17 UNL     1      68.172  38.107  -0.928  1.00  0.00     0.013 C 
HETATM   17  C18 UNL     1      66.965  37.361  -1.387  1.00  0.00     0.001 C 
HETATM   18  C19 UNL     1      65.668  37.871  -0.854  1.00  0.00     0.000 C 
HETATM   19  C20 UNL     1      65.555  39.373  -0.868  1.00  0.00     0.001 C 
HETATM   20  C21 UNL     1      66.818  40.062  -0.415  1.00  0.00     0.013 C 
ENDBRANCH  12  15
ENDBRANCH   7   8
BRANCH   2  21
HETATM   21  C2  UNL     1      72.748  38.138   2.626  1.00  0.00     0.104 C 
BRANCH  21  22
HETATM   22  C3  UNL     1      71.627  37.130   2.427  1.00  0.00     0.028 C 
BRANCH  22  23
HETATM   23  C4  UNL     1      72.085  35.782   2.893  1.00  0.00     0.117 C 
BRANCH  23  24
HETATM   24  N1  UNL     1      72.171  34.874   1.811  1.00  0.00    -0.412 N 
HETATM   25  C5  UNL     1      72.480  35.505   0.545  1.00  0.00     0.117 C 
HETATM   26  C6  UNL     1      73.908  35.279   0.124  1.00  0.00     0.019 C 
HETATM   27  C7  UNL     1      74.842  34.985   1.273  1.00  0.00     0.003 C 
HETATM   28  C8  UNL     1      74.361  33.817   2.105  1.00  0.00     0.019 C 
HETATM   29  C9  UNL     1      72.862  33.653   2.015  1.00  0.00     0.117 C 
ENDBRANCH  23  24
ENDBRANCH  22  23
ENDBRANCH  21  22
ENDBRANCH   2  21
TORSDOF 6
ENDMDL
MODEL 2
REMARK VINA RESULT: -6.990064491      2.490      4.953
REMARK  6 active torsions:
REMARK  status: ('A' for Active; 'I' for Inactive)
REMARK    1  A    between atoms: C1_2  and  C2_3 
REMARK       I    between atoms: C1_2  and  N2_12 
REMARK    2  A    between atoms: C2_3  and  C3_4 
REMARK    3  A    between atoms: C3_4  and  C4_5 
REMARK    4  A    between atoms: C4_5  and  N1_6 
REMARK    5  A    between atoms: C13_16  and  C14_17 
REMARK    6  A    between atoms: C15_21  and  C16_22 
ROOT
HETATM    1  O1  UNL     1      75.323  36.316  -0.314  1.00  0.00    -0.273 OA
HETATM    2  C1  UNL     1      75.221  36.388   0.948  1.00  0.00     0.220 C 
HETATM    3  N2  UNL     1      74.017  35.890   1.543  1.00  0.00    -0.340 N 
HETATM    4  C10 UNL     1      73.780  35.914   2.961  1.00  0.00     0.127 C 
HETATM    5  C11 UNL     1      72.284  35.964   3.073  1.00  0.00     0.022 C 
HETATM    6  C12 UNL     1      71.890  34.979   1.966  1.00  0.00     0.035 C 
HETATM    7  C13 UNL     1      72.906  35.311   0.864  1.00  0.00     0.156 C 
ENDROOT
BRANCH   7   8
HETATM    8  C14 UNL     1      72.257  36.310  -0.059  1.00  0.00     0.127 A 
HETATM    9  N3  UNL     1      72.595  36.572  -1.326  1.00  0.00    -0.245 N 
HETATM   10  O2  UNL     1      71.786  37.505  -1.795  1.00  0.00    -0.222 OA
ATOM     11  H3  UNL     1      73.352  36.127  -1.844  1.00  0.00     0.196 HD
HETATM   12  C15 UNL     1      70.933  37.860  -0.876  1.00  0.00     0.152 A 
HETATM   13  N4  UNL     1      71.219  37.120   0.207  1.00  0.00    -0.325 N 
ATOM     14  H4  UNL     1      70.724  37.166   1.098  1.00  0.00     0.169 HD
BRANCH  12  15
HETATM   15  C16 UNL     1      69.877  38.884  -1.057  1.00  0.00     0.063 C 
HETATM   16  C17 UNL     1      68.495  38.259  -0.831  1.00  0.00     0.013 C 
HETATM   17  C18 UNL     1      67.478  39.268  -1.248  1.00  0.00     0.001 C 
HETATM   18  C19 UNL     1      67.596  40.596  -0.578  1.00  0.00     0.000 C 
HETATM   19  C20 UNL     1      69.012  41.098  -0.472  1.00  0.00     0.001 C 
HETATM   20  C21 UNL     1      69.989  40.022  -0.070  1.00  0.00     0.013 C 
ENDBRANCH  12  15
ENDBRANCH   7   8
BRANCH   2  21
HETATM   21  C2  UNL     1      76.314  36.968   1.742  1.00  0.00     0.104 C 
BRANCH  21  22
HETATM   22  C3  UNL     1      76.908  38.134   0.969  1.00  0.00     0.028 C 
BRANCH  22  23
HETATM   23  C4  UNL     1      76.741  39.392   1.764  1.00  0.00     0.117 C 
BRANCH  23  24
HETATM   24  N1  UNL     1      76.112  40.400   0.994  1.00  0.00    -0.412 N 
HETATM   25  C5  UNL     1      75.493  39.903  -0.218  1.00  0.00     0.117 C 
HETATM   26  C6  UNL     1      73.994  39.830  -0.108  1.00  0.00     0.019 C 
HETATM   27  C7  UNL     1      73.493  39.713   1.312  1.00  0.00     0.003 C 
HETATM   28  C8  UNL     1      74.017  40.829   2.187  1.00  0.00     0.019 C 
HETATM   29  C9  UNL     1      75.329  41.369   1.670  1.00  0.00     0.117 C 
ENDBRANCH  23  24
ENDBRANCH  22  23
ENDBRANCH  21  22
ENDBRANCH   2  21
TORSDOF 6
ENDMDL
MODEL 3
REMARK VINA RESULT: -6.975029424      2.420      4.953
REMARK  6 active torsions:
REMARK  status: ('A' for Active; 'I' for Inactive)
REMARK    1  A    between atoms: C1_2  and  C2_3 
REMARK       I    between atoms: C1_2  and  N2_12 
REMARK    2  A    between atoms: C2_3  and  C3_4 
REMARK    3  A    between atoms: C3_4  and  C4_5 
REMARK    4  A    between atoms: C4_5  and  N1_6 
REMARK    5  A    between atoms: C13_16  and  C14_17 
REMARK    6  A    between atoms: C15_21  and  C16_22 
ROOT
HETATM    1  O1  UNL     1      74.930  36.553  -0.874  1.00  0.00    -0.273 OA
HETATM    2  C1  UNL     1      75.103  36.545   0.382  1.00  0.00     0.220 C 
HETATM    3  N2  UNL     1      74.051  36.005   1.191  1.00  0.00    -0.340 N 
HETATM    4  C10 UNL     1      74.125  35.940   2.625  1.00  0.00     0.127 C 
HETATM    5  C11 UNL     1      72.689  35.976   3.061  1.00  0.00     0.022 C 
HETATM    6  C12 UNL     1      72.056  35.061   2.005  1.00  0.00     0.035 C 
HETATM    7  C13 UNL     1      72.814  35.465   0.732  1.00  0.00     0.156 C 
ENDROOT
BRANCH   7   8
HETATM    8  C14 UNL     1      71.990  36.517   0.036  1.00  0.00     0.127 A 
HETATM    9  N3  UNL     1      72.103  36.914  -1.237  1.00  0.00    -0.245 N 
HETATM   10  O2  UNL     1      71.200  37.849  -1.469  1.00  0.00    -0.222 OA
ATOM     11  H3  UNL     1      72.775  36.555  -1.915  1.00  0.00     0.196 HD
HETATM   12  C15 UNL     1      70.504  38.076  -0.391  1.00  0.00     0.152 A 
HETATM   13  N4  UNL     1      70.989  37.250   0.549  1.00  0.00    -0.325 N 
ATOM     14  H4  UNL     1      70.650  37.189   1.509  1.00  0.00     0.169 HD
BRANCH  12  15
HETATM   15  C16 UNL     1      69.403  39.064  -0.291  1.00  0.00     0.063 C 
HETATM   16  C17 UNL     1      69.922  40.464  -0.639  1.00  0.00     0.013 C 
HETATM   17  C18 UNL     1      68.841  41.435  -0.299  1.00  0.00     0.001 C 
HETATM   18  C19 UNL     1      67.524  41.161  -0.944  1.00  0.00     0.000 C 
HETATM   19  C20 UNL     1      67.128  39.708  -0.925  1.00  0.00     0.001 C 
HETATM   20  C21 UNL     1      68.274  38.783  -1.253  1.00  0.00     0.013 C 
ENDBRANCH  12  15
ENDBRANCH   7   8
BRANCH   2  21
HETATM   21  C2  UNL     1      76.346  37.080   0.956  1.00  0.00     0.104 C 
BRANCH  21  22
HETATM   22  C3  UNL     1      76.754  38.313   0.166  1.00  0.00     0.028 C 
BRANCH  22  23
HETATM   23  C4  UNL     1      76.750  39.505   1.072  1.00  0.00     0.117 C 
BRANCH  23  24
HETATM   24  N1  UNL     1      75.979  40.557   0.523  1.00  0.00    -0.412 N 
HETATM   25  C5  UNL     1      75.123  40.142  -0.569  1.00  0.00     0.117 C 
HETATM   26  C6  UNL     1      73.678  40.041  -0.160  1.00  0.00     0.019 C 
HETATM   27  C7  UNL     1      73.479  39.815   1.319  1.00  0.00     0.003 C 
HETATM   28  C8  UNL     1      74.173  40.871   2.149  1.00  0.00     0.019 C 
HETATM   29  C9  UNL     1      75.352  41.465   1.415  1.00  0.00     0.117 C 
ENDBRANCH  23  24
ENDBRANCH  22  23
ENDBRANCH  21  22
ENDBRANCH   2  21
TORSDOF 6
ENDMDL
MODEL 4
REMARK VINA RESULT: -6.940134116      1.453      2.086
REMARK  6 active torsions:
REMARK  status: ('A' for Active; 'I' for Inactive)
REMARK    1  A    between atoms: C1_2  and  C2_3 
REMARK       I    between atoms: C1_2  and  N2_12 
REMARK    2  A    between atoms: C2_3  and  C3_4 
REMARK    3  A    between atoms: C3_4  and  C4_5 
REMARK    4  A    between atoms: C4_5  and  N1_6 
REMARK    5  A    between atoms: C13_16  and  C14_17 
REMARK    6  A    between atoms: C15_21  and  C16_22 
ROOT
HETATM    1  O1  UNL     1      72.088  39.675   2.282  1.00  0.00    -0.273 OA
HETATM    2  C1  UNL     1      73.200  39.125   2.023  1.00  0.00     0.220 C 
HETATM    3  N2  UNL     1      73.652  39.154   0.663  1.00  0.00    -0.340 N 
HETATM    4  C10 UNL     1      74.894  38.567   0.241  1.00  0.00     0.127 C 
HETATM    5  C11 UNL     1      74.657  38.224  -1.201  1.00  0.00     0.022 C 
HETATM    6  C12 UNL     1      73.881  39.466  -1.657  1.00  0.00     0.035 C 
HETATM    7  C13 UNL     1      72.979  39.745  -0.446  1.00  0.00     0.156 C 
ENDROOT
BRANCH   7   8
HETATM    8  C14 UNL     1      71.660  39.063  -0.703  1.00  0.00     0.127 A 
HETATM    9  N3  UNL     1      71.458  37.945  -1.410  1.00  0.00    -0.245 N 
HETATM   10  O2  UNL     1      70.166  37.667  -1.400  1.00  0.00    -0.222 OA
ATOM     11  H3  UNL     1      72.180  37.398  -1.879  1.00  0.00     0.196 HD
HETATM   12  C15 UNL     1      69.521  38.566  -0.712  1.00  0.00     0.152 A 
HETATM   13  N4  UNL     1      70.444  39.437  -0.275  1.00  0.00    -0.325 N 
ATOM     14  H4  UNL     1      70.251  40.261   0.296  1.00  0.00     0.169 HD
BRANCH  12  15
HETATM   15  C16 UNL     1      68.055  38.567  -0.492  1.00  0.00     0.063 C 
HETATM   16  C17 UNL     1      67.452  39.888  -0.983  1.00  0.00     0.013 C 
HETATM   17  C18 UNL     1      66.031  39.923  -0.529  1.00  0.00     0.001 C 
HETATM   18  C19 UNL     1      65.207  38.752  -0.949  1.00  0.00     0.000 C 
HETATM   19  C20 UNL     1      65.910  37.429  -0.800  1.00  0.00     0.001 C 
HETATM   20  C21 UNL     1      67.347  37.473  -1.254  1.00  0.00     0.013 C 
ENDBRANCH  12  15
ENDBRANCH   7   8
BRANCH   2  21
HETATM   21  C2  UNL     1      73.974  38.488   3.098  1.00  0.00     0.104 C 
BRANCH  21  22
HETATM   22  C3  UNL     1      73.195  37.286   3.608  1.00  0.00     0.028 C 
BRANCH  22  23
HETATM   23  C4  UNL     1      73.969  36.037   3.322  1.00  0.00     0.117 C 
BRANCH  23  24
HETATM   24  N1  UNL     1      73.897  35.698   1.950  1.00  0.00    -0.412 N 
HETATM   25  C5  UNL     1      74.945  34.796   1.518  1.00  0.00     0.117 C 
HETATM   26  C6  UNL     1      74.446  33.390   1.320  1.00  0.00     0.019 C 
HETATM   27  C7  UNL     1      73.206  33.066   2.118  1.00  0.00     0.003 C 
HETATM   28  C8  UNL     1      72.089  34.049   1.846  1.00  0.00     0.019 C 
HETATM   29  C9  UNL     1      72.627  35.389   1.401  1.00  0.00     0.117 C 
ENDBRANCH  23  24
ENDBRANCH  22  23
ENDBRANCH  21  22
ENDBRANCH   2  21
TORSDOF 6
ENDMDL
MODEL 5
REMARK VINA RESULT: -6.931545746      2.324      4.974
REMARK  6 active torsions:
REMARK  status: ('A' for Active; 'I' for Inactive)
REMARK    1  A    between atoms: C1_2  and  C2_3 
REMARK       I    between atoms: C1_2  and  N2_12 
REMARK    2  A    between atoms: C2_3  and  C3_4 
REMARK    3  A    between atoms: C3_4  and  C4_5 
REMARK    4  A    between atoms: C4_5  and  N1_6 
REMARK    5  A    between atoms: C13_16  and  C14_17 
REMARK    6  A    between atoms: C15_21  and  C16_22 
ROOT
HETATM    1  O1  UNL     1      75.105  37.140  -0.158  1.00  0.00    -0.273 OA
HETATM    2  C1  UNL     1      75.019  36.931   1.090  1.00  0.00     0.220 C 
HETATM    3  N2  UNL     1      73.945  36.101   1.549  1.00  0.00    -0.340 N 
HETATM    4  C10 UNL     1      73.739  35.789   2.937  1.00  0.00     0.127 C 
HETATM    5  C11 UNL     1      72.263  35.528   3.030  1.00  0.00     0.022 C 
HETATM    6  C12 UNL     1      72.039  34.735   1.737  1.00  0.00     0.035 C 
HETATM    7  C13 UNL     1      72.949  35.473   0.745  1.00  0.00     0.156 C 
ENDROOT
BRANCH   7   8
HETATM    8  C14 UNL     1      72.102  36.497   0.036  1.00  0.00     0.127 A 
HETATM    9  N3  UNL     1      72.207  36.884  -1.241  1.00  0.00    -0.245 N 
HETATM   10  O2  UNL     1      71.282  37.795  -1.483  1.00  0.00    -0.222 OA
ATOM     11  H3  UNL     1      72.889  36.534  -1.914  1.00  0.00     0.196 HD
HETATM   12  C15 UNL     1      70.579  38.015  -0.409  1.00  0.00     0.152 A 
HETATM   13  N4  UNL     1      71.082  37.211   0.540  1.00  0.00    -0.325 N 
ATOM     14  H4  UNL     1      70.742  37.152   1.501  1.00  0.00     0.169 HD
BRANCH  12  15
HETATM   15  C16 UNL     1      69.455  38.977  -0.321  1.00  0.00     0.063 C 
HETATM   16  C17 UNL     1      69.941  40.387  -0.678  1.00  0.00     0.013 C 
HETATM   17  C18 UNL     1      68.836  41.334  -0.351  1.00  0.00     0.001 C 
HETATM   18  C19 UNL     1      67.528  41.024  -0.998  1.00  0.00     0.000 C 
HETATM   19  C20 UNL     1      67.168  39.562  -0.970  1.00  0.00     0.001 C 
HETATM   20  C21 UNL     1      68.336  38.663  -1.286  1.00  0.00     0.013 C 
ENDBRANCH  12  15
ENDBRANCH   7   8
BRANCH   2  21
HETATM   21  C2  UNL     1      75.998  37.533   2.005  1.00  0.00     0.104 C 
BRANCH  21  22
HETATM   22  C3  UNL     1      75.322  38.665   2.762  1.00  0.00     0.028 C 
BRANCH  22  23
HETATM   23  C4  UNL     1      75.661  39.969   2.110  1.00  0.00     0.117 C 
BRANCH  23  24
HETATM   24  N1  UNL     1      74.523  40.807   2.030  1.00  0.00    -0.412 N 
HETATM   25  C5  UNL     1      74.836  42.182   1.696  1.00  0.00     0.117 C 
HETATM   26  C6  UNL     1      74.496  42.518   0.269  1.00  0.00     0.019 C 
HETATM   27  C7  UNL     1      74.465  41.319  -0.648  1.00  0.00     0.003 C 
HETATM   28  C8  UNL     1      73.531  40.245  -0.138  1.00  0.00     0.019 C 
HETATM   29  C9  UNL     1      73.373  40.315   1.362  1.00  0.00     0.117 C 
ENDBRANCH  23  24
ENDBRANCH  22  23
ENDBRANCH  21  22
ENDBRANCH   2  21
TORSDOF 6
ENDMDL
