MODEL 1
REMARK VINA RESULT: -7.440963889      0.000      0.000
REMARK  7 active torsions:
REMARK  status: ('A' for Active; 'I' for Inactive)
REMARK    1  A    between atoms: C2_2  and  C3_3 
REMARK    2  A    between atoms: C3_3  and  C4_4 
REMARK    3  A    between atoms: C4_4  and  C6_6 
REMARK    4  A    between atoms: C6_6  and  C7_8 
REMARK    5  A    between atoms: C8_9  and  C9_10 
REMARK    6  A    between atoms: C9_10  and  O3_12 
REMARK    7  A    between atoms: O3_12  and  C10_13 
ROOT
HETATM    1  C10 UNL     1      72.076  39.329  -0.294  1.00  0.00     0.148 C 
HETATM    2  C11 UNL     1      71.543  39.338   1.101  1.00  0.00     0.042 C 
HETATM    3  C12 UNL     1      70.793  38.020   1.382  1.00  0.00     0.175 C 
HETATM    4  O4  UNL     1      71.556  36.919   1.221  1.00  0.00    -0.385 OA
HETATM    5  C13 UNL     1      72.457  36.901   0.200  1.00  0.00     0.131 C 
HETATM    6  C14 UNL     1      73.846  36.847   0.795  1.00  0.00     0.036 C 
HETATM    7  C15 UNL     1      73.854  37.222   2.278  1.00  0.00     0.043 C 
HETATM    8  C16 UNL     1      74.544  38.504   2.560  1.00  0.00     0.084 A 
HETATM    9  C17 UNL     1      75.636  38.540   3.640  1.00  0.00     0.049 C 
HETATM   10  O5  UNL     1      74.798  39.217   1.407  1.00  0.00    -0.370 OA
HETATM   11  C18 UNL     1      73.848  39.768   2.174  1.00  0.00     0.157 A 
HETATM   12  C19 UNL     1      72.412  39.667   2.228  1.00  0.00     0.044 C 
HETATM   13  C20 UNL     1      72.280  37.933  -0.852  1.00  0.00     0.006 C 
HETATM   14  C21 UNL     1      73.533  37.914  -1.745  1.00  0.00     0.020 C 
HETATM   15  C22 UNL     1      71.158  37.501  -1.767  1.00  0.00     0.020 C 
ENDROOT
BRANCH   1  16
HETATM   16  O3  UNL     1      71.436  40.180  -1.189  1.00  0.00    -0.311 OA
BRANCH  16  17
HETATM   17  C9  UNL     1      70.559  41.185  -0.909  1.00  0.00     0.283 C 
HETATM   18  O2  UNL     1      71.108  42.312  -0.891  1.00  0.00    -0.260 OA
BRANCH  17  19
HETATM   19  C8  UNL     1      69.148  40.982  -0.658  1.00  0.00     0.086 C 
HETATM   20  C7  UNL     1      68.501  39.965  -1.189  1.00  0.00     0.056 C 
BRANCH  20  21
HETATM   21  C6  UNL     1      67.084  39.732  -0.957  1.00  0.00     0.153 C 
HETATM   22  O1  UNL     1      66.275  40.672  -1.118  1.00  0.00    -0.293 OA
BRANCH  21  23
HETATM   23  C4  UNL     1      66.564  38.407  -0.533  1.00  0.00     0.055 C 
HETATM   24  C5  UNL     1      67.018  37.325  -1.484  1.00  0.00     0.018 C 
BRANCH  23  25
HETATM   25  C3  UNL     1      65.060  38.484  -0.463  1.00  0.00     0.011 C 
BRANCH  25  26
HETATM   26  C2  UNL     1      64.424  37.133  -0.287  1.00  0.00    -0.004 C 
HETATM   27  C1  UNL     1      64.408  36.687   1.141  1.00  0.00     0.005 C 
ENDBRANCH  25  26
ENDBRANCH  23  25
ENDBRANCH  21  23
ENDBRANCH  20  21
ENDBRANCH  17  19
ENDBRANCH  16  17
ENDBRANCH   1  16
TORSDOF 7
ENDMDL
MODEL 2
REMARK VINA RESULT: -7.289126000      1.601      2.289
REMARK  7 active torsions:
REMARK  status: ('A' for Active; 'I' for Inactive)
REMARK    1  A    between atoms: C2_2  and  C3_3 
REMARK    2  A    between atoms: C3_3  and  C4_4 
REMARK    3  A    between atoms: C4_4  and  C6_6 
REMARK    4  A    between atoms: C6_6  and  C7_8 
REMARK    5  A    between atoms: C8_9  and  C9_10 
REMARK    6  A    between atoms: C9_10  and  O3_12 
REMARK    7  A    between atoms: O3_12  and  C10_13 
ROOT
HETATM    1  C10 UNL     1      71.095  40.253   0.145  1.00  0.00     0.148 C 
HETATM    2  C11 UNL     1      70.445  38.926  -0.077  1.00  0.00     0.042 C 
HETATM    3  C12 UNL     1      71.005  38.279  -1.360  1.00  0.00     0.175 C 
HETATM    4  O4  UNL     1      72.342  38.103  -1.338  1.00  0.00    -0.385 OA
HETATM    5  C13 UNL     1      73.110  39.065  -0.757  1.00  0.00     0.131 C 
HETATM    6  C14 UNL     1      73.777  38.466   0.462  1.00  0.00     0.036 C 
HETATM    7  C15 UNL     1      73.114  37.159   0.898  1.00  0.00     0.043 C 
HETATM    8  C16 UNL     1      72.410  37.257   2.199  1.00  0.00     0.084 A 
HETATM    9  C17 UNL     1      72.719  36.224   3.294  1.00  0.00     0.049 C 
HETATM   10  O5  UNL     1      72.273  38.566   2.613  1.00  0.00    -0.370 OA
HETATM   11  C18 UNL     1      71.116  38.004   2.235  1.00  0.00     0.157 A 
HETATM   12  C19 UNL     1      70.386  37.937   0.996  1.00  0.00     0.044 C 
HETATM   13  C20 UNL     1      72.455  40.375  -0.516  1.00  0.00     0.006 C 
HETATM   14  C21 UNL     1      73.388  41.210   0.377  1.00  0.00     0.020 C 
HETATM   15  C22 UNL     1      72.402  41.134  -1.821  1.00  0.00     0.020 C 
ENDROOT
BRANCH   1  16
HETATM   16  O3  UNL     1      70.287  41.364  -0.071  1.00  0.00    -0.311 OA
BRANCH  16  17
HETATM   17  C9  UNL     1      69.066  41.407  -0.674  1.00  0.00     0.283 C 
HETATM   18  O2  UNL     1      69.033  42.210  -1.636  1.00  0.00    -0.260 OA
BRANCH  17  19
HETATM   19  C8  UNL     1      67.928  40.616  -0.257  1.00  0.00     0.086 C 
HETATM   20  C7  UNL     1      67.091  40.107  -1.138  1.00  0.00     0.056 C 
BRANCH  20  21
HETATM   21  C6  UNL     1      65.939  39.308  -0.751  1.00  0.00     0.153 C 
HETATM   22  O1  UNL     1      64.808  39.841  -0.716  1.00  0.00    -0.293 OA
BRANCH  21  23
HETATM   23  C4  UNL     1      66.062  37.871  -0.396  1.00  0.00     0.055 C 
HETATM   24  C5  UNL     1      66.987  37.160  -1.356  1.00  0.00     0.018 C 
BRANCH  23  25
HETATM   25  C3  UNL     1      64.685  37.258  -0.402  1.00  0.00     0.011 C 
BRANCH  25  26
HETATM   26  C2  UNL     1      64.317  36.661   0.929  1.00  0.00    -0.004 C 
HETATM   27  C1  UNL     1      65.361  35.722   1.446  1.00  0.00     0.005 C 
ENDBRANCH  25  26
ENDBRANCH  23  25
ENDBRANCH  21  23
ENDBRANCH  20  21
ENDBRANCH  17  19
ENDBRANCH  16  17
ENDBRANCH   1  16
TORSDOF 7
ENDMDL
MODEL 3
REMARK VINA RESULT: -7.116278348      1.313      2.575
REMARK  7 active torsions:
REMARK  status: ('A' for Active; 'I' for Inactive)
REMARK    1  A    between atoms: C2_2  and  C3_3 
REMARK    2  A    between atoms: C3_3  and  C4_4 
REMARK    3  A    between atoms: C4_4  and  C6_6 
REMARK    4  A    between atoms: C6_6  and  C7_8 
REMARK    5  A    between atoms: C8_9  and  C9_10 
REMARK    6  A    between atoms: C9_10  and  O3_12 
REMARK    7  A    between atoms: O3_12  and  C10_13 
ROOT
HETATM    1  C10 UNL     1      71.870  39.979   0.178  1.00  0.00     0.148 C 
HETATM    2  C11 UNL     1      71.518  38.868  -0.756  1.00  0.00     0.042 C 
HETATM    3  C12 UNL     1      72.707  38.579  -1.695  1.00  0.00     0.175 C 
HETATM    4  O4  UNL     1      73.842  38.249  -1.044  1.00  0.00    -0.385 OA
HETATM    5  C13 UNL     1      74.129  38.893   0.121  1.00  0.00     0.131 C 
HETATM    6  C14 UNL     1      74.092  37.880   1.243  1.00  0.00     0.036 C 
HETATM    7  C15 UNL     1      73.383  36.588   0.833  1.00  0.00     0.043 C 
HETATM    8  C16 UNL     1      72.096  36.371   1.536  1.00  0.00     0.084 A 
HETATM    9  C17 UNL     1      71.848  35.026   2.238  1.00  0.00     0.049 C 
HETATM   10  O5  UNL     1      71.680  37.500   2.211  1.00  0.00    -0.370 OA
HETATM   11  C18 UNL     1      70.932  37.218   1.136  1.00  0.00     0.157 A 
HETATM   12  C19 UNL     1      70.967  37.615  -0.248  1.00  0.00     0.044 C 
HETATM   13  C20 UNL     1      73.364  40.136   0.392  1.00  0.00     0.006 C 
HETATM   14  C21 UNL     1      73.634  40.547   1.849  1.00  0.00     0.020 C 
HETATM   15  C22 UNL     1      73.956  41.255  -0.433  1.00  0.00     0.020 C 
ENDROOT
BRANCH   1  16
HETATM   16  O3  UNL     1      71.228  41.191  -0.057  1.00  0.00    -0.311 OA
BRANCH  16  17
HETATM   17  C9  UNL     1      70.158  41.428  -0.867  1.00  0.00     0.283 C 
HETATM   18  O2  UNL     1      70.483  41.990  -1.940  1.00  0.00    -0.260 OA
BRANCH  17  19
HETATM   19  C8  UNL     1      68.795  41.074  -0.534  1.00  0.00     0.086 C 
HETATM   20  C7  UNL     1      68.127  40.191  -1.246  1.00  0.00     0.056 C 
BRANCH  20  21
HETATM   21  C6  UNL     1      66.756  39.813  -0.937  1.00  0.00     0.153 C 
HETATM   22  O1  UNL     1      65.854  40.676  -1.001  1.00  0.00    -0.293 OA
BRANCH  21  23
HETATM   23  C4  UNL     1      66.391  38.427  -0.547  1.00  0.00     0.055 C 
HETATM   24  C5  UNL     1      67.079  37.421  -1.441  1.00  0.00     0.018 C 
BRANCH  23  25
HETATM   25  C3  UNL     1      64.892  38.290  -0.615  1.00  0.00     0.011 C 
BRANCH  25  26
HETATM   26  C2  UNL     1      64.421  36.923  -0.202  1.00  0.00    -0.004 C 
HETATM   27  C1  UNL     1      64.515  36.705   1.275  1.00  0.00     0.005 C 
ENDBRANCH  25  26
ENDBRANCH  23  25
ENDBRANCH  21  23
ENDBRANCH  20  21
ENDBRANCH  17  19
ENDBRANCH  16  17
ENDBRANCH   1  16
TORSDOF 7
ENDMDL
MODEL 4
REMARK VINA RESULT: -7.107322975      1.691      2.941
REMARK  7 active torsions:
REMARK  status: ('A' for Active; 'I' for Inactive)
REMARK    1  A    between atoms: C2_2  and  C3_3 
REMARK    2  A    between atoms: C3_3  and  C4_4 
REMARK    3  A    between atoms: C4_4  and  C6_6 
REMARK    4  A    between atoms: C6_6  and  C7_8 
REMARK    5  A    between atoms: C8_9  and  C9_10 
REMARK    6  A    between atoms: C9_10  and  O3_12 
REMARK    7  A    between atoms: O3_12  and  C10_13 
ROOT
HETATM    1  C10 UNL     1      70.813  39.884  -0.242  1.00  0.00     0.148 C 
HETATM    2  C11 UNL     1      71.941  40.552   0.474  1.00  0.00     0.042 C 
HETATM    3  C12 UNL     1      72.497  39.612   1.563  1.00  0.00     0.175 C 
HETATM    4  O4  UNL     1      72.934  38.429   1.084  1.00  0.00    -0.385 OA
HETATM    5  C13 UNL     1      72.233  37.843   0.074  1.00  0.00     0.131 C 
HETATM    6  C14 UNL     1      73.118  37.800  -1.152  1.00  0.00     0.036 C 
HETATM    7  C15 UNL     1      74.318  38.740  -1.032  1.00  0.00     0.043 C 
HETATM    8  C16 UNL     1      74.268  39.888  -1.969  1.00  0.00     0.084 A 
HETATM    9  C17 UNL     1      75.486  40.174  -2.861  1.00  0.00     0.049 C 
HETATM   10  O5  UNL     1      73.030  40.013  -2.564  1.00  0.00    -0.370 OA
HETATM   11  C18 UNL     1      73.294  40.983  -1.677  1.00  0.00     0.157 A 
HETATM   12  C19 UNL     1      73.041  41.159  -0.271  1.00  0.00     0.044 C 
HETATM   13  C20 UNL     1      70.868  38.370  -0.172  1.00  0.00     0.006 C 
HETATM   14  C21 UNL     1      70.367  37.775  -1.499  1.00  0.00     0.020 C 
HETATM   15  C22 UNL     1      69.936  37.801   0.873  1.00  0.00     0.020 C 
ENDROOT
BRANCH   1  16
HETATM   16  O3  UNL     1      69.546  40.392   0.023  1.00  0.00    -0.311 OA
BRANCH  16  17
HETATM   17  C9  UNL     1      68.601  40.796  -0.872  1.00  0.00     0.283 C 
HETATM   18  O2  UNL     1      69.080  41.502  -1.791  1.00  0.00    -0.260 OA
BRANCH  17  19
HETATM   19  C8  UNL     1      67.198  40.452  -0.780  1.00  0.00     0.086 C 
HETATM   20  C7  UNL     1      66.801  39.196  -0.792  1.00  0.00     0.056 C 
BRANCH  20  21
HETATM   21  C6  UNL     1      65.400  38.818  -0.701  1.00  0.00     0.153 C 
HETATM   22  O1  UNL     1      64.520  39.703  -0.779  1.00  0.00    -0.293 OA
BRANCH  21  23
HETATM   23  C4  UNL     1      64.977  37.405  -0.519  1.00  0.00     0.055 C 
HETATM   24  C5  UNL     1      63.663  37.331   0.222  1.00  0.00     0.018 C 
BRANCH  23  25
HETATM   25  C3  UNL     1      66.069  36.672   0.219  1.00  0.00     0.011 C 
BRANCH  25  26
HETATM   26  C2  UNL     1      65.530  35.800   1.320  1.00  0.00    -0.004 C 
HETATM   27  C1  UNL     1      66.613  35.127   2.103  1.00  0.00     0.005 C 
ENDBRANCH  25  26
ENDBRANCH  23  25
ENDBRANCH  21  23
ENDBRANCH  20  21
ENDBRANCH  17  19
ENDBRANCH  16  17
ENDBRANCH   1  16
TORSDOF 7
ENDMDL
MODEL 5
REMARK VINA RESULT: -7.054548671      1.883      2.505
REMARK  7 active torsions:
REMARK  status: ('A' for Active; 'I' for Inactive)
REMARK    1  A    between atoms: C2_2  and  C3_3 
REMARK    2  A    between atoms: C3_3  and  C4_4 
REMARK    3  A    between atoms: C4_4  and  C6_6 
REMARK    4  A    between atoms: C6_6  and  C7_8 
REMARK    5  A    between atoms: C8_9  and  C9_10 
REMARK    6  A    between atoms: C9_10  and  O3_12 
REMARK    7  A    between atoms: O3_12  and  C10_13 
ROOT
HETATM    1  C10 UNL     1      72.447  37.092   1.072  1.00  0.00     0.148 C 
HETATM    2  C11 UNL     1      72.046  36.088   2.102  1.00  0.00     0.042 C 
HETATM    3  C12 UNL     1      72.396  34.668   1.611  1.00  0.00     0.175 C 
HETATM    4  O4  UNL     1      73.706  34.500   1.335  1.00  0.00    -0.385 OA
HETATM    5  C13 UNL     1      74.380  35.529   0.751  1.00  0.00     0.131 C 
HETATM    6  C14 UNL     1      75.430  36.018   1.724  1.00  0.00     0.036 C 
HETATM    7  C15 UNL     1      75.174  35.522   3.148  1.00  0.00     0.043 C 
HETATM    8  C16 UNL     1      74.802  36.602   4.093  1.00  0.00     0.084 A 
HETATM    9  C17 UNL     1      75.571  36.731   5.417  1.00  0.00     0.049 C 
HETATM   10  O5  UNL     1      74.506  37.780   3.439  1.00  0.00    -0.370 OA
HETATM   11  C18 UNL     1      73.432  37.187   3.977  1.00  0.00     0.157 A 
HETATM   12  C19 UNL     1      72.451  36.248   3.495  1.00  0.00     0.044 C 
HETATM   13  C20 UNL     1      73.551  36.604   0.153  1.00  0.00     0.006 C 
HETATM   14  C21 UNL     1      74.483  37.777  -0.199  1.00  0.00     0.020 C 
HETATM   15  C22 UNL     1      73.029  36.124  -1.181  1.00  0.00     0.020 C 
ENDROOT
BRANCH   1  16
HETATM   16  O3  UNL     1      71.402  37.701   0.384  1.00  0.00    -0.311 OA
BRANCH  16  17
HETATM   17  C9  UNL     1      70.803  38.895   0.657  1.00  0.00     0.283 C 
HETATM   18  O2  UNL     1      71.388  39.530   1.565  1.00  0.00    -0.260 OA
BRANCH  17  19
HETATM   19  C8  UNL     1      69.623  39.383  -0.023  1.00  0.00     0.086 C 
HETATM   20  C7  UNL     1      68.756  38.552  -0.565  1.00  0.00     0.056 C 
BRANCH  20  21
HETATM   21  C6  UNL     1      67.560  39.010  -1.255  1.00  0.00     0.153 C 
HETATM   22  O1  UNL     1      67.590  40.093  -1.880  1.00  0.00    -0.293 OA
BRANCH  21  23
HETATM   23  C4  UNL     1      66.297  38.228  -1.243  1.00  0.00     0.055 C 
HETATM   24  C5  UNL     1      65.152  39.069  -0.731  1.00  0.00     0.018 C 
BRANCH  23  25
HETATM   25  C3  UNL     1      66.503  37.001  -0.392  1.00  0.00     0.011 C 
BRANCH  25  26
HETATM   26  C2  UNL     1      65.280  36.644   0.406  1.00  0.00    -0.004 C 
HETATM   27  C1  UNL     1      65.565  35.645   1.481  1.00  0.00     0.005 C 
ENDBRANCH  25  26
ENDBRANCH  23  25
ENDBRANCH  21  23
ENDBRANCH  20  21
ENDBRANCH  17  19
ENDBRANCH  16  17
ENDBRANCH   1  16
TORSDOF 7
ENDMDL
