MODEL 1
REMARK VINA RESULT: -6.818123697      0.000      0.000
REMARK  7 active torsions:
REMARK  status: ('A' for Active; 'I' for Inactive)
REMARK    1  A    between atoms: C2_2  and  C5_5 
REMARK    2  A    between atoms: C6_10  and  S1_11 
REMARK    3  A    between atoms: S1_11  and  C7_12 
REMARK    4  A    between atoms: C7_12  and  C8_13 
REMARK       I    between atoms: C8_13  and  N3_15 
REMARK    5  A    between atoms: N3_15  and  C9_16 
REMARK    6  A    between atoms: N3_15  and  C14_22 
REMARK    7  A    between atoms: C9_16  and  C10_17 
ROOT
HETATM    1  C8  UNL     1      70.471  39.279   0.622  1.00  0.00     0.230 C 
HETATM    2  O1  UNL     1      70.278  38.056   0.920  1.00  0.00    -0.273 OA
HETATM    3  N3  UNL     1      69.462  40.008  -0.039  1.00  0.00    -0.344 N 
ENDROOT
BRANCH   1   4
HETATM    4  C7  UNL     1      71.759  39.915   0.978  1.00  0.00     0.185 C 
BRANCH   4   5
HETATM    5  S1  UNL     1      73.101  39.298  -0.088  1.00  0.00    -0.075 SA
BRANCH   5   6
HETATM    6  C6  UNL     1      73.219  37.525   0.084  1.00  0.00     0.203 A 
HETATM    7  N2  UNL     1      72.651  36.644  -0.759  1.00  0.00    -0.272 N 
HETATM    8  N1  UNL     1      72.926  35.404  -0.355  1.00  0.00    -0.280 N 
ATOM      9  H2  UNL     1      72.098  36.887  -1.581  1.00  0.00     0.189 HD
HETATM   10  C5  UNL     1      73.673  35.534   0.753  1.00  0.00     0.148 A 
ATOM     11  H1  UNL     1      72.628  34.534  -0.797  1.00  0.00     0.189 HD
HETATM   12  O3  UNL     1      73.833  36.821   0.993  1.00  0.00    -0.271 OA
BRANCH  10  13
HETATM   13  C2  UNL     1      74.207  34.405   1.540  1.00  0.00     0.016 C 
HETATM   14  C1  UNL     1      75.096  33.505   0.685  1.00  0.00     0.023 C 
HETATM   15  C3  UNL     1      75.038  34.905   2.698  1.00  0.00     0.023 C 
HETATM   16  C4  UNL     1      73.111  33.523   2.090  1.00  0.00     0.023 C 
ENDBRANCH  10  13
ENDBRANCH   5   6
ENDBRANCH   4   5
ENDBRANCH   1   4
BRANCH   3  17
HETATM   17  C9  UNL     1      69.710  41.394  -0.366  1.00  0.00     0.158 C 
BRANCH  17  18
HETATM   18  C10 UNL     1      70.133  41.673  -1.761  1.00  0.00     0.139 C 
HETATM   19  C11 UNL     1      69.307  42.826  -2.289  1.00  0.00     0.035 C 
HETATM   20  C12 UNL     1      70.162  44.021  -2.028  1.00  0.00     0.029 C 
HETATM   21  C13 UNL     1      71.465  43.462  -1.541  1.00  0.00     0.168 C 
HETATM   22  O2  UNL     1      71.427  42.119  -1.796  1.00  0.00    -0.384 OA
ENDBRANCH  17  18
ENDBRANCH   3  17
BRANCH   3  23
HETATM   23  C14 UNL     1      68.225  39.342  -0.370  1.00  0.00     0.087 C 
HETATM   24  C15 UNL     1      67.083  40.273  -0.701  1.00  0.00     0.025 C 
HETATM   25  C16 UNL     1      65.825  39.440  -0.578  1.00  0.00     0.002 C 
HETATM   26  C17 UNL     1      65.852  38.124  -1.240  1.00  0.00     0.000 C 
HETATM   27  C18 UNL     1      67.152  37.441  -1.405  1.00  0.00     0.002 C 
HETATM   28  C19 UNL     1      68.335  38.378  -1.524  1.00  0.00     0.025 C 
ENDBRANCH   3  23
TORSDOF 7
ENDMDL
MODEL 2
REMARK VINA RESULT: -6.717675137      3.400      8.922
REMARK  7 active torsions:
REMARK  status: ('A' for Active; 'I' for Inactive)
REMARK    1  A    between atoms: C2_2  and  C5_5 
REMARK    2  A    between atoms: C6_10  and  S1_11 
REMARK    3  A    between atoms: S1_11  and  C7_12 
REMARK    4  A    between atoms: C7_12  and  C8_13 
REMARK       I    between atoms: C8_13  and  N3_15 
REMARK    5  A    between atoms: N3_15  and  C9_16 
REMARK    6  A    between atoms: N3_15  and  C14_22 
REMARK    7  A    between atoms: C9_16  and  C10_17 
ROOT
HETATM    1  C8  UNL     1      70.525  40.973  -1.165  1.00  0.00     0.230 C 
HETATM    2  O1  UNL     1      71.776  41.051  -1.391  1.00  0.00    -0.273 OA
HETATM    3  N3  UNL     1      69.985  39.797  -0.606  1.00  0.00    -0.344 N 
ENDROOT
BRANCH   1   4
HETATM    4  C7  UNL     1      69.658  42.125  -1.496  1.00  0.00     0.185 C 
BRANCH   4   5
HETATM    5  S1  UNL     1      70.309  43.029  -2.938  1.00  0.00    -0.075 SA
BRANCH   5   6
HETATM    6  C6  UNL     1      69.154  44.309  -3.399  1.00  0.00     0.203 A 
HETATM    7  N2  UNL     1      68.100  44.121  -4.213  1.00  0.00    -0.272 N 
HETATM    8  N1  UNL     1      67.439  45.269  -4.356  1.00  0.00    -0.280 N 
ATOM      9  H2  UNL     1      67.846  43.236  -4.652  1.00  0.00     0.189 HD
HETATM   10  C5  UNL     1      68.103  46.171  -3.615  1.00  0.00     0.148 A 
ATOM     11  H1  UNL     1      66.601  45.430  -4.914  1.00  0.00     0.189 HD
HETATM   12  O3  UNL     1      69.130  45.566  -3.052  1.00  0.00    -0.271 OA
BRANCH  10  13
HETATM   13  C2  UNL     1      67.718  47.589  -3.480  1.00  0.00     0.016 C 
HETATM   14  C1  UNL     1      68.309  48.206  -2.214  1.00  0.00     0.023 C 
HETATM   15  C3  UNL     1      68.215  48.394  -4.658  1.00  0.00     0.023 C 
HETATM   16  C4  UNL     1      66.221  47.769  -3.381  1.00  0.00     0.023 C 
ENDBRANCH  10  13
ENDBRANCH   5   6
ENDBRANCH   4   5
ENDBRANCH   1   4
BRANCH   3  17
HETATM   17  C9  UNL     1      68.562  39.736  -0.363  1.00  0.00     0.158 C 
BRANCH  17  18
HETATM   18  C10 UNL     1      67.725  39.245  -1.485  1.00  0.00     0.139 C 
HETATM   19  C11 UNL     1      67.542  37.751  -1.328  1.00  0.00     0.035 C 
HETATM   20  C12 UNL     1      66.244  37.629  -0.602  1.00  0.00     0.029 C 
HETATM   21  C13 UNL     1      65.698  39.024  -0.553  1.00  0.00     0.168 C 
HETATM   22  O2  UNL     1      66.461  39.766  -1.414  1.00  0.00    -0.384 OA
ENDBRANCH  17  18
ENDBRANCH   3  17
BRANCH   3  23
HETATM   23  C14 UNL     1      70.871  38.698  -0.305  1.00  0.00     0.087 C 
HETATM   24  C15 UNL     1      70.493  37.909   0.926  1.00  0.00     0.025 C 
HETATM   25  C16 UNL     1      71.732  37.131   1.313  1.00  0.00     0.002 C 
HETATM   26  C17 UNL     1      72.413  36.414   0.220  1.00  0.00     0.000 C 
HETATM   27  C18 UNL     1      72.297  36.943  -1.155  1.00  0.00     0.002 C 
HETATM   28  C19 UNL     1      71.012  37.697  -1.423  1.00  0.00     0.025 C 
ENDBRANCH   3  23
TORSDOF 7
ENDMDL
MODEL 3
REMARK VINA RESULT: -6.640946477      2.349      3.649
REMARK  7 active torsions:
REMARK  status: ('A' for Active; 'I' for Inactive)
REMARK    1  A    between atoms: C2_2  and  C5_5 
REMARK    2  A    between atoms: C6_10  and  S1_11 
REMARK    3  A    between atoms: S1_11  and  C7_12 
REMARK    4  A    between atoms: C7_12  and  C8_13 
REMARK       I    between atoms: C8_13  and  N3_15 
REMARK    5  A    between atoms: N3_15  and  C9_16 
REMARK    6  A    between atoms: N3_15  and  C14_22 
REMARK    7  A    between atoms: C9_16  and  C10_17 
ROOT
HETATM    1  C8  UNL     1      71.161  37.612   2.052  1.00  0.00     0.230 C 
HETATM    2  O1  UNL     1      70.139  36.853   2.111  1.00  0.00    -0.273 OA
HETATM    3  N3  UNL     1      71.170  38.709   1.168  1.00  0.00    -0.344 N 
ENDROOT
BRANCH   1   4
HETATM    4  C7  UNL     1      72.326  37.323   2.917  1.00  0.00     0.185 C 
BRANCH   4   5
HETATM    5  S1  UNL     1      72.891  35.606   2.688  1.00  0.00    -0.075 SA
BRANCH   5   6
HETATM    6  C6  UNL     1      73.502  35.406   1.023  1.00  0.00     0.203 A 
HETATM    7  N2  UNL     1      72.749  35.553  -0.082  1.00  0.00    -0.272 N 
HETATM    8  N1  UNL     1      73.500  35.338  -1.162  1.00  0.00    -0.280 N 
ATOM      9  H2  UNL     1      71.758  35.792  -0.092  1.00  0.00     0.189 HD
HETATM   10  C5  UNL     1      74.731  35.056  -0.705  1.00  0.00     0.148 A 
ATOM     11  H1  UNL     1      73.201  35.379  -2.136  1.00  0.00     0.189 HD
HETATM   12  O3  UNL     1      74.702  35.104   0.612  1.00  0.00    -0.271 OA
BRANCH  10  13
HETATM   13  C2  UNL     1      75.893  34.751  -1.563  1.00  0.00     0.016 C 
HETATM   14  C1  UNL     1      77.195  34.783  -0.765  1.00  0.00     0.023 C 
HETATM   15  C3  UNL     1      75.762  33.374  -2.171  1.00  0.00     0.023 C 
HETATM   16  C4  UNL     1      76.056  35.750  -2.683  1.00  0.00     0.023 C 
ENDBRANCH  10  13
ENDBRANCH   5   6
ENDBRANCH   4   5
ENDBRANCH   1   4
BRANCH   3  17
HETATM   17  C9  UNL     1      72.343  39.551   1.121  1.00  0.00     0.158 C 
BRANCH  17  18
HETATM   18  C10 UNL     1      73.112  39.535  -0.148  1.00  0.00     0.139 C 
HETATM   19  C11 UNL     1      74.050  40.723  -0.155  1.00  0.00     0.035 C 
HETATM   20  C12 UNL     1      75.331  40.163   0.367  1.00  0.00     0.029 C 
HETATM   21  C13 UNL     1      75.093  38.686   0.466  1.00  0.00     0.168 C 
HETATM   22  O2  UNL     1      73.929  38.438  -0.208  1.00  0.00    -0.384 OA
ENDBRANCH  17  18
ENDBRANCH   3  17
BRANCH   3  23
HETATM   23  C14 UNL     1      70.011  38.947   0.341  1.00  0.00     0.087 C 
HETATM   24  C15 UNL     1      69.809  40.391  -0.053  1.00  0.00     0.025 C 
HETATM   25  C16 UNL     1      68.370  40.495  -0.509  1.00  0.00     0.002 C 
HETATM   26  C17 UNL     1      67.911  39.456  -1.448  1.00  0.00     0.000 C 
HETATM   27  C18 UNL     1      68.556  38.128  -1.405  1.00  0.00     0.002 C 
HETATM   28  C19 UNL     1      69.996  38.152  -0.940  1.00  0.00     0.025 C 
ENDBRANCH   3  23
TORSDOF 7
ENDMDL
MODEL 4
REMARK VINA RESULT: -6.621946781      3.443      7.576
REMARK  7 active torsions:
REMARK  status: ('A' for Active; 'I' for Inactive)
REMARK    1  A    between atoms: C2_2  and  C5_5 
REMARK    2  A    between atoms: C6_10  and  S1_11 
REMARK    3  A    between atoms: S1_11  and  C7_12 
REMARK    4  A    between atoms: C7_12  and  C8_13 
REMARK       I    between atoms: C8_13  and  N3_15 
REMARK    5  A    between atoms: N3_15  and  C9_16 
REMARK    6  A    between atoms: N3_15  and  C14_22 
REMARK    7  A    between atoms: C9_16  and  C10_17 
ROOT
HETATM    1  C8  UNL     1      69.997  40.946  -1.036  1.00  0.00     0.230 C 
HETATM    2  O1  UNL     1      71.225  41.182  -1.282  1.00  0.00    -0.273 OA
HETATM    3  N3  UNL     1      69.610  39.684  -0.543  1.00  0.00    -0.344 N 
ENDROOT
BRANCH   1   4
HETATM    4  C7  UNL     1      68.996  42.009  -1.276  1.00  0.00     0.185 C 
BRANCH   4   5
HETATM    5  S1  UNL     1      69.788  43.500  -1.960  1.00  0.00    -0.075 SA
BRANCH   5   6
HETATM    6  C6  UNL     1      69.922  43.333  -3.732  1.00  0.00     0.203 A 
HETATM    7  N2  UNL     1      68.957  43.685  -4.600  1.00  0.00    -0.272 N 
HETATM    8  N1  UNL     1      69.367  43.435  -5.843  1.00  0.00    -0.280 N 
ATOM      9  H2  UNL     1      68.053  44.082  -4.347  1.00  0.00     0.189 HD
HETATM   10  C5  UNL     1      70.603  42.923  -5.729  1.00  0.00     0.148 A 
ATOM     11  H1  UNL     1      68.848  43.599  -6.706  1.00  0.00     0.189 HD
HETATM   12  O3  UNL     1      70.910  42.872  -4.447  1.00  0.00    -0.271 OA
BRANCH  10  13
HETATM   13  C2  UNL     1      71.442  42.499  -6.866  1.00  0.00     0.016 C 
HETATM   14  C1  UNL     1      71.535  43.595  -7.925  1.00  0.00     0.023 C 
HETATM   15  C3  UNL     1      72.847  42.185  -6.407  1.00  0.00     0.023 C 
HETATM   16  C4  UNL     1      70.888  41.280  -7.564  1.00  0.00     0.023 C 
ENDBRANCH  10  13
ENDBRANCH   5   6
ENDBRANCH   4   5
ENDBRANCH   1   4
BRANCH   3  17
HETATM   17  C9  UNL     1      68.210  39.445  -0.274  1.00  0.00     0.158 C 
BRANCH  17  18
HETATM   18  C10 UNL     1      67.415  38.885  -1.395  1.00  0.00     0.139 C 
HETATM   19  C11 UNL     1      67.166  37.418  -1.119  1.00  0.00     0.035 C 
HETATM   20  C12 UNL     1      65.828  37.405  -0.459  1.00  0.00     0.029 C 
HETATM   21  C13 UNL     1      65.335  38.817  -0.561  1.00  0.00     0.168 C 
HETATM   22  O2  UNL     1      66.170  39.453  -1.438  1.00  0.00    -0.384 OA
ENDBRANCH  17  18
ENDBRANCH   3  17
BRANCH   3  23
HETATM   23  C14 UNL     1      70.624  38.679  -0.329  1.00  0.00     0.087 C 
HETATM   24  C15 UNL     1      70.401  37.815   0.889  1.00  0.00     0.025 C 
HETATM   25  C16 UNL     1      71.736  37.163   1.180  1.00  0.00     0.002 C 
HETATM   26  C17 UNL     1      72.427  36.560   0.027  1.00  0.00     0.000 C 
HETATM   27  C18 UNL     1      72.179  37.116  -1.319  1.00  0.00     0.002 C 
HETATM   28  C19 UNL     1      70.808  37.735  -1.491  1.00  0.00     0.025 C 
ENDBRANCH   3  23
TORSDOF 7
ENDMDL
MODEL 5
REMARK VINA RESULT: -6.595132741      1.359      1.365
REMARK  7 active torsions:
REMARK  status: ('A' for Active; 'I' for Inactive)
REMARK    1  A    between atoms: C2_2  and  C5_5 
REMARK    2  A    between atoms: C6_10  and  S1_11 
REMARK    3  A    between atoms: S1_11  and  C7_12 
REMARK    4  A    between atoms: C7_12  and  C8_13 
REMARK       I    between atoms: C8_13  and  N3_15 
REMARK    5  A    between atoms: N3_15  and  C9_16 
REMARK    6  A    between atoms: N3_15  and  C14_22 
REMARK    7  A    between atoms: C9_16  and  C10_17 
ROOT
HETATM    1  C8  UNL     1      70.537  39.315   0.236  1.00  0.00     0.230 C 
HETATM    2  O1  UNL     1      70.402  38.071   0.477  1.00  0.00    -0.273 OA
HETATM    3  N3  UNL     1      69.444  40.059  -0.250  1.00  0.00    -0.344 N 
ENDROOT
BRANCH   1   4
HETATM    4  C7  UNL     1      71.849  39.958   0.473  1.00  0.00     0.185 C 
BRANCH   4   5
HETATM    5  S1  UNL     1      72.425  39.642   2.173  1.00  0.00    -0.075 SA
BRANCH   5   6
HETATM    6  C6  UNL     1      72.636  37.886   2.405  1.00  0.00     0.203 A 
HETATM    7  N2  UNL     1      71.894  37.138   3.241  1.00  0.00    -0.272 N 
HETATM    8  N1  UNL     1      72.301  35.871   3.183  1.00  0.00    -0.280 N 
ATOM      9  H2  UNL     1      71.137  37.487   3.829  1.00  0.00     0.189 HD
HETATM   10  C5  UNL     1      73.308  35.847   2.294  1.00  0.00     0.148 A 
ATOM     11  H1  UNL     1      71.925  35.080   3.706  1.00  0.00     0.189 HD
HETATM   12  O3  UNL     1      73.487  37.073   1.843  1.00  0.00    -0.271 OA
BRANCH  10  13
HETATM   13  C2  UNL     1      74.060  34.636   1.914  1.00  0.00     0.016 C 
HETATM   14  C1  UNL     1      74.460  34.671   0.440  1.00  0.00     0.023 C 
HETATM   15  C3  UNL     1      75.325  34.512   2.730  1.00  0.00     0.023 C 
HETATM   16  C4  UNL     1      73.250  33.375   2.103  1.00  0.00     0.023 C 
ENDBRANCH  10  13
ENDBRANCH   5   6
ENDBRANCH   4   5
ENDBRANCH   1   4
BRANCH   3  17
HETATM   17  C9  UNL     1      69.627  41.467  -0.516  1.00  0.00     0.158 C 
BRANCH  17  18
HETATM   18  C10 UNL     1      69.976  41.831  -1.912  1.00  0.00     0.139 C 
HETATM   19  C11 UNL     1      69.118  43.007  -2.328  1.00  0.00     0.035 C 
HETATM   20  C12 UNL     1      69.980  44.190  -2.042  1.00  0.00     0.029 C 
HETATM   21  C13 UNL     1      71.309  43.615  -1.657  1.00  0.00     0.168 C 
HETATM   22  O2  UNL     1      71.264  42.288  -1.987  1.00  0.00    -0.384 OA
ENDBRANCH  17  18
ENDBRANCH   3  17
BRANCH   3  23
HETATM   23  C14 UNL     1      68.186  39.386  -0.470  1.00  0.00     0.087 C 
HETATM   24  C15 UNL     1      67.025  40.308  -0.758  1.00  0.00     0.025 C 
HETATM   25  C16 UNL     1      65.777  39.486  -0.517  1.00  0.00     0.002 C 
HETATM   26  C17 UNL     1      65.757  38.145  -1.128  1.00  0.00     0.000 C 
HETATM   27  C18 UNL     1      67.041  37.450  -1.354  1.00  0.00     0.002 C 
HETATM   28  C19 UNL     1      68.215  38.377  -1.590  1.00  0.00     0.025 C 
ENDBRANCH   3  23
TORSDOF 7
ENDMDL
