MODEL 1
REMARK VINA RESULT: -6.137304033      0.000      0.000
REMARK  10 active torsions:
REMARK  status: ('A' for Active; 'I' for Inactive)
REMARK    1  A    between atoms: C2_2  and  C4_4 
REMARK    2  A    between atoms: C4_4  and  N1_5 
REMARK    3  A    between atoms: C4_4  and  C10_14 
REMARK       I    between atoms: N1_5  and  C5_7 
REMARK    4  A    between atoms: C5_7  and  O2_9 
REMARK    5  A    between atoms: O2_9  and  C6_10 
REMARK       I    between atoms: C10_14  and  N2_16 
REMARK    6  A    between atoms: N2_16  and  C11_18 
REMARK    7  A    between atoms: C11_18  and  C12_19 
REMARK    8  A    between atoms: C11_18  and  C23_34 
REMARK       I    between atoms: C12_19  and  N3_21 
REMARK    9  A    between atoms: N3_21  and  C13_23 
REMARK   10  A    between atoms: C18_28  and  C19_29 
ROOT
HETATM    1  C11 UNL     1     -29.468  -4.651  15.644  1.00  0.00     0.180 C 
ENDROOT
BRANCH   1   2
HETATM    2  N2  UNL     1     -30.075  -5.549  14.677  1.00  0.00    -0.346 N 
HETATM    3  C10 UNL     1     -31.466  -5.809  14.673  1.00  0.00     0.241 C 
HETATM    4  O3  UNL     1     -32.159  -5.194  15.554  1.00  0.00    -0.271 OA
ATOM      5  H2  UNL     1     -29.483  -6.003  13.981  1.00  0.00     0.163 HD
BRANCH   3   6
HETATM    6  C4  UNL     1     -32.202  -6.700  13.775  1.00  0.00     0.182 C 
BRANCH   6   7
HETATM    7  C2  UNL     1     -31.596  -6.815  12.383  1.00  0.00     0.009 C 
HETATM    8  C1  UNL     1     -32.706  -6.827  11.326  1.00  0.00     0.012 C 
HETATM    9  C3  UNL     1     -31.009  -8.243  12.228  1.00  0.00     0.012 C 
ENDBRANCH   6   7
BRANCH   6  10
HETATM   10  N1  UNL     1     -32.375  -7.992  14.384  1.00  0.00    -0.323 N 
HETATM   11  C5  UNL     1     -33.208  -8.504  15.354  1.00  0.00     0.362 C 
HETATM   12  O1  UNL     1     -34.125  -7.938  16.010  1.00  0.00    -0.238 OA
ATOM     13  H1  UNL     1     -31.731  -8.691  14.013  1.00  0.00     0.165 HD
BRANCH  11  14
HETATM   14  O2  UNL     1     -33.084  -9.874  15.735  1.00  0.00    -0.294 OA
BRANCH  14  15
HETATM   15  C6  UNL     1     -32.067 -10.369  16.536  1.00  0.00     0.061 C 
HETATM   16  C7  UNL     1     -31.214  -9.360  17.234  1.00  0.00     0.046 C 
HETATM   17  C8  UNL     1     -31.144 -11.318  15.787  1.00  0.00     0.046 C 
HETATM   18  C9  UNL     1     -32.748 -11.197  17.634  1.00  0.00     0.046 C 
ENDBRANCH  14  15
ENDBRANCH  11  14
ENDBRANCH   6  10
ENDBRANCH   3   6
ENDBRANCH   1   2
BRANCH   1  19
HETATM   19  C12 UNL     1     -28.310  -5.326  16.257  1.00  0.00     0.241 C 
HETATM   20  O4  UNL     1     -27.621  -4.716  17.123  1.00  0.00    -0.271 OA
HETATM   21  N3  UNL     1     -27.969  -6.649  15.878  1.00  0.00    -0.353 N 
ATOM     22  H3  UNL     1     -28.513  -7.144  15.170  1.00  0.00     0.163 HD
BRANCH  21  23
HETATM   23  C13 UNL     1     -26.857  -7.273  16.502  1.00  0.00     0.100 C 
HETATM   24  C14 UNL     1     -27.100  -8.542  17.223  1.00  0.00     0.018 C 
HETATM   25  C15 UNL     1     -25.627  -8.953  17.505  1.00  0.00     0.018 C 
HETATM   26  C20 UNL     1     -27.045  -9.667  16.230  1.00  0.00    -0.034 C 
HETATM   27  C16 UNL     1     -25.627  -9.176  16.008  1.00  0.00    -0.025 C 
HETATM   28  C17 UNL     1     -24.640 -10.045  15.408  1.00  0.00     0.017 C 
HETATM   29  C18 UNL     1     -25.816  -7.782  15.476  1.00  0.00     0.079 C 
HETATM   30  C21 UNL     1     -27.932  -9.648  15.046  1.00  0.00     0.016 C 
HETATM   31  C22 UNL     1     -27.126 -11.003  16.940  1.00  0.00     0.016 C 
BRANCH  29  32
HETATM   32  C19 UNL     1     -24.568  -6.970  15.560  1.00  0.00     0.238 C 
HETATM   33  O5  UNL     1     -24.670  -5.818  15.932  1.00  0.00    -0.306 OA
ENDBRANCH  29  32
ENDBRANCH  21  23
ENDBRANCH   1  19
BRANCH   1  34
HETATM   34  C23 UNL     1     -28.902  -3.414  14.946  1.00  0.00     0.009 C 
HETATM   35  C24 UNL     1     -29.134  -3.423  13.463  1.00  0.00     0.012 C 
HETATM   36  C25 UNL     1     -29.465  -2.168  15.603  1.00  0.00     0.012 C 
ENDBRANCH   1  34
TORSDOF 10
ENDMDL
MODEL 2
REMARK VINA RESULT: -6.080025659      1.803      7.227
REMARK  10 active torsions:
REMARK  status: ('A' for Active; 'I' for Inactive)
REMARK    1  A    between atoms: C2_2  and  C4_4 
REMARK    2  A    between atoms: C4_4  and  N1_5 
REMARK    3  A    between atoms: C4_4  and  C10_14 
REMARK       I    between atoms: N1_5  and  C5_7 
REMARK    4  A    between atoms: C5_7  and  O2_9 
REMARK    5  A    between atoms: O2_9  and  C6_10 
REMARK       I    between atoms: C10_14  and  N2_16 
REMARK    6  A    between atoms: N2_16  and  C11_18 
REMARK    7  A    between atoms: C11_18  and  C12_19 
REMARK    8  A    between atoms: C11_18  and  C23_34 
REMARK       I    between atoms: C12_19  and  N3_21 
REMARK    9  A    between atoms: N3_21  and  C13_23 
REMARK   10  A    between atoms: C18_28  and  C19_29 
ROOT
HETATM    1  C11 UNL     1     -29.996  -4.905  15.184  1.00  0.00     0.180 C 
ENDROOT
BRANCH   1   2
HETATM    2  N2  UNL     1     -29.158  -5.815  15.946  1.00  0.00    -0.346 N 
HETATM    3  C10 UNL     1     -27.848  -6.147  15.527  1.00  0.00     0.241 C 
HETATM    4  O3  UNL     1     -27.437  -5.585  14.454  1.00  0.00    -0.271 OA
ATOM      5  H2  UNL     1     -29.524  -6.226  16.805  1.00  0.00     0.163 HD
BRANCH   3   6
HETATM    6  C4  UNL     1     -26.908  -7.058  16.182  1.00  0.00     0.182 C 
BRANCH   6   7
HETATM    7  C2  UNL     1     -27.277  -8.529  16.048  1.00  0.00     0.009 C 
HETATM    8  C1  UNL     1     -26.831  -9.298  17.297  1.00  0.00     0.012 C 
HETATM    9  C3  UNL     1     -26.368  -9.158  14.959  1.00  0.00     0.012 C 
ENDBRANCH   6   7
BRANCH   6  10
HETATM   10  N1  UNL     1     -25.567  -6.806  15.725  1.00  0.00    -0.323 N 
HETATM   11  C5  UNL     1     -24.395  -6.410  16.329  1.00  0.00     0.362 C 
HETATM   12  O1  UNL     1     -24.158  -6.155  17.542  1.00  0.00    -0.238 OA
ATOM     13  H1  UNL     1     -25.460  -6.954  14.721  1.00  0.00     0.165 HD
BRANCH  11  14
HETATM   14  O2  UNL     1     -23.220  -6.237  15.537  1.00  0.00    -0.294 OA
BRANCH  14  15
HETATM   15  C6  UNL     1     -22.438  -7.282  15.068  1.00  0.00     0.061 C 
HETATM   16  C7  UNL     1     -22.771  -7.808  13.709  1.00  0.00     0.046 C 
HETATM   17  C8  UNL     1     -22.403  -8.462  16.027  1.00  0.00     0.046 C 
HETATM   18  C9  UNL     1     -21.003  -6.742  14.985  1.00  0.00     0.046 C 
ENDBRANCH  14  15
ENDBRANCH  11  14
ENDBRANCH   6  10
ENDBRANCH   3   6
ENDBRANCH   1   2
BRANCH   1  19
HETATM   19  C12 UNL     1     -31.205  -5.626  14.747  1.00  0.00     0.241 C 
HETATM   20  O4  UNL     1     -32.342  -5.110  14.943  1.00  0.00    -0.271 OA
HETATM   21  N3  UNL     1     -31.096  -6.889  14.112  1.00  0.00    -0.353 N 
ATOM     22  H3  UNL     1     -30.182  -7.318  13.962  1.00  0.00     0.163 HD
BRANCH  21  23
HETATM   23  C13 UNL     1     -32.281  -7.546  13.689  1.00  0.00     0.100 C 
HETATM   24  C14 UNL     1     -32.335  -8.025  12.291  1.00  0.00     0.018 C 
HETATM   25  C15 UNL     1     -33.649  -8.855  12.364  1.00  0.00     0.018 C 
HETATM   26  C20 UNL     1     -31.685  -9.378  12.229  1.00  0.00    -0.034 C 
HETATM   27  C16 UNL     1     -32.779  -9.760  13.210  1.00  0.00    -0.025 C 
HETATM   28  C17 UNL     1     -33.143 -11.146  13.393  1.00  0.00     0.017 C 
HETATM   29  C18 UNL     1     -32.492  -8.899  14.410  1.00  0.00     0.079 C 
HETATM   30  C21 UNL     1     -30.296  -9.549  12.708  1.00  0.00     0.016 C 
HETATM   31  C22 UNL     1     -31.858  -9.986  10.853  1.00  0.00     0.016 C 
BRANCH  29  32
HETATM   32  C19 UNL     1     -33.658  -8.815  15.336  1.00  0.00     0.238 C 
HETATM   33  O5  UNL     1     -33.812  -7.780  15.954  1.00  0.00    -0.306 OA
ENDBRANCH  29  32
ENDBRANCH  21  23
ENDBRANCH   1  19
BRANCH   1  34
HETATM   34  C23 UNL     1     -30.496  -3.765  16.075  1.00  0.00     0.009 C 
HETATM   35  C24 UNL     1     -30.149  -3.960  17.521  1.00  0.00     0.012 C 
HETATM   36  C25 UNL     1     -29.974  -2.446  15.536  1.00  0.00     0.012 C 
ENDBRANCH   1  34
TORSDOF 10
ENDMDL
MODEL 3
REMARK VINA RESULT: -6.056239319      1.894      2.846
REMARK  10 active torsions:
REMARK  status: ('A' for Active; 'I' for Inactive)
REMARK    1  A    between atoms: C2_2  and  C4_4 
REMARK    2  A    between atoms: C4_4  and  N1_5 
REMARK    3  A    between atoms: C4_4  and  C10_14 
REMARK       I    between atoms: N1_5  and  C5_7 
REMARK    4  A    between atoms: C5_7  and  O2_9 
REMARK    5  A    between atoms: O2_9  and  C6_10 
REMARK       I    between atoms: C10_14  and  N2_16 
REMARK    6  A    between atoms: N2_16  and  C11_18 
REMARK    7  A    between atoms: C11_18  and  C12_19 
REMARK    8  A    between atoms: C11_18  and  C23_34 
REMARK       I    between atoms: C12_19  and  N3_21 
REMARK    9  A    between atoms: N3_21  and  C13_23 
REMARK   10  A    between atoms: C18_28  and  C19_29 
ROOT
HETATM    1  C11 UNL     1     -28.370  -4.953  15.888  1.00  0.00     0.180 C 
ENDROOT
BRANCH   1   2
HETATM    2  N2  UNL     1     -29.476  -5.262  14.998  1.00  0.00    -0.346 N 
HETATM    3  C10 UNL     1     -30.341  -6.356  15.238  1.00  0.00     0.241 C 
HETATM    4  O3  UNL     1     -30.106  -7.042  16.291  1.00  0.00    -0.271 OA
ATOM      5  H2  UNL     1     -29.633  -4.675  14.179  1.00  0.00     0.163 HD
BRANCH   3   6
HETATM    6  C4  UNL     1     -31.473  -6.791  14.420  1.00  0.00     0.182 C 
BRANCH   6   7
HETATM    7  C2  UNL     1     -31.187  -6.809  12.925  1.00  0.00     0.009 C 
HETATM    8  C1  UNL     1     -32.486  -6.603  12.138  1.00  0.00     0.012 C 
HETATM    9  C3  UNL     1     -30.811  -8.260  12.523  1.00  0.00     0.012 C 
ENDBRANCH   6   7
BRANCH   6  10
HETATM   10  N1  UNL     1     -31.962  -8.064  14.880  1.00  0.00    -0.323 N 
HETATM   11  C5  UNL     1     -33.067  -8.481  15.588  1.00  0.00     0.362 C 
HETATM   12  O1  UNL     1     -34.031  -7.809  16.048  1.00  0.00    -0.238 OA
ATOM     13  H1  UNL     1     -31.347  -8.837  14.622  1.00  0.00     0.165 HD
BRANCH  11  14
HETATM   14  O2  UNL     1     -33.226  -9.867  15.891  1.00  0.00    -0.294 OA
BRANCH  14  15
HETATM   15  C6  UNL     1     -33.815 -10.787  15.037  1.00  0.00     0.061 C 
HETATM   16  C7  UNL     1     -34.287 -10.268  13.718  1.00  0.00     0.046 C 
HETATM   17  C8  UNL     1     -34.974 -11.526  15.687  1.00  0.00     0.046 C 
HETATM   18  C9  UNL     1     -32.741 -11.840  14.730  1.00  0.00     0.046 C 
ENDBRANCH  14  15
ENDBRANCH  11  14
ENDBRANCH   6  10
ENDBRANCH   3   6
ENDBRANCH   1   2
BRANCH   1  19
HETATM   19  C12 UNL     1     -27.152  -5.609  15.379  1.00  0.00     0.241 C 
HETATM   20  O4  UNL     1     -26.912  -5.599  14.139  1.00  0.00    -0.271 OA
HETATM   21  N3  UNL     1     -26.256  -6.249  16.273  1.00  0.00    -0.353 N 
ATOM     22  H3  UNL     1     -26.449  -6.272  17.274  1.00  0.00     0.163 HD
BRANCH  21  23
HETATM   23  C13 UNL     1     -25.085  -6.856  15.748  1.00  0.00     0.100 C 
HETATM   24  C14 UNL     1     -23.780  -6.297  16.164  1.00  0.00     0.018 C 
HETATM   25  C15 UNL     1     -22.843  -7.387  15.569  1.00  0.00     0.018 C 
HETATM   26  C20 UNL     1     -23.394  -6.922  17.474  1.00  0.00    -0.034 C 
HETATM   27  C16 UNL     1     -23.453  -8.214  16.680  1.00  0.00    -0.025 C 
HETATM   28  C17 UNL     1     -22.771  -9.395  17.158  1.00  0.00     0.017 C 
HETATM   29  C18 UNL     1     -24.895  -8.304  16.259  1.00  0.00     0.079 C 
HETATM   30  C21 UNL     1     -24.311  -6.829  18.632  1.00  0.00     0.016 C 
HETATM   31  C22 UNL     1     -21.991  -6.507  17.865  1.00  0.00     0.016 C 
BRANCH  29  32
HETATM   32  C19 UNL     1     -25.098  -9.275  15.146  1.00  0.00     0.238 C 
HETATM   33  O5  UNL     1     -25.978  -9.035  14.344  1.00  0.00    -0.306 OA
ENDBRANCH  29  32
ENDBRANCH  21  23
ENDBRANCH   1  19
BRANCH   1  34
HETATM   34  C23 UNL     1     -28.068  -3.453  15.866  1.00  0.00     0.009 C 
HETATM   35  C24 UNL     1     -29.137  -2.653  15.181  1.00  0.00     0.012 C 
HETATM   36  C25 UNL     1     -27.818  -2.973  17.283  1.00  0.00     0.012 C 
ENDBRANCH   1  34
TORSDOF 10
ENDMDL
MODEL 4
REMARK VINA RESULT: -6.044636117      2.650      7.285
REMARK  10 active torsions:
REMARK  status: ('A' for Active; 'I' for Inactive)
REMARK    1  A    between atoms: C2_2  and  C4_4 
REMARK    2  A    between atoms: C4_4  and  N1_5 
REMARK    3  A    between atoms: C4_4  and  C10_14 
REMARK       I    between atoms: N1_5  and  C5_7 
REMARK    4  A    between atoms: C5_7  and  O2_9 
REMARK    5  A    between atoms: O2_9  and  C6_10 
REMARK       I    between atoms: C10_14  and  N2_16 
REMARK    6  A    between atoms: N2_16  and  C11_18 
REMARK    7  A    between atoms: C11_18  and  C12_19 
REMARK    8  A    between atoms: C11_18  and  C23_34 
REMARK       I    between atoms: C12_19  and  N3_21 
REMARK    9  A    between atoms: N3_21  and  C13_23 
REMARK   10  A    between atoms: C18_28  and  C19_29 
ROOT
HETATM    1  C11 UNL     1     -29.786  -4.883  15.387  1.00  0.00     0.180 C 
ENDROOT
BRANCH   1   2
HETATM    2  N2  UNL     1     -28.911  -5.598  16.302  1.00  0.00    -0.346 N 
HETATM    3  C10 UNL     1     -27.761  -4.991  16.860  1.00  0.00     0.241 C 
HETATM    4  O3  UNL     1     -27.548  -3.774  16.531  1.00  0.00    -0.271 OA
ATOM      5  H2  UNL     1     -29.132  -6.563  16.547  1.00  0.00     0.163 HD
BRANCH   3   6
HETATM    6  C4  UNL     1     -26.790  -5.597  17.771  1.00  0.00     0.182 C 
BRANCH   6   7
HETATM    7  C2  UNL     1     -27.224  -6.943  18.335  1.00  0.00     0.009 C 
HETATM    8  C1  UNL     1     -28.212  -6.735  19.488  1.00  0.00     0.012 C 
HETATM    9  C3  UNL     1     -26.013  -7.569  19.076  1.00  0.00     0.012 C 
ENDBRANCH   6   7
BRANCH   6  10
HETATM   10  N1  UNL     1     -25.498  -5.679  17.141  1.00  0.00    -0.323 N 
HETATM   11  C5  UNL     1     -25.023  -6.223  15.969  1.00  0.00     0.362 C 
HETATM   12  O1  UNL     1     -25.642  -6.832  15.054  1.00  0.00    -0.238 OA
ATOM     13  H1  UNL     1     -24.765  -5.230  17.690  1.00  0.00     0.165 HD
BRANCH  11  14
HETATM   14  O2  UNL     1     -23.632  -6.129  15.664  1.00  0.00    -0.294 OA
BRANCH  14  15
HETATM   15  C6  UNL     1     -22.655  -6.931  16.233  1.00  0.00     0.061 C 
HETATM   16  C7  UNL     1     -23.067  -8.314  16.621  1.00  0.00     0.046 C 
HETATM   17  C8  UNL     1     -22.002  -6.284  17.445  1.00  0.00     0.046 C 
HETATM   18  C9  UNL     1     -21.555  -7.087  15.175  1.00  0.00     0.046 C 
ENDBRANCH  14  15
ENDBRANCH  11  14
ENDBRANCH   6  10
ENDBRANCH   3   6
ENDBRANCH   1   2
BRANCH   1  19
HETATM   19  C12 UNL     1     -29.907  -5.660  14.141  1.00  0.00     0.241 C 
HETATM   20  O4  UNL     1     -29.103  -5.442  13.191  1.00  0.00    -0.271 OA
HETATM   21  N3  UNL     1     -30.918  -6.645  14.006  1.00  0.00    -0.353 N 
ATOM     22  H3  UNL     1     -31.579  -6.818  14.764  1.00  0.00     0.163 HD
BRANCH  21  23
HETATM   23  C13 UNL     1     -30.994  -7.385  12.797  1.00  0.00     0.100 C 
HETATM   24  C14 UNL     1     -30.702  -8.834  12.863  1.00  0.00     0.018 C 
HETATM   25  C15 UNL     1     -31.136  -9.240  11.426  1.00  0.00     0.018 C 
HETATM   26  C20 UNL     1     -31.959  -9.552  13.262  1.00  0.00    -0.034 C 
HETATM   27  C16 UNL     1     -32.510  -8.942  11.986  1.00  0.00    -0.025 C 
HETATM   28  C17 UNL     1     -33.683  -9.503  11.357  1.00  0.00     0.017 C 
HETATM   29  C18 UNL     1     -32.437  -7.461  12.244  1.00  0.00     0.079 C 
HETATM   30  C21 UNL     1     -32.654  -9.178  14.513  1.00  0.00     0.016 C 
HETATM   31  C22 UNL     1     -31.759 -11.051  13.186  1.00  0.00     0.016 C 
BRANCH  29  32
HETATM   32  C19 UNL     1     -32.552  -6.663  10.989  1.00  0.00     0.238 C 
HETATM   33  O5  UNL     1     -33.604  -6.094  10.778  1.00  0.00    -0.306 OA
ENDBRANCH  29  32
ENDBRANCH  21  23
ENDBRANCH   1  19
BRANCH   1  34
HETATM   34  C23 UNL     1     -31.203  -4.797  15.958  1.00  0.00     0.009 C 
HETATM   35  C24 UNL     1     -31.297  -5.310  17.365  1.00  0.00     0.012 C 
HETATM   36  C25 UNL     1     -31.704  -3.370  15.837  1.00  0.00     0.012 C 
ENDBRANCH   1  34
TORSDOF 10
ENDMDL
MODEL 5
REMARK VINA RESULT: -5.987283996      2.479      4.149
REMARK  10 active torsions:
REMARK  status: ('A' for Active; 'I' for Inactive)
REMARK    1  A    between atoms: C2_2  and  C4_4 
REMARK    2  A    between atoms: C4_4  and  N1_5 
REMARK    3  A    between atoms: C4_4  and  C10_14 
REMARK       I    between atoms: N1_5  and  C5_7 
REMARK    4  A    between atoms: C5_7  and  O2_9 
REMARK    5  A    between atoms: O2_9  and  C6_10 
REMARK       I    between atoms: C10_14  and  N2_16 
REMARK    6  A    between atoms: N2_16  and  C11_18 
REMARK    7  A    between atoms: C11_18  and  C12_19 
REMARK    8  A    between atoms: C11_18  and  C23_34 
REMARK       I    between atoms: C12_19  and  N3_21 
REMARK    9  A    between atoms: N3_21  and  C13_23 
REMARK   10  A    between atoms: C18_28  and  C19_29 
ROOT
HETATM    1  C11 UNL     1     -27.003  -5.362  19.046  1.00  0.00     0.180 C 
ENDROOT
BRANCH   1   2
HETATM    2  N2  UNL     1     -27.486  -4.856  17.772  1.00  0.00    -0.346 N 
HETATM    3  C10 UNL     1     -28.823  -5.053  17.351  1.00  0.00     0.241 C 
HETATM    4  O3  UNL     1     -29.585  -5.682  18.163  1.00  0.00    -0.271 OA
ATOM      5  H2  UNL     1     -26.845  -4.345  17.165  1.00  0.00     0.163 HD
BRANCH   3   6
HETATM    6  C4  UNL     1     -29.433  -4.618  16.094  1.00  0.00     0.182 C 
BRANCH   6   7
HETATM    7  C2  UNL     1     -28.432  -4.132  15.055  1.00  0.00     0.009 C 
HETATM    8  C1  UNL     1     -29.121  -3.192  14.060  1.00  0.00     0.012 C 
HETATM    9  C3  UNL     1     -28.064  -5.330  14.141  1.00  0.00     0.012 C 
ENDBRANCH   6   7
BRANCH   6  10
HETATM   10  N1  UNL     1     -30.281  -5.654  15.566  1.00  0.00    -0.323 N 
HETATM   11  C5  UNL     1     -31.624  -5.755  15.278  1.00  0.00     0.362 C 
HETATM   12  O1  UNL     1     -32.541  -4.897  15.395  1.00  0.00    -0.238 OA
ATOM     13  H1  UNL     1     -29.770  -6.512  15.357  1.00  0.00     0.165 HD
BRANCH  11  14
HETATM   14  O2  UNL     1     -32.141  -6.982  14.764  1.00  0.00    -0.294 OA
BRANCH  14  15
HETATM   15  C6  UNL     1     -31.838  -7.490  13.510  1.00  0.00     0.061 C 
HETATM   16  C7  UNL     1     -30.569  -8.269  13.393  1.00  0.00     0.046 C 
HETATM   17  C8  UNL     1     -31.825  -6.416  12.433  1.00  0.00     0.046 C 
HETATM   18  C9  UNL     1     -32.975  -8.456  13.150  1.00  0.00     0.046 C 
ENDBRANCH  14  15
ENDBRANCH  11  14
ENDBRANCH   6  10
ENDBRANCH   3   6
ENDBRANCH   1   2
BRANCH   1  19
HETATM   19  C12 UNL     1     -25.726  -6.063  18.825  1.00  0.00     0.241 C 
HETATM   20  O4  UNL     1     -24.900  -6.166  19.775  1.00  0.00    -0.271 OA
HETATM   21  N3  UNL     1     -25.424  -6.619  17.555  1.00  0.00    -0.353 N 
ATOM     22  H3  UNL     1     -26.080  -6.529  16.779  1.00  0.00     0.163 HD
BRANCH  21  23
HETATM   23  C13 UNL     1     -24.191  -7.302  17.384  1.00  0.00     0.100 C 
HETATM   24  C14 UNL     1     -24.235  -8.650  16.777  1.00  0.00     0.018 C 
HETATM   25  C15 UNL     1     -22.711  -8.879  16.572  1.00  0.00     0.018 C 
HETATM   26  C20 UNL     1     -24.239  -8.495  15.283  1.00  0.00    -0.034 C 
HETATM   27  C16 UNL     1     -22.907  -7.808  15.521  1.00  0.00    -0.025 C 
HETATM   28  C17 UNL     1     -21.954  -7.671  14.444  1.00  0.00     0.017 C 
HETATM   29  C18 UNL     1     -23.273  -6.608  16.351  1.00  0.00     0.079 C 
HETATM   30  C21 UNL     1     -25.285  -7.675  14.631  1.00  0.00     0.016 C 
HETATM   31  C22 UNL     1     -24.119  -9.847  14.611  1.00  0.00     0.016 C 
BRANCH  29  32
HETATM   32  C19 UNL     1     -22.088  -6.009  17.032  1.00  0.00     0.238 C 
HETATM   33  O5  UNL     1     -22.145  -5.866  18.237  1.00  0.00    -0.306 OA
ENDBRANCH  29  32
ENDBRANCH  21  23
ENDBRANCH   1  19
BRANCH   1  34
HETATM   34  C23 UNL     1     -26.680  -4.205  19.994  1.00  0.00     0.009 C 
HETATM   35  C24 UNL     1     -26.930  -2.860  19.379  1.00  0.00     0.012 C 
HETATM   36  C25 UNL     1     -27.447  -4.392  21.289  1.00  0.00     0.012 C 
ENDBRANCH   1  34
TORSDOF 10
ENDMDL
