MODEL 1
REMARK VINA RESULT: -9.228039844      0.000      0.000
REMARK  9 active torsions:
REMARK  status: ('A' for Active; 'I' for Inactive)
REMARK    1  A    between atoms: C2_2  and  C3_3 
REMARK    2  A    between atoms: C3_3  and  C4_4 
REMARK    3  A    between atoms: C3_3  and  N1_15 
REMARK    4  A    between atoms: C5_5  and  S1_6 
REMARK    5  A    between atoms: S1_6  and  C6_9 
REMARK       I    between atoms: N1_15  and  C12_17 
REMARK    6  A    between atoms: C12_17  and  C13_19 
REMARK    7  A    between atoms: C13_19  and  N2_20 
REMARK    8  A    between atoms: C13_19  and  C23_32 
REMARK       I    between atoms: N2_20  and  C14_22 
REMARK    9  A    between atoms: C14_22  and  C15_24 
ROOT
HETATM    1  N1  UNL     1     -19.464  -6.916  13.375  1.00  0.00    -0.351 N 
ATOM      2  H1  UNL     1     -19.488  -5.899  13.450  1.00  0.00     0.163 HD
HETATM    3  C12 UNL     1     -18.233  -7.574  13.524  1.00  0.00     0.251 C 
HETATM    4  O3  UNL     1     -18.142  -8.819  13.442  1.00  0.00    -0.271 OA
ENDROOT
BRANCH   3   5
HETATM    5  C13 UNL     1     -17.003  -6.801  13.786  1.00  0.00     0.278 C 
BRANCH   5   6
HETATM    6  N2  UNL     1     -16.225  -6.642  12.566  1.00  0.00    -0.339 N 
HETATM    7  C14 UNL     1     -14.858  -7.001  12.504  1.00  0.00     0.223 C 
HETATM    8  O4  UNL     1     -14.323  -7.469  13.541  1.00  0.00    -0.273 OA
ATOM      9  H2  UNL     1     -16.677  -6.262  11.734  1.00  0.00     0.163 HD
BRANCH   7  10
HETATM   10  C15 UNL     1     -14.029  -6.857  11.293  1.00  0.00     0.078 C 
HETATM   11  C16 UNL     1     -13.343  -8.165  11.029  1.00  0.00     0.014 C 
HETATM   12  C17 UNL     1     -11.930  -8.035  10.532  1.00  0.00     0.001 C 
HETATM   13  C18 UNL     1     -11.912  -8.357   9.054  1.00  0.00     0.000 C 
HETATM   14  C19 UNL     1     -11.893  -7.112   8.206  1.00  0.00     0.000 C 
HETATM   15  C20 UNL     1     -12.936  -6.108   8.647  1.00  0.00     0.000 C 
HETATM   16  C21 UNL     1     -14.298  -6.707   8.787  1.00  0.00     0.001 C 
HETATM   17  C22 UNL     1     -14.865  -6.383  10.145  1.00  0.00     0.014 C 
ENDBRANCH   7  10
ENDBRANCH   5   6
BRANCH   5  18
HETATM   18  C23 UNL     1     -17.425  -5.464  14.311  1.00  0.00     0.206 C 
HETATM   19  O5  UNL     1     -16.903  -4.438  13.763  1.00  0.00    -0.646 OA
HETATM   20  O6  UNL     1     -18.333  -5.296  15.338  1.00  0.00    -0.646 OA
ENDBRANCH   5  18
ENDBRANCH   3   5
BRANCH   1  21
HETATM   21  C3  UNL     1     -20.721  -7.635  13.113  1.00  0.00     0.107 C 
BRANCH  21  22
HETATM   22  C2  UNL     1     -21.135  -7.224  11.710  1.00  0.00     0.025 C 
HETATM   23  C1  UNL     1     -22.207  -8.128  11.157  1.00  0.00     0.007 C 
ENDBRANCH  21  22
BRANCH  21  24
HETATM   24  C4  UNL     1     -21.731  -7.349  14.134  1.00  0.00     0.010 C 
HETATM   25  C5  UNL     1     -21.423  -6.945  15.359  1.00  0.00     0.112 C 
BRANCH  25  26
HETATM   26  S1  UNL     1     -22.636  -6.605  16.574  1.00  0.00     0.196 S 
HETATM   27  O1  UNL     1     -22.070  -5.765  17.693  1.00  0.00    -0.218 OA
HETATM   28  O2  UNL     1     -23.773  -5.808  15.980  1.00  0.00    -0.218 OA
BRANCH  26  29
HETATM   29  C6  UNL     1     -23.251  -8.075  17.290  1.00  0.00     0.063 A 
HETATM   30  C7  UNL     1     -24.277  -7.975  18.201  1.00  0.00     0.024 A 
HETATM   31  C8  UNL     1     -24.798  -9.108  18.797  1.00  0.00     0.002 A 
HETATM   32  C9  UNL     1     -24.279 -10.356  18.468  1.00  0.00     0.000 A 
HETATM   33  C10 UNL     1     -23.253 -10.465  17.560  1.00  0.00     0.002 A 
HETATM   34  C11 UNL     1     -22.755  -9.316  16.983  1.00  0.00     0.024 A 
ENDBRANCH  26  29
ENDBRANCH  25  26
ENDBRANCH  21  24
ENDBRANCH   1  21
TORSDOF 9
ENDMDL
MODEL 2
REMARK VINA RESULT: -9.084805432      0.422      1.506
REMARK  9 active torsions:
REMARK  status: ('A' for Active; 'I' for Inactive)
REMARK    1  A    between atoms: C2_2  and  C3_3 
REMARK    2  A    between atoms: C3_3  and  C4_4 
REMARK    3  A    between atoms: C3_3  and  N1_15 
REMARK    4  A    between atoms: C5_5  and  S1_6 
REMARK    5  A    between atoms: S1_6  and  C6_9 
REMARK       I    between atoms: N1_15  and  C12_17 
REMARK    6  A    between atoms: C12_17  and  C13_19 
REMARK    7  A    between atoms: C13_19  and  N2_20 
REMARK    8  A    between atoms: C13_19  and  C23_32 
REMARK       I    between atoms: N2_20  and  C14_22 
REMARK    9  A    between atoms: C14_22  and  C15_24 
ROOT
HETATM    1  N1  UNL     1     -19.697  -6.942  13.257  1.00  0.00    -0.351 N 
ATOM      2  H1  UNL     1     -19.620  -5.925  13.235  1.00  0.00     0.163 HD
HETATM    3  C12 UNL     1     -18.539  -7.702  13.477  1.00  0.00     0.251 C 
HETATM    4  O3  UNL     1     -18.572  -8.952  13.515  1.00  0.00    -0.271 OA
ENDROOT
BRANCH   3   5
HETATM    5  C13 UNL     1     -17.236  -7.034  13.673  1.00  0.00     0.278 C 
BRANCH   5   6
HETATM    6  N2  UNL     1     -16.469  -7.029  12.436  1.00  0.00    -0.339 N 
HETATM    7  C14 UNL     1     -15.140  -7.511  12.384  1.00  0.00     0.223 C 
HETATM    8  O4  UNL     1     -14.629  -7.950  13.446  1.00  0.00    -0.273 OA
ATOM      9  H2  UNL     1     -16.901  -6.669  11.585  1.00  0.00     0.163 HD
BRANCH   7  10
HETATM   10  C15 UNL     1     -14.322  -7.524  11.157  1.00  0.00     0.078 C 
HETATM   11  C16 UNL     1     -14.111  -6.107  10.713  1.00  0.00     0.014 C 
HETATM   12  C17 UNL     1     -14.152  -5.912   9.222  1.00  0.00     0.001 C 
HETATM   13  C18 UNL     1     -12.737  -5.696   8.730  1.00  0.00     0.000 C 
HETATM   14  C19 UNL     1     -12.148  -6.950   8.141  1.00  0.00     0.000 C 
HETATM   15  C20 UNL     1     -12.354  -8.152   9.038  1.00  0.00     0.000 C 
HETATM   16  C21 UNL     1     -11.929  -7.904  10.449  1.00  0.00     0.001 C 
HETATM   17  C22 UNL     1     -13.044  -8.268  11.394  1.00  0.00     0.014 C 
ENDBRANCH   7  10
ENDBRANCH   5   6
BRANCH   5  18
HETATM   18  C23 UNL     1     -17.521  -5.631  14.113  1.00  0.00     0.206 C 
HETATM   19  O5  UNL     1     -16.827  -4.706  13.576  1.00  0.00    -0.646 OA
HETATM   20  O6  UNL     1     -18.480  -5.303  15.051  1.00  0.00    -0.646 OA
ENDBRANCH   5  18
ENDBRANCH   3   5
BRANCH   1  21
HETATM   21  C3  UNL     1     -21.020  -7.554  13.057  1.00  0.00     0.107 C 
BRANCH  21  22
HETATM   22  C2  UNL     1     -21.459  -7.118  11.668  1.00  0.00     0.025 C 
HETATM   23  C1  UNL     1     -22.162  -8.229  10.931  1.00  0.00     0.007 C 
ENDBRANCH  21  22
BRANCH  21  24
HETATM   24  C4  UNL     1     -21.958  -7.177  14.117  1.00  0.00     0.010 C 
HETATM   25  C5  UNL     1     -21.602  -7.071  15.390  1.00  0.00     0.112 C 
BRANCH  25  26
HETATM   26  S1  UNL     1     -22.727  -6.621  16.652  1.00  0.00     0.196 S 
HETATM   27  O1  UNL     1     -22.052  -5.794  17.719  1.00  0.00    -0.218 OA
HETATM   28  O2  UNL     1     -23.837  -5.762  16.091  1.00  0.00    -0.218 OA
BRANCH  26  29
HETATM   29  C6  UNL     1     -23.403  -8.027  17.436  1.00  0.00     0.063 A 
HETATM   30  C7  UNL     1     -22.790  -9.242  17.233  1.00  0.00     0.024 A 
HETATM   31  C8  UNL     1     -23.287 -10.386  17.831  1.00  0.00     0.002 A 
HETATM   32  C9  UNL     1     -24.414 -10.302  18.642  1.00  0.00     0.000 A 
HETATM   33  C10 UNL     1     -25.033  -9.092  18.848  1.00  0.00     0.002 A 
HETATM   34  C11 UNL     1     -24.513  -7.970  18.239  1.00  0.00     0.024 A 
ENDBRANCH  26  29
ENDBRANCH  25  26
ENDBRANCH  21  24
ENDBRANCH   1  21
TORSDOF 9
ENDMDL
MODEL 3
REMARK VINA RESULT: -9.041451339      2.336      3.110
REMARK  9 active torsions:
REMARK  status: ('A' for Active; 'I' for Inactive)
REMARK    1  A    between atoms: C2_2  and  C3_3 
REMARK    2  A    between atoms: C3_3  and  C4_4 
REMARK    3  A    between atoms: C3_3  and  N1_15 
REMARK    4  A    between atoms: C5_5  and  S1_6 
REMARK    5  A    between atoms: S1_6  and  C6_9 
REMARK       I    between atoms: N1_15  and  C12_17 
REMARK    6  A    between atoms: C12_17  and  C13_19 
REMARK    7  A    between atoms: C13_19  and  N2_20 
REMARK    8  A    between atoms: C13_19  and  C23_32 
REMARK       I    between atoms: N2_20  and  C14_22 
REMARK    9  A    between atoms: C14_22  and  C15_24 
ROOT
HETATM    1  N1  UNL     1     -20.040  -7.034  13.996  1.00  0.00    -0.351 N 
ATOM      2  H1  UNL     1     -19.946  -6.100  14.394  1.00  0.00     0.163 HD
HETATM    3  C12 UNL     1     -18.882  -7.715  13.591  1.00  0.00     0.251 C 
HETATM    4  O3  UNL     1     -18.936  -8.863  13.097  1.00  0.00    -0.271 OA
ENDROOT
BRANCH   3   5
HETATM    5  C13 UNL     1     -17.556  -7.084  13.743  1.00  0.00     0.278 C 
BRANCH   5   6
HETATM    6  N2  UNL     1     -16.786  -7.200  12.513  1.00  0.00    -0.339 N 
HETATM    7  C14 UNL     1     -15.384  -7.391  12.529  1.00  0.00     0.223 C 
HETATM    8  O4  UNL     1     -14.810  -7.460  13.646  1.00  0.00    -0.273 OA
ATOM      9  H2  UNL     1     -17.270  -7.143  11.617  1.00  0.00     0.163 HD
BRANCH   7  10
HETATM   10  C15 UNL     1     -14.562  -7.512  11.311  1.00  0.00     0.078 C 
HETATM   11  C16 UNL     1     -14.333  -6.136  10.756  1.00  0.00     0.014 C 
HETATM   12  C17 UNL     1     -14.365  -6.061   9.255  1.00  0.00     0.001 C 
HETATM   13  C18 UNL     1     -12.946  -5.900   8.754  1.00  0.00     0.000 C 
HETATM   14  C19 UNL     1     -12.368  -7.204   8.269  1.00  0.00     0.000 C 
HETATM   15  C20 UNL     1     -12.592  -8.328   9.259  1.00  0.00     0.000 C 
HETATM   16  C21 UNL     1     -12.170  -7.973  10.647  1.00  0.00     0.001 C 
HETATM   17  C22 UNL     1     -13.293  -8.248  11.613  1.00  0.00     0.014 C 
ENDBRANCH   7  10
ENDBRANCH   5   6
BRANCH   5  18
HETATM   18  C23 UNL     1     -17.788  -5.642  14.076  1.00  0.00     0.206 C 
HETATM   19  O5  UNL     1     -17.054  -5.136  14.986  1.00  0.00    -0.646 OA
HETATM   20  O6  UNL     1     -18.740  -4.858  13.456  1.00  0.00    -0.646 OA
ENDBRANCH   5  18
ENDBRANCH   3   5
BRANCH   1  21
HETATM   21  C3  UNL     1     -21.386  -7.615  13.869  1.00  0.00     0.107 C 
BRANCH  21  22
HETATM   22  C2  UNL     1     -21.938  -7.069  12.562  1.00  0.00     0.025 C 
HETATM   23  C1  UNL     1     -22.020  -8.136  11.502  1.00  0.00     0.007 C 
ENDBRANCH  21  22
BRANCH  21  24
HETATM   24  C4  UNL     1     -22.220  -7.310  15.034  1.00  0.00     0.010 C 
HETATM   25  C5  UNL     1     -23.542  -7.414  15.020  1.00  0.00     0.112 C 
BRANCH  25  26
HETATM   26  S1  UNL     1     -24.533  -7.048  16.416  1.00  0.00     0.196 S 
HETATM   27  O1  UNL     1     -25.087  -8.306  17.039  1.00  0.00    -0.218 OA
HETATM   28  O2  UNL     1     -23.711  -6.372  17.487  1.00  0.00    -0.218 OA
BRANCH  26  29
HETATM   29  C6  UNL     1     -25.893  -6.041  15.985  1.00  0.00     0.063 A 
HETATM   30  C7  UNL     1     -26.451  -6.198  14.738  1.00  0.00     0.024 A 
HETATM   31  C8  UNL     1     -27.529  -5.424  14.349  1.00  0.00     0.002 A 
HETATM   32  C9  UNL     1     -28.049  -4.481  15.230  1.00  0.00     0.000 A 
HETATM   33  C10 UNL     1     -27.497  -4.317  16.477  1.00  0.00     0.002 A 
HETATM   34  C11 UNL     1     -26.424  -5.105  16.836  1.00  0.00     0.024 A 
ENDBRANCH  26  29
ENDBRANCH  25  26
ENDBRANCH  21  24
ENDBRANCH   1  21
TORSDOF 9
ENDMDL
MODEL 4
REMARK VINA RESULT: -9.028418699      1.600      2.487
REMARK  9 active torsions:
REMARK  status: ('A' for Active; 'I' for Inactive)
REMARK    1  A    between atoms: C2_2  and  C3_3 
REMARK    2  A    between atoms: C3_3  and  C4_4 
REMARK    3  A    between atoms: C3_3  and  N1_15 
REMARK    4  A    between atoms: C5_5  and  S1_6 
REMARK    5  A    between atoms: S1_6  and  C6_9 
REMARK       I    between atoms: N1_15  and  C12_17 
REMARK    6  A    between atoms: C12_17  and  C13_19 
REMARK    7  A    between atoms: C13_19  and  N2_20 
REMARK    8  A    between atoms: C13_19  and  C23_32 
REMARK       I    between atoms: N2_20  and  C14_22 
REMARK    9  A    between atoms: C14_22  and  C15_24 
ROOT
HETATM    1  N1  UNL     1     -19.865  -7.108  14.094  1.00  0.00    -0.351 N 
ATOM      2  H1  UNL     1     -19.802  -6.190  14.533  1.00  0.00     0.163 HD
HETATM    3  C12 UNL     1     -18.688  -7.717  13.631  1.00  0.00     0.251 C 
HETATM    4  O3  UNL     1     -18.703  -8.841  13.085  1.00  0.00    -0.271 OA
ENDROOT
BRANCH   3   5
HETATM    5  C13 UNL     1     -17.387  -7.033  13.783  1.00  0.00     0.278 C 
BRANCH   5   6
HETATM    6  N2  UNL     1     -16.626  -7.095  12.544  1.00  0.00    -0.339 N 
HETATM    7  C14 UNL     1     -15.258  -7.456  12.530  1.00  0.00     0.223 C 
HETATM    8  O4  UNL     1     -14.707  -7.728  13.628  1.00  0.00    -0.273 OA
ATOM      9  H2  UNL     1     -17.090  -6.872  11.664  1.00  0.00     0.163 HD
BRANCH   7  10
HETATM   10  C15 UNL     1     -14.444  -7.531  11.302  1.00  0.00     0.078 C 
HETATM   11  C16 UNL     1     -14.304  -6.145  10.743  1.00  0.00     0.014 C 
HETATM   12  C17 UNL     1     -14.358  -6.075   9.242  1.00  0.00     0.001 C 
HETATM   13  C18 UNL     1     -12.958  -5.832   8.724  1.00  0.00     0.000 C 
HETATM   14  C19 UNL     1     -12.310  -7.100   8.234  1.00  0.00     0.000 C 
HETATM   15  C20 UNL     1     -12.455  -8.233   9.227  1.00  0.00     0.000 C 
HETATM   16  C21 UNL     1     -12.038  -7.851  10.610  1.00  0.00     0.001 C 
HETATM   17  C22 UNL     1     -13.131  -8.190  11.590  1.00  0.00     0.014 C 
ENDBRANCH   7  10
ENDBRANCH   5   6
BRANCH   5  18
HETATM   18  C23 UNL     1     -17.676  -5.609  14.145  1.00  0.00     0.206 C 
HETATM   19  O5  UNL     1     -16.971  -5.096  15.074  1.00  0.00    -0.646 OA
HETATM   20  O6  UNL     1     -18.649  -4.846  13.530  1.00  0.00    -0.646 OA
ENDBRANCH   5  18
ENDBRANCH   3   5
BRANCH   1  21
HETATM   21  C3  UNL     1     -21.186  -7.742  13.970  1.00  0.00     0.107 C 
BRANCH  21  22
HETATM   22  C2  UNL     1     -21.909  -6.959  12.887  1.00  0.00     0.025 C 
HETATM   23  C1  UNL     1     -22.057  -7.763  11.621  1.00  0.00     0.007 C 
ENDBRANCH  21  22
BRANCH  21  24
HETATM   24  C4  UNL     1     -21.896  -7.770  15.251  1.00  0.00     0.010 C 
HETATM   25  C5  UNL     1     -22.156  -6.677  15.954  1.00  0.00     0.112 C 
BRANCH  25  26
HETATM   26  S1  UNL     1     -23.005  -6.717  17.484  1.00  0.00     0.196 S 
HETATM   27  O1  UNL     1     -22.890  -8.071  18.140  1.00  0.00    -0.218 OA
HETATM   28  O2  UNL     1     -22.401  -5.726  18.452  1.00  0.00    -0.218 OA
BRANCH  26  29
HETATM   29  C6  UNL     1     -24.707  -6.384  17.278  1.00  0.00     0.063 A 
HETATM   30  C7  UNL     1     -25.169  -6.117  16.010  1.00  0.00     0.024 A 
HETATM   31  C8  UNL     1     -26.507  -5.846  15.794  1.00  0.00     0.002 A 
HETATM   32  C9  UNL     1     -27.389  -5.846  16.870  1.00  0.00     0.000 A 
HETATM   33  C10 UNL     1     -26.936  -6.110  18.140  1.00  0.00     0.002 A 
HETATM   34  C11 UNL     1     -25.595  -6.377  18.323  1.00  0.00     0.024 A 
ENDBRANCH  26  29
ENDBRANCH  25  26
ENDBRANCH  21  24
ENDBRANCH   1  21
TORSDOF 9
ENDMDL
MODEL 5
REMARK VINA RESULT: -8.991631858      4.871      7.303
REMARK  9 active torsions:
REMARK  status: ('A' for Active; 'I' for Inactive)
REMARK    1  A    between atoms: C2_2  and  C3_3 
REMARK    2  A    between atoms: C3_3  and  C4_4 
REMARK    3  A    between atoms: C3_3  and  N1_15 
REMARK    4  A    between atoms: C5_5  and  S1_6 
REMARK    5  A    between atoms: S1_6  and  C6_9 
REMARK       I    between atoms: N1_15  and  C12_17 
REMARK    6  A    between atoms: C12_17  and  C13_19 
REMARK    7  A    between atoms: C13_19  and  N2_20 
REMARK    8  A    between atoms: C13_19  and  C23_32 
REMARK       I    between atoms: N2_20  and  C14_22 
REMARK    9  A    between atoms: C14_22  and  C15_24 
ROOT
HETATM    1  N1  UNL     1     -25.215  -6.833  15.428  1.00  0.00    -0.351 N 
ATOM      2  H1  UNL     1     -25.715  -7.633  15.040  1.00  0.00     0.163 HD
HETATM    3  C12 UNL     1     -23.814  -6.816  15.361  1.00  0.00     0.251 C 
HETATM    4  O3  UNL     1     -23.147  -5.862  15.820  1.00  0.00    -0.271 OA
ENDROOT
BRANCH   3   5
HETATM    5  C13 UNL     1     -23.085  -7.940  14.739  1.00  0.00     0.278 C 
BRANCH   5   6
HETATM    6  N2  UNL     1     -21.664  -7.638  14.637  1.00  0.00    -0.339 N 
HETATM    7  C14 UNL     1     -21.036  -7.434  13.386  1.00  0.00     0.223 C 
HETATM    8  O4  UNL     1     -21.742  -7.520  12.349  1.00  0.00    -0.273 OA
ATOM      9  H2  UNL     1     -21.108  -7.571  15.489  1.00  0.00     0.163 HD
BRANCH   7  10
HETATM   10  C15 UNL     1     -19.601  -7.129  13.231  1.00  0.00     0.078 C 
HETATM   11  C16 UNL     1     -19.188  -6.218  14.349  1.00  0.00     0.014 C 
HETATM   12  C17 UNL     1     -18.208  -5.150  13.947  1.00  0.00     0.001 C 
HETATM   13  C18 UNL     1     -16.845  -5.525  14.486  1.00  0.00     0.000 C 
HETATM   14  C19 UNL     1     -15.974  -6.150  13.428  1.00  0.00     0.000 C 
HETATM   15  C20 UNL     1     -16.699  -7.235  12.662  1.00  0.00     0.000 C 
HETATM   16  C21 UNL     1     -17.356  -8.237  13.555  1.00  0.00     0.001 C 
HETATM   17  C22 UNL     1     -18.805  -8.396  13.173  1.00  0.00     0.014 C 
ENDBRANCH   7  10
ENDBRANCH   5   6
BRANCH   5  18
HETATM   18  C23 UNL     1     -23.299  -9.141  15.607  1.00  0.00     0.206 C 
HETATM   19  O5  UNL     1     -24.414  -9.747  15.487  1.00  0.00    -0.646 OA
HETATM   20  O6  UNL     1     -22.365  -9.610  16.509  1.00  0.00    -0.646 OA
ENDBRANCH   5  18
ENDBRANCH   3   5
BRANCH   1  21
HETATM   21  C3  UNL     1     -25.993  -5.742  16.035  1.00  0.00     0.107 C 
BRANCH  21  22
HETATM   22  C2  UNL     1     -26.307  -6.209  17.447  1.00  0.00     0.025 C 
HETATM   23  C1  UNL     1     -26.925  -7.583  17.456  1.00  0.00     0.007 C 
ENDBRANCH  21  22
BRANCH  21  24
HETATM   24  C4  UNL     1     -27.182  -5.417  15.243  1.00  0.00     0.010 C 
HETATM   25  C5  UNL     1     -27.961  -4.377  15.507  1.00  0.00     0.112 C 
BRANCH  25  26
HETATM   26  S1  UNL     1     -29.380  -3.995  14.557  1.00  0.00     0.196 S 
HETATM   27  O1  UNL     1     -30.174  -2.876  15.184  1.00  0.00    -0.218 OA
HETATM   28  O2  UNL     1     -28.983  -3.513  13.181  1.00  0.00    -0.218 OA
BRANCH  26  29
HETATM   29  C6  UNL     1     -30.445  -5.372  14.419  1.00  0.00     0.063 A 
HETATM   30  C7  UNL     1     -30.625  -5.934  13.176  1.00  0.00     0.024 A 
HETATM   31  C8  UNL     1     -31.459  -7.025  13.013  1.00  0.00     0.002 A 
HETATM   32  C9  UNL     1     -32.117  -7.555  14.119  1.00  0.00     0.000 A 
HETATM   33  C10 UNL     1     -31.944  -6.999  15.363  1.00  0.00     0.002 A 
HETATM   34  C11 UNL     1     -31.106  -5.912  15.493  1.00  0.00     0.024 A 
ENDBRANCH  26  29
ENDBRANCH  25  26
ENDBRANCH  21  24
ENDBRANCH   1  21
TORSDOF 9
ENDMDL
