MODEL 1
REMARK VINA RESULT: -7.057666764      0.000      0.000
REMARK  10 active torsions:
REMARK  status: ('A' for Active; 'I' for Inactive)
REMARK    1  A    between atoms: C2_2  and  C4_4 
REMARK    2  A    between atoms: C4_4  and  C5_5 
REMARK    3  A    between atoms: C5_5  and  N1_6 
REMARK    4  A    between atoms: C5_5  and  C12_17 
REMARK    5  A    between atoms: N1_6  and  C6_8 
REMARK    6  A    between atoms: C6_8  and  C7_12 
REMARK       I    between atoms: C12_17  and  N3_19 
REMARK    7  A    between atoms: C16_23  and  C17_24 
REMARK    8  A    between atoms: C16_23  and  C22_29 
REMARK    9  A    between atoms: C17_24  and  C18_25 
REMARK       I    between atoms: C22_29  and  N4_31 
REMARK   10  A    between atoms: N4_31  and  S1_33 
ROOT
HETATM    1  C12 UNL     1     -22.878  -8.129  15.325  1.00  0.00     0.243 C 
HETATM    2  O1  UNL     1     -21.983  -8.944  15.747  1.00  0.00    -0.271 OA
HETATM    3  N3  UNL     1     -24.120  -8.518  14.808  1.00  0.00    -0.332 N 
HETATM    4  C13 UNL     1     -25.127  -7.639  14.270  1.00  0.00     0.127 C 
HETATM    5  C14 UNL     1     -26.358  -8.151  15.023  1.00  0.00     0.023 C 
HETATM    6  C15 UNL     1     -26.078  -9.610  15.279  1.00  0.00     0.043 C 
HETATM    7  C16 UNL     1     -24.753  -9.841  14.679  1.00  0.00     0.117 C 
ENDROOT
BRANCH   1   8
HETATM    8  C5  UNL     1     -22.487  -6.695  15.424  1.00  0.00     0.175 C 
BRANCH   8   9
HETATM    9  C4  UNL     1     -22.390  -6.237  16.847  1.00  0.00     0.038 C 
BRANCH   9  10
HETATM   10  C2  UNL     1     -23.155  -6.933  17.893  1.00  0.00    -0.020 C 
HETATM   11  C1  UNL     1     -24.456  -6.358  18.316  1.00  0.00     0.009 C 
HETATM   12  C3  UNL     1     -22.258  -6.932  19.148  1.00  0.00     0.009 C 
ENDBRANCH   9  10
ENDBRANCH   8   9
BRANCH   8  13
HETATM   13  N1  UNL     1     -21.129  -6.598  14.897  1.00  0.00    -0.366 N 
ATOM     14  H1  UNL     1     -20.417  -6.262  15.546  1.00  0.00     0.161 HD
BRANCH  13  15
HETATM   15  C6  UNL     1     -20.685  -6.917  13.589  1.00  0.00     0.075 C 
HETATM   16  N2  UNL     1     -21.330  -7.652  12.781  1.00  0.00    -0.389 N 
ATOM     17  H22 UNL     1     -22.233  -8.026  13.072  1.00  0.00     0.157 HD
ATOM     18  H21 UNL     1     -21.010  -7.881  11.840  1.00  0.00     0.157 HD
BRANCH  15  19
HETATM   19  C7  UNL     1     -19.367  -6.371  13.164  1.00  0.00     0.057 C 
HETATM   20  C8  UNL     1     -18.604  -5.887  14.421  1.00  0.00     0.017 C 
HETATM   21  C9  UNL     1     -17.735  -7.121  14.237  1.00  0.00    -0.009 A 
HETATM   22  C10 UNL     1     -16.868  -7.043  13.033  1.00  0.00     0.011 A 
HETATM   23  C11 UNL     1     -18.314  -7.354  12.837  1.00  0.00     0.001 A 
ENDBRANCH  15  19
ENDBRANCH  13  15
ENDBRANCH   8  13
ENDBRANCH   1   8
BRANCH   7  24
HETATM   24  C17 UNL     1     -23.912 -10.874  15.332  1.00  0.00     0.049 C 
BRANCH  24  25
HETATM   25  C18 UNL     1     -24.361 -11.542  16.561  1.00  0.00    -0.049 C 
HETATM   26  C19 UNL     1     -24.177 -10.740  17.841  1.00  0.00     0.014 C 
HETATM   27  C20 UNL     1     -25.665 -12.232  16.575  1.00  0.00     0.014 C 
HETATM   28  C21 UNL     1     -23.300 -12.685  16.742  1.00  0.00     0.014 C 
ENDBRANCH  24  25
ENDBRANCH   7  24
BRANCH   7  29
HETATM   29  C22 UNL     1     -24.847 -10.106  13.220  1.00  0.00     0.259 C 
HETATM   30  O2  UNL     1     -23.925  -9.743  12.439  1.00  0.00    -0.270 OA
HETATM   31  N4  UNL     1     -25.947 -10.763  12.617  1.00  0.00    -0.253 N 
ATOM     32  H4  UNL     1     -26.714 -11.072  13.215  1.00  0.00     0.181 HD
BRANCH  31  33
HETATM   33  S1  UNL     1     -26.052 -11.063  10.936  1.00  0.00     0.229 S 
HETATM   34  C23 UNL     1     -27.763 -11.148  10.414  1.00  0.00     0.186 C 
HETATM   35  O3  UNL     1     -25.470 -12.437  10.647  1.00  0.00    -0.206 OA
HETATM   36  O4  UNL     1     -25.338 -10.014  10.128  1.00  0.00    -0.206 OA
ENDBRANCH  31  33
ENDBRANCH   7  29
TORSDOF 10
ENDMDL
MODEL 2
REMARK VINA RESULT: -7.047605306      4.823      6.507
REMARK  10 active torsions:
REMARK  status: ('A' for Active; 'I' for Inactive)
REMARK    1  A    between atoms: C2_2  and  C4_4 
REMARK    2  A    between atoms: C4_4  and  C5_5 
REMARK    3  A    between atoms: C5_5  and  N1_6 
REMARK    4  A    between atoms: C5_5  and  C12_17 
REMARK    5  A    between atoms: N1_6  and  C6_8 
REMARK    6  A    between atoms: C6_8  and  C7_12 
REMARK       I    between atoms: C12_17  and  N3_19 
REMARK    7  A    between atoms: C16_23  and  C17_24 
REMARK    8  A    between atoms: C16_23  and  C22_29 
REMARK    9  A    between atoms: C17_24  and  C18_25 
REMARK       I    between atoms: C22_29  and  N4_31 
REMARK   10  A    between atoms: N4_31  and  S1_33 
ROOT
HETATM    1  C12 UNL     1     -26.292  -6.515  16.064  1.00  0.00     0.243 C 
HETATM    2  O1  UNL     1     -26.234  -6.868  14.834  1.00  0.00    -0.271 OA
HETATM    3  N3  UNL     1     -27.476  -6.194  16.739  1.00  0.00    -0.332 N 
HETATM    4  C13 UNL     1     -27.578  -5.736  18.101  1.00  0.00     0.127 C 
HETATM    5  C14 UNL     1     -28.669  -6.678  18.619  1.00  0.00     0.023 C 
HETATM    6  C15 UNL     1     -29.516  -6.994  17.412  1.00  0.00     0.043 C 
HETATM    7  C16 UNL     1     -28.885  -6.240  16.314  1.00  0.00     0.117 C 
ENDROOT
BRANCH   1   8
HETATM    8  C5  UNL     1     -24.967  -6.463  16.744  1.00  0.00     0.175 C 
BRANCH   8   9
HETATM    9  C4  UNL     1     -24.766  -7.623  17.670  1.00  0.00     0.038 C 
BRANCH   9  10
HETATM   10  C2  UNL     1     -24.864  -8.997  17.152  1.00  0.00    -0.020 C 
HETATM   11  C1  UNL     1     -25.975  -9.855  17.635  1.00  0.00     0.009 C 
HETATM   12  C3  UNL     1     -23.561  -9.705  17.577  1.00  0.00     0.009 C 
ENDBRANCH   9  10
ENDBRANCH   8   9
BRANCH   8  13
HETATM   13  N1  UNL     1     -23.959  -6.627  15.701  1.00  0.00    -0.366 N 
ATOM     14  H1  UNL     1     -24.306  -6.873  14.774  1.00  0.00     0.161 HD
BRANCH  13  15
HETATM   15  C6  UNL     1     -22.553  -6.484  15.826  1.00  0.00     0.075 C 
HETATM   16  N2  UNL     1     -21.992  -5.553  16.481  1.00  0.00    -0.389 N 
ATOM     17  H22 UNL     1     -22.576  -4.873  16.966  1.00  0.00     0.157 HD
ATOM     18  H21 UNL     1     -20.982  -5.451  16.571  1.00  0.00     0.157 HD
BRANCH  15  19
HETATM   19  C7  UNL     1     -21.701  -7.477  15.118  1.00  0.00     0.057 C 
HETATM   20  C8  UNL     1     -22.378  -7.841  13.775  1.00  0.00     0.017 C 
HETATM   21  C9  UNL     1     -21.292  -6.998  13.123  1.00  0.00    -0.009 A 
HETATM   22  C10 UNL     1     -19.945  -7.617  13.218  1.00  0.00     0.011 A 
HETATM   23  C11 UNL     1     -20.500  -6.955  14.435  1.00  0.00     0.001 A 
ENDBRANCH  15  19
ENDBRANCH  13  15
ENDBRANCH   8  13
ENDBRANCH   1   8
BRANCH   7  24
HETATM   24  C17 UNL     1     -28.990  -6.845  14.963  1.00  0.00     0.049 C 
BRANCH  24  25
HETATM   25  C18 UNL     1     -30.281  -6.908  14.266  1.00  0.00    -0.049 C 
HETATM   26  C19 UNL     1     -31.491  -7.144  15.159  1.00  0.00     0.014 C 
HETATM   27  C20 UNL     1     -30.598  -5.902  13.234  1.00  0.00     0.014 C 
HETATM   28  C21 UNL     1     -30.188  -8.267  13.484  1.00  0.00     0.014 C 
ENDBRANCH  24  25
ENDBRANCH   7  24
BRANCH   7  29
HETATM   29  C22 UNL     1     -29.346  -4.828  16.279  1.00  0.00     0.259 C 
HETATM   30  O2  UNL     1     -30.359  -4.464  16.937  1.00  0.00    -0.270 OA
HETATM   31  N4  UNL     1     -28.702  -3.818  15.524  1.00  0.00    -0.253 N 
ATOM     32  H4  UNL     1     -27.879  -4.072  14.977  1.00  0.00     0.181 HD
BRANCH  31  33
HETATM   33  S1  UNL     1     -29.238  -2.194  15.484  1.00  0.00     0.229 S 
HETATM   34  C23 UNL     1     -29.058  -1.429  17.094  1.00  0.00     0.186 C 
HETATM   35  O3  UNL     1     -30.729  -2.176  15.190  1.00  0.00    -0.206 OA
HETATM   36  O4  UNL     1     -28.496  -1.378  14.461  1.00  0.00    -0.206 OA
ENDBRANCH  31  33
ENDBRANCH   7  29
TORSDOF 10
ENDMDL
MODEL 3
REMARK VINA RESULT: -7.018331370      3.839      5.113
REMARK  10 active torsions:
REMARK  status: ('A' for Active; 'I' for Inactive)
REMARK    1  A    between atoms: C2_2  and  C4_4 
REMARK    2  A    between atoms: C4_4  and  C5_5 
REMARK    3  A    between atoms: C5_5  and  N1_6 
REMARK    4  A    between atoms: C5_5  and  C12_17 
REMARK    5  A    between atoms: N1_6  and  C6_8 
REMARK    6  A    between atoms: C6_8  and  C7_12 
REMARK       I    between atoms: C12_17  and  N3_19 
REMARK    7  A    between atoms: C16_23  and  C17_24 
REMARK    8  A    between atoms: C16_23  and  C22_29 
REMARK    9  A    between atoms: C17_24  and  C18_25 
REMARK       I    between atoms: C22_29  and  N4_31 
REMARK   10  A    between atoms: N4_31  and  S1_33 
ROOT
HETATM    1  C12 UNL     1     -24.976  -7.591  15.041  1.00  0.00     0.243 C 
HETATM    2  O1  UNL     1     -25.293  -8.538  14.238  1.00  0.00    -0.271 OA
HETATM    3  N3  UNL     1     -25.901  -6.788  15.720  1.00  0.00    -0.332 N 
HETATM    4  C13 UNL     1     -25.587  -5.678  16.583  1.00  0.00     0.127 C 
HETATM    5  C14 UNL     1     -26.452  -6.032  17.797  1.00  0.00     0.023 C 
HETATM    6  C15 UNL     1     -27.623  -6.795  17.232  1.00  0.00     0.043 C 
HETATM    7  C16 UNL     1     -27.372  -6.831  15.781  1.00  0.00     0.117 C 
ENDROOT
BRANCH   1   8
HETATM    8  C5  UNL     1     -23.507  -7.398  15.202  1.00  0.00     0.175 C 
BRANCH   8   9
HETATM    9  C4  UNL     1     -22.973  -8.131  16.395  1.00  0.00     0.038 C 
BRANCH   9  10
HETATM   10  C2  UNL     1     -22.339  -7.381  17.490  1.00  0.00    -0.020 C 
HETATM   11  C1  UNL     1     -23.084  -7.228  18.764  1.00  0.00     0.009 C 
HETATM   12  C3  UNL     1     -22.114  -5.953  16.952  1.00  0.00     0.009 C 
ENDBRANCH   9  10
ENDBRANCH   8   9
BRANCH   8  13
HETATM   13  N1  UNL     1     -22.877  -8.033  14.049  1.00  0.00    -0.366 N 
ATOM     14  H1  UNL     1     -23.315  -8.889  13.711  1.00  0.00     0.161 HD
BRANCH  13  15
HETATM   15  C6  UNL     1     -21.726  -7.596  13.344  1.00  0.00     0.075 C 
HETATM   16  N2  UNL     1     -21.695  -7.403  12.091  1.00  0.00    -0.389 N 
ATOM     17  H22 UNL     1     -22.547  -7.547  11.550  1.00  0.00     0.157 HD
ATOM     18  H21 UNL     1     -20.867  -7.089  11.584  1.00  0.00     0.157 HD
BRANCH  15  19
HETATM   19  C7  UNL     1     -20.482  -7.385  14.133  1.00  0.00     0.057 C 
HETATM   20  C8  UNL     1     -19.303  -8.054  13.386  1.00  0.00     0.017 C 
HETATM   21  C9  UNL     1     -18.872  -6.641  13.024  1.00  0.00    -0.009 A 
HETATM   22  C10 UNL     1     -18.382  -5.868  14.195  1.00  0.00     0.011 A 
HETATM   23  C11 UNL     1     -19.855  -6.051  14.041  1.00  0.00     0.001 A 
ENDBRANCH  15  19
ENDBRANCH  13  15
ENDBRANCH   8  13
ENDBRANCH   1   8
BRANCH   7  24
HETATM   24  C17 UNL     1     -27.877  -8.026  15.061  1.00  0.00     0.049 C 
BRANCH  24  25
HETATM   25  C18 UNL     1     -29.317  -8.296  14.968  1.00  0.00    -0.049 C 
HETATM   26  C19 UNL     1     -30.060  -8.323  16.297  1.00  0.00     0.014 C 
HETATM   27  C20 UNL     1     -30.122  -7.593  13.950  1.00  0.00     0.014 C 
HETATM   28  C21 UNL     1     -29.362  -9.806  14.543  1.00  0.00     0.014 C 
ENDBRANCH  24  25
ENDBRANCH   7  24
BRANCH   7  29
HETATM   29  C22 UNL     1     -27.843  -5.593  15.108  1.00  0.00     0.259 C 
HETATM   30  O2  UNL     1     -27.344  -5.227  14.009  1.00  0.00    -0.270 OA
HETATM   31  N4  UNL     1     -28.854  -4.756  15.639  1.00  0.00    -0.253 N 
ATOM     32  H4  UNL     1     -29.283  -5.016  16.527  1.00  0.00     0.181 HD
BRANCH  31  33
HETATM   33  S1  UNL     1     -29.391  -3.329  14.862  1.00  0.00     0.229 S 
HETATM   34  C23 UNL     1     -31.012  -2.855  15.460  1.00  0.00     0.186 C 
HETATM   35  O3  UNL     1     -29.573  -3.616  13.380  1.00  0.00    -0.206 OA
HETATM   36  O4  UNL     1     -28.436  -2.184  15.057  1.00  0.00    -0.206 OA
ENDBRANCH  31  33
ENDBRANCH   7  29
TORSDOF 10
ENDMDL
MODEL 4
REMARK VINA RESULT: -6.899841774      5.380      7.771
REMARK  10 active torsions:
REMARK  status: ('A' for Active; 'I' for Inactive)
REMARK    1  A    between atoms: C2_2  and  C4_4 
REMARK    2  A    between atoms: C4_4  and  C5_5 
REMARK    3  A    between atoms: C5_5  and  N1_6 
REMARK    4  A    between atoms: C5_5  and  C12_17 
REMARK    5  A    between atoms: N1_6  and  C6_8 
REMARK    6  A    between atoms: C6_8  and  C7_12 
REMARK       I    between atoms: C12_17  and  N3_19 
REMARK    7  A    between atoms: C16_23  and  C17_24 
REMARK    8  A    between atoms: C16_23  and  C22_29 
REMARK    9  A    between atoms: C17_24  and  C18_25 
REMARK       I    between atoms: C22_29  and  N4_31 
REMARK   10  A    between atoms: N4_31  and  S1_33 
ROOT
HETATM    1  C12 UNL     1     -26.237  -5.803  16.459  1.00  0.00     0.243 C 
HETATM    2  O1  UNL     1     -26.166  -5.244  15.308  1.00  0.00    -0.271 OA
HETATM    3  N3  UNL     1     -27.253  -5.564  17.393  1.00  0.00    -0.332 N 
HETATM    4  C13 UNL     1     -27.336  -6.125  18.717  1.00  0.00     0.127 C 
HETATM    5  C14 UNL     1     -28.784  -6.625  18.704  1.00  0.00     0.023 C 
HETATM    6  C15 UNL     1     -29.509  -5.691  17.768  1.00  0.00     0.043 C 
HETATM    7  C16 UNL     1     -28.474  -4.745  17.318  1.00  0.00     0.117 C 
ENDROOT
BRANCH   1   8
HETATM    8  C5  UNL     1     -25.123  -6.752  16.742  1.00  0.00     0.175 C 
BRANCH   8   9
HETATM    9  C4  UNL     1     -25.471  -8.157  16.355  1.00  0.00     0.038 C 
BRANCH   9  10
HETATM   10  C2  UNL     1     -25.027  -9.278  17.197  1.00  0.00    -0.020 C 
HETATM   11  C1  UNL     1     -24.180  -8.980  18.379  1.00  0.00     0.009 C 
HETATM   12  C3  UNL     1     -24.182 -10.188  16.283  1.00  0.00     0.009 C 
ENDBRANCH   9  10
ENDBRANCH   8   9
BRANCH   8  13
HETATM   13  N1  UNL     1     -24.022  -6.374  15.862  1.00  0.00    -0.366 N 
ATOM     14  H1  UNL     1     -24.282  -6.053  14.929  1.00  0.00     0.161 HD
BRANCH  13  15
HETATM   15  C6  UNL     1     -22.634  -6.399  16.152  1.00  0.00     0.075 C 
HETATM   16  N2  UNL     1     -22.068  -5.615  16.973  1.00  0.00    -0.389 N 
ATOM     17  H22 UNL     1     -22.638  -4.933  17.474  1.00  0.00     0.157 HD
ATOM     18  H21 UNL     1     -21.070  -5.634  17.182  1.00  0.00     0.157 HD
BRANCH  15  19
HETATM   19  C7  UNL     1     -21.803  -7.394  15.422  1.00  0.00     0.057 C 
HETATM   20  C8  UNL     1     -22.482  -7.705  14.066  1.00  0.00     0.017 C 
HETATM   21  C9  UNL     1     -21.373  -6.872  13.441  1.00  0.00    -0.009 A 
HETATM   22  C10 UNL     1     -20.041  -7.526  13.525  1.00  0.00     0.011 A 
HETATM   23  C11 UNL     1     -20.587  -6.883  14.757  1.00  0.00     0.001 A 
ENDBRANCH  15  19
ENDBRANCH  13  15
ENDBRANCH   8  13
ENDBRANCH   1   8
BRANCH   7  24
HETATM   24  C17 UNL     1     -28.640  -4.201  15.947  1.00  0.00     0.049 C 
BRANCH  24  25
HETATM   25  C18 UNL     1     -29.745  -3.288  15.629  1.00  0.00    -0.049 C 
HETATM   26  C19 UNL     1     -31.131  -3.786  16.014  1.00  0.00     0.014 C 
HETATM   27  C20 UNL     1     -29.613  -1.853  15.947  1.00  0.00     0.014 C 
HETATM   28  C21 UNL     1     -29.805  -3.347  14.062  1.00  0.00     0.014 C 
ENDBRANCH  24  25
ENDBRANCH   7  24
BRANCH   7  29
HETATM   29  C22 UNL     1     -28.281  -3.637  18.288  1.00  0.00     0.259 C 
HETATM   30  O2  UNL     1     -29.177  -3.354  19.130  1.00  0.00    -0.270 OA
HETATM   31  N4  UNL     1     -27.112  -2.839  18.335  1.00  0.00    -0.253 N 
ATOM     32  H4  UNL     1     -26.364  -3.036  17.670  1.00  0.00     0.181 HD
BRANCH  31  33
HETATM   33  S1  UNL     1     -26.895  -1.561  19.452  1.00  0.00     0.229 S 
HETATM   34  C23 UNL     1     -28.010  -0.206  19.088  1.00  0.00     0.186 C 
HETATM   35  O3  UNL     1     -25.496  -0.993  19.281  1.00  0.00    -0.206 OA
HETATM   36  O4  UNL     1     -27.105  -2.009  20.872  1.00  0.00    -0.206 OA
ENDBRANCH  31  33
ENDBRANCH   7  29
TORSDOF 10
ENDMDL
MODEL 5
REMARK VINA RESULT: -6.893489266      5.180      7.626
REMARK  10 active torsions:
REMARK  status: ('A' for Active; 'I' for Inactive)
REMARK    1  A    between atoms: C2_2  and  C4_4 
REMARK    2  A    between atoms: C4_4  and  C5_5 
REMARK    3  A    between atoms: C5_5  and  N1_6 
REMARK    4  A    between atoms: C5_5  and  C12_17 
REMARK    5  A    between atoms: N1_6  and  C6_8 
REMARK    6  A    between atoms: C6_8  and  C7_12 
REMARK       I    between atoms: C12_17  and  N3_19 
REMARK    7  A    between atoms: C16_23  and  C17_24 
REMARK    8  A    between atoms: C16_23  and  C22_29 
REMARK    9  A    between atoms: C17_24  and  C18_25 
REMARK       I    between atoms: C22_29  and  N4_31 
REMARK   10  A    between atoms: N4_31  and  S1_33 
ROOT
HETATM    1  C12 UNL     1     -26.153  -5.768  16.464  1.00  0.00     0.243 C 
HETATM    2  O1  UNL     1     -25.997  -5.219  15.316  1.00  0.00    -0.271 OA
HETATM    3  N3  UNL     1     -27.227  -5.508  17.325  1.00  0.00    -0.332 N 
HETATM    4  C13 UNL     1     -27.407  -6.057  18.645  1.00  0.00     0.127 C 
HETATM    5  C14 UNL     1     -28.858  -6.538  18.537  1.00  0.00     0.023 C 
HETATM    6  C15 UNL     1     -29.505  -5.602  17.548  1.00  0.00     0.043 C 
HETATM    7  C16 UNL     1     -28.429  -4.673  17.162  1.00  0.00     0.117 C 
ENDROOT
BRANCH   1   8
HETATM    8  C5  UNL     1     -25.075  -6.729  16.828  1.00  0.00     0.175 C 
BRANCH   8   9
HETATM    9  C4  UNL     1     -25.511  -8.152  16.659  1.00  0.00     0.038 C 
BRANCH   9  10
HETATM   10  C2  UNL     1     -26.443  -8.508  15.578  1.00  0.00    -0.020 C 
HETATM   11  C1  UNL     1     -27.755  -9.097  15.944  1.00  0.00     0.009 C 
HETATM   12  C3  UNL     1     -25.719  -9.569  14.724  1.00  0.00     0.009 C 
ENDBRANCH   9  10
ENDBRANCH   8   9
BRANCH   8  13
HETATM   13  N1  UNL     1     -24.004  -6.539  15.855  1.00  0.00    -0.366 N 
ATOM     14  H1  UNL     1     -24.292  -6.441  14.882  1.00  0.00     0.161 HD
BRANCH  13  15
HETATM   15  C6  UNL     1     -22.609  -6.474  16.106  1.00  0.00     0.075 C 
HETATM   16  N2  UNL     1     -22.068  -5.633  16.886  1.00  0.00    -0.389 N 
ATOM     17  H22 UNL     1     -22.663  -4.971  17.383  1.00  0.00     0.157 HD
ATOM     18  H21 UNL     1     -21.065  -5.587  17.066  1.00  0.00     0.157 HD
BRANCH  15  19
HETATM   19  C7  UNL     1     -21.741  -7.441  15.380  1.00  0.00     0.057 C 
HETATM   20  C8  UNL     1     -22.437  -7.834  14.056  1.00  0.00     0.017 C 
HETATM   21  C9  UNL     1     -21.398  -6.958  13.374  1.00  0.00    -0.009 A 
HETATM   22  C10 UNL     1     -20.028  -7.530  13.438  1.00  0.00     0.011 A 
HETATM   23  C11 UNL     1     -20.576  -6.881  14.665  1.00  0.00     0.001 A 
ENDBRANCH  15  19
ENDBRANCH  13  15
ENDBRANCH   8  13
ENDBRANCH   1   8
BRANCH   7  24
HETATM   24  C17 UNL     1     -28.494  -4.138  15.780  1.00  0.00     0.049 C 
BRANCH  24  25
HETATM   25  C18 UNL     1     -29.490  -4.640  14.825  1.00  0.00    -0.049 C 
HETATM   26  C19 UNL     1     -29.255  -6.059  14.326  1.00  0.00     0.014 C 
HETATM   27  C20 UNL     1     -30.925  -4.426  15.096  1.00  0.00     0.014 C 
HETATM   28  C21 UNL     1     -29.195  -3.793  13.537  1.00  0.00     0.014 C 
ENDBRANCH  24  25
ENDBRANCH   7  24
BRANCH   7  29
HETATM   29  C22 UNL     1     -28.286  -3.560  18.135  1.00  0.00     0.259 C 
HETATM   30  O2  UNL     1     -29.244  -3.236  18.889  1.00  0.00    -0.270 OA
HETATM   31  N4  UNL     1     -27.099  -2.801  18.281  1.00  0.00    -0.253 N 
ATOM     32  H4  UNL     1     -26.301  -3.032  17.689  1.00  0.00     0.181 HD
BRANCH  31  33
HETATM   33  S1  UNL     1     -26.940  -1.518  19.401  1.00  0.00     0.229 S 
HETATM   34  C23 UNL     1     -28.026  -0.160  18.966  1.00  0.00     0.186 C 
HETATM   35  O3  UNL     1     -25.531  -0.957  19.307  1.00  0.00    -0.206 OA
HETATM   36  O4  UNL     1     -27.234  -1.956  20.809  1.00  0.00    -0.206 OA
ENDBRANCH  31  33
ENDBRANCH   7  29
TORSDOF 10
ENDMDL
