MODEL 1
REMARK VINA RESULT: -5.825379303      0.000      0.000
REMARK  12 active torsions:
REMARK  status: ('A' for Active; 'I' for Inactive)
REMARK    1  A    between atoms: C2_2  and  C4_4 
REMARK    2  A    between atoms: C4_4  and  C5_5 
REMARK    3  A    between atoms: C7_10  and  C8_11 
REMARK    4  A    between atoms: C8_11  and  C9_12 
REMARK    5  A    between atoms: C12_16  and  O3_17 
REMARK    6  A    between atoms: C13_19  and  C14_20 
REMARK    7  A    between atoms: C14_20  and  C15_21 
REMARK    8  A    between atoms: C18_24  and  C19_25 
REMARK    9  A    between atoms: C19_25  and  C20_26 
REMARK   10  A    between atoms: C23_29  and  O4_30 
REMARK   11  A    between atoms: C24_34  and  N3_35 
REMARK   12  A    between atoms: C25_38  and  O5_39 
ROOT
HETATM    1  C5  UNL     1     -30.622  -8.428  15.174  1.00  0.00     0.145 C 
HETATM    2  N1  UNL     1     -29.253  -8.903  15.489  1.00  0.00    -0.348 N 
ATOM      3  H1  UNL     1     -29.175  -9.901  15.680  1.00  0.00     0.163 HD
HETATM    4  C6  UNL     1     -28.067  -8.200  15.564  1.00  0.00     0.247 C 
HETATM    5  O1  UNL     1     -27.127  -8.586  14.769  1.00  0.00    -0.271 OA
HETATM    6  C7  UNL     1     -27.688  -7.051  16.426  1.00  0.00     0.216 C 
HETATM    7  O2  UNL     1     -27.586  -5.859  15.747  1.00  0.00    -0.346 OA
HETATM    8  C12 UNL     1     -28.367  -4.775  15.589  1.00  0.00     0.262 C 
HETATM    9  C13 UNL     1     -29.224  -4.057  16.510  1.00  0.00     0.053 C 
HETATM   10  C18 UNL     1     -30.520  -4.749  16.781  1.00  0.00     0.069 C 
HETATM   11  C23 UNL     1     -31.546  -4.535  15.728  1.00  0.00     0.121 C 
HETATM   12  N2  UNL     1     -31.953  -5.375  14.696  1.00  0.00    -0.325 N 
ATOM     13  H2  UNL     1     -32.962  -5.350  14.547  1.00  0.00     0.169 HD
HETATM   14  C24 UNL     1     -31.295  -6.259  13.802  1.00  0.00     0.132 C 
HETATM   15  C25 UNL     1     -30.597  -7.480  14.056  1.00  0.00     0.109 C 
ENDROOT
BRANCH   1  16
HETATM   16  C4  UNL     1     -31.451  -9.649  14.854  1.00  0.00     0.036 C 
BRANCH  16  17
HETATM   17  C2  UNL     1     -32.903  -9.531  14.759  1.00  0.00    -0.020 C 
HETATM   18  C1  UNL     1     -33.572  -8.596  15.741  1.00  0.00     0.009 C 
HETATM   19  C3  UNL     1     -33.516  -9.383  13.408  1.00  0.00     0.009 C 
ENDBRANCH  16  17
ENDBRANCH   1  16
BRANCH  15  20
HETATM   20  O5  UNL     1     -29.758  -7.863  13.135  1.00  0.00    -0.359 OA
ATOM     21  H5  UNL     1     -29.935  -7.428  12.310  1.00  0.00     0.217 HD
ENDBRANCH  15  20
BRANCH  14  22
HETATM   22  N3  UNL     1     -31.325  -5.915  12.495  1.00  0.00    -0.383 N 
ATOM     23  H32 UNL     1     -31.228  -4.913  12.335  1.00  0.00     0.157 HD
ATOM     24  H31 UNL     1     -31.433  -6.682  11.831  1.00  0.00     0.157 HD
ENDBRANCH  14  22
BRANCH   6  25
HETATM   25  C8  UNL     1     -26.425  -7.338  17.249  1.00  0.00     0.045 C 
BRANCH  25  26
HETATM   26  C9  UNL     1     -25.905  -6.242  18.074  1.00  0.00    -0.020 C 
HETATM   27  C10 UNL     1     -26.741  -5.913  19.287  1.00  0.00     0.009 C 
HETATM   28  C11 UNL     1     -24.583  -6.805  18.670  1.00  0.00     0.009 C 
ENDBRANCH  25  26
ENDBRANCH   6  25
BRANCH  11  29
HETATM   29  O4  UNL     1     -32.060  -3.351  15.916  1.00  0.00    -0.349 OA
ATOM     30  H4  UNL     1     -32.986  -3.404  15.704  1.00  0.00     0.219 HD
ENDBRANCH  11  29
BRANCH   8  31
HETATM   31  O3  UNL     1     -28.346  -4.281  14.387  1.00  0.00    -0.371 OA
ATOM     32  H3  UNL     1     -29.190  -3.967  14.084  1.00  0.00     0.212 HD
ENDBRANCH   8  31
BRANCH  10  33
HETATM   33  C19 UNL     1     -31.080  -4.245  18.139  1.00  0.00     0.017 C 
BRANCH  33  34
HETATM   34  C20 UNL     1     -30.261  -4.776  19.276  1.00  0.00    -0.022 C 
HETATM   35  C21 UNL     1     -30.906  -5.979  19.926  1.00  0.00     0.009 C 
HETATM   36  C22 UNL     1     -30.129  -3.662  20.320  1.00  0.00     0.009 C 
ENDBRANCH  33  34
ENDBRANCH  10  33
BRANCH   9  37
HETATM   37  C14 UNL     1     -29.396  -2.594  16.165  1.00  0.00     0.014 C 
BRANCH  37  38
HETATM   38  C15 UNL     1     -28.367  -1.735  16.876  1.00  0.00    -0.022 C 
HETATM   39  C16 UNL     1     -27.548  -2.586  17.856  1.00  0.00     0.009 C 
HETATM   40  C17 UNL     1     -29.038  -0.670  17.717  1.00  0.00     0.009 C 
ENDBRANCH  37  38
ENDBRANCH   9  37
TORSDOF 12
ENDMDL
MODEL 2
REMARK VINA RESULT: -5.820483811      2.433      6.061
REMARK  12 active torsions:
REMARK  status: ('A' for Active; 'I' for Inactive)
REMARK    1  A    between atoms: C2_2  and  C4_4 
REMARK    2  A    between atoms: C4_4  and  C5_5 
REMARK    3  A    between atoms: C7_10  and  C8_11 
REMARK    4  A    between atoms: C8_11  and  C9_12 
REMARK    5  A    between atoms: C12_16  and  O3_17 
REMARK    6  A    between atoms: C13_19  and  C14_20 
REMARK    7  A    between atoms: C14_20  and  C15_21 
REMARK    8  A    between atoms: C18_24  and  C19_25 
REMARK    9  A    between atoms: C19_25  and  C20_26 
REMARK   10  A    between atoms: C23_29  and  O4_30 
REMARK   11  A    between atoms: C24_34  and  N3_35 
REMARK   12  A    between atoms: C25_38  and  O5_39 
ROOT
HETATM    1  C5  UNL     1     -27.995  -3.622  18.089  1.00  0.00     0.145 C 
HETATM    2  N1  UNL     1     -26.928  -4.636  18.270  1.00  0.00    -0.348 N 
ATOM      3  H1  UNL     1     -25.990  -4.258  18.404  1.00  0.00     0.163 HD
HETATM    4  C6  UNL     1     -27.009  -6.014  18.286  1.00  0.00     0.247 C 
HETATM    5  O1  UNL     1     -26.601  -6.596  19.363  1.00  0.00    -0.271 OA
HETATM    6  C7  UNL     1     -27.497  -6.956  17.245  1.00  0.00     0.216 C 
HETATM    7  O2  UNL     1     -28.704  -7.540  17.550  1.00  0.00    -0.346 OA
HETATM    8  C12 UNL     1     -29.985  -7.342  17.189  1.00  0.00     0.262 C 
HETATM    9  C13 UNL     1     -30.590  -6.999  15.919  1.00  0.00     0.053 C 
HETATM   10  C18 UNL     1     -30.435  -5.558  15.554  1.00  0.00     0.069 C 
HETATM   11  C23 UNL     1     -31.418  -4.662  16.215  1.00  0.00     0.121 C 
HETATM   12  N2  UNL     1     -31.263  -3.824  17.315  1.00  0.00    -0.325 N 
ATOM     13  H2  UNL     1     -31.747  -2.934  17.199  1.00  0.00     0.169 HD
HETATM   14  C24 UNL     1     -30.589  -3.917  18.560  1.00  0.00     0.132 C 
HETATM   15  C25 UNL     1     -29.191  -3.987  18.852  1.00  0.00     0.109 C 
ENDROOT
BRANCH   1  16
HETATM   16  C4  UNL     1     -27.426  -2.297  18.538  1.00  0.00     0.036 C 
BRANCH  16  17
HETATM   17  C2  UNL     1     -28.048  -1.055  18.088  1.00  0.00    -0.020 C 
HETATM   18  C1  UNL     1     -28.822  -1.117  16.790  1.00  0.00     0.009 C 
HETATM   19  C3  UNL     1     -28.784  -0.227  19.086  1.00  0.00     0.009 C 
ENDBRANCH  16  17
ENDBRANCH   1  16
BRANCH  15  20
HETATM   20  O5  UNL     1     -28.873  -4.470  20.020  1.00  0.00    -0.359 OA
ATOM     21  H5  UNL     1     -28.344  -5.253  19.933  1.00  0.00     0.217 HD
ENDBRANCH  15  20
BRANCH  14  22
HETATM   22  N3  UNL     1     -31.373  -3.938  19.661  1.00  0.00    -0.383 N 
ATOM     23  H32 UNL     1     -31.769  -3.028  19.896  1.00  0.00     0.157 HD
ATOM     24  H31 UNL     1     -31.480  -4.842  20.120  1.00  0.00     0.157 HD
ENDBRANCH  14  22
BRANCH   6  25
HETATM   25  C8  UNL     1     -26.442  -8.008  16.877  1.00  0.00     0.045 C 
BRANCH  25  26
HETATM   26  C9  UNL     1     -25.208  -7.521  16.249  1.00  0.00    -0.020 C 
HETATM   27  C10 UNL     1     -23.976  -8.334  16.563  1.00  0.00     0.009 C 
HETATM   28  C11 UNL     1     -25.434  -7.753  14.728  1.00  0.00     0.009 C 
ENDBRANCH  25  26
ENDBRANCH   6  25
BRANCH  11  29
HETATM   29  O4  UNL     1     -32.547  -4.775  15.570  1.00  0.00    -0.349 OA
ATOM     30  H4  UNL     1     -33.214  -4.331  16.082  1.00  0.00     0.219 HD
ENDBRANCH  11  29
BRANCH   8  31
HETATM   31  O3  UNL     1     -30.836  -7.486  18.162  1.00  0.00    -0.371 OA
ATOM     32  H3  UNL     1     -31.702  -7.147  17.970  1.00  0.00     0.212 HD
ENDBRANCH   8  31
BRANCH  10  33
HETATM   33  C19 UNL     1     -30.579  -5.416  14.014  1.00  0.00     0.017 C 
BRANCH  33  34
HETATM   34  C20 UNL     1     -29.366  -4.760  13.430  1.00  0.00    -0.022 C 
HETATM   35  C21 UNL     1     -28.100  -5.165  14.151  1.00  0.00     0.009 C 
HETATM   36  C22 UNL     1     -29.544  -3.243  13.560  1.00  0.00     0.009 C 
ENDBRANCH  33  34
ENDBRANCH  10  33
BRANCH   9  37
HETATM   37  C14 UNL     1     -32.012  -7.496  15.769  1.00  0.00     0.014 C 
BRANCH  37  38
HETATM   38  C15 UNL     1     -32.081  -8.698  14.846  1.00  0.00    -0.022 C 
HETATM   39  C16 UNL     1     -30.680  -9.052  14.326  1.00  0.00     0.009 C 
HETATM   40  C17 UNL     1     -32.910  -8.390  13.617  1.00  0.00     0.009 C 
ENDBRANCH  37  38
ENDBRANCH   9  37
TORSDOF 12
ENDMDL
MODEL 3
REMARK VINA RESULT: -5.600589413      8.547     11.353
REMARK  12 active torsions:
REMARK  status: ('A' for Active; 'I' for Inactive)
REMARK    1  A    between atoms: C2_2  and  C4_4 
REMARK    2  A    between atoms: C4_4  and  C5_5 
REMARK    3  A    between atoms: C7_10  and  C8_11 
REMARK    4  A    between atoms: C8_11  and  C9_12 
REMARK    5  A    between atoms: C12_16  and  O3_17 
REMARK    6  A    between atoms: C13_19  and  C14_20 
REMARK    7  A    between atoms: C14_20  and  C15_21 
REMARK    8  A    between atoms: C18_24  and  C19_25 
REMARK    9  A    between atoms: C19_25  and  C20_26 
REMARK   10  A    between atoms: C23_29  and  O4_30 
REMARK   11  A    between atoms: C24_34  and  N3_35 
REMARK   12  A    between atoms: C25_38  and  O5_39 
ROOT
HETATM    1  C5  UNL     1     -24.760 -12.145   6.011  1.00  0.00     0.145 C 
HETATM    2  N1  UNL     1     -23.981 -11.956   7.259  1.00  0.00    -0.348 N 
ATOM      3  H1  UNL     1     -23.098 -12.464   7.298  1.00  0.00     0.163 HD
HETATM    4  C6  UNL     1     -24.269 -11.198   8.376  1.00  0.00     0.247 C 
HETATM    5  O1  UNL     1     -23.409 -10.285   8.680  1.00  0.00    -0.271 OA
HETATM    6  C7  UNL     1     -25.427 -11.262   9.305  1.00  0.00     0.216 C 
HETATM    7  O2  UNL     1     -26.299 -10.207   9.176  1.00  0.00    -0.346 OA
HETATM    8  C12 UNL     1     -27.490 -10.013   8.581  1.00  0.00     0.262 C 
HETATM    9  C13 UNL     1     -28.659 -10.858   8.458  1.00  0.00     0.053 C 
HETATM   10  C18 UNL     1     -28.508 -11.939   7.437  1.00  0.00     0.069 C 
HETATM   11  C23 UNL     1     -28.744 -11.484   6.042  1.00  0.00     0.121 C 
HETATM   12  N2  UNL     1     -27.831 -11.176   5.038  1.00  0.00    -0.325 N 
ATOM     13  H2  UNL     1     -28.131 -11.509   4.122  1.00  0.00     0.169 HD
HETATM   14  C24 UNL     1     -26.580 -10.508   4.989  1.00  0.00     0.132 C 
HETATM   15  C25 UNL     1     -25.316 -10.870   5.550  1.00  0.00     0.109 C 
ENDROOT
BRANCH   1  16
HETATM   16  C4  UNL     1     -23.822 -12.749   4.992  1.00  0.00     0.036 C 
BRANCH  16  17
HETATM   17  C2  UNL     1     -22.385 -12.754   5.248  1.00  0.00    -0.020 C 
HETATM   18  C1  UNL     1     -21.707 -14.106   5.266  1.00  0.00     0.009 C 
HETATM   19  C3  UNL     1     -21.532 -11.761   4.534  1.00  0.00     0.009 C 
ENDBRANCH  16  17
ENDBRANCH   1  16
BRANCH  15  20
HETATM   20  O5  UNL     1     -24.458  -9.902   5.701  1.00  0.00    -0.359 OA
ATOM     21  H5  UNL     1     -24.127  -9.874   6.591  1.00  0.00     0.217 HD
ENDBRANCH  15  20
BRANCH  14  22
HETATM   22  N3  UNL     1     -26.553  -9.344   4.303  1.00  0.00    -0.383 N 
ATOM     23  H32 UNL     1     -27.227  -9.306   3.538  1.00  0.00     0.157 HD
ATOM     24  H31 UNL     1     -25.880  -8.648   4.624  1.00  0.00     0.157 HD
ENDBRANCH  14  22
BRANCH   6  25
HETATM   25  C8  UNL     1     -24.988 -11.453  10.763  1.00  0.00     0.045 C 
BRANCH  25  26
HETATM   26  C9  UNL     1     -25.851 -10.875  11.799  1.00  0.00    -0.020 C 
HETATM   27  C10 UNL     1     -27.110 -11.659  12.082  1.00  0.00     0.009 C 
HETATM   28  C11 UNL     1     -25.023 -11.011  13.108  1.00  0.00     0.009 C 
ENDBRANCH  25  26
ENDBRANCH   6  25
BRANCH  11  29
HETATM   29  O4  UNL     1     -30.035 -11.405   5.868  1.00  0.00    -0.349 OA
ATOM     30  H4  UNL     1     -30.185 -10.983   5.029  1.00  0.00     0.219 HD
ENDBRANCH  11  29
BRANCH   8  31
HETATM   31  O3  UNL     1     -27.612  -8.850   8.012  1.00  0.00    -0.371 OA
ATOM     32  H3  UNL     1     -28.129  -8.229   8.511  1.00  0.00     0.212 HD
ENDBRANCH   8  31
BRANCH  10  33
HETATM   33  C19 UNL     1     -29.507 -13.082   7.769  1.00  0.00     0.017 C 
BRANCH  33  34
HETATM   34  C20 UNL     1     -29.146 -13.733   9.069  1.00  0.00    -0.022 C 
HETATM   35  C21 UNL     1     -27.787 -14.393   9.015  1.00  0.00     0.009 C 
HETATM   36  C22 UNL     1     -30.203 -14.802   9.367  1.00  0.00     0.009 C 
ENDBRANCH  33  34
ENDBRANCH  10  33
BRANCH   9  37
HETATM   37  C14 UNL     1     -29.954 -10.088   8.316  1.00  0.00     0.014 C 
BRANCH  37  38
HETATM   38  C15 UNL     1     -30.496  -9.668   9.669  1.00  0.00    -0.022 C 
HETATM   39  C16 UNL     1     -30.417 -10.836  10.661  1.00  0.00     0.009 C 
HETATM   40  C17 UNL     1     -31.963  -9.305   9.576  1.00  0.00     0.009 C 
ENDBRANCH  37  38
ENDBRANCH   9  37
TORSDOF 12
ENDMDL
MODEL 4
REMARK VINA RESULT: -5.434316594      2.274      5.434
REMARK  12 active torsions:
REMARK  status: ('A' for Active; 'I' for Inactive)
REMARK    1  A    between atoms: C2_2  and  C4_4 
REMARK    2  A    between atoms: C4_4  and  C5_5 
REMARK    3  A    between atoms: C7_10  and  C8_11 
REMARK    4  A    between atoms: C8_11  and  C9_12 
REMARK    5  A    between atoms: C12_16  and  O3_17 
REMARK    6  A    between atoms: C13_19  and  C14_20 
REMARK    7  A    between atoms: C14_20  and  C15_21 
REMARK    8  A    between atoms: C18_24  and  C19_25 
REMARK    9  A    between atoms: C19_25  and  C20_26 
REMARK   10  A    between atoms: C23_29  and  O4_30 
REMARK   11  A    between atoms: C24_34  and  N3_35 
REMARK   12  A    between atoms: C25_38  and  O5_39 
ROOT
HETATM    1  C5  UNL     1     -31.813  -7.559  14.007  1.00  0.00     0.145 C 
HETATM    2  N1  UNL     1     -31.942  -6.095  14.207  1.00  0.00    -0.348 N 
ATOM      3  H1  UNL     1     -32.345  -5.586  13.420  1.00  0.00     0.163 HD
HETATM    4  C6  UNL     1     -31.602  -5.316  15.294  1.00  0.00     0.247 C 
HETATM    5  O1  UNL     1     -32.560  -4.639  15.832  1.00  0.00    -0.271 OA
HETATM    6  C7  UNL     1     -30.287  -5.122  15.959  1.00  0.00     0.216 C 
HETATM    7  O2  UNL     1     -30.198  -5.720  17.195  1.00  0.00    -0.346 OA
HETATM    8  C12 UNL     1     -29.657  -6.853  17.676  1.00  0.00     0.262 C 
HETATM    9  C13 UNL     1     -28.417  -7.538  17.372  1.00  0.00     0.053 C 
HETATM   10  C18 UNL     1     -28.456  -8.296  16.084  1.00  0.00     0.069 C 
HETATM   11  C23 UNL     1     -29.114  -9.624  16.189  1.00  0.00     0.121 C 
HETATM   12  N2  UNL     1     -30.395 -10.017  15.814  1.00  0.00    -0.325 N 
ATOM     13  H2  UNL     1     -30.410 -10.945  15.390  1.00  0.00     0.169 HD
HETATM   14  C24 UNL     1     -31.685  -9.431  15.883  1.00  0.00     0.132 C 
HETATM   15  C25 UNL     1     -32.216  -8.283  15.216  1.00  0.00     0.109 C 
ENDROOT
BRANCH   1  16
HETATM   16  C4  UNL     1     -32.676  -7.922  12.823  1.00  0.00     0.036 C 
BRANCH  16  17
HETATM   17  C2  UNL     1     -32.304  -7.459  11.490  1.00  0.00    -0.020 C 
HETATM   18  C1  UNL     1     -31.789  -8.507  10.528  1.00  0.00     0.009 C 
HETATM   19  C3  UNL     1     -33.220  -6.519  10.782  1.00  0.00     0.009 C 
ENDBRANCH  16  17
ENDBRANCH   1  16
BRANCH  15  20
HETATM   20  O5  UNL     1     -33.268  -7.740  15.760  1.00  0.00    -0.359 OA
ATOM     21  H5  UNL     1     -33.970  -8.372  15.853  1.00  0.00     0.217 HD
ENDBRANCH  15  20
BRANCH  14  22
HETATM   22  N3  UNL     1     -32.574 -10.041  16.699  1.00  0.00    -0.383 N 
ATOM     23  H32 UNL     1     -32.138 -10.563  17.459  1.00  0.00     0.157 HD
ATOM     24  H31 UNL     1     -33.558  -9.908  16.470  1.00  0.00     0.157 HD
ENDBRANCH  14  22
BRANCH   6  25
HETATM   25  C8  UNL     1     -29.883  -3.643  16.021  1.00  0.00     0.045 C 
BRANCH  25  26
HETATM   26  C9  UNL     1     -28.850  -3.196  15.079  1.00  0.00    -0.020 C 
HETATM   27  C10 UNL     1     -29.288  -3.153  13.635  1.00  0.00     0.009 C 
HETATM   28  C11 UNL     1     -28.618  -1.702  15.446  1.00  0.00     0.009 C 
ENDBRANCH  25  26
ENDBRANCH   6  25
BRANCH  11  29
HETATM   29  O4  UNL     1     -28.255 -10.446  16.727  1.00  0.00    -0.349 OA
ATOM     30  H4  UNL     1     -28.387 -11.299  16.329  1.00  0.00     0.219 HD
ENDBRANCH  11  29
BRANCH   8  31
HETATM   31  O3  UNL     1     -30.380  -7.440  18.583  1.00  0.00    -0.371 OA
ATOM     32  H3  UNL     1     -29.886  -7.739  19.337  1.00  0.00     0.212 HD
ENDBRANCH   8  31
BRANCH  10  33
HETATM   33  C19 UNL     1     -27.000  -8.494  15.579  1.00  0.00     0.017 C 
BRANCH  33  34
HETATM   34  C20 UNL     1     -26.256  -7.194  15.600  1.00  0.00    -0.022 C 
HETATM   35  C21 UNL     1     -26.843  -6.188  14.637  1.00  0.00     0.009 C 
HETATM   36  C22 UNL     1     -24.805  -7.478  15.194  1.00  0.00     0.009 C 
ENDBRANCH  33  34
ENDBRANCH  10  33
BRANCH   9  37
HETATM   37  C14 UNL     1     -27.877  -8.357  18.524  1.00  0.00     0.014 C 
BRANCH  37  38
HETATM   38  C15 UNL     1     -26.754  -7.629  19.238  1.00  0.00    -0.022 C 
HETATM   39  C16 UNL     1     -25.438  -8.408  19.095  1.00  0.00     0.009 C 
HETATM   40  C17 UNL     1     -27.024  -7.546  20.726  1.00  0.00     0.009 C 
ENDBRANCH  37  38
ENDBRANCH   9  37
TORSDOF 12
ENDMDL
MODEL 5
REMARK VINA RESULT: -5.384131677      0.945      1.024
REMARK  12 active torsions:
REMARK  status: ('A' for Active; 'I' for Inactive)
REMARK    1  A    between atoms: C2_2  and  C4_4 
REMARK    2  A    between atoms: C4_4  and  C5_5 
REMARK    3  A    between atoms: C7_10  and  C8_11 
REMARK    4  A    between atoms: C8_11  and  C9_12 
REMARK    5  A    between atoms: C12_16  and  O3_17 
REMARK    6  A    between atoms: C13_19  and  C14_20 
REMARK    7  A    between atoms: C14_20  and  C15_21 
REMARK    8  A    between atoms: C18_24  and  C19_25 
REMARK    9  A    between atoms: C19_25  and  C20_26 
REMARK   10  A    between atoms: C23_29  and  O4_30 
REMARK   11  A    between atoms: C24_34  and  N3_35 
REMARK   12  A    between atoms: C25_38  and  O5_39 
ROOT
HETATM    1  C5  UNL     1     -30.947  -9.186  14.744  1.00  0.00     0.145 C 
HETATM    2  N1  UNL     1     -29.607  -9.738  15.060  1.00  0.00    -0.348 N 
ATOM      3  H1  UNL     1     -29.583 -10.743  15.232  1.00  0.00     0.163 HD
HETATM    4  C6  UNL     1     -28.387  -9.101  15.157  1.00  0.00     0.247 C 
HETATM    5  O1  UNL     1     -27.461  -9.521  14.362  1.00  0.00    -0.271 OA
HETATM    6  C7  UNL     1     -27.954  -7.990  16.044  1.00  0.00     0.216 C 
HETATM    7  O2  UNL     1     -27.784  -6.792  15.390  1.00  0.00    -0.346 OA
HETATM    8  C12 UNL     1     -28.505  -5.666  15.247  1.00  0.00     0.262 C 
HETATM    9  C13 UNL     1     -29.330  -4.921  16.176  1.00  0.00     0.053 C 
HETATM   10  C18 UNL     1     -30.664  -5.549  16.423  1.00  0.00     0.069 C 
HETATM   11  C23 UNL     1     -31.668  -5.261  15.367  1.00  0.00     0.121 C 
HETATM   12  N2  UNL     1     -32.111  -6.059  14.316  1.00  0.00    -0.325 N 
ATOM     13  H2  UNL     1     -33.116  -5.977  14.160  1.00  0.00     0.169 HD
HETATM   14  C24 UNL     1     -31.493  -6.959  13.410  1.00  0.00     0.132 C 
HETATM   15  C25 UNL     1     -30.862  -8.220  13.645  1.00  0.00     0.109 C 
ENDROOT
BRANCH   1  16
HETATM   16  C4  UNL     1     -31.836 -10.356  14.395  1.00  0.00     0.036 C 
BRANCH  16  17
HETATM   17  C2  UNL     1     -33.285 -10.222  14.517  1.00  0.00    -0.020 C 
HETATM   18  C1  UNL     1     -33.791  -9.311  15.613  1.00  0.00     0.009 C 
HETATM   19  C3  UNL     1     -34.088 -10.028  13.276  1.00  0.00     0.009 C 
ENDBRANCH  16  17
ENDBRANCH   1  16
BRANCH  15  20
HETATM   20  O5  UNL     1     -30.037  -8.629  12.724  1.00  0.00    -0.359 OA
ATOM     21  H5  UNL     1     -30.490  -9.136  12.060  1.00  0.00     0.217 HD
ENDBRANCH  15  20
BRANCH  14  22
HETATM   22  N3  UNL     1     -31.494  -6.589  12.110  1.00  0.00    -0.383 N 
ATOM     23  H32 UNL     1     -30.957  -5.742  11.927  1.00  0.00     0.157 HD
ATOM     24  H31 UNL     1     -32.016  -7.190  11.472  1.00  0.00     0.157 HD
ENDBRANCH  14  22
BRANCH   6  25
HETATM   25  C8  UNL     1     -26.715  -8.359  16.870  1.00  0.00     0.045 C 
BRANCH  25  26
HETATM   26  C9  UNL     1     -26.053  -7.272  17.600  1.00  0.00    -0.020 C 
HETATM   27  C10 UNL     1     -26.780  -6.810  18.840  1.00  0.00     0.009 C 
HETATM   28  C11 UNL     1     -24.748  -7.916  18.148  1.00  0.00     0.009 C 
ENDBRANCH  25  26
ENDBRANCH   6  25
BRANCH  11  29
HETATM   29  O4  UNL     1     -32.121  -4.055  15.574  1.00  0.00    -0.349 OA
ATOM     30  H4  UNL     1     -31.888  -3.528  14.818  1.00  0.00     0.219 HD
ENDBRANCH  11  29
BRANCH   8  31
HETATM   31  O3  UNL     1     -28.448  -5.151  14.054  1.00  0.00    -0.371 OA
ATOM     32  H3  UNL     1     -29.281  -4.822  13.737  1.00  0.00     0.212 HD
ENDBRANCH   8  31
BRANCH  10  33
HETATM   33  C19 UNL     1     -31.207  -5.042  17.787  1.00  0.00     0.017 C 
BRANCH  33  34
HETATM   34  C20 UNL     1     -30.483  -5.702  18.920  1.00  0.00    -0.022 C 
HETATM   35  C21 UNL     1     -30.527  -7.210  18.820  1.00  0.00     0.009 C 
HETATM   36  C22 UNL     1     -31.164  -5.274  20.225  1.00  0.00     0.009 C 
ENDBRANCH  33  34
ENDBRANCH  10  33
BRANCH   9  37
HETATM   37  C14 UNL     1     -29.423  -3.445  15.858  1.00  0.00     0.014 C 
BRANCH  37  38
HETATM   38  C15 UNL     1     -28.285  -2.671  16.497  1.00  0.00    -0.022 C 
HETATM   39  C16 UNL     1     -27.842  -3.354  17.799  1.00  0.00     0.009 C 
HETATM   40  C17 UNL     1     -28.732  -1.280  16.894  1.00  0.00     0.009 C 
ENDBRANCH  37  38
ENDBRANCH   9  37
TORSDOF 12
ENDMDL
