MODEL 1
REMARK VINA RESULT: -6.689328168      0.000      0.000
REMARK  12 active torsions:
REMARK  status: ('A' for Active; 'I' for Inactive)
REMARK    1  A    between atoms: C2_2  and  C3_3 
REMARK    2  A    between atoms: N1_6  and  C6_7 
REMARK    3  A    between atoms: C6_7  and  O1_8 
REMARK    4  A    between atoms: C7_10  and  N2_11 
REMARK    5  A    between atoms: C7_10  and  C13_20 
REMARK       I    between atoms: N2_11  and  C8_13 
REMARK    6  A    between atoms: C8_13  and  O3_15 
REMARK    7  A    between atoms: O3_15  and  C9_16 
REMARK    8  A    between atoms: C17_24  and  C18_25 
REMARK       I    between atoms: C18_25  and  N3_27 
REMARK    9  A    between atoms: N3_27  and  C19_29 
REMARK   10  A    between atoms: C19_29  and  C20_30 
REMARK   11  A    between atoms: C19_29  and  C24_34 
REMARK   12  A    between atoms: C20_30  and  C21_31 
ROOT
HETATM    1  C3  UNL     1     -23.081  -9.676  16.457  1.00  0.00     0.019 C 
HETATM    2  C4  UNL     1     -22.870  -9.350  17.911  1.00  0.00     0.027 C 
HETATM    3  C5  UNL     1     -23.112  -7.824  17.939  1.00  0.00     0.126 C 
HETATM    4  N1  UNL     1     -24.153  -7.642  17.031  1.00  0.00    -0.346 N 
HETATM    5  C17 UNL     1     -24.140  -8.758  16.057  1.00  0.00     0.182 C 
ENDROOT
BRANCH   4   6
HETATM    6  C6  UNL     1     -25.107  -6.604  16.895  1.00  0.00     0.163 C 
HETATM    7  C7  UNL     1     -26.473  -6.386  17.262  1.00  0.00     0.072 C 
BRANCH   6   8
HETATM    8  O1  UNL     1     -24.615  -5.523  16.255  1.00  0.00    -0.345 OA
ATOM      9  H1  UNL     1     -24.850  -5.503  15.334  1.00  0.00     0.219 HD
ENDBRANCH   6   8
BRANCH   7  10
HETATM   10  N2  UNL     1     -27.065  -5.276  16.469  1.00  0.00    -0.301 N 
HETATM   11  C8  UNL     1     -27.444  -4.030  17.027  1.00  0.00     0.365 C 
HETATM   12  O2  UNL     1     -27.317  -3.728  18.238  1.00  0.00    -0.238 OA
ATOM     13  H2  UNL     1     -27.206  -5.419  15.469  1.00  0.00     0.171 HD
BRANCH  11  14
HETATM   14  O3  UNL     1     -28.000  -3.037  16.194  1.00  0.00    -0.294 OA
BRANCH  14  15
HETATM   15  C9  UNL     1     -29.227  -3.218  15.558  1.00  0.00     0.061 C 
HETATM   16  C10 UNL     1     -30.061  -4.289  16.252  1.00  0.00     0.046 C 
HETATM   17  C11 UNL     1     -29.138  -3.456  14.077  1.00  0.00     0.046 C 
HETATM   18  C12 UNL     1     -30.008  -1.904  15.746  1.00  0.00     0.046 C 
ENDBRANCH  14  15
ENDBRANCH  11  14
ENDBRANCH   7  10
BRANCH   7  19
HETATM   19  C13 UNL     1     -27.485  -7.425  17.497  1.00  0.00    -0.004 C 
HETATM   20  C14 UNL     1     -27.964  -7.882  16.057  1.00  0.00     0.021 C 
HETATM   21  C15 UNL     1     -27.006  -8.699  18.123  1.00  0.00     0.021 C 
HETATM   22  C16 UNL     1     -28.770  -6.992  18.142  1.00  0.00     0.021 C 
ENDBRANCH   7  19
ENDBRANCH   4   6
BRANCH   5  23
HETATM   23  C18 UNL     1     -23.991  -8.218  14.685  1.00  0.00     0.241 C 
HETATM   24  O4  UNL     1     -24.946  -7.633  14.151  1.00  0.00    -0.271 OA
HETATM   25  N3  UNL     1     -22.777  -8.374  14.000  1.00  0.00    -0.345 N 
ATOM     26  H3  UNL     1     -22.012  -8.869  14.457  1.00  0.00     0.163 HD
BRANCH  25  27
HETATM   27  C19 UNL     1     -22.575  -7.849  12.654  1.00  0.00     0.186 C 
BRANCH  27  28
HETATM   28  C20 UNL     1     -21.149  -7.529  12.387  1.00  0.00     0.041 C 
BRANCH  28  29
HETATM   29  C21 UNL     1     -20.252  -7.610  13.610  1.00  0.00    -0.012 A 
HETATM   30  C22 UNL     1     -19.247  -6.455  13.769  1.00  0.00     0.005 A 
HETATM   31  C23 UNL     1     -18.798  -7.860  13.426  1.00  0.00     0.005 A 
ENDBRANCH  28  29
ENDBRANCH  27  28
BRANCH  27  32
HETATM   32  C24 UNL     1     -23.005  -8.857  11.642  1.00  0.00     0.196 C 
HETATM   33  O5  UNL     1     -23.778  -9.784  11.961  1.00  0.00    -0.646 OA
HETATM   34  O6  UNL     1     -22.551  -8.769  10.345  1.00  0.00    -0.646 OA
ENDBRANCH  27  32
ENDBRANCH  25  27
ENDBRANCH   5  23
BRANCH   1  35
HETATM   35  C2  UNL     1     -23.423 -11.147  16.269  1.00  0.00     0.002 C 
HETATM   36  C1  UNL     1     -24.906 -11.384  16.466  1.00  0.00     0.005 C 
ENDBRANCH   1  35
TORSDOF 12
ENDMDL
MODEL 2
REMARK VINA RESULT: -6.639278882      2.056      3.121
REMARK  12 active torsions:
REMARK  status: ('A' for Active; 'I' for Inactive)
REMARK    1  A    between atoms: C2_2  and  C3_3 
REMARK    2  A    between atoms: N1_6  and  C6_7 
REMARK    3  A    between atoms: C6_7  and  O1_8 
REMARK    4  A    between atoms: C7_10  and  N2_11 
REMARK    5  A    between atoms: C7_10  and  C13_20 
REMARK       I    between atoms: N2_11  and  C8_13 
REMARK    6  A    between atoms: C8_13  and  O3_15 
REMARK    7  A    between atoms: O3_15  and  C9_16 
REMARK    8  A    between atoms: C17_24  and  C18_25 
REMARK       I    between atoms: C18_25  and  N3_27 
REMARK    9  A    between atoms: N3_27  and  C19_29 
REMARK   10  A    between atoms: C19_29  and  C20_30 
REMARK   11  A    between atoms: C19_29  and  C24_34 
REMARK   12  A    between atoms: C20_30  and  C21_31 
ROOT
HETATM    1  C3  UNL     1     -25.484 -10.689  13.798  1.00  0.00     0.019 C 
HETATM    2  C4  UNL     1     -26.942 -10.820  14.148  1.00  0.00     0.027 C 
HETATM    3  C5  UNL     1     -27.083  -9.828  15.324  1.00  0.00     0.126 C 
HETATM    4  N1  UNL     1     -26.249  -8.772  14.962  1.00  0.00    -0.346 N 
HETATM    5  C17 UNL     1     -25.206  -9.279  14.042  1.00  0.00     0.182 C 
ENDROOT
BRANCH   4   6
HETATM    6  C6  UNL     1     -26.235  -7.411  15.356  1.00  0.00     0.163 C 
HETATM    7  C7  UNL     1     -25.904  -6.667  16.531  1.00  0.00     0.072 C 
BRANCH   6   8
HETATM    8  O1  UNL     1     -26.637  -6.580  14.372  1.00  0.00    -0.345 OA
ATOM      9  H1  UNL     1     -27.561  -6.366  14.426  1.00  0.00     0.219 HD
ENDBRANCH   6   8
BRANCH   7  10
HETATM   10  N2  UNL     1     -26.504  -5.307  16.486  1.00  0.00    -0.301 N 
HETATM   11  C8  UNL     1     -27.900  -5.067  16.493  1.00  0.00     0.365 C 
HETATM   12  O2  UNL     1     -28.773  -5.965  16.542  1.00  0.00    -0.238 OA
ATOM     13  H2  UNL     1     -25.876  -4.504  16.449  1.00  0.00     0.171 HD
BRANCH  11  14
HETATM   14  O3  UNL     1     -28.375  -3.739  16.446  1.00  0.00    -0.294 OA
BRANCH  14  15
HETATM   15  C9  UNL     1     -29.110  -3.262  15.362  1.00  0.00     0.061 C 
HETATM   16  C10 UNL     1     -30.596  -3.177  15.691  1.00  0.00     0.046 C 
HETATM   17  C11 UNL     1     -28.868  -3.990  14.070  1.00  0.00     0.046 C 
HETATM   18  C12 UNL     1     -28.655  -1.807  15.139  1.00  0.00     0.046 C 
ENDBRANCH  14  15
ENDBRANCH  11  14
ENDBRANCH   7  10
BRANCH   7  19
HETATM   19  C13 UNL     1     -25.918  -7.173  17.911  1.00  0.00    -0.004 C 
HETATM   20  C14 UNL     1     -24.617  -8.069  18.046  1.00  0.00     0.021 C 
HETATM   21  C15 UNL     1     -25.752  -6.157  19.000  1.00  0.00     0.021 C 
HETATM   22  C16 UNL     1     -27.012  -8.136  18.274  1.00  0.00     0.021 C 
ENDBRANCH   7  19
ENDBRANCH   4   6
BRANCH   5  23
HETATM   23  C18 UNL     1     -23.866  -9.015  14.615  1.00  0.00     0.241 C 
HETATM   24  O4  UNL     1     -23.358  -9.843  15.387  1.00  0.00    -0.271 OA
HETATM   25  N3  UNL     1     -23.182  -7.835  14.286  1.00  0.00    -0.345 N 
ATOM     26  H3  UNL     1     -23.628  -7.166  13.657  1.00  0.00     0.163 HD
BRANCH  25  27
HETATM   27  C19 UNL     1     -21.856  -7.535  14.812  1.00  0.00     0.186 C 
BRANCH  27  28
HETATM   28  C20 UNL     1     -20.947  -7.000  13.766  1.00  0.00     0.041 C 
BRANCH  28  29
HETATM   29  C21 UNL     1     -19.477  -7.291  14.009  1.00  0.00    -0.012 A 
HETATM   30  C22 UNL     1     -18.550  -6.062  13.995  1.00  0.00     0.005 A 
HETATM   31  C23 UNL     1     -18.508  -7.103  12.896  1.00  0.00     0.005 A 
ENDBRANCH  28  29
ENDBRANCH  27  28
BRANCH  27  32
HETATM   32  C24 UNL     1     -21.953  -6.509  15.890  1.00  0.00     0.196 C 
HETATM   33  O5  UNL     1     -21.215  -6.576  16.895  1.00  0.00    -0.646 OA
HETATM   34  O6  UNL     1     -22.859  -5.479  15.782  1.00  0.00    -0.646 OA
ENDBRANCH  27  32
ENDBRANCH  25  27
ENDBRANCH   5  23
BRANCH   1  35
HETATM   35  C2  UNL     1     -25.221 -11.143  12.369  1.00  0.00     0.002 C 
HETATM   36  C1  UNL     1     -26.516 -11.514  11.676  1.00  0.00     0.005 C 
ENDBRANCH   1  35
TORSDOF 12
ENDMDL
MODEL 3
REMARK VINA RESULT: -6.559140623      2.126      3.422
REMARK  12 active torsions:
REMARK  status: ('A' for Active; 'I' for Inactive)
REMARK    1  A    between atoms: C2_2  and  C3_3 
REMARK    2  A    between atoms: N1_6  and  C6_7 
REMARK    3  A    between atoms: C6_7  and  O1_8 
REMARK    4  A    between atoms: C7_10  and  N2_11 
REMARK    5  A    between atoms: C7_10  and  C13_20 
REMARK       I    between atoms: N2_11  and  C8_13 
REMARK    6  A    between atoms: C8_13  and  O3_15 
REMARK    7  A    between atoms: O3_15  and  C9_16 
REMARK    8  A    between atoms: C17_24  and  C18_25 
REMARK       I    between atoms: C18_25  and  N3_27 
REMARK    9  A    between atoms: N3_27  and  C19_29 
REMARK   10  A    between atoms: C19_29  and  C20_30 
REMARK   11  A    between atoms: C19_29  and  C24_34 
REMARK   12  A    between atoms: C20_30  and  C21_31 
ROOT
HETATM    1  C3  UNL     1     -25.379 -10.922  12.919  1.00  0.00     0.019 C 
HETATM    2  C4  UNL     1     -26.804 -11.355  13.138  1.00  0.00     0.027 C 
HETATM    3  C5  UNL     1     -27.112 -10.763  14.531  1.00  0.00     0.126 C 
HETATM    4  N1  UNL     1     -26.446  -9.539  14.520  1.00  0.00    -0.346 N 
HETATM    5  C17 UNL     1     -25.325  -9.612  13.555  1.00  0.00     0.182 C 
ENDROOT
BRANCH   4   6
HETATM    6  C6  UNL     1     -26.649  -8.356  15.272  1.00  0.00     0.163 C 
HETATM    7  C7  UNL     1     -26.448  -7.929  16.622  1.00  0.00     0.072 C 
BRANCH   6   8
HETATM    8  O1  UNL     1     -27.167  -7.351  14.535  1.00  0.00    -0.345 OA
ATOM      9  H1  UNL     1     -27.014  -6.496  14.921  1.00  0.00     0.219 HD
ENDBRANCH   6   8
BRANCH   7  10
HETATM   10  N2  UNL     1     -27.252  -6.715  16.921  1.00  0.00    -0.301 N 
HETATM   11  C8  UNL     1     -26.852  -5.403  16.566  1.00  0.00     0.365 C 
HETATM   12  O2  UNL     1     -25.789  -5.126  15.962  1.00  0.00    -0.238 OA
ATOM     13  H2  UNL     1     -28.140  -6.832  17.409  1.00  0.00     0.171 HD
BRANCH  11  14
HETATM   14  O3  UNL     1     -27.683  -4.311  16.894  1.00  0.00    -0.294 OA
BRANCH  14  15
HETATM   15  C9  UNL     1     -28.655  -3.840  16.014  1.00  0.00     0.061 C 
HETATM   16  C10 UNL     1     -30.059  -4.054  16.569  1.00  0.00     0.046 C 
HETATM   17  C11 UNL     1     -28.530  -4.351  14.608  1.00  0.00     0.046 C 
HETATM   18  C12 UNL     1     -28.470  -2.312  15.945  1.00  0.00     0.046 C 
ENDBRANCH  14  15
ENDBRANCH  11  14
ENDBRANCH   7  10
BRANCH   7  19
HETATM   19  C13 UNL     1     -26.394  -8.796  17.808  1.00  0.00    -0.004 C 
HETATM   20  C14 UNL     1     -26.143  -7.822  19.033  1.00  0.00     0.021 C 
HETATM   21  C15 UNL     1     -27.662  -9.501  18.181  1.00  0.00     0.021 C 
HETATM   22  C16 UNL     1     -25.234  -9.745  17.907  1.00  0.00     0.021 C 
ENDBRANCH   7  19
ENDBRANCH   4   6
BRANCH   5  23
HETATM   23  C18 UNL     1     -24.050  -9.327  14.253  1.00  0.00     0.241 C 
HETATM   24  O4  UNL     1     -23.561 -10.184  15.005  1.00  0.00    -0.271 OA
HETATM   25  N3  UNL     1     -23.406  -8.096  14.062  1.00  0.00    -0.345 N 
ATOM     26  H3  UNL     1     -23.835  -7.405  13.446  1.00  0.00     0.163 HD
BRANCH  25  27
HETATM   27  C19 UNL     1     -22.142  -7.773  14.714  1.00  0.00     0.186 C 
BRANCH  27  28
HETATM   28  C20 UNL     1     -21.229  -7.014  13.820  1.00  0.00     0.041 C 
BRANCH  28  29
HETATM   29  C21 UNL     1     -19.755  -7.195  14.136  1.00  0.00    -0.012 A 
HETATM   30  C22 UNL     1     -18.872  -5.958  13.888  1.00  0.00     0.005 A 
HETATM   31  C23 UNL     1     -18.771  -7.197  13.021  1.00  0.00     0.005 A 
ENDBRANCH  28  29
ENDBRANCH  27  28
BRANCH  27  32
HETATM   32  C24 UNL     1     -22.389  -6.932  15.920  1.00  0.00     0.196 C 
HETATM   33  O5  UNL     1     -22.610  -5.708  15.804  1.00  0.00    -0.646 OA
HETATM   34  O6  UNL     1     -22.376  -7.502  17.173  1.00  0.00    -0.646 OA
ENDBRANCH  27  32
ENDBRANCH  25  27
ENDBRANCH   5  23
BRANCH   1  35
HETATM   35  C2  UNL     1     -25.030 -10.914  11.437  1.00  0.00     0.002 C 
HETATM   36  C1  UNL     1     -25.775 -12.012  10.705  1.00  0.00     0.005 C 
ENDBRANCH   1  35
TORSDOF 12
ENDMDL
MODEL 4
REMARK VINA RESULT: -6.513282359      2.088      3.167
REMARK  12 active torsions:
REMARK  status: ('A' for Active; 'I' for Inactive)
REMARK    1  A    between atoms: C2_2  and  C3_3 
REMARK    2  A    between atoms: N1_6  and  C6_7 
REMARK    3  A    between atoms: C6_7  and  O1_8 
REMARK    4  A    between atoms: C7_10  and  N2_11 
REMARK    5  A    between atoms: C7_10  and  C13_20 
REMARK       I    between atoms: N2_11  and  C8_13 
REMARK    6  A    between atoms: C8_13  and  O3_15 
REMARK    7  A    between atoms: O3_15  and  C9_16 
REMARK    8  A    between atoms: C17_24  and  C18_25 
REMARK       I    between atoms: C18_25  and  N3_27 
REMARK    9  A    between atoms: N3_27  and  C19_29 
REMARK   10  A    between atoms: C19_29  and  C20_30 
REMARK   11  A    between atoms: C19_29  and  C24_34 
REMARK   12  A    between atoms: C20_30  and  C21_31 
ROOT
HETATM    1  C3  UNL     1     -25.515 -10.764  13.727  1.00  0.00     0.019 C 
HETATM    2  C4  UNL     1     -26.978 -10.903  14.049  1.00  0.00     0.027 C 
HETATM    3  C5  UNL     1     -27.152  -9.901  15.211  1.00  0.00     0.126 C 
HETATM    4  N1  UNL     1     -26.319  -8.841  14.855  1.00  0.00    -0.346 N 
HETATM    5  C17 UNL     1     -25.253  -9.349  13.961  1.00  0.00     0.182 C 
ENDROOT
BRANCH   4   6
HETATM    6  C6  UNL     1     -26.325  -7.477  15.234  1.00  0.00     0.163 C 
HETATM    7  C7  UNL     1     -26.392  -6.731  16.453  1.00  0.00     0.072 C 
BRANCH   6   8
HETATM    8  O1  UNL     1     -26.246  -6.641  14.178  1.00  0.00    -0.345 OA
ATOM      9  H1  UNL     1     -25.577  -5.975  14.286  1.00  0.00     0.219 HD
ENDBRANCH   6   8
BRANCH   7  10
HETATM   10  N2  UNL     1     -26.798  -5.325  16.195  1.00  0.00    -0.301 N 
HETATM   11  C8  UNL     1     -27.987  -4.966  15.513  1.00  0.00     0.365 C 
HETATM   12  O2  UNL     1     -28.820  -5.787  15.062  1.00  0.00    -0.238 OA
ATOM     13  H2  UNL     1     -26.188  -4.578  16.527  1.00  0.00     0.171 HD
BRANCH  11  14
HETATM   14  O3  UNL     1     -28.287  -3.602  15.313  1.00  0.00    -0.294 OA
BRANCH  14  15
HETATM   15  C9  UNL     1     -29.287  -2.958  16.039  1.00  0.00     0.061 C 
HETATM   16  C10 UNL     1     -29.485  -3.604  17.407  1.00  0.00     0.046 C 
HETATM   17  C11 UNL     1     -30.589  -2.797  15.308  1.00  0.00     0.046 C 
HETATM   18  C12 UNL     1     -28.765  -1.538  16.328  1.00  0.00     0.046 C 
ENDBRANCH  14  15
ENDBRANCH  11  14
ENDBRANCH   7  10
BRANCH   7  19
HETATM   19  C13 UNL     1     -26.972  -7.193  17.722  1.00  0.00    -0.004 C 
HETATM   20  C14 UNL     1     -26.883  -5.952  18.704  1.00  0.00     0.021 C 
HETATM   21  C15 UNL     1     -28.434  -7.522  17.711  1.00  0.00     0.021 C 
HETATM   22  C16 UNL     1     -26.217  -8.253  18.473  1.00  0.00     0.021 C 
ENDBRANCH   7  19
ENDBRANCH   4   6
BRANCH   5  23
HETATM   23  C18 UNL     1     -23.927  -9.068  14.559  1.00  0.00     0.241 C 
HETATM   24  O4  UNL     1     -23.427  -9.883  15.349  1.00  0.00    -0.271 OA
HETATM   25  N3  UNL     1     -23.248  -7.884  14.233  1.00  0.00    -0.345 N 
ATOM     26  H3  UNL     1     -23.687  -7.225  13.589  1.00  0.00     0.163 HD
BRANCH  25  27
HETATM   27  C19 UNL     1     -21.935  -7.567  14.783  1.00  0.00     0.186 C 
BRANCH  27  28
HETATM   28  C20 UNL     1     -21.010  -7.033  13.750  1.00  0.00     0.041 C 
BRANCH  28  29
HETATM   29  C21 UNL     1     -19.550  -7.376  13.984  1.00  0.00    -0.012 A 
HETATM   30  C22 UNL     1     -18.586  -6.176  14.006  1.00  0.00     0.005 A 
HETATM   31  C23 UNL     1     -18.575  -7.186  12.877  1.00  0.00     0.005 A 
ENDBRANCH  28  29
ENDBRANCH  27  28
BRANCH  27  32
HETATM   32  C24 UNL     1     -22.063  -6.532  15.848  1.00  0.00     0.196 C 
HETATM   33  O5  UNL     1     -21.225  -6.467  16.771  1.00  0.00    -0.646 OA
HETATM   34  O6  UNL     1     -23.110  -5.638  15.820  1.00  0.00    -0.646 OA
ENDBRANCH  27  32
ENDBRANCH  25  27
ENDBRANCH   5  23
BRANCH   1  35
HETATM   35  C2  UNL     1     -25.218 -11.230  12.309  1.00  0.00     0.002 C 
HETATM   36  C1  UNL     1     -26.498 -11.594  11.584  1.00  0.00     0.005 C 
ENDBRANCH   1  35
TORSDOF 12
ENDMDL
MODEL 5
REMARK VINA RESULT: -6.356468641      3.854      6.558
REMARK  12 active torsions:
REMARK  status: ('A' for Active; 'I' for Inactive)
REMARK    1  A    between atoms: C2_2  and  C3_3 
REMARK    2  A    between atoms: N1_6  and  C6_7 
REMARK    3  A    between atoms: C6_7  and  O1_8 
REMARK    4  A    between atoms: C7_10  and  N2_11 
REMARK    5  A    between atoms: C7_10  and  C13_20 
REMARK       I    between atoms: N2_11  and  C8_13 
REMARK    6  A    between atoms: C8_13  and  O3_15 
REMARK    7  A    between atoms: O3_15  and  C9_16 
REMARK    8  A    between atoms: C17_24  and  C18_25 
REMARK       I    between atoms: C18_25  and  N3_27 
REMARK    9  A    between atoms: N3_27  and  C19_29 
REMARK   10  A    between atoms: C19_29  and  C20_30 
REMARK   11  A    between atoms: C19_29  and  C24_34 
REMARK   12  A    between atoms: C20_30  and  C21_31 
ROOT
HETATM    1  C3  UNL     1     -28.043  -3.014  16.384  1.00  0.00     0.019 C 
HETATM    2  C4  UNL     1     -29.159  -2.079  16.002  1.00  0.00     0.027 C 
HETATM    3  C5  UNL     1     -29.615  -2.655  14.644  1.00  0.00     0.126 C 
HETATM    4  N1  UNL     1     -29.503  -4.033  14.820  1.00  0.00    -0.346 N 
HETATM    5  C17 UNL     1     -28.494  -4.301  15.871  1.00  0.00     0.182 C 
ENDROOT
BRANCH   4   6
HETATM    6  C6  UNL     1     -30.131  -5.116  14.158  1.00  0.00     0.163 C 
HETATM    7  C7  UNL     1     -31.025  -6.178  14.507  1.00  0.00     0.072 C 
BRANCH   6   8
HETATM    8  O1  UNL     1     -29.818  -5.179  12.847  1.00  0.00    -0.345 OA
ATOM      9  H1  UNL     1     -30.100  -4.410  12.365  1.00  0.00     0.219 HD
ENDBRANCH   6   8
BRANCH   7  10
HETATM   10  N2  UNL     1     -30.989  -7.259  13.488  1.00  0.00    -0.301 N 
HETATM   11  C8  UNL     1     -31.748  -7.232  12.291  1.00  0.00     0.365 C 
HETATM   12  O2  UNL     1     -32.519  -6.300  11.962  1.00  0.00    -0.238 OA
ATOM     13  H2  UNL     1     -30.387  -8.064  13.659  1.00  0.00     0.171 HD
BRANCH  11  14
HETATM   14  O3  UNL     1     -31.649  -8.308  11.383  1.00  0.00    -0.294 OA
BRANCH  14  15
HETATM   15  C9  UNL     1     -32.559  -9.364  11.398  1.00  0.00     0.061 C 
HETATM   16  C10 UNL     1     -33.127  -9.628  10.008  1.00  0.00     0.046 C 
HETATM   17  C11 UNL     1     -33.645  -9.243  12.429  1.00  0.00     0.046 C 
HETATM   18  C12 UNL     1     -31.750 -10.625  11.756  1.00  0.00     0.046 C 
ENDBRANCH  14  15
ENDBRANCH  11  14
ENDBRANCH   7  10
BRANCH   7  19
HETATM   19  C13 UNL     1     -31.200  -6.760  15.846  1.00  0.00    -0.004 C 
HETATM   20  C14 UNL     1     -32.410  -7.774  15.710  1.00  0.00     0.021 C 
HETATM   21  C15 UNL     1     -30.083  -7.619  16.355  1.00  0.00     0.021 C 
HETATM   22  C16 UNL     1     -31.672  -5.838  16.934  1.00  0.00     0.021 C 
ENDBRANCH   7  19
ENDBRANCH   4   6
BRANCH   5  23
HETATM   23  C18 UNL     1     -27.412  -5.147  15.317  1.00  0.00     0.241 C 
HETATM   24  O4  UNL     1     -27.234  -5.186  14.090  1.00  0.00    -0.271 OA
HETATM   25  N3  UNL     1     -26.599  -5.898  16.178  1.00  0.00    -0.345 N 
ATOM     26  H3  UNL     1     -26.773  -5.857  17.182  1.00  0.00     0.163 HD
BRANCH  25  27
HETATM   27  C19 UNL     1     -25.511  -6.735  15.684  1.00  0.00     0.186 C 
BRANCH  27  28
HETATM   28  C20 UNL     1     -24.374  -6.795  16.638  1.00  0.00     0.041 C 
BRANCH  28  29
HETATM   29  C21 UNL     1     -23.083  -6.196  16.108  1.00  0.00    -0.012 A 
HETATM   30  C22 UNL     1     -21.936  -7.197  15.880  1.00  0.00     0.005 A 
HETATM   31  C23 UNL     1     -21.884  -6.166  16.988  1.00  0.00     0.005 A 
ENDBRANCH  28  29
ENDBRANCH  27  28
BRANCH  27  32
HETATM   32  C24 UNL     1     -25.994  -8.130  15.473  1.00  0.00     0.196 C 
HETATM   33  O5  UNL     1     -25.697  -8.752  14.432  1.00  0.00    -0.646 OA
HETATM   34  O6  UNL     1     -26.772  -8.743  16.429  1.00  0.00    -0.646 OA
ENDBRANCH  27  32
ENDBRANCH  25  27
ENDBRANCH   5  23
BRANCH   1  35
HETATM   35  C2  UNL     1     -27.796  -2.989  17.886  1.00  0.00     0.002 C 
HETATM   36  C1  UNL     1     -28.776  -3.892  18.607  1.00  0.00     0.005 C 
ENDBRANCH   1  35
TORSDOF 12
ENDMDL
