MODEL 1
REMARK VINA RESULT: -7.914975358      0.000      0.000
REMARK  9 active torsions:
REMARK  status: ('A' for Active; 'I' for Inactive)
REMARK       I    between atoms: C1_2  and  N1_3 
REMARK    1  A    between atoms: C1_2  and  C10_18 
REMARK    2  A    between atoms: N1_3  and  C2_5 
REMARK    3  A    between atoms: C2_5  and  C3_6 
REMARK       I    between atoms: C3_6  and  N2_8 
REMARK    4  A    between atoms: N2_8  and  C4_10 
REMARK    5  A    between atoms: C4_10  and  C5_11 
REMARK    6  A    between atoms: C5_11  and  O3_12 
REMARK    7  A    between atoms: C10_18  and  C11_19 
REMARK    8  A    between atoms: C10_18  and  N4_30 
REMARK    9  A    between atoms: C11_19  and  C12_20 
ROOT
HETATM    1  C10 UNL     1     -26.374  -5.475  15.879  1.00  0.00     0.083 C 
ENDROOT
BRANCH   1   2
HETATM    2  C1  UNL     1     -25.231  -6.068  16.581  1.00  0.00     0.265 C 
HETATM    3  O1  UNL     1     -25.285  -6.245  17.813  1.00  0.00    -0.266 OA
HETATM    4  N1  UNL     1     -24.070  -6.448  15.880  1.00  0.00    -0.338 N 
ATOM      5  H1  UNL     1     -24.085  -6.277  14.875  1.00  0.00     0.164 HD
BRANCH   4   6
HETATM    6  C2  UNL     1     -22.882  -7.037  16.388  1.00  0.00     0.114 C 
HETATM    7  C6  UNL     1     -22.180  -6.170  17.404  1.00  0.00     0.041 C 
HETATM    8  C7  UNL     1     -22.015  -7.029  18.617  1.00  0.00     0.003 C 
HETATM    9  C8  UNL     1     -22.858  -8.247  18.482  1.00  0.00     0.003 C 
HETATM   10  C9  UNL     1     -23.187  -8.359  17.033  1.00  0.00     0.041 C 
BRANCH   6  11
HETATM   11  C3  UNL     1     -21.882  -7.232  15.271  1.00  0.00     0.246 C 
HETATM   12  O2  UNL     1     -21.634  -8.385  14.885  1.00  0.00    -0.271 OA
HETATM   13  N2  UNL     1     -21.243  -6.131  14.682  1.00  0.00    -0.357 N 
ATOM     14  H2  UNL     1     -21.470  -5.199  15.029  1.00  0.00     0.162 HD
BRANCH  13  15
HETATM   15  C4  UNL     1     -20.293  -6.243  13.625  1.00  0.00     0.148 C 
BRANCH  15  16
HETATM   16  C5  UNL     1     -18.899  -6.321  14.158  1.00  0.00     0.183 C 
BRANCH  16  17
HETATM   17  O3  UNL     1     -18.547  -5.110  14.792  1.00  0.00    -0.399 OA
ATOM     18  H3  UNL     1     -17.738  -4.769  14.427  1.00  0.00     0.209 HD
ENDBRANCH  16  17
ENDBRANCH  15  16
ENDBRANCH  13  15
ENDBRANCH   6  11
ENDBRANCH   4   6
ENDBRANCH   1   2
BRANCH   1  19
HETATM   19  C11 UNL     1     -26.840  -6.084  14.620  1.00  0.00     0.120 C 
BRANCH  19  20
HETATM   20  C12 UNL     1     -28.214  -5.829  14.195  1.00  0.00     0.017 A 
HETATM   21  C13 UNL     1     -28.566  -4.623  13.556  1.00  0.00     0.027 A 
HETATM   22  C14 UNL     1     -29.906  -4.638  13.360  1.00  0.00     0.027 A 
HETATM   23  C15 UNL     1     -30.350  -5.855  13.886  1.00  0.00     0.011 A 
HETATM   24  N3  UNL     1     -29.313  -6.554  14.382  1.00  0.00    -0.353 N 
HETATM   25  C20 UNL     1     -31.791  -6.208  13.865  1.00  0.00     0.057 C 
HETATM   26  C16 UNL     1     -29.397  -7.816  15.033  1.00  0.00     0.129 C 
HETATM   27  C17 UNL     1     -30.089  -8.867  14.212  1.00  0.00     0.020 C 
HETATM   28  C18 UNL     1     -31.585  -8.646  14.201  1.00  0.00     0.002 C 
HETATM   29  C19 UNL     1     -31.959  -7.547  13.222  1.00  0.00     0.006 C 
ENDBRANCH  19  20
ENDBRANCH   1  19
BRANCH   1  30
HETATM   30  N4  UNL     1     -27.430  -5.129  16.777  1.00  0.00    -0.361 N 
HETATM   31  C21 UNL     1     -28.059  -4.098  16.983  1.00  0.00    -0.009 C 
HETATM   32  C22 UNL     1     -27.965  -2.759  16.359  1.00  0.00     0.057 C 
HETATM   33  C26 UNL     1     -29.156  -3.992  18.002  1.00  0.00     0.032 C 
HETATM   34  C23 UNL     1     -29.116  -1.977  16.970  1.00  0.00    -0.009 C 
HETATM   35  C24 UNL     1     -30.396  -2.585  16.515  1.00  0.00     0.005 C 
HETATM   36  C27 UNL     1     -29.019  -2.535  18.404  1.00  0.00     0.015 C 
HETATM   37  C25 UNL     1     -30.464  -3.917  17.247  1.00  0.00     0.011 C 
ATOM     38  H4  UNL     1     -27.720  -5.905  17.372  1.00  0.00     0.165 HD
ENDBRANCH   1  30
TORSDOF 9
ENDMDL
MODEL 2
REMARK VINA RESULT: -7.690672883      2.251      3.996
REMARK  9 active torsions:
REMARK  status: ('A' for Active; 'I' for Inactive)
REMARK       I    between atoms: C1_2  and  N1_3 
REMARK    1  A    between atoms: C1_2  and  C10_18 
REMARK    2  A    between atoms: N1_3  and  C2_5 
REMARK    3  A    between atoms: C2_5  and  C3_6 
REMARK       I    between atoms: C3_6  and  N2_8 
REMARK    4  A    between atoms: N2_8  and  C4_10 
REMARK    5  A    between atoms: C4_10  and  C5_11 
REMARK    6  A    between atoms: C5_11  and  O3_12 
REMARK    7  A    between atoms: C10_18  and  C11_19 
REMARK    8  A    between atoms: C10_18  and  N4_30 
REMARK    9  A    between atoms: C11_19  and  C12_20 
ROOT
HETATM    1  C10 UNL     1     -26.619  -6.537  15.305  1.00  0.00     0.083 C 
ENDROOT
BRANCH   1   2
HETATM    2  C1  UNL     1     -25.334  -6.604  16.010  1.00  0.00     0.265 C 
HETATM    3  O1  UNL     1     -25.265  -6.255  17.204  1.00  0.00    -0.266 OA
HETATM    4  N1  UNL     1     -24.174  -7.062  15.357  1.00  0.00    -0.338 N 
ATOM      5  H1  UNL     1     -24.293  -7.332  14.381  1.00  0.00     0.164 HD
BRANCH   4   6
HETATM    6  C2  UNL     1     -22.861  -7.199  15.878  1.00  0.00     0.114 C 
HETATM    7  C6  UNL     1     -22.432  -6.022  16.720  1.00  0.00     0.041 C 
HETATM    8  C7  UNL     1     -22.011  -6.601  18.033  1.00  0.00     0.003 C 
HETATM    9  C8  UNL     1     -22.461  -8.015  18.121  1.00  0.00     0.003 C 
HETATM   10  C9  UNL     1     -22.758  -8.438  16.723  1.00  0.00     0.041 C 
BRANCH   6  11
HETATM   11  C3  UNL     1     -21.859  -7.268  14.748  1.00  0.00     0.246 C 
HETATM   12  O2  UNL     1     -21.922  -8.215  13.949  1.00  0.00    -0.271 OA
HETATM   13  N2  UNL     1     -20.872  -6.280  14.605  1.00  0.00    -0.357 N 
ATOM     14  H2  UNL     1     -20.849  -5.519  15.284  1.00  0.00     0.162 HD
BRANCH  13  15
HETATM   15  C4  UNL     1     -19.900  -6.282  13.564  1.00  0.00     0.148 C 
BRANCH  15  16
HETATM   16  C5  UNL     1     -18.514  -6.214  14.118  1.00  0.00     0.183 C 
BRANCH  16  17
HETATM   17  O3  UNL     1     -18.339  -5.027  14.861  1.00  0.00    -0.399 OA
ATOM     18  H3  UNL     1     -17.733  -5.172  15.579  1.00  0.00     0.209 HD
ENDBRANCH  16  17
ENDBRANCH  15  16
ENDBRANCH  13  15
ENDBRANCH   6  11
ENDBRANCH   4   6
ENDBRANCH   1   2
BRANCH   1  19
HETATM   19  C11 UNL     1     -27.428  -7.762  15.168  1.00  0.00     0.120 C 
BRANCH  19  20
HETATM   20  C12 UNL     1     -26.769  -9.051  15.358  1.00  0.00     0.017 A 
HETATM   21  C13 UNL     1     -26.307  -9.801  14.258  1.00  0.00     0.027 A 
HETATM   22  C14 UNL     1     -25.823 -10.974  14.734  1.00  0.00     0.027 A 
HETATM   23  C15 UNL     1     -26.001 -10.918  16.121  1.00  0.00     0.011 A 
HETATM   24  N3  UNL     1     -26.570  -9.752  16.471  1.00  0.00    -0.353 N 
HETATM   25  C20 UNL     1     -25.598 -12.058  16.980  1.00  0.00     0.057 C 
HETATM   26  C16 UNL     1     -26.938  -9.370  17.791  1.00  0.00     0.129 C 
HETATM   27  C17 UNL     1     -25.803  -9.444  18.773  1.00  0.00     0.020 C 
HETATM   28  C18 UNL     1     -25.507 -10.879  19.148  1.00  0.00     0.002 C 
HETATM   29  C19 UNL     1     -24.694 -11.562  18.063  1.00  0.00     0.006 C 
ENDBRANCH  19  20
ENDBRANCH   1  19
BRANCH   1  30
HETATM   30  N4  UNL     1     -27.375  -5.386  15.682  1.00  0.00    -0.361 N 
HETATM   31  C21 UNL     1     -28.129  -4.635  15.076  1.00  0.00    -0.009 C 
HETATM   32  C22 UNL     1     -28.565  -4.627  13.661  1.00  0.00     0.057 C 
HETATM   33  C26 UNL     1     -28.827  -3.472  15.718  1.00  0.00     0.032 C 
HETATM   34  C23 UNL     1     -29.605  -3.522  13.592  1.00  0.00    -0.009 C 
HETATM   35  C24 UNL     1     -30.780  -3.927  14.411  1.00  0.00     0.005 C 
HETATM   36  C27 UNL     1     -28.918  -2.519  14.540  1.00  0.00     0.015 C 
HETATM   37  C25 UNL     1     -30.287  -3.841  15.849  1.00  0.00     0.011 C 
ATOM     38  H4  UNL     1     -27.263  -5.137  16.665  1.00  0.00     0.165 HD
ENDBRANCH   1  30
TORSDOF 9
ENDMDL
MODEL 3
REMARK VINA RESULT: -7.560964652      2.072      4.511
REMARK  9 active torsions:
REMARK  status: ('A' for Active; 'I' for Inactive)
REMARK       I    between atoms: C1_2  and  N1_3 
REMARK    1  A    between atoms: C1_2  and  C10_18 
REMARK    2  A    between atoms: N1_3  and  C2_5 
REMARK    3  A    between atoms: C2_5  and  C3_6 
REMARK       I    between atoms: C3_6  and  N2_8 
REMARK    4  A    between atoms: N2_8  and  C4_10 
REMARK    5  A    between atoms: C4_10  and  C5_11 
REMARK    6  A    between atoms: C5_11  and  O3_12 
REMARK    7  A    between atoms: C10_18  and  C11_19 
REMARK    8  A    between atoms: C10_18  and  N4_30 
REMARK    9  A    between atoms: C11_19  and  C12_20 
ROOT
HETATM    1  C10 UNL     1     -27.762  -7.812  15.993  1.00  0.00     0.083 C 
ENDROOT
BRANCH   1   2
HETATM    2  C1  UNL     1     -26.346  -7.591  15.680  1.00  0.00     0.265 C 
HETATM    3  O1  UNL     1     -26.027  -7.057  14.601  1.00  0.00    -0.266 OA
HETATM    4  N1  UNL     1     -25.338  -7.970  16.587  1.00  0.00    -0.338 N 
ATOM      5  H1  UNL     1     -25.660  -8.403  17.452  1.00  0.00     0.164 HD
BRANCH   4   6
HETATM    6  C2  UNL     1     -23.931  -7.829  16.456  1.00  0.00     0.114 C 
HETATM    7  C6  UNL     1     -23.494  -6.396  16.278  1.00  0.00     0.041 C 
HETATM    8  C7  UNL     1     -22.483  -6.149  17.351  1.00  0.00     0.003 C 
HETATM    9  C8  UNL     1     -22.530  -7.257  18.343  1.00  0.00     0.003 C 
HETATM   10  C9  UNL     1     -23.234  -8.383  17.666  1.00  0.00     0.041 C 
BRANCH   6  11
HETATM   11  C3  UNL     1     -23.451  -8.550  15.216  1.00  0.00     0.246 C 
HETATM   12  O2  UNL     1     -23.299  -9.780  15.260  1.00  0.00    -0.271 OA
HETATM   13  N2  UNL     1     -23.178  -7.840  14.037  1.00  0.00    -0.357 N 
ATOM     14  H2  UNL     1     -23.311  -6.829  14.040  1.00  0.00     0.162 HD
BRANCH  13  15
HETATM   15  C4  UNL     1     -22.726  -8.456  12.834  1.00  0.00     0.148 C 
BRANCH  15  16
HETATM   16  C5  UNL     1     -21.979  -7.485  11.978  1.00  0.00     0.183 C 
BRANCH  16  17
HETATM   17  O3  UNL     1     -22.598  -7.365  10.715  1.00  0.00    -0.399 OA
ATOM     18  H3  UNL     1     -23.395  -6.852  10.785  1.00  0.00     0.209 HD
ENDBRANCH  16  17
ENDBRANCH  15  16
ENDBRANCH  13  15
ENDBRANCH   6  11
ENDBRANCH   4   6
ENDBRANCH   1   2
BRANCH   1  19
HETATM   19  C11 UNL     1     -28.433  -6.920  16.957  1.00  0.00     0.120 C 
BRANCH  19  20
HETATM   20  C12 UNL     1     -28.259  -5.478  16.801  1.00  0.00     0.017 A 
HETATM   21  C13 UNL     1     -27.380  -4.757  17.634  1.00  0.00     0.027 A 
HETATM   22  C14 UNL     1     -27.492  -3.446  17.313  1.00  0.00     0.027 A 
HETATM   23  C15 UNL     1     -28.442  -3.390  16.287  1.00  0.00     0.011 A 
HETATM   24  N3  UNL     1     -28.887  -4.625  15.997  1.00  0.00    -0.353 N 
HETATM   25  C20 UNL     1     -28.839  -2.089  15.694  1.00  0.00     0.057 C 
HETATM   26  C16 UNL     1     -29.888  -4.944  15.037  1.00  0.00     0.129 C 
HETATM   27  C17 UNL     1     -29.590  -4.414  13.664  1.00  0.00     0.020 C 
HETATM   28  C18 UNL     1     -29.837  -2.923  13.594  1.00  0.00     0.002 C 
HETATM   29  C19 UNL     1     -28.679  -2.157  14.209  1.00  0.00     0.006 C 
ENDBRANCH  19  20
ENDBRANCH   1  19
BRANCH   1  30
HETATM   30  N4  UNL     1     -28.533  -8.076  14.821  1.00  0.00    -0.361 N 
HETATM   31  C21 UNL     1     -29.638  -8.569  14.630  1.00  0.00    -0.009 C 
HETATM   32  C22 UNL     1     -30.643  -9.103  15.577  1.00  0.00     0.057 C 
HETATM   33  C26 UNL     1     -30.244  -8.731  13.266  1.00  0.00     0.032 C 
HETATM   34  C23 UNL     1     -31.845  -9.431  14.707  1.00  0.00    -0.009 C 
HETATM   35  C24 UNL     1     -32.392  -8.162  14.157  1.00  0.00     0.005 C 
HETATM   36  C27 UNL     1     -31.082  -9.978  13.483  1.00  0.00     0.015 C 
HETATM   37  C25 UNL     1     -31.351  -7.709  13.142  1.00  0.00     0.011 C 
ATOM     38  H4  UNL     1     -28.063  -7.796  13.960  1.00  0.00     0.165 HD
ENDBRANCH   1  30
TORSDOF 9
ENDMDL
MODEL 4
REMARK VINA RESULT: -7.523550935      1.901      4.445
REMARK  9 active torsions:
REMARK  status: ('A' for Active; 'I' for Inactive)
REMARK       I    between atoms: C1_2  and  N1_3 
REMARK    1  A    between atoms: C1_2  and  C10_18 
REMARK    2  A    between atoms: N1_3  and  C2_5 
REMARK    3  A    between atoms: C2_5  and  C3_6 
REMARK       I    between atoms: C3_6  and  N2_8 
REMARK    4  A    between atoms: N2_8  and  C4_10 
REMARK    5  A    between atoms: C4_10  and  C5_11 
REMARK    6  A    between atoms: C5_11  and  O3_12 
REMARK    7  A    between atoms: C10_18  and  C11_19 
REMARK    8  A    between atoms: C10_18  and  N4_30 
REMARK    9  A    between atoms: C11_19  and  C12_20 
ROOT
HETATM    1  C10 UNL     1     -27.431  -6.772  15.067  1.00  0.00     0.083 C 
ENDROOT
BRANCH   1   2
HETATM    2  C1  UNL     1     -26.178  -7.449  15.418  1.00  0.00     0.265 C 
HETATM    3  O1  UNL     1     -26.123  -8.694  15.405  1.00  0.00    -0.266 OA
HETATM    4  N1  UNL     1     -25.030  -6.712  15.767  1.00  0.00    -0.338 N 
ATOM      5  H1  UNL     1     -25.137  -5.698  15.761  1.00  0.00     0.164 HD
BRANCH   4   6
HETATM    6  C2  UNL     1     -23.744  -7.194  16.126  1.00  0.00     0.114 C 
HETATM    7  C6  UNL     1     -22.733  -6.090  16.323  1.00  0.00     0.041 C 
HETATM    8  C7  UNL     1     -22.170  -6.303  17.693  1.00  0.00     0.003 C 
HETATM    9  C8  UNL     1     -23.015  -7.279  18.431  1.00  0.00     0.003 C 
HETATM   10  C9  UNL     1     -23.818  -7.992  17.397  1.00  0.00     0.041 C 
BRANCH   6  11
HETATM   11  C3  UNL     1     -23.184  -8.053  15.015  1.00  0.00     0.246 C 
HETATM   12  O2  UNL     1     -22.371  -8.946  15.301  1.00  0.00    -0.271 OA
HETATM   13  N2  UNL     1     -23.573  -7.845  13.683  1.00  0.00    -0.357 N 
ATOM     14  H2  UNL     1     -24.239  -7.098  13.487  1.00  0.00     0.162 HD
BRANCH  13  15
HETATM   15  C4  UNL     1     -23.087  -8.619  12.590  1.00  0.00     0.148 C 
BRANCH  15  16
HETATM   16  C5  UNL     1     -22.063  -7.864  11.807  1.00  0.00     0.183 C 
BRANCH  16  17
HETATM   17  O3  UNL     1     -22.578  -7.503  10.543  1.00  0.00    -0.399 OA
ATOM     18  H3  UNL     1     -22.733  -6.566  10.504  1.00  0.00     0.209 HD
ENDBRANCH  16  17
ENDBRANCH  15  16
ENDBRANCH  13  15
ENDBRANCH   6  11
ENDBRANCH   4   6
ENDBRANCH   1   2
BRANCH   1  19
HETATM   19  C11 UNL     1     -27.375  -5.481  14.355  1.00  0.00     0.120 C 
BRANCH  19  20
HETATM   20  C12 UNL     1     -28.074  -4.340  14.938  1.00  0.00     0.017 A 
HETATM   21  C13 UNL     1     -29.043  -3.627  14.204  1.00  0.00     0.027 A 
HETATM   22  C14 UNL     1     -29.451  -2.584  14.966  1.00  0.00     0.027 A 
HETATM   23  C15 UNL     1     -28.720  -2.678  16.154  1.00  0.00     0.011 A 
HETATM   24  N3  UNL     1     -27.899  -3.742  16.114  1.00  0.00    -0.353 N 
HETATM   25  C20 UNL     1     -28.894  -1.671  17.230  1.00  0.00     0.057 C 
HETATM   26  C16 UNL     1     -26.977  -4.120  17.130  1.00  0.00     0.129 C 
HETATM   27  C17 UNL     1     -27.614  -4.297  18.479  1.00  0.00     0.020 C 
HETATM   28  C18 UNL     1     -27.930  -2.957  19.106  1.00  0.00     0.002 C 
HETATM   29  C19 UNL     1     -29.201  -2.373  18.514  1.00  0.00     0.006 C 
ENDBRANCH  19  20
ENDBRANCH   1  19
BRANCH   1  30
HETATM   30  N4  UNL     1     -28.397  -7.680  14.538  1.00  0.00    -0.361 N 
HETATM   31  C21 UNL     1     -29.619  -7.747  14.606  1.00  0.00    -0.009 C 
HETATM   32  C22 UNL     1     -30.604  -6.880  15.291  1.00  0.00     0.057 C 
HETATM   33  C26 UNL     1     -30.425  -8.821  13.936  1.00  0.00     0.032 C 
HETATM   34  C23 UNL     1     -31.954  -7.434  14.866  1.00  0.00    -0.009 C 
HETATM   35  C24 UNL     1     -32.117  -7.215  13.404  1.00  0.00     0.005 C 
HETATM   36  C27 UNL     1     -31.592  -8.933  14.900  1.00  0.00     0.015 C 
HETATM   37  C25 UNL     1     -31.134  -8.184  12.763  1.00  0.00     0.011 C 
ATOM     38  H4  UNL     1     -27.983  -8.432  13.987  1.00  0.00     0.165 HD
ENDBRANCH   1  30
TORSDOF 9
ENDMDL
MODEL 5
REMARK VINA RESULT: -7.516433009      2.791      3.775
REMARK  9 active torsions:
REMARK  status: ('A' for Active; 'I' for Inactive)
REMARK       I    between atoms: C1_2  and  N1_3 
REMARK    1  A    between atoms: C1_2  and  C10_18 
REMARK    2  A    between atoms: N1_3  and  C2_5 
REMARK    3  A    between atoms: C2_5  and  C3_6 
REMARK       I    between atoms: C3_6  and  N2_8 
REMARK    4  A    between atoms: N2_8  and  C4_10 
REMARK    5  A    between atoms: C4_10  and  C5_11 
REMARK    6  A    between atoms: C5_11  and  O3_12 
REMARK    7  A    between atoms: C10_18  and  C11_19 
REMARK    8  A    between atoms: C10_18  and  N4_30 
REMARK    9  A    between atoms: C11_19  and  C12_20 
ROOT
HETATM    1  C10 UNL     1     -29.162  -7.352  14.747  1.00  0.00     0.083 C 
ENDROOT
BRANCH   1   2
HETATM    2  C1  UNL     1     -28.077  -8.295  15.036  1.00  0.00     0.265 C 
HETATM    3  O1  UNL     1     -28.324  -9.354  15.644  1.00  0.00    -0.266 OA
HETATM    4  N1  UNL     1     -26.756  -8.025  14.631  1.00  0.00    -0.338 N 
ATOM      5  H1  UNL     1     -26.617  -7.143  14.138  1.00  0.00     0.164 HD
BRANCH   4   6
HETATM    6  C2  UNL     1     -25.593  -8.818  14.816  1.00  0.00     0.114 C 
HETATM    7  C6  UNL     1     -25.431  -9.308  16.234  1.00  0.00     0.041 C 
HETATM    8  C7  UNL     1     -25.295 -10.794  16.131  1.00  0.00     0.003 C 
HETATM    9  C8  UNL     1     -25.681 -11.235  14.764  1.00  0.00     0.003 C 
HETATM   10  C9  UNL     1     -25.625 -10.016  13.909  1.00  0.00     0.041 C 
BRANCH   6  11
HETATM   11  C3  UNL     1     -24.355  -7.997  14.534  1.00  0.00     0.246 C 
HETATM   12  O2  UNL     1     -24.074  -7.057  15.294  1.00  0.00    -0.271 OA
HETATM   13  N2  UNL     1     -23.539  -8.289  13.431  1.00  0.00    -0.357 N 
ATOM     14  H2  UNL     1     -23.804  -9.066  12.827  1.00  0.00     0.162 HD
BRANCH  13  15
HETATM   15  C4  UNL     1     -22.359  -7.558  13.109  1.00  0.00     0.148 C 
BRANCH  15  16
HETATM   16  C5  UNL     1     -21.867  -7.902  11.741  1.00  0.00     0.183 C 
BRANCH  16  17
HETATM   17  O3  UNL     1     -22.807  -7.508  10.766  1.00  0.00    -0.399 OA
ATOM     18  H3  UNL     1     -22.532  -7.797   9.904  1.00  0.00     0.209 HD
ENDBRANCH  16  17
ENDBRANCH  15  16
ENDBRANCH  13  15
ENDBRANCH   6  11
ENDBRANCH   4   6
ENDBRANCH   1   2
BRANCH   1  19
HETATM   19  C11 UNL     1     -30.529  -7.868  14.545  1.00  0.00     0.120 C 
BRANCH  19  20
HETATM   20  C12 UNL     1     -31.105  -7.794  13.205  1.00  0.00     0.017 A 
HETATM   21  C13 UNL     1     -31.799  -6.646  12.773  1.00  0.00     0.027 A 
HETATM   22  C14 UNL     1     -32.285  -6.901  11.535  1.00  0.00     0.027 A 
HETATM   23  C15 UNL     1     -31.879  -8.205  11.232  1.00  0.00     0.011 A 
HETATM   24  N3  UNL     1     -31.170  -8.720  12.252  1.00  0.00    -0.353 N 
HETATM   25  C20 UNL     1     -32.256  -8.834   9.943  1.00  0.00     0.057 C 
HETATM   26  C16 UNL     1     -30.636 -10.037  12.311  1.00  0.00     0.129 C 
HETATM   27  C17 UNL     1     -29.753 -10.377  11.144  1.00  0.00     0.020 C 
HETATM   28  C18 UNL     1     -30.576 -10.644   9.904  1.00  0.00     0.002 C 
HETATM   29  C19 UNL     1     -31.024  -9.341   9.265  1.00  0.00     0.006 C 
ENDBRANCH  19  20
ENDBRANCH   1  19
BRANCH   1  30
HETATM   30  N4  UNL     1     -29.101  -6.196  15.583  1.00  0.00    -0.361 N 
HETATM   31  C21 UNL     1     -29.127  -4.991  15.362  1.00  0.00    -0.009 C 
HETATM   32  C22 UNL     1     -29.235  -4.237  14.093  1.00  0.00     0.057 C 
HETATM   33  C26 UNL     1     -29.055  -3.952  16.442  1.00  0.00     0.032 C 
HETATM   34  C23 UNL     1     -29.351  -2.785  14.525  1.00  0.00    -0.009 C 
HETATM   35  C24 UNL     1     -30.638  -2.608  15.251  1.00  0.00     0.005 C 
HETATM   36  C27 UNL     1     -28.354  -2.830  15.700  1.00  0.00     0.015 C 
HETATM   37  C25 UNL     1     -30.432  -3.341  16.570  1.00  0.00     0.011 C 
ATOM     38  H4  UNL     1     -29.017  -6.421  16.574  1.00  0.00     0.165 HD
ENDBRANCH   1  30
TORSDOF 9
ENDMDL
