MODEL 1
REMARK VINA RESULT: -9.349805921      0.000      0.000
REMARK  10 active torsions:
REMARK  status: ('A' for Active; 'I' for Inactive)
REMARK    1  A    between atoms: C2_2  and  C4_4 
REMARK       I    between atoms: C4_4  and  N1_6 
REMARK    2  A    between atoms: N1_6  and  C5_8 
REMARK    3  A    between atoms: C8_11  and  C9_12 
REMARK    4  A    between atoms: C9_12  and  C10_13 
REMARK    5  A    between atoms: N2_16  and  C13_17 
REMARK    6  A    between atoms: C13_17  and  C14_18 
REMARK    7  A    between atoms: C14_18  and  N3_19 
REMARK    8  A    between atoms: N3_19  and  S1_21 
REMARK    9  A    between atoms: S1_21  and  C15_24 
REMARK   10  A    between atoms: N4_30  and  O4_32 
ROOT
HETATM    1  C10 UNL     1     -21.032  -7.585  14.108  1.00  0.00     0.005 C 
HETATM    2  C11 UNL     1     -21.726  -7.442  12.792  1.00  0.00     0.026 C 
HETATM    3  C12 UNL     1     -22.889  -8.439  12.991  1.00  0.00     0.124 C 
HETATM    4  N2  UNL     1     -23.192  -8.325  14.420  1.00  0.00    -0.368 N 
HETATM    5  C21 UNL     1     -22.246  -7.426  15.051  1.00  0.00     0.128 C 
ENDROOT
BRANCH   4   6
HETATM    6  C13 UNL     1     -24.226  -8.965  15.112  1.00  0.00     0.118 C 
HETATM    7  N4  UNL     1     -23.938  -9.778  16.065  1.00  0.00    -0.255 N 
ATOM      8  H4  UNL     1     -24.708 -10.234  16.555  1.00  0.00     0.195 HD
BRANCH   6   9
HETATM    9  C14 UNL     1     -25.662  -8.742  14.788  1.00  0.00     0.210 C 
BRANCH   9  10
HETATM   10  N3  UNL     1     -25.873  -7.423  14.296  1.00  0.00    -0.312 N 
ATOM     11  H3  UNL     1     -25.669  -7.179  13.327  1.00  0.00     0.172 HD
BRANCH  10  12
HETATM   12  S1  UNL     1     -26.473  -6.280  15.383  1.00  0.00     0.231 S 
HETATM   13  O2  UNL     1     -25.314  -5.517  15.980  1.00  0.00    -0.206 OA
HETATM   14  O3  UNL     1     -27.113  -7.028  16.551  1.00  0.00    -0.206 OA
BRANCH  12  15
HETATM   15  C15 UNL     1     -27.668  -5.166  14.781  1.00  0.00     0.129 C 
HETATM   16  C16 UNL     1     -28.982  -5.749  14.377  1.00  0.00     0.022 C 
HETATM   17  C17 UNL     1     -29.571  -4.795  13.332  1.00  0.00     0.001 C 
HETATM   18  C18 UNL     1     -29.197  -3.364  13.688  1.00  0.00     0.000 C 
HETATM   19  C19 UNL     1     -29.065  -3.199  15.186  1.00  0.00     0.001 C 
HETATM   20  C20 UNL     1     -27.936  -4.020  15.731  1.00  0.00     0.022 C 
ENDBRANCH  12  15
ENDBRANCH  10  12
ENDBRANCH   9  10
ENDBRANCH   6   9
BRANCH   7  21
HETATM   21  O4  UNL     1     -22.666 -10.069  16.459  1.00  0.00    -0.288 OA
ATOM     22  H4  UNL     1     -22.445 -10.764  17.067  1.00  0.00     0.244 HD
ENDBRANCH   7  21
ENDBRANCH   4   6
BRANCH   1  23
HETATM   23  C9  UNL     1     -20.034  -6.581  14.503  1.00  0.00     0.011 C 
BRANCH  23  24
HETATM   24  C8  UNL     1     -18.814  -6.391  13.666  1.00  0.00    -0.014 C 
HETATM   25  C7  UNL     1     -18.154  -7.799  13.609  1.00  0.00     0.006 C 
HETATM   26  C6  UNL     1     -17.181  -7.678  12.456  1.00  0.00     0.025 C 
HETATM   27  C5  UNL     1     -16.151  -6.665  12.811  1.00  0.00     0.084 C 
HETATM   28  C23 UNL     1     -16.394  -5.876  14.047  1.00  0.00     0.025 C 
HETATM   29  C22 UNL     1     -17.833  -5.468  14.287  1.00  0.00     0.006 C 
BRANCH  27  30
HETATM   30  N1  UNL     1     -14.808  -7.279  12.901  1.00  0.00    -0.353 N 
HETATM   31  C4  UNL     1     -14.051  -7.562  11.752  1.00  0.00     0.246 C 
HETATM   32  O1  UNL     1     -14.535  -7.283  10.618  1.00  0.00    -0.268 OA
ATOM     33  H1  UNL     1     -14.423  -7.501  13.819  1.00  0.00     0.163 HD
BRANCH  31  34
HETATM   34  C2  UNL     1     -12.744  -8.158  11.818  1.00  0.00    -0.004 C 
HETATM   35  C1  UNL     1     -12.198  -8.517  12.950  1.00  0.00     0.024 C 
HETATM   36  C3  UNL     1     -11.928  -8.404  10.579  1.00  0.00     0.053 C 
ENDBRANCH  31  34
ENDBRANCH  27  30
ENDBRANCH  23  24
ENDBRANCH   1  23
TORSDOF 10
ENDMDL
MODEL 2
REMARK VINA RESULT: -9.230330478      0.809      1.296
REMARK  10 active torsions:
REMARK  status: ('A' for Active; 'I' for Inactive)
REMARK    1  A    between atoms: C2_2  and  C4_4 
REMARK       I    between atoms: C4_4  and  N1_6 
REMARK    2  A    between atoms: N1_6  and  C5_8 
REMARK    3  A    between atoms: C8_11  and  C9_12 
REMARK    4  A    between atoms: C9_12  and  C10_13 
REMARK    5  A    between atoms: N2_16  and  C13_17 
REMARK    6  A    between atoms: C13_17  and  C14_18 
REMARK    7  A    between atoms: C14_18  and  N3_19 
REMARK    8  A    between atoms: N3_19  and  S1_21 
REMARK    9  A    between atoms: S1_21  and  C15_24 
REMARK   10  A    between atoms: N4_30  and  O4_32 
ROOT
HETATM    1  C10 UNL     1     -20.874  -7.347  14.044  1.00  0.00     0.005 C 
HETATM    2  C11 UNL     1     -21.587  -7.208  12.737  1.00  0.00     0.026 C 
HETATM    3  C12 UNL     1     -22.721  -8.237  12.938  1.00  0.00     0.124 C 
HETATM    4  N2  UNL     1     -23.011  -8.146  14.371  1.00  0.00    -0.368 N 
HETATM    5  C21 UNL     1     -22.081  -7.230  15.002  1.00  0.00     0.128 C 
ENDROOT
BRANCH   4   6
HETATM    6  C13 UNL     1     -24.020  -8.820  15.067  1.00  0.00     0.118 C 
HETATM    7  N4  UNL     1     -23.709  -9.554  16.075  1.00  0.00    -0.255 N 
ATOM      8  H4  UNL     1     -24.461 -10.037  16.567  1.00  0.00     0.195 HD
BRANCH   6   9
HETATM    9  C14 UNL     1     -25.455  -8.724  14.685  1.00  0.00     0.210 C 
BRANCH   9  10
HETATM   10  N3  UNL     1     -25.769  -7.418  14.215  1.00  0.00    -0.312 N 
ATOM     11  H3  UNL     1     -25.618  -7.153  13.241  1.00  0.00     0.172 HD
BRANCH  10  12
HETATM   12  S1  UNL     1     -26.401  -6.324  15.335  1.00  0.00     0.231 S 
HETATM   13  O2  UNL     1     -25.262  -5.560  15.967  1.00  0.00    -0.206 OA
HETATM   14  O3  UNL     1     -27.036  -7.125  16.471  1.00  0.00    -0.206 OA
BRANCH  12  15
HETATM   15  C15 UNL     1     -27.613  -5.215  14.760  1.00  0.00     0.129 C 
HETATM   16  C16 UNL     1     -28.926  -5.805  14.363  1.00  0.00     0.022 C 
HETATM   17  C17 UNL     1     -29.536  -4.844  13.337  1.00  0.00     0.001 C 
HETATM   18  C18 UNL     1     -29.172  -3.414  13.707  1.00  0.00     0.000 C 
HETATM   19  C19 UNL     1     -29.025  -3.267  15.206  1.00  0.00     0.001 C 
HETATM   20  C20 UNL     1     -27.882  -4.084  15.728  1.00  0.00     0.022 C 
ENDBRANCH  12  15
ENDBRANCH  10  12
ENDBRANCH   9  10
ENDBRANCH   6   9
BRANCH   7  21
HETATM   21  O4  UNL     1     -22.435  -9.727  16.527  1.00  0.00    -0.288 OA
ATOM     22  H4  UNL     1     -22.216  -9.983  17.415  1.00  0.00     0.244 HD
ENDBRANCH   7  21
ENDBRANCH   4   6
BRANCH   1  23
HETATM   23  C9  UNL     1     -19.898  -6.323  14.439  1.00  0.00     0.011 C 
BRANCH  23  24
HETATM   24  C8  UNL     1     -18.440  -6.604  14.297  1.00  0.00    -0.014 C 
HETATM   25  C7  UNL     1     -17.849  -5.307  13.675  1.00  0.00     0.006 C 
HETATM   26  C6  UNL     1     -16.362  -5.455  13.916  1.00  0.00     0.025 C 
HETATM   27  C5  UNL     1     -15.874  -6.634  13.151  1.00  0.00     0.084 C 
HETATM   28  C23 UNL     1     -16.912  -7.495  12.525  1.00  0.00     0.025 C 
HETATM   29  C22 UNL     1     -18.163  -7.714  13.352  1.00  0.00     0.006 C 
BRANCH  27  30
HETATM   30  N1  UNL     1     -14.906  -6.230  12.108  1.00  0.00    -0.353 N 
HETATM   31  C4  UNL     1     -14.094  -7.172  11.455  1.00  0.00     0.246 C 
HETATM   32  O1  UNL     1     -14.199  -8.391  11.770  1.00  0.00    -0.268 OA
ATOM     33  H1  UNL     1     -14.826  -5.244  11.858  1.00  0.00     0.163 HD
BRANCH  31  34
HETATM   34  C2  UNL     1     -13.147  -6.800  10.439  1.00  0.00    -0.004 C 
HETATM   35  C1  UNL     1     -11.880  -7.112  10.519  1.00  0.00     0.024 C 
HETATM   36  C3  UNL     1     -13.565  -6.026   9.220  1.00  0.00     0.053 C 
ENDBRANCH  31  34
ENDBRANCH  27  30
ENDBRANCH  23  24
ENDBRANCH   1  23
TORSDOF 10
ENDMDL
MODEL 3
REMARK VINA RESULT: -9.107747864      0.570      1.024
REMARK  10 active torsions:
REMARK  status: ('A' for Active; 'I' for Inactive)
REMARK    1  A    between atoms: C2_2  and  C4_4 
REMARK       I    between atoms: C4_4  and  N1_6 
REMARK    2  A    between atoms: N1_6  and  C5_8 
REMARK    3  A    between atoms: C8_11  and  C9_12 
REMARK    4  A    between atoms: C9_12  and  C10_13 
REMARK    5  A    between atoms: N2_16  and  C13_17 
REMARK    6  A    between atoms: C13_17  and  C14_18 
REMARK    7  A    between atoms: C14_18  and  N3_19 
REMARK    8  A    between atoms: N3_19  and  S1_21 
REMARK    9  A    between atoms: S1_21  and  C15_24 
REMARK   10  A    between atoms: N4_30  and  O4_32 
ROOT
HETATM    1  C10 UNL     1     -21.003  -7.561  14.080  1.00  0.00     0.005 C 
HETATM    2  C11 UNL     1     -21.672  -7.400  12.753  1.00  0.00     0.026 C 
HETATM    3  C12 UNL     1     -22.859  -8.372  12.930  1.00  0.00     0.124 C 
HETATM    4  N2  UNL     1     -23.183  -8.254  14.354  1.00  0.00    -0.368 N 
HETATM    5  C21 UNL     1     -22.228  -7.378  15.003  1.00  0.00     0.128 C 
ENDROOT
BRANCH   4   6
HETATM    6  C13 UNL     1     -24.242  -8.873  15.027  1.00  0.00     0.118 C 
HETATM    7  N4  UNL     1     -23.987  -9.717  15.963  1.00  0.00    -0.255 N 
ATOM      8  H4  UNL     1     -24.775 -10.157  16.439  1.00  0.00     0.195 HD
BRANCH   6   9
HETATM    9  C14 UNL     1     -25.668  -8.594  14.702  1.00  0.00     0.210 C 
BRANCH   9  10
HETATM   10  N3  UNL     1     -25.850  -7.227  14.351  1.00  0.00    -0.312 N 
ATOM     11  H3  UNL     1     -25.423  -6.833  13.512  1.00  0.00     0.172 HD
BRANCH  10  12
HETATM   12  S1  UNL     1     -26.801  -6.285  15.379  1.00  0.00     0.231 S 
HETATM   13  O2  UNL     1     -25.971  -5.132  15.892  1.00  0.00    -0.206 OA
HETATM   14  O3  UNL     1     -27.140  -7.123  16.610  1.00  0.00    -0.206 OA
BRANCH  12  15
HETATM   15  C15 UNL     1     -28.309  -5.693  14.741  1.00  0.00     0.129 C 
HETATM   16  C16 UNL     1     -28.221  -4.731  13.602  1.00  0.00     0.022 C 
HETATM   17  C17 UNL     1     -29.500  -3.889  13.652  1.00  0.00     0.001 C 
HETATM   18  C18 UNL     1     -30.658  -4.758  14.119  1.00  0.00     0.000 C 
HETATM   19  C19 UNL     1     -30.460  -6.195  13.690  1.00  0.00     0.001 C 
HETATM   20  C20 UNL     1     -29.257  -6.802  14.345  1.00  0.00     0.022 C 
ENDBRANCH  12  15
ENDBRANCH  10  12
ENDBRANCH   9  10
ENDBRANCH   6   9
BRANCH   7  21
HETATM   21  O4  UNL     1     -22.729 -10.060  16.356  1.00  0.00    -0.288 OA
ATOM     22  H4  UNL     1     -22.540 -10.654  17.073  1.00  0.00     0.244 HD
ENDBRANCH   7  21
ENDBRANCH   4   6
BRANCH   1  23
HETATM   23  C9  UNL     1     -19.990  -6.580  14.494  1.00  0.00     0.011 C 
BRANCH  23  24
HETATM   24  C8  UNL     1     -18.772  -6.385  13.656  1.00  0.00    -0.014 C 
HETATM   25  C7  UNL     1     -18.106  -7.790  13.599  1.00  0.00     0.006 C 
HETATM   26  C6  UNL     1     -17.134  -7.666  12.445  1.00  0.00     0.025 C 
HETATM   27  C5  UNL     1     -16.108  -6.649  12.799  1.00  0.00     0.084 C 
HETATM   28  C23 UNL     1     -16.353  -5.860  14.034  1.00  0.00     0.025 C 
HETATM   29  C22 UNL     1     -17.794  -5.457  14.276  1.00  0.00     0.006 C 
BRANCH  27  30
HETATM   30  N1  UNL     1     -14.763  -7.257  12.887  1.00  0.00    -0.353 N 
HETATM   31  C4  UNL     1     -14.019  -7.567  11.736  1.00  0.00     0.246 C 
HETATM   32  O1  UNL     1     -14.518  -7.317  10.602  1.00  0.00    -0.268 OA
ATOM     33  H1  UNL     1     -14.366  -7.455  13.805  1.00  0.00     0.163 HD
BRANCH  31  34
HETATM   34  C2  UNL     1     -12.710  -8.158  11.801  1.00  0.00    -0.004 C 
HETATM   35  C1  UNL     1     -12.175  -8.544  12.929  1.00  0.00     0.024 C 
HETATM   36  C3  UNL     1     -11.880  -8.367  10.565  1.00  0.00     0.053 C 
ENDBRANCH  31  34
ENDBRANCH  27  30
ENDBRANCH  23  24
ENDBRANCH   1  23
TORSDOF 10
ENDMDL
MODEL 4
REMARK VINA RESULT: -9.101701050      1.980      2.483
REMARK  10 active torsions:
REMARK  status: ('A' for Active; 'I' for Inactive)
REMARK    1  A    between atoms: C2_2  and  C4_4 
REMARK       I    between atoms: C4_4  and  N1_6 
REMARK    2  A    between atoms: N1_6  and  C5_8 
REMARK    3  A    between atoms: C8_11  and  C9_12 
REMARK    4  A    between atoms: C9_12  and  C10_13 
REMARK    5  A    between atoms: N2_16  and  C13_17 
REMARK    6  A    between atoms: C13_17  and  C14_18 
REMARK    7  A    between atoms: C14_18  and  N3_19 
REMARK    8  A    between atoms: N3_19  and  S1_21 
REMARK    9  A    between atoms: S1_21  and  C15_24 
REMARK   10  A    between atoms: N4_30  and  O4_32 
ROOT
HETATM    1  C10 UNL     1     -21.593  -7.130  15.575  1.00  0.00     0.005 C 
HETATM    2  C11 UNL     1     -22.600  -8.144  15.136  1.00  0.00     0.026 C 
HETATM    3  C12 UNL     1     -23.431  -8.276  16.431  1.00  0.00     0.124 C 
HETATM    4  N2  UNL     1     -23.395  -6.925  16.997  1.00  0.00    -0.368 N 
HETATM    5  C21 UNL     1     -22.545  -6.077  16.184  1.00  0.00     0.128 C 
ENDROOT
BRANCH   4   6
HETATM    6  C13 UNL     1     -24.063  -6.476  18.141  1.00  0.00     0.118 C 
HETATM    7  N4  UNL     1     -23.410  -6.342  19.240  1.00  0.00    -0.255 N 
ATOM      8  H4  UNL     1     -23.918  -6.014  20.062  1.00  0.00     0.195 HD
BRANCH   6   9
HETATM    9  C14 UNL     1     -25.514  -6.144  18.141  1.00  0.00     0.210 C 
BRANCH   9  10
HETATM   10  N3  UNL     1     -25.842  -5.302  17.041  1.00  0.00    -0.312 N 
ATOM     11  H3  UNL     1     -25.476  -4.352  16.972  1.00  0.00     0.172 HD
BRANCH  10  12
HETATM   12  S1  UNL     1     -26.861  -5.940  15.856  1.00  0.00     0.231 S 
HETATM   13  O2  UNL     1     -27.649  -7.082  16.454  1.00  0.00    -0.206 OA
HETATM   14  O3  UNL     1     -25.989  -6.569  14.771  1.00  0.00    -0.206 OA
BRANCH  12  15
HETATM   15  C15 UNL     1     -27.939  -4.830  15.058  1.00  0.00     0.129 C 
HETATM   16  C16 UNL     1     -29.294  -5.350  14.708  1.00  0.00     0.022 C 
HETATM   17  C17 UNL     1     -29.777  -4.518  13.514  1.00  0.00     0.001 C 
HETATM   18  C18 UNL     1     -29.279  -3.088  13.661  1.00  0.00     0.000 C 
HETATM   19  C19 UNL     1     -29.156  -2.709  15.121  1.00  0.00     0.001 C 
HETATM   20  C20 UNL     1     -28.117  -3.534  15.817  1.00  0.00     0.022 C 
ENDBRANCH  12  15
ENDBRANCH  10  12
ENDBRANCH   9  10
ENDBRANCH   6   9
BRANCH   7  21
HETATM   21  O4  UNL     1     -22.081  -6.612  19.374  1.00  0.00    -0.288 OA
ATOM     22  H4  UNL     1     -21.596  -6.501  20.183  1.00  0.00     0.244 HD
ENDBRANCH   7  21
ENDBRANCH   4   6
BRANCH   1  23
HETATM   23  C9  UNL     1     -20.774  -6.450  14.562  1.00  0.00     0.011 C 
BRANCH  23  24
HETATM   24  C8  UNL     1     -19.314  -6.745  14.480  1.00  0.00    -0.014 C 
HETATM   25  C7  UNL     1     -18.682  -5.439  13.918  1.00  0.00     0.006 C 
HETATM   26  C6  UNL     1     -17.209  -5.609  14.223  1.00  0.00     0.025 C 
HETATM   27  C5  UNL     1     -16.699  -6.774  13.452  1.00  0.00     0.084 C 
HETATM   28  C23 UNL     1     -17.715  -7.609  12.758  1.00  0.00     0.025 C 
HETATM   29  C22 UNL     1     -19.005  -7.834  13.521  1.00  0.00     0.006 C 
BRANCH  27  30
HETATM   30  N1  UNL     1     -15.679  -6.356  12.465  1.00  0.00    -0.353 N 
HETATM   31  C4  UNL     1     -14.915  -7.296  11.754  1.00  0.00     0.246 C 
HETATM   32  O1  UNL     1     -15.109  -8.527  11.968  1.00  0.00    -0.268 OA
ATOM     33  H1  UNL     1     -15.528  -5.361  12.297  1.00  0.00     0.163 HD
BRANCH  31  34
HETATM   34  C2  UNL     1     -13.920  -6.910  10.791  1.00  0.00    -0.004 C 
HETATM   35  C1  UNL     1     -14.170  -6.054   9.836  1.00  0.00     0.024 C 
HETATM   36  C3  UNL     1     -12.526  -7.473  10.832  1.00  0.00     0.053 C 
ENDBRANCH  31  34
ENDBRANCH  27  30
ENDBRANCH  23  24
ENDBRANCH   1  23
TORSDOF 10
ENDMDL
MODEL 5
REMARK VINA RESULT: -9.083106905      0.937      1.365
REMARK  10 active torsions:
REMARK  status: ('A' for Active; 'I' for Inactive)
REMARK    1  A    between atoms: C2_2  and  C4_4 
REMARK       I    between atoms: C4_4  and  N1_6 
REMARK    2  A    between atoms: N1_6  and  C5_8 
REMARK    3  A    between atoms: C8_11  and  C9_12 
REMARK    4  A    between atoms: C9_12  and  C10_13 
REMARK    5  A    between atoms: N2_16  and  C13_17 
REMARK    6  A    between atoms: C13_17  and  C14_18 
REMARK    7  A    between atoms: C14_18  and  N3_19 
REMARK    8  A    between atoms: N3_19  and  S1_21 
REMARK    9  A    between atoms: S1_21  and  C15_24 
REMARK   10  A    between atoms: N4_30  and  O4_32 
ROOT
HETATM    1  C10 UNL     1     -20.713  -7.387  14.211  1.00  0.00     0.005 C 
HETATM    2  C11 UNL     1     -21.320  -7.231  12.854  1.00  0.00     0.026 C 
HETATM    3  C12 UNL     1     -22.681  -7.924  13.086  1.00  0.00     0.124 C 
HETATM    4  N2  UNL     1     -22.992  -7.601  14.481  1.00  0.00    -0.368 N 
HETATM    5  C21 UNL     1     -21.888  -6.871  15.072  1.00  0.00     0.128 C 
ENDROOT
BRANCH   4   6
HETATM    6  C13 UNL     1     -24.161  -7.924  15.176  1.00  0.00     0.118 C 
HETATM    7  N4  UNL     1     -24.334  -9.127  15.595  1.00  0.00    -0.255 N 
ATOM      8  H4  UNL     1     -25.195  -9.340  16.099  1.00  0.00     0.195 HD
BRANCH   6   9
HETATM    9  C14 UNL     1     -25.229  -6.924  15.454  1.00  0.00     0.210 C 
BRANCH   9  10
HETATM   10  N3  UNL     1     -26.379  -7.173  14.653  1.00  0.00    -0.312 N 
ATOM     11  H3  UNL     1     -26.295  -7.506  13.693  1.00  0.00     0.172 HD
BRANCH  10  12
HETATM   12  S1  UNL     1     -27.887  -6.895  15.359  1.00  0.00     0.231 S 
HETATM   13  O2  UNL     1     -27.795  -7.189  16.838  1.00  0.00    -0.206 OA
HETATM   14  O3  UNL     1     -28.868  -7.923  14.799  1.00  0.00    -0.206 OA
BRANCH  12  15
HETATM   15  C15 UNL     1     -28.600  -5.327  15.109  1.00  0.00     0.129 C 
HETATM   16  C16 UNL     1     -27.911  -4.169  15.752  1.00  0.00     0.022 C 
HETATM   17  C17 UNL     1     -28.984  -3.095  15.965  1.00  0.00     0.001 C 
HETATM   18  C18 UNL     1     -29.973  -3.134  14.809  1.00  0.00     0.000 C 
HETATM   19  C19 UNL     1     -29.293  -3.587  13.535  1.00  0.00     0.001 C 
HETATM   20  C20 UNL     1     -28.802  -4.998  13.647  1.00  0.00     0.022 C 
ENDBRANCH  12  15
ENDBRANCH  10  12
ENDBRANCH   9  10
ENDBRANCH   6   9
BRANCH   7  21
HETATM   21  O4  UNL     1     -23.436 -10.135  15.406  1.00  0.00    -0.288 OA
ATOM     22  H4  UNL     1     -23.486 -10.979  15.839  1.00  0.00     0.244 HD
ENDBRANCH   7  21
ENDBRANCH   4   6
BRANCH   1  23
HETATM   23  C9  UNL     1     -19.528  -6.591  14.560  1.00  0.00     0.011 C 
BRANCH  23  24
HETATM   24  C8  UNL     1     -18.396  -6.498  13.594  1.00  0.00    -0.014 C 
HETATM   25  C7  UNL     1     -17.693  -7.883  13.679  1.00  0.00     0.006 C 
HETATM   26  C6  UNL     1     -16.832  -7.911  12.434  1.00  0.00     0.025 C 
HETATM   27  C5  UNL     1     -15.812  -6.834  12.542  1.00  0.00     0.084 C 
HETATM   28  C23 UNL     1     -15.972  -5.877  13.668  1.00  0.00     0.025 C 
HETATM   29  C22 UNL     1     -17.398  -5.471  13.981  1.00  0.00     0.006 C 
BRANCH  27  30
HETATM   30  N1  UNL     1     -14.445  -7.396  12.592  1.00  0.00    -0.353 N 
HETATM   31  C4  UNL     1     -13.700  -7.626  11.423  1.00  0.00     0.246 C 
HETATM   32  O1  UNL     1     -14.217  -7.341  10.306  1.00  0.00    -0.268 OA
ATOM     33  H1  UNL     1     -14.033  -7.623  13.498  1.00  0.00     0.163 HD
BRANCH  31  34
HETATM   34  C2  UNL     1     -12.371  -8.171  11.452  1.00  0.00    -0.004 C 
HETATM   35  C1  UNL     1     -11.856  -8.697  12.532  1.00  0.00     0.024 C 
HETATM   36  C3  UNL     1     -11.493  -8.169  10.231  1.00  0.00     0.053 C 
ENDBRANCH  31  34
ENDBRANCH  27  30
ENDBRANCH  23  24
ENDBRANCH   1  23
TORSDOF 10
ENDMDL
