MODEL 1
REMARK VINA RESULT: -7.609501789      0.000      0.000
REMARK  15 active torsions:
REMARK  status: ('A' for Active; 'I' for Inactive)
REMARK    1  A    between atoms: C2_2  and  C3_3 
REMARK    2  A    between atoms: C2_2  and  N8_31 
REMARK    3  A    between atoms: C3_3  and  C4_4 
REMARK    4  A    between atoms: C4_4  and  N1_5 
REMARK       I    between atoms: N1_5  and  C5_7 
REMARK    5  A    between atoms: C5_7  and  C6_9 
REMARK    6  A    between atoms: C6_9  and  O2_10 
REMARK    7  A    between atoms: C6_9  and  C7_12 
REMARK    8  A    between atoms: C7_12  and  N2_13 
REMARK    9  A    between atoms: C10_18  and  N4_19 
REMARK   10  A    between atoms: N8_31  and  C16_33 
REMARK   11  A    between atoms: C16_33  and  C17_34 
REMARK   12  A    between atoms: C17_34  and  C18_35 
REMARK   13  A    between atoms: C18_35  and  P1_36 
REMARK   14  A    between atoms: P1_36  and  O4_37 
REMARK   15  A    between atoms: P1_36  and  O5_39 
ROOT
HETATM    1  C6  UNL     1      60.892  74.567 -89.334  1.00  0.00     0.228 C 
ENDROOT
BRANCH   1   2
HETATM    2  C5  UNL     1      59.789  74.056 -88.501  1.00  0.00     0.248 C 
HETATM    3  N1  UNL     1      58.858  73.144 -89.037  1.00  0.00    -0.359 N 
ATOM      4  H1  UNL     1      58.944  72.830 -90.003  1.00  0.00     0.162 HD
HETATM    5  O1  UNL     1      59.685  74.437 -87.317  1.00  0.00    -0.271 OA
BRANCH   3   6
HETATM    6  C4  UNL     1      57.779  72.656 -88.206  1.00  0.00     0.124 C 
BRANCH   6   7
HETATM    7  C3  UNL     1      58.191  71.447 -87.413  1.00  0.00     0.044 C 
BRANCH   7   8
HETATM    8  C2  UNL     1      57.777  70.129 -88.068  1.00  0.00     0.078 C 
HETATM    9  C1  UNL     1      57.980  68.952 -87.188  1.00  0.00     0.032 C 
BRANCH   8  10
HETATM   10  N8  UNL     1      58.422  70.030 -89.318  1.00  0.00    -0.398 N 
ATOM     11  H8  UNL     1      58.831  70.869 -89.728  1.00  0.00     0.159 HD
BRANCH  10  12
HETATM   12  C16 UNL     1      58.520  68.826 -90.012  1.00  0.00     0.056 C 
BRANCH  12  13
HETATM   13  C17 UNL     1      59.400  68.688 -91.192  1.00  0.00     0.053 C 
BRANCH  13  14
HETATM   14  C18 UNL     1      58.714  68.976 -92.525  1.00  0.00     0.098 C 
BRANCH  14  15
HETATM   15  P1  UNL     1      59.264  70.708 -92.999  1.00  0.00     0.163 P 
BRANCH  15  16
HETATM   16  O4  UNL     1      58.561  71.098 -94.545  1.00  0.00    -0.350 OA
ATOM     17  H4  UNL     1      58.623  70.331 -95.101  1.00  0.00     0.217 HD
ENDBRANCH  15  16
BRANCH  15  18
HETATM   18  O5  UNL     1      58.694  71.864 -91.858  1.00  0.00    -0.350 OA
ATOM     19  H5  UNL     1      59.389  72.460 -91.606  1.00  0.00     0.217 HD
ENDBRANCH  15  18
ENDBRANCH  14  15
ENDBRANCH  13  14
ENDBRANCH  12  13
ENDBRANCH  10  12
ENDBRANCH   8  10
ENDBRANCH   7   8
ENDBRANCH   6   7
ENDBRANCH   3   6
ENDBRANCH   1   2
BRANCH   1  20
HETATM   20  O2  UNL     1      61.930  74.977 -88.467  1.00  0.00    -0.384 OA
ATOM     21  H2  UNL     1      62.156  75.873 -88.690  1.00  0.00     0.210 HD
ENDBRANCH   1  20
BRANCH   1  22
HETATM   22  C7  UNL     1      60.482  75.824 -90.074  1.00  0.00     0.172 C 
BRANCH  22  23
HETATM   23  N2  UNL     1      59.882  75.423 -91.337  1.00  0.00    -0.325 N 
HETATM   24  C8  UNL     1      58.596  75.515 -91.709  1.00  0.00     0.184 A 
HETATM   25  N3  UNL     1      58.429  75.043 -92.961  1.00  0.00    -0.358 N 
HETATM   26  C9  UNL     1      59.609  74.640 -93.410  1.00  0.00     0.138 A 
ATOM     27  H3  UNL     1      57.548  75.003 -93.473  1.00  0.00     0.166 HD
HETATM   28  C10 UNL     1      60.518  74.875 -92.401  1.00  0.00     0.135 A 
BRANCH  28  29
HETATM   29  N4  UNL     1      61.917  74.588 -92.450  1.00  0.00    -0.242 N 
HETATM   30  C11 UNL     1      62.308  73.309 -92.185  1.00  0.00     0.212 A 
HETATM   31  N5  UNL     1      63.621  72.996 -92.223  1.00  0.00    -0.186 N 
HETATM   32  C12 UNL     1      64.560  73.912 -92.515  1.00  0.00     0.693 A 
ATOM     33  H5  UNL     1      63.908  72.037 -92.023  1.00  0.00     0.185 HD
HETATM   34  N6  UNL     1      65.906  73.881 -92.621  1.00  0.00    -0.200 N 
HETATM   35  N7  UNL     1      64.182  75.194 -92.782  1.00  0.00    -0.105 N 
HETATM   36  C13 UNL     1      66.387  75.098 -92.945  1.00  0.00     0.124 A 
ATOM     37  H6  UNL     1      66.480  73.050 -92.475  1.00  0.00     0.183 HD
HETATM   38  C14 UNL     1      65.286  75.910 -93.042  1.00  0.00     0.137 A 
HETATM   39  C15 UNL     1      62.860  75.485 -92.738  1.00  0.00     0.354 A 
HETATM   40  O3  UNL     1      62.493  76.680 -92.987  1.00  0.00    -0.245 OA
ENDBRANCH  28  29
ENDBRANCH  22  23
ENDBRANCH   1  22
TORSDOF 15
ENDMDL
MODEL 2
REMARK VINA RESULT: -7.404317365      2.116      3.056
REMARK  15 active torsions:
REMARK  status: ('A' for Active; 'I' for Inactive)
REMARK    1  A    between atoms: C2_2  and  C3_3 
REMARK    2  A    between atoms: C2_2  and  N8_31 
REMARK    3  A    between atoms: C3_3  and  C4_4 
REMARK    4  A    between atoms: C4_4  and  N1_5 
REMARK       I    between atoms: N1_5  and  C5_7 
REMARK    5  A    between atoms: C5_7  and  C6_9 
REMARK    6  A    between atoms: C6_9  and  O2_10 
REMARK    7  A    between atoms: C6_9  and  C7_12 
REMARK    8  A    between atoms: C7_12  and  N2_13 
REMARK    9  A    between atoms: C10_18  and  N4_19 
REMARK   10  A    between atoms: N8_31  and  C16_33 
REMARK   11  A    between atoms: C16_33  and  C17_34 
REMARK   12  A    between atoms: C17_34  and  C18_35 
REMARK   13  A    between atoms: C18_35  and  P1_36 
REMARK   14  A    between atoms: P1_36  and  O4_37 
REMARK   15  A    between atoms: P1_36  and  O5_39 
ROOT
HETATM    1  C6  UNL     1      56.980  75.164 -89.357  1.00  0.00     0.228 C 
ENDROOT
BRANCH   1   2
HETATM    2  C5  UNL     1      57.717  73.897 -89.205  1.00  0.00     0.248 C 
HETATM    3  N1  UNL     1      58.498  73.662 -88.055  1.00  0.00    -0.359 N 
ATOM      4  H1  UNL     1      58.555  74.367 -87.321  1.00  0.00     0.162 HD
HETATM    5  O1  UNL     1      57.645  73.032 -90.102  1.00  0.00    -0.271 OA
BRANCH   3   6
HETATM    6  C4  UNL     1      59.219  72.415 -87.926  1.00  0.00     0.124 C 
BRANCH   6   7
HETATM    7  C3  UNL     1      58.600  71.521 -86.887  1.00  0.00     0.044 C 
BRANCH   7   8
HETATM    8  C2  UNL     1      57.870  70.319 -87.487  1.00  0.00     0.078 C 
HETATM    9  C1  UNL     1      58.120  69.058 -86.747  1.00  0.00     0.032 C 
BRANCH   8  10
HETATM   10  N8  UNL     1      58.179  70.249 -88.861  1.00  0.00    -0.398 N 
ATOM     11  H8  UNL     1      58.360  71.115 -89.369  1.00  0.00     0.159 HD
BRANCH  10  12
HETATM   12  C16 UNL     1      58.245  69.040 -89.549  1.00  0.00     0.056 C 
BRANCH  12  13
HETATM   13  C17 UNL     1      58.981  68.921 -90.826  1.00  0.00     0.053 C 
BRANCH  13  14
HETATM   14  C18 UNL     1      59.610  70.223 -91.314  1.00  0.00     0.098 C 
BRANCH  14  15
HETATM   15  P1  UNL     1      59.202  70.314 -93.145  1.00  0.00     0.163 P 
BRANCH  15  16
HETATM   16  O4  UNL     1      58.702  68.730 -93.670  1.00  0.00    -0.350 OA
ATOM     17  H4  UNL     1      59.439  68.314 -94.102  1.00  0.00     0.217 HD
ENDBRANCH  15  16
BRANCH  15  18
HETATM   18  O5  UNL     1      57.893  71.396 -93.427  1.00  0.00    -0.350 OA
ATOM     19  H5  UNL     1      58.195  72.183 -93.865  1.00  0.00     0.217 HD
ENDBRANCH  15  18
ENDBRANCH  14  15
ENDBRANCH  13  14
ENDBRANCH  12  13
ENDBRANCH  10  12
ENDBRANCH   8  10
ENDBRANCH   7   8
ENDBRANCH   6   7
ENDBRANCH   3   6
ENDBRANCH   1   2
BRANCH   1  20
HETATM   20  O2  UNL     1      55.629  74.845 -89.621  1.00  0.00    -0.384 OA
ATOM     21  H2  UNL     1      55.570  74.564 -90.527  1.00  0.00     0.210 HD
ENDBRANCH   1  20
BRANCH   1  22
HETATM   22  C7  UNL     1      57.448  75.926 -90.580  1.00  0.00     0.172 C 
BRANCH  22  23
HETATM   23  N2  UNL     1      57.995  77.197 -90.131  1.00  0.00    -0.325 N 
HETATM   24  C8  UNL     1      57.330  78.309 -89.783  1.00  0.00     0.184 A 
HETATM   25  N3  UNL     1      58.188  79.281 -89.416  1.00  0.00    -0.358 N 
HETATM   26  C9  UNL     1      59.421  78.805 -89.525  1.00  0.00     0.138 A 
ATOM     27  H3  UNL     1      57.934  80.220 -89.108  1.00  0.00     0.166 HD
HETATM   28  C10 UNL     1      59.306  77.506 -89.970  1.00  0.00     0.135 A 
BRANCH  28  29
HETATM   29  N4  UNL     1      60.388  76.611 -90.232  1.00  0.00    -0.242 N 
HETATM   30  C11 UNL     1      60.913  75.931 -89.174  1.00  0.00     0.212 A 
HETATM   31  N5  UNL     1      61.937  75.074 -89.379  1.00  0.00    -0.186 N 
HETATM   32  C12 UNL     1      62.456  74.869 -90.602  1.00  0.00     0.693 A 
ATOM     33  H5  UNL     1      62.327  74.568 -88.583  1.00  0.00     0.185 HD
HETATM   34  N6  UNL     1      63.451  74.094 -91.085  1.00  0.00    -0.200 N 
HETATM   35  N7  UNL     1      61.940  75.542 -91.668  1.00  0.00    -0.105 N 
HETATM   36  C13 UNL     1      63.577  74.256 -92.418  1.00  0.00     0.124 A 
ATOM     37  H6  UNL     1      64.027  73.471 -90.520  1.00  0.00     0.183 HD
HETATM   38  C14 UNL     1      62.617  75.172 -92.765  1.00  0.00     0.137 A 
HETATM   39  C15 UNL     1      60.913  76.397 -91.439  1.00  0.00     0.354 A 
HETATM   40  O3  UNL     1      60.420  77.032 -92.427  1.00  0.00    -0.245 OA
ENDBRANCH  28  29
ENDBRANCH  22  23
ENDBRANCH   1  22
TORSDOF 15
ENDMDL
MODEL 3
REMARK VINA RESULT: -7.345623777      2.369      3.379
REMARK  15 active torsions:
REMARK  status: ('A' for Active; 'I' for Inactive)
REMARK    1  A    between atoms: C2_2  and  C3_3 
REMARK    2  A    between atoms: C2_2  and  N8_31 
REMARK    3  A    between atoms: C3_3  and  C4_4 
REMARK    4  A    between atoms: C4_4  and  N1_5 
REMARK       I    between atoms: N1_5  and  C5_7 
REMARK    5  A    between atoms: C5_7  and  C6_9 
REMARK    6  A    between atoms: C6_9  and  O2_10 
REMARK    7  A    between atoms: C6_9  and  C7_12 
REMARK    8  A    between atoms: C7_12  and  N2_13 
REMARK    9  A    between atoms: C10_18  and  N4_19 
REMARK   10  A    between atoms: N8_31  and  C16_33 
REMARK   11  A    between atoms: C16_33  and  C17_34 
REMARK   12  A    between atoms: C17_34  and  C18_35 
REMARK   13  A    between atoms: C18_35  and  P1_36 
REMARK   14  A    between atoms: P1_36  and  O4_37 
REMARK   15  A    between atoms: P1_36  and  O5_39 
ROOT
HETATM    1  C6  UNL     1      61.892  75.484 -89.366  1.00  0.00     0.228 C 
ENDROOT
BRANCH   1   2
HETATM    2  C5  UNL     1      60.507  75.082 -89.064  1.00  0.00     0.248 C 
HETATM    3  N1  UNL     1      60.202  74.444 -87.845  1.00  0.00    -0.359 N 
ATOM      4  H1  UNL     1      60.938  74.260 -87.164  1.00  0.00     0.162 HD
HETATM    5  O1  UNL     1      59.606  75.312 -89.896  1.00  0.00    -0.271 OA
BRANCH   3   6
HETATM    6  C4  UNL     1      58.838  74.053 -87.568  1.00  0.00     0.124 C 
BRANCH   6   7
HETATM    7  C3  UNL     1      58.721  72.572 -87.334  1.00  0.00     0.044 C 
BRANCH   7   8
HETATM    8  C2  UNL     1      57.853  71.866 -88.375  1.00  0.00     0.078 C 
HETATM    9  C1  UNL     1      57.869  70.388 -88.242  1.00  0.00     0.032 C 
BRANCH   8  10
HETATM   10  N8  UNL     1      58.221  72.331 -89.654  1.00  0.00    -0.398 N 
ATOM     11  H8  UNL     1      57.692  73.099 -90.069  1.00  0.00     0.159 HD
BRANCH  10  12
HETATM   12  C16 UNL     1      59.281  71.781 -90.370  1.00  0.00     0.056 C 
BRANCH  12  13
HETATM   13  C17 UNL     1      59.481  72.084 -91.804  1.00  0.00     0.053 C 
BRANCH  13  14
HETATM   14  C18 UNL     1      60.042  70.922 -92.620  1.00  0.00     0.098 C 
BRANCH  14  15
HETATM   15  P1  UNL     1      59.065  69.416 -92.070  1.00  0.00     0.163 P 
BRANCH  15  16
HETATM   16  O4  UNL     1      58.617  68.509 -93.489  1.00  0.00    -0.350 OA
ATOM     17  H4  UNL     1      59.388  68.414 -94.036  1.00  0.00     0.217 HD
ENDBRANCH  15  16
BRANCH  15  18
HETATM   18  O5  UNL     1      60.028  68.392 -91.076  1.00  0.00    -0.350 OA
ATOM     19  H5  UNL     1      60.412  68.881 -90.359  1.00  0.00     0.217 HD
ENDBRANCH  15  18
ENDBRANCH  14  15
ENDBRANCH  13  14
ENDBRANCH  12  13
ENDBRANCH  10  12
ENDBRANCH   8  10
ENDBRANCH   7   8
ENDBRANCH   6   7
ENDBRANCH   3   6
ENDBRANCH   1   2
BRANCH   1  20
HETATM   20  O2  UNL     1      62.134  76.714 -88.714  1.00  0.00    -0.384 OA
ATOM     21  H2  UNL     1      61.371  77.265 -88.844  1.00  0.00     0.210 HD
ENDBRANCH   1  20
BRANCH   1  22
HETATM   22  C7  UNL     1      62.066  75.783 -90.841  1.00  0.00     0.172 C 
BRANCH  22  23
HETATM   23  N2  UNL     1      62.688  74.624 -91.462  1.00  0.00    -0.325 N 
HETATM   24  C8  UNL     1      62.667  73.349 -91.043  1.00  0.00     0.184 A 
HETATM   25  N3  UNL     1      63.355  72.559 -91.891  1.00  0.00    -0.358 N 
HETATM   26  C9  UNL     1      63.830  73.319 -92.869  1.00  0.00     0.138 A 
ATOM     27  H3  UNL     1      63.488  71.552 -91.797  1.00  0.00     0.166 HD
HETATM   28  C10 UNL     1      63.416  74.607 -92.606  1.00  0.00     0.135 A 
BRANCH  28  29
HETATM   29  N4  UNL     1      63.704  75.758 -93.401  1.00  0.00    -0.242 N 
HETATM   30  C11 UNL     1      64.946  76.307 -93.289  1.00  0.00     0.212 A 
HETATM   31  N5  UNL     1      65.259  77.395 -94.025  1.00  0.00    -0.186 N 
HETATM   32  C12 UNL     1      64.378  77.957 -94.870  1.00  0.00     0.693 A 
ATOM     33  H5  UNL     1      66.191  77.803 -93.937  1.00  0.00     0.185 HD
HETATM   34  N6  UNL     1      64.418  79.018 -95.705  1.00  0.00    -0.200 N 
HETATM   35  N7  UNL     1      63.132  77.418 -94.991  1.00  0.00    -0.105 N 
HETATM   36  C13 UNL     1      63.241  79.164 -96.347  1.00  0.00     0.124 A 
ATOM     37  H6  UNL     1      65.227  79.625 -95.832  1.00  0.00     0.183 HD
HETATM   38  C14 UNL     1      62.445  78.147 -95.883  1.00  0.00     0.137 A 
HETATM   39  C15 UNL     1      62.840  76.327 -94.243  1.00  0.00     0.354 A 
HETATM   40  O3  UNL     1      61.679  75.812 -94.347  1.00  0.00    -0.245 OA
ENDBRANCH  28  29
ENDBRANCH  22  23
ENDBRANCH   1  22
TORSDOF 15
ENDMDL
MODEL 4
REMARK VINA RESULT: -7.285316730      4.095      9.085
REMARK  15 active torsions:
REMARK  status: ('A' for Active; 'I' for Inactive)
REMARK    1  A    between atoms: C2_2  and  C3_3 
REMARK    2  A    between atoms: C2_2  and  N8_31 
REMARK    3  A    between atoms: C3_3  and  C4_4 
REMARK    4  A    between atoms: C4_4  and  N1_5 
REMARK       I    between atoms: N1_5  and  C5_7 
REMARK    5  A    between atoms: C5_7  and  C6_9 
REMARK    6  A    between atoms: C6_9  and  O2_10 
REMARK    7  A    between atoms: C6_9  and  C7_12 
REMARK    8  A    between atoms: C7_12  and  N2_13 
REMARK    9  A    between atoms: C10_18  and  N4_19 
REMARK   10  A    between atoms: N8_31  and  C16_33 
REMARK   11  A    between atoms: C16_33  and  C17_34 
REMARK   12  A    between atoms: C17_34  and  C18_35 
REMARK   13  A    between atoms: C18_35  and  P1_36 
REMARK   14  A    between atoms: P1_36  and  O4_37 
REMARK   15  A    between atoms: P1_36  and  O5_39 
ROOT
HETATM    1  C6  UNL     1      63.518  75.171 -91.770  1.00  0.00     0.228 C 
ENDROOT
BRANCH   1   2
HETATM    2  C5  UNL     1      63.122  75.561 -93.135  1.00  0.00     0.248 C 
HETATM    3  N1  UNL     1      63.795  76.607 -93.799  1.00  0.00    -0.359 N 
ATOM      4  H1  UNL     1      64.562  77.097 -93.339  1.00  0.00     0.162 HD
HETATM    5  O1  UNL     1      62.186  74.959 -93.699  1.00  0.00    -0.271 OA
BRANCH   3   6
HETATM    6  C4  UNL     1      63.390  76.979 -95.136  1.00  0.00     0.124 C 
BRANCH   6   7
HETATM    7  C3  UNL     1      64.565  77.059 -96.072  1.00  0.00     0.044 C 
BRANCH   7   8
HETATM    8  C2  UNL     1      64.519  78.278 -96.991  1.00  0.00     0.078 C 
HETATM    9  C1  UNL     1      65.525  78.225 -98.080  1.00  0.00     0.032 C 
BRANCH   8  10
HETATM   10  N8  UNL     1      64.593  79.440 -96.197  1.00  0.00    -0.398 N 
ATOM     11  H8  UNL     1      64.503  79.351 -95.184  1.00  0.00     0.159 HD
BRANCH  10  12
HETATM   12  C16 UNL     1      64.785  80.707 -96.744  1.00  0.00     0.056 C 
BRANCH  12  13
HETATM   13  C17 UNL     1      64.875  81.910 -95.889  1.00  0.00     0.053 C 
BRANCH  13  14
HETATM   14  C18 UNL     1      64.512  81.671 -94.426  1.00  0.00     0.098 C 
BRANCH  14  15
HETATM   15  P1  UNL     1      62.687  82.093 -94.295  1.00  0.00     0.163 P 
BRANCH  15  16
HETATM   16  O4  UNL     1      62.162  81.741 -92.671  1.00  0.00    -0.350 OA
ATOM     17  H4  UNL     1      61.900  80.829 -92.635  1.00  0.00     0.217 HD
ENDBRANCH  15  16
BRANCH  15  18
HETATM   18  O5  UNL     1      62.426  83.771 -94.577  1.00  0.00    -0.350 OA
ATOM     19  H5  UNL     1      61.673  83.906 -95.140  1.00  0.00     0.217 HD
ENDBRANCH  15  18
ENDBRANCH  14  15
ENDBRANCH  13  14
ENDBRANCH  12  13
ENDBRANCH  10  12
ENDBRANCH   8  10
ENDBRANCH   7   8
ENDBRANCH   6   7
ENDBRANCH   3   6
ENDBRANCH   1   2
BRANCH   1  20
HETATM   20  O2  UNL     1      64.829  74.648 -91.836  1.00  0.00    -0.384 OA
ATOM     21  H2  UNL     1      64.793  73.845 -92.344  1.00  0.00     0.210 HD
ENDBRANCH   1  20
BRANCH   1  22
HETATM   22  C7  UNL     1      62.666  74.028 -91.258  1.00  0.00     0.172 C 
BRANCH  22  23
HETATM   23  N2  UNL     1      61.543  74.598 -90.531  1.00  0.00    -0.325 N 
HETATM   24  C8  UNL     1      61.543  75.651 -89.700  1.00  0.00     0.184 A 
HETATM   25  N3  UNL     1      60.304  75.880 -89.222  1.00  0.00    -0.358 N 
HETATM   26  C9  UNL     1      59.488  74.973 -89.742  1.00  0.00     0.138 A 
ATOM     27  H3  UNL     1      60.039  76.621 -88.574  1.00  0.00     0.166 HD
HETATM   28  C10 UNL     1      60.256  74.172 -90.559  1.00  0.00     0.135 A 
BRANCH  28  29
HETATM   29  N4  UNL     1      59.786  73.058 -91.321  1.00  0.00    -0.242 N 
HETATM   30  C11 UNL     1      59.283  73.310 -92.562  1.00  0.00     0.212 A 
HETATM   31  N5  UNL     1      58.830  72.284 -93.315  1.00  0.00    -0.186 N 
HETATM   32  C12 UNL     1      58.862  71.015 -92.875  1.00  0.00     0.693 A 
ATOM     33  H5  UNL     1      58.453  72.479 -94.242  1.00  0.00     0.185 HD
HETATM   34  N6  UNL     1      58.488  69.827 -93.398  1.00  0.00    -0.200 N 
HETATM   35  N7  UNL     1      59.363  70.749 -91.636  1.00  0.00    -0.105 N 
HETATM   36  C13 UNL     1      58.737  68.824 -92.532  1.00  0.00     0.124 A 
ATOM     37  H6  UNL     1      58.074  69.705 -94.322  1.00  0.00     0.183 HD
HETATM   38  C14 UNL     1      59.287  69.426 -91.429  1.00  0.00     0.137 A 
HETATM   39  C15 UNL     1      59.811  71.793 -90.898  1.00  0.00     0.354 A 
HETATM   40  O3  UNL     1      60.283  71.559 -89.738  1.00  0.00    -0.245 OA
ENDBRANCH  28  29
ENDBRANCH  22  23
ENDBRANCH   1  22
TORSDOF 15
ENDMDL
MODEL 5
REMARK VINA RESULT: -7.108846625      3.222      7.898
REMARK  15 active torsions:
REMARK  status: ('A' for Active; 'I' for Inactive)
REMARK    1  A    between atoms: C2_2  and  C3_3 
REMARK    2  A    between atoms: C2_2  and  N8_31 
REMARK    3  A    between atoms: C3_3  and  C4_4 
REMARK    4  A    between atoms: C4_4  and  N1_5 
REMARK       I    between atoms: N1_5  and  C5_7 
REMARK    5  A    between atoms: C5_7  and  C6_9 
REMARK    6  A    between atoms: C6_9  and  O2_10 
REMARK    7  A    between atoms: C6_9  and  C7_12 
REMARK    8  A    between atoms: C7_12  and  N2_13 
REMARK    9  A    between atoms: C10_18  and  N4_19 
REMARK   10  A    between atoms: N8_31  and  C16_33 
REMARK   11  A    between atoms: C16_33  and  C17_34 
REMARK   12  A    between atoms: C17_34  and  C18_35 
REMARK   13  A    between atoms: C18_35  and  P1_36 
REMARK   14  A    between atoms: P1_36  and  O4_37 
REMARK   15  A    between atoms: P1_36  and  O5_39 
ROOT
HETATM    1  C6  UNL     1      63.514  74.965 -91.499  1.00  0.00     0.228 C 
ENDROOT
BRANCH   1   2
HETATM    2  C5  UNL     1      63.258  75.234 -92.925  1.00  0.00     0.248 C 
HETATM    3  N1  UNL     1      64.041  76.176 -93.623  1.00  0.00    -0.359 N 
ATOM      4  H1  UNL     1      64.792  76.673 -93.145  1.00  0.00     0.162 HD
HETATM    5  O1  UNL     1      62.342  74.622 -93.511  1.00  0.00    -0.271 OA
BRANCH   3   6
HETATM    6  C4  UNL     1      63.773  76.430 -95.021  1.00  0.00     0.124 C 
BRANCH   6   7
HETATM    7  C3  UNL     1      64.680  77.493 -95.577  1.00  0.00     0.044 C 
BRANCH   7   8
HETATM    8  C2  UNL     1      64.307  77.919 -96.996  1.00  0.00     0.078 C 
HETATM    9  C1  UNL     1      65.481  78.308 -97.815  1.00  0.00     0.032 C 
BRANCH   8  10
HETATM   10  N8  UNL     1      63.308  78.911 -96.917  1.00  0.00    -0.398 N 
ATOM     11  H8  UNL     1      63.515  79.779 -96.423  1.00  0.00     0.159 HD
BRANCH  10  12
HETATM   12  C16 UNL     1      62.049  78.747 -97.488  1.00  0.00     0.056 C 
BRANCH  12  13
HETATM   13  C17 UNL     1      61.018  77.899 -96.851  1.00  0.00     0.053 C 
BRANCH  13  14
HETATM   14  C18 UNL     1      60.621  78.341 -95.444  1.00  0.00     0.098 C 
BRANCH  14  15
HETATM   15  P1  UNL     1      59.754  76.858 -94.687  1.00  0.00     0.163 P 
BRANCH  15  16
HETATM   16  O4  UNL     1      60.309  75.425 -95.509  1.00  0.00    -0.350 OA
ATOM     17  H4  UNL     1      60.430  75.637 -96.426  1.00  0.00     0.217 HD
ENDBRANCH  15  16
BRANCH  15  18
HETATM   18  O5  UNL     1      60.159  76.697 -93.022  1.00  0.00    -0.350 OA
ATOM     19  H5  UNL     1      60.220  75.782 -92.776  1.00  0.00     0.217 HD
ENDBRANCH  15  18
ENDBRANCH  14  15
ENDBRANCH  13  14
ENDBRANCH  12  13
ENDBRANCH  10  12
ENDBRANCH   8  10
ENDBRANCH   7   8
ENDBRANCH   6   7
ENDBRANCH   3   6
ENDBRANCH   1   2
BRANCH   1  20
HETATM   20  O2  UNL     1      64.819  74.434 -91.390  1.00  0.00    -0.384 OA
ATOM     21  H2  UNL     1      64.811  73.790 -90.691  1.00  0.00     0.210 HD
ENDBRANCH   1  20
BRANCH   1  22
HETATM   22  C7  UNL     1      62.602  73.873 -90.976  1.00  0.00     0.172 C 
BRANCH  22  23
HETATM   23  N2  UNL     1      61.435  74.510 -90.389  1.00  0.00    -0.325 N 
HETATM   24  C8  UNL     1      61.392  75.587 -89.589  1.00  0.00     0.184 A 
HETATM   25  N3  UNL     1      60.120  75.879 -89.253  1.00  0.00    -0.358 N 
HETATM   26  C9  UNL     1      59.325  74.991 -89.834  1.00  0.00     0.138 A 
ATOM     27  H3  UNL     1      59.820  76.650 -88.656  1.00  0.00     0.166 HD
HETATM   28  C10 UNL     1      60.140  74.135 -90.543  1.00  0.00     0.135 A 
BRANCH  28  29
HETATM   29  N4  UNL     1      59.707  73.019 -91.322  1.00  0.00    -0.242 N 
HETATM   30  C11 UNL     1      59.263  73.267 -92.587  1.00  0.00     0.212 A 
HETATM   31  N5  UNL     1      58.846  72.239 -93.357  1.00  0.00    -0.186 N 
HETATM   32  C12 UNL     1      58.855  70.970 -92.912  1.00  0.00     0.693 A 
ATOM     33  H5  UNL     1      58.514  72.430 -94.302  1.00  0.00     0.185 HD
HETATM   34  N6  UNL     1      58.506  69.781 -93.447  1.00  0.00    -0.200 N 
HETATM   35  N7  UNL     1      59.296  70.709 -91.649  1.00  0.00    -0.105 N 
HETATM   36  C13 UNL     1      58.712  68.782 -92.566  1.00  0.00     0.124 A 
ATOM     37  H6  UNL     1      58.136  69.656 -94.389  1.00  0.00     0.183 HD
HETATM   38  C14 UNL     1      59.210  69.387 -91.440  1.00  0.00     0.137 A 
HETATM   39  C15 UNL     1      59.710  71.756 -90.895  1.00  0.00     0.354 A 
HETATM   40  O3  UNL     1      60.126  71.526 -89.712  1.00  0.00    -0.245 OA
ENDBRANCH  28  29
ENDBRANCH  22  23
ENDBRANCH   1  22
TORSDOF 15
ENDMDL
