MODEL 1
REMARK VINA RESULT: -7.792618649      0.000      0.000
REMARK  15 active torsions:
REMARK  status: ('A' for Active; 'I' for Inactive)
REMARK    1  A    between atoms: C2_2  and  N1_3 
REMARK    2  A    between atoms: C2_2  and  C3_7 
REMARK    3  A    between atoms: C3_7  and  C4_8 
REMARK       I    between atoms: C4_8  and  N2_10 
REMARK    4  A    between atoms: N2_10  and  C5_12 
REMARK    5  A    between atoms: C5_12  and  C6_13 
REMARK    6  A    between atoms: C8_19  and  C9_20 
REMARK    7  A    between atoms: C9_20  and  N6_34 
REMARK    8  A    between atoms: N5_21  and  C10_23 
REMARK    9  A    between atoms: C13_26  and  P1_27 
REMARK   10  A    between atoms: P1_27  and  O2_28 
REMARK   11  A    between atoms: P1_27  and  O3_30 
REMARK       I    between atoms: N6_34  and  C16_36 
REMARK       I    between atoms: C16_36  and  N7_38 
REMARK   12  A    between atoms: N7_38  and  C17_40 
REMARK   13  A    between atoms: C17_40  and  C18_41 
REMARK   14  A    between atoms: C18_41  and  C19_42 
REMARK   15  A    between atoms: C19_42  and  O5_43 
ROOT
HETATM    1  C9  UNL     1      60.544  74.337 -92.227  1.00  0.00     0.138 C 
HETATM    2  N5  UNL     1      59.946  74.824 -91.163  1.00  0.00    -0.340 N 
ATOM      3  H5  UNL     1      59.784  75.826 -91.056  1.00  0.00     0.167 HD
ENDROOT
BRANCH   1   4
HETATM    4  C8  UNL     1      60.964  75.290 -93.239  1.00  0.00     0.095 A 
HETATM    5  C7  UNL     1      60.074  75.698 -94.185  1.00  0.00     0.140 A 
HETATM    6  N4  UNL     1      60.470  76.588 -95.118  1.00  0.00    -0.308 N 
HETATM    7  N3  UNL     1      61.700  77.037 -95.087  1.00  0.00    -0.288 N 
ATOM      8  H4  UNL     1      59.821  76.906 -95.836  1.00  0.00     0.186 HD
HETATM    9  C6  UNL     1      62.584  76.655 -94.175  1.00  0.00     0.114 A 
ATOM     10  H3  UNL     1      61.991  77.710 -95.796  1.00  0.00     0.188 HD
HETATM   11  N8  UNL     1      62.213  75.765 -93.231  1.00  0.00    -0.339 N 
ATOM     12  H8  UNL     1      62.878  75.459 -92.519  1.00  0.00     0.167 HD
BRANCH   9  13
HETATM   13  C5  UNL     1      63.977  77.135 -94.122  1.00  0.00     0.200 C 
BRANCH  13  14
HETATM   14  N2  UNL     1      64.546  77.112 -95.461  1.00  0.00    -0.354 N 
HETATM   15  C4  UNL     1      64.475  78.234 -96.322  1.00  0.00     0.219 C 
HETATM   16  O1  UNL     1      63.918  79.307 -95.982  1.00  0.00    -0.274 OA
ATOM     17  H2  UNL     1      65.009  76.265 -95.789  1.00  0.00     0.162 HD
BRANCH  15  18
HETATM   18  C3  UNL     1      65.074  78.142 -97.671  1.00  0.00     0.135 C 
BRANCH  18  19
HETATM   19  C2  UNL     1      64.728  79.380 -98.495  1.00  0.00     0.188 C 
HETATM   20  C1  UNL     1      64.782  79.087 -99.953  1.00  0.00     0.040 C 
BRANCH  19  21
HETATM   21  N1  UNL     1      65.627  80.449 -98.105  1.00  0.00    -0.075 N 
ATOM     22  H13 UNL     1      65.822  80.416 -97.104  1.00  0.00     0.274 HD
ATOM     23  H12 UNL     1      66.568  80.284 -98.462  1.00  0.00     0.274 HD
ATOM     24  H11 UNL     1      65.287  81.370 -98.381  1.00  0.00     0.274 HD
ENDBRANCH  19  21
ENDBRANCH  18  19
ENDBRANCH  15  18
ENDBRANCH  13  14
ENDBRANCH   9  13
ENDBRANCH   1   4
BRANCH   1  25
HETATM   25  N6  UNL     1      60.754  72.958 -92.360  1.00  0.00    -0.293 N 
HETATM   26  C16 UNL     1      59.800  72.098 -92.926  1.00  0.00     0.321 C 
HETATM   27  O4  UNL     1      58.715  72.541 -93.332  1.00  0.00    -0.247 OA
HETATM   28  N7  UNL     1      60.049  70.698 -93.051  1.00  0.00    -0.343 N 
ATOM     29  H7  UNL     1      60.939  70.336 -92.708  1.00  0.00     0.164 HD
ATOM     30  H6  UNL     1      61.636  72.564 -92.032  1.00  0.00     0.172 HD
BRANCH  28  31
HETATM   31  C17 UNL     1      59.123  69.773 -93.629  1.00  0.00     0.126 C 
BRANCH  31  32
HETATM   32  C18 UNL     1      58.585  68.804 -92.615  1.00  0.00     0.046 C 
BRANCH  32  33
HETATM   33  C19 UNL     1      59.527  68.803 -91.412  1.00  0.00     0.165 C 
BRANCH  33  34
HETATM   34  O5  UNL     1      58.937  69.419 -90.316  1.00  0.00    -0.401 OA
ATOM     35  H5  UNL     1      59.576  69.919 -89.822  1.00  0.00     0.209 HD
ENDBRANCH  33  34
ENDBRANCH  32  33
ENDBRANCH  31  32
ENDBRANCH  28  31
ENDBRANCH   1  25
BRANCH   2  36
HETATM   36  C10 UNL     1      59.531  73.893 -90.166  1.00  0.00     0.033 A 
HETATM   37  C11 UNL     1      58.194  73.558 -90.030  1.00  0.00     0.030 A 
HETATM   38  C12 UNL     1      57.786  72.663 -89.070  1.00  0.00     0.019 A 
HETATM   39  C13 UNL     1      58.699  72.080 -88.221  1.00  0.00     0.022 A 
HETATM   40  C14 UNL     1      60.040  72.410 -88.352  1.00  0.00     0.019 A 
HETATM   41  C15 UNL     1      60.461  73.305 -89.308  1.00  0.00     0.030 A 
BRANCH  39  42
HETATM   42  P1  UNL     1      58.149  70.896 -86.953  1.00  0.00     0.200 P 
BRANCH  42  43
HETATM   43  O2  UNL     1      59.551  70.271 -86.148  1.00  0.00    -0.346 OA
ATOM     44  H2  UNL     1      59.277  69.900 -85.318  1.00  0.00     0.217 HD
ENDBRANCH  42  43
BRANCH  42  45
HETATM   45  O3  UNL     1      57.284  69.613 -87.732  1.00  0.00    -0.346 OA
ATOM     46  H3  UNL     1      56.947  69.026 -87.066  1.00  0.00     0.217 HD
ENDBRANCH  42  45
ENDBRANCH  39  42
ENDBRANCH   2  36
TORSDOF 15
ENDMDL
MODEL 2
REMARK VINA RESULT: -7.646070719      4.548      7.363
REMARK  15 active torsions:
REMARK  status: ('A' for Active; 'I' for Inactive)
REMARK    1  A    between atoms: C2_2  and  N1_3 
REMARK    2  A    between atoms: C2_2  and  C3_7 
REMARK    3  A    between atoms: C3_7  and  C4_8 
REMARK       I    between atoms: C4_8  and  N2_10 
REMARK    4  A    between atoms: N2_10  and  C5_12 
REMARK    5  A    between atoms: C5_12  and  C6_13 
REMARK    6  A    between atoms: C8_19  and  C9_20 
REMARK    7  A    between atoms: C9_20  and  N6_34 
REMARK    8  A    between atoms: N5_21  and  C10_23 
REMARK    9  A    between atoms: C13_26  and  P1_27 
REMARK   10  A    between atoms: P1_27  and  O2_28 
REMARK   11  A    between atoms: P1_27  and  O3_30 
REMARK       I    between atoms: N6_34  and  C16_36 
REMARK       I    between atoms: C16_36  and  N7_38 
REMARK   12  A    between atoms: N7_38  and  C17_40 
REMARK   13  A    between atoms: C17_40  and  C18_41 
REMARK   14  A    between atoms: C18_41  and  C19_42 
REMARK   15  A    between atoms: C19_42  and  O5_43 
ROOT
HETATM    1  C9  UNL     1      61.161  76.101 -89.519  1.00  0.00     0.138 C 
HETATM    2  N5  UNL     1      59.926  75.712 -89.744  1.00  0.00    -0.340 N 
ATOM      3  H5  UNL     1      59.130  76.300 -89.496  1.00  0.00     0.167 HD
ENDROOT
BRANCH   1   4
HETATM    4  C8  UNL     1      61.337  77.403 -88.902  1.00  0.00     0.095 A 
HETATM    5  C7  UNL     1      62.324  77.579 -87.980  1.00  0.00     0.140 A 
HETATM    6  N4  UNL     1      62.485  78.793 -87.416  1.00  0.00    -0.308 N 
HETATM    7  N3  UNL     1      61.689  79.771 -87.770  1.00  0.00    -0.288 N 
ATOM      8  H4  UNL     1      63.217  78.947 -86.722  1.00  0.00     0.186 HD
HETATM    9  C6  UNL     1      60.722  79.624 -88.666  1.00  0.00     0.114 A 
ATOM     10  H3  UNL     1      61.819  80.686 -87.339  1.00  0.00     0.188 HD
HETATM   11  N8  UNL     1      60.539  78.418 -89.246  1.00  0.00    -0.339 N 
ATOM     12  H8  UNL     1      59.802  78.285 -89.938  1.00  0.00     0.167 HD
BRANCH   9  13
HETATM   13  C5  UNL     1      59.805  80.702 -89.077  1.00  0.00     0.200 C 
BRANCH  13  14
HETATM   14  N2  UNL     1      58.440  80.330 -88.736  1.00  0.00    -0.354 N 
HETATM   15  C4  UNL     1      57.440  80.169 -89.725  1.00  0.00     0.219 C 
HETATM   16  O1  UNL     1      57.670  80.340 -90.947  1.00  0.00    -0.274 OA
ATOM     17  H2  UNL     1      58.197  80.180 -87.757  1.00  0.00     0.162 HD
BRANCH  15  18
HETATM   18  C3  UNL     1      56.073  79.789 -89.307  1.00  0.00     0.135 C 
BRANCH  18  19
HETATM   19  C2  UNL     1      55.684  78.442 -89.913  1.00  0.00     0.188 C 
HETATM   20  C1  UNL     1      56.709  77.405 -89.619  1.00  0.00     0.040 C 
BRANCH  19  21
HETATM   21  N1  UNL     1      55.469  78.632 -91.335  1.00  0.00    -0.075 N 
ATOM     22  H13 UNL     1      55.992  79.436 -91.680  1.00  0.00     0.274 HD
ATOM     23  H12 UNL     1      55.924  77.895 -91.874  1.00  0.00     0.274 HD
ATOM     24  H11 UNL     1      54.481  78.706 -91.578  1.00  0.00     0.274 HD
ENDBRANCH  19  21
ENDBRANCH  18  19
ENDBRANCH  15  18
ENDBRANCH  13  14
ENDBRANCH   9  13
ENDBRANCH   1   4
BRANCH   1  25
HETATM   25  N6  UNL     1      62.243  75.282 -89.868  1.00  0.00    -0.293 N 
HETATM   26  C16 UNL     1      62.781  75.252 -91.164  1.00  0.00     0.321 C 
HETATM   27  O4  UNL     1      62.302  75.962 -92.062  1.00  0.00    -0.247 OA
HETATM   28  N7  UNL     1      63.888  74.409 -91.485  1.00  0.00    -0.343 N 
ATOM     29  H7  UNL     1      64.273  73.821 -90.746  1.00  0.00     0.164 HD
ATOM     30  H6  UNL     1      62.656  74.685 -89.153  1.00  0.00     0.172 HD
BRANCH  28  31
HETATM   31  C17 UNL     1      64.488  74.342 -92.782  1.00  0.00     0.126 C 
BRANCH  31  32
HETATM   32  C18 UNL     1      65.428  75.488 -93.030  1.00  0.00     0.046 C 
BRANCH  32  33
HETATM   33  C19 UNL     1      66.834  75.043 -92.630  1.00  0.00     0.165 C 
BRANCH  33  34
HETATM   34  O5  UNL     1      66.791  73.907 -91.833  1.00  0.00    -0.401 OA
ATOM     35  H5  UNL     1      67.622  73.765 -91.396  1.00  0.00     0.209 HD
ENDBRANCH  33  34
ENDBRANCH  32  33
ENDBRANCH  31  32
ENDBRANCH  28  31
ENDBRANCH   1  25
BRANCH   2  36
HETATM   36  C10 UNL     1      59.747  74.433 -90.350  1.00  0.00     0.033 A 
HETATM   37  C11 UNL     1      59.992  73.275 -89.630  1.00  0.00     0.030 A 
HETATM   38  C12 UNL     1      59.823  72.039 -90.207  1.00  0.00     0.019 A 
HETATM   39  C13 UNL     1      59.408  71.925 -91.514  1.00  0.00     0.022 A 
HETATM   40  C14 UNL     1      59.161  73.081 -92.241  1.00  0.00     0.019 A 
HETATM   41  C15 UNL     1      59.326  74.324 -91.675  1.00  0.00     0.030 A 
BRANCH  39  42
HETATM   42  P1  UNL     1      59.189  70.284 -92.268  1.00  0.00     0.200 P 
BRANCH  42  43
HETATM   43  O2  UNL     1      59.830  69.096 -91.182  1.00  0.00    -0.346 OA
ATOM     44  H2  UNL     1      59.132  68.812 -90.604  1.00  0.00     0.217 HD
ENDBRANCH  42  43
BRANCH  42  45
HETATM   45  O3  UNL     1      60.049  70.246 -93.772  1.00  0.00    -0.346 OA
ATOM     46  H3  UNL     1      60.788  69.656 -93.684  1.00  0.00     0.217 HD
ENDBRANCH  42  45
ENDBRANCH  39  42
ENDBRANCH   2  36
TORSDOF 15
ENDMDL
MODEL 3
REMARK VINA RESULT: -7.596014379      4.089      6.215
REMARK  15 active torsions:
REMARK  status: ('A' for Active; 'I' for Inactive)
REMARK    1  A    between atoms: C2_2  and  N1_3 
REMARK    2  A    between atoms: C2_2  and  C3_7 
REMARK    3  A    between atoms: C3_7  and  C4_8 
REMARK       I    between atoms: C4_8  and  N2_10 
REMARK    4  A    between atoms: N2_10  and  C5_12 
REMARK    5  A    between atoms: C5_12  and  C6_13 
REMARK    6  A    between atoms: C8_19  and  C9_20 
REMARK    7  A    between atoms: C9_20  and  N6_34 
REMARK    8  A    between atoms: N5_21  and  C10_23 
REMARK    9  A    between atoms: C13_26  and  P1_27 
REMARK   10  A    between atoms: P1_27  and  O2_28 
REMARK   11  A    between atoms: P1_27  and  O3_30 
REMARK       I    between atoms: N6_34  and  C16_36 
REMARK       I    between atoms: C16_36  and  N7_38 
REMARK   12  A    between atoms: N7_38  and  C17_40 
REMARK   13  A    between atoms: C17_40  and  C18_41 
REMARK   14  A    between atoms: C18_41  and  C19_42 
REMARK   15  A    between atoms: C19_42  and  O5_43 
ROOT
HETATM    1  C9  UNL     1      61.209  76.081 -89.525  1.00  0.00     0.138 C 
HETATM    2  N5  UNL     1      59.971  75.697 -89.739  1.00  0.00    -0.340 N 
ATOM      3  H5  UNL     1      59.179  76.286 -89.482  1.00  0.00     0.167 HD
ENDROOT
BRANCH   1   4
HETATM    4  C8  UNL     1      61.395  77.380 -88.904  1.00  0.00     0.095 A 
HETATM    5  C7  UNL     1      62.340  77.532 -87.937  1.00  0.00     0.140 A 
HETATM    6  N4  UNL     1      62.512  78.743 -87.370  1.00  0.00    -0.308 N 
HETATM    7  N3  UNL     1      61.764  79.743 -87.766  1.00  0.00    -0.288 N 
ATOM      8  H4  UNL     1      63.214  78.879 -86.643  1.00  0.00     0.186 HD
HETATM    9  C6  UNL     1      60.837  79.620 -88.707  1.00  0.00     0.114 A 
ATOM     10  H3  UNL     1      61.900  80.656 -87.333  1.00  0.00     0.188 HD
HETATM   11  N8  UNL     1      60.646  78.418 -89.290  1.00  0.00    -0.339 N 
ATOM     12  H8  UNL     1      59.939  78.303 -90.017  1.00  0.00     0.167 HD
BRANCH   9  13
HETATM   13  C5  UNL     1      59.974  80.724 -89.167  1.00  0.00     0.200 C 
BRANCH  13  14
HETATM   14  N2  UNL     1      59.443  80.403 -90.483  1.00  0.00    -0.354 N 
HETATM   15  C4  UNL     1      60.163  80.683 -91.669  1.00  0.00     0.219 C 
HETATM   16  O1  UNL     1      61.296  81.225 -91.654  1.00  0.00    -0.274 OA
ATOM     17  H2  UNL     1      58.525  79.962 -90.553  1.00  0.00     0.162 HD
BRANCH  15  18
HETATM   18  C3  UNL     1      59.563  80.330 -92.974  1.00  0.00     0.135 C 
BRANCH  18  19
HETATM   19  C2  UNL     1      59.937  78.902 -93.364  1.00  0.00     0.188 C 
HETATM   20  C1  UNL     1      58.979  77.920 -92.789  1.00  0.00     0.040 C 
BRANCH  19  21
HETATM   21  N1  UNL     1      61.305  78.662 -92.947  1.00  0.00    -0.075 N 
ATOM     22  H13 UNL     1      61.583  79.312 -92.212  1.00  0.00     0.274 HD
ATOM     23  H12 UNL     1      61.381  77.786 -92.430  1.00  0.00     0.274 HD
ATOM     24  H11 UNL     1      61.965  78.686 -93.725  1.00  0.00     0.274 HD
ENDBRANCH  19  21
ENDBRANCH  18  19
ENDBRANCH  15  18
ENDBRANCH  13  14
ENDBRANCH   9  13
ENDBRANCH   1   4
BRANCH   1  25
HETATM   25  N6  UNL     1      62.285  75.260 -89.886  1.00  0.00    -0.293 N 
HETATM   26  C16 UNL     1      62.824  75.248 -91.182  1.00  0.00     0.321 C 
HETATM   27  O4  UNL     1      62.353  75.978 -92.068  1.00  0.00    -0.247 OA
HETATM   28  N7  UNL     1      63.925  74.403 -91.516  1.00  0.00    -0.343 N 
ATOM     29  H7  UNL     1      64.305  73.799 -90.787  1.00  0.00     0.164 HD
ATOM     30  H6  UNL     1      62.693  74.648 -89.181  1.00  0.00     0.172 HD
BRANCH  28  31
HETATM   31  C17 UNL     1      64.527  74.354 -92.814  1.00  0.00     0.126 C 
BRANCH  31  32
HETATM   32  C18 UNL     1      65.555  75.434 -93.001  1.00  0.00     0.046 C 
BRANCH  32  33
HETATM   33  C19 UNL     1      66.935  74.820 -92.771  1.00  0.00     0.165 C 
BRANCH  33  34
HETATM   34  O5  UNL     1      66.884  73.825 -91.803  1.00  0.00    -0.401 OA
ATOM     35  H5  UNL     1      67.679  73.814 -91.284  1.00  0.00     0.209 HD
ENDBRANCH  33  34
ENDBRANCH  32  33
ENDBRANCH  31  32
ENDBRANCH  28  31
ENDBRANCH   1  25
BRANCH   2  36
HETATM   36  C10 UNL     1      59.782  74.420 -90.347  1.00  0.00     0.033 A 
HETATM   37  C11 UNL     1      60.023  73.259 -89.632  1.00  0.00     0.030 A 
HETATM   38  C12 UNL     1      59.845  72.025 -90.211  1.00  0.00     0.019 A 
HETATM   39  C13 UNL     1      59.425  71.917 -91.517  1.00  0.00     0.022 A 
HETATM   40  C14 UNL     1      59.182  73.076 -92.240  1.00  0.00     0.019 A 
HETATM   41  C15 UNL     1      59.355  74.317 -91.672  1.00  0.00     0.030 A 
BRANCH  39  42
HETATM   42  P1  UNL     1      59.193  70.279 -92.275  1.00  0.00     0.200 P 
BRANCH  42  43
HETATM   43  O2  UNL     1      59.826  69.084 -91.191  1.00  0.00    -0.346 OA
ATOM     44  H2  UNL     1      59.764  68.236 -91.613  1.00  0.00     0.217 HD
ENDBRANCH  42  43
BRANCH  42  45
HETATM   45  O3  UNL     1      60.053  70.238 -93.779  1.00  0.00    -0.346 OA
ATOM     46  H3  UNL     1      59.893  71.051 -94.242  1.00  0.00     0.217 HD
ENDBRANCH  42  45
ENDBRANCH  39  42
ENDBRANCH   2  36
TORSDOF 15
ENDMDL
MODEL 4
REMARK VINA RESULT: -7.589427253      4.267      6.002
REMARK  15 active torsions:
REMARK  status: ('A' for Active; 'I' for Inactive)
REMARK    1  A    between atoms: C2_2  and  N1_3 
REMARK    2  A    between atoms: C2_2  and  C3_7 
REMARK    3  A    between atoms: C3_7  and  C4_8 
REMARK       I    between atoms: C4_8  and  N2_10 
REMARK    4  A    between atoms: N2_10  and  C5_12 
REMARK    5  A    between atoms: C5_12  and  C6_13 
REMARK    6  A    between atoms: C8_19  and  C9_20 
REMARK    7  A    between atoms: C9_20  and  N6_34 
REMARK    8  A    between atoms: N5_21  and  C10_23 
REMARK    9  A    between atoms: C13_26  and  P1_27 
REMARK   10  A    between atoms: P1_27  and  O2_28 
REMARK   11  A    between atoms: P1_27  and  O3_30 
REMARK       I    between atoms: N6_34  and  C16_36 
REMARK       I    between atoms: C16_36  and  N7_38 
REMARK   12  A    between atoms: N7_38  and  C17_40 
REMARK   13  A    between atoms: C17_40  and  C18_41 
REMARK   14  A    between atoms: C18_41  and  C19_42 
REMARK   15  A    between atoms: C19_42  and  O5_43 
ROOT
HETATM    1  C9  UNL     1      61.215  76.072 -89.497  1.00  0.00     0.138 C 
HETATM    2  N5  UNL     1      59.978  75.679 -89.700  1.00  0.00    -0.340 N 
ATOM      3  H5  UNL     1      59.184  76.265 -89.441  1.00  0.00     0.167 HD
ENDROOT
BRANCH   1   4
HETATM    4  C8  UNL     1      61.397  77.377 -88.887  1.00  0.00     0.095 A 
HETATM    5  C7  UNL     1      62.356  77.544 -87.936  1.00  0.00     0.140 A 
HETATM    6  N4  UNL     1      62.524  78.761 -87.379  1.00  0.00    -0.308 N 
HETATM    7  N3  UNL     1      61.760  79.750 -87.770  1.00  0.00    -0.288 N 
ATOM      8  H4  UNL     1      63.236  78.908 -86.663  1.00  0.00     0.186 HD
HETATM    9  C6  UNL     1      60.820  79.613 -88.695  1.00  0.00     0.114 A 
ATOM     10  H3  UNL     1      61.894  80.668 -87.344  1.00  0.00     0.188 HD
HETATM   11  N8  UNL     1      60.632  78.405 -89.268  1.00  0.00    -0.339 N 
ATOM     12  H8  UNL     1      59.915  78.278 -89.983  1.00  0.00     0.167 HD
BRANCH   9  13
HETATM   13  C5  UNL     1      59.939  80.705 -89.148  1.00  0.00     0.200 C 
BRANCH  13  14
HETATM   14  N2  UNL     1      60.610  81.461 -90.196  1.00  0.00    -0.354 N 
HETATM   15  C4  UNL     1      60.545  81.074 -91.556  1.00  0.00     0.219 C 
HETATM   16  O1  UNL     1      59.909  80.060 -91.935  1.00  0.00    -0.274 OA
ATOM     17  H2  UNL     1      61.142  82.294 -89.942  1.00  0.00     0.162 HD
BRANCH  15  18
HETATM   18  C3  UNL     1      61.251  81.889 -92.568  1.00  0.00     0.135 C 
BRANCH  18  19
HETATM   19  C2  UNL     1      61.857  80.994 -93.646  1.00  0.00     0.188 C 
HETATM   20  C1  UNL     1      63.098  81.593 -94.206  1.00  0.00     0.040 C 
BRANCH  19  21
HETATM   21  N1  UNL     1      60.845  80.753 -94.656  1.00  0.00    -0.075 N 
ATOM     22  H13 UNL     1      59.908  80.811 -94.258  1.00  0.00     0.274 HD
ATOM     23  H12 UNL     1      60.793  81.530 -95.315  1.00  0.00     0.274 HD
ATOM     24  H11 UNL     1      60.980  79.868 -95.146  1.00  0.00     0.274 HD
ENDBRANCH  19  21
ENDBRANCH  18  19
ENDBRANCH  15  18
ENDBRANCH  13  14
ENDBRANCH   9  13
ENDBRANCH   1   4
BRANCH   1  25
HETATM   25  N6  UNL     1      62.293  75.256 -89.860  1.00  0.00    -0.293 N 
HETATM   26  C16 UNL     1      62.817  75.229 -91.162  1.00  0.00     0.321 C 
HETATM   27  O4  UNL     1      62.327  75.941 -92.053  1.00  0.00    -0.247 OA
HETATM   28  N7  UNL     1      63.921  74.388 -91.498  1.00  0.00    -0.343 N 
ATOM     29  H7  UNL     1      64.314  73.798 -90.765  1.00  0.00     0.164 HD
ATOM     30  H6  UNL     1      62.715  74.657 -89.151  1.00  0.00     0.172 HD
BRANCH  28  31
HETATM   31  C17 UNL     1      64.506  74.325 -92.802  1.00  0.00     0.126 C 
BRANCH  31  32
HETATM   32  C18 UNL     1      65.441  75.473 -93.059  1.00  0.00     0.046 C 
BRANCH  32  33
HETATM   33  C19 UNL     1      66.840  75.055 -92.612  1.00  0.00     0.165 C 
BRANCH  33  34
HETATM   34  O5  UNL     1      66.794  73.904 -91.837  1.00  0.00    -0.401 OA
ATOM     35  H5  UNL     1      67.649  73.698 -91.479  1.00  0.00     0.209 HD
ENDBRANCH  33  34
ENDBRANCH  32  33
ENDBRANCH  31  32
ENDBRANCH  28  31
ENDBRANCH   1  25
BRANCH   2  36
HETATM   36  C10 UNL     1      59.792  74.397 -90.297  1.00  0.00     0.033 A 
HETATM   37  C11 UNL     1      59.371  74.290 -91.612  1.00  0.00     0.030 A 
HETATM   38  C12 UNL     1      59.189  73.058 -92.195  1.00  0.00     0.019 A 
HETATM   39  C13 UNL     1      59.420  71.904 -91.482  1.00  0.00     0.022 A 
HETATM   40  C14 UNL     1      59.841  72.004 -90.164  1.00  0.00     0.019 A 
HETATM   41  C15 UNL     1      60.028  73.230 -89.570  1.00  0.00     0.030 A 
BRANCH  39  42
HETATM   42  P1  UNL     1      59.174  70.279 -92.263  1.00  0.00     0.200 P 
BRANCH  42  43
HETATM   43  O2  UNL     1      59.797  69.063 -91.196  1.00  0.00    -0.346 OA
ATOM     44  H2  UNL     1      60.643  69.353 -90.875  1.00  0.00     0.217 HD
ENDBRANCH  42  43
BRANCH  42  45
HETATM   45  O3  UNL     1      60.033  70.251 -93.767  1.00  0.00    -0.346 OA
ATOM     46  H3  UNL     1      60.371  69.375 -93.908  1.00  0.00     0.217 HD
ENDBRANCH  42  45
ENDBRANCH  39  42
ENDBRANCH   2  36
TORSDOF 15
ENDMDL
MODEL 5
REMARK VINA RESULT: -7.556274781      1.209      1.469
REMARK  15 active torsions:
REMARK  status: ('A' for Active; 'I' for Inactive)
REMARK    1  A    between atoms: C2_2  and  N1_3 
REMARK    2  A    between atoms: C2_2  and  C3_7 
REMARK    3  A    between atoms: C3_7  and  C4_8 
REMARK       I    between atoms: C4_8  and  N2_10 
REMARK    4  A    between atoms: N2_10  and  C5_12 
REMARK    5  A    between atoms: C5_12  and  C6_13 
REMARK    6  A    between atoms: C8_19  and  C9_20 
REMARK    7  A    between atoms: C9_20  and  N6_34 
REMARK    8  A    between atoms: N5_21  and  C10_23 
REMARK    9  A    between atoms: C13_26  and  P1_27 
REMARK   10  A    between atoms: P1_27  and  O2_28 
REMARK   11  A    between atoms: P1_27  and  O3_30 
REMARK       I    between atoms: N6_34  and  C16_36 
REMARK       I    between atoms: C16_36  and  N7_38 
REMARK   12  A    between atoms: N7_38  and  C17_40 
REMARK   13  A    between atoms: C17_40  and  C18_41 
REMARK   14  A    between atoms: C18_41  and  C19_42 
REMARK   15  A    between atoms: C19_42  and  O5_43 
ROOT
HETATM    1  C9  UNL     1      59.696  74.859 -91.644  1.00  0.00     0.138 C 
HETATM    2  N5  UNL     1      59.071  75.124 -90.519  1.00  0.00    -0.340 N 
ATOM      3  H5  UNL     1      58.748  76.066 -90.298  1.00  0.00     0.167 HD
ENDROOT
BRANCH   1   4
HETATM    4  C8  UNL     1      59.903  75.970 -92.556  1.00  0.00     0.095 A 
HETATM    5  C7  UNL     1      59.698  77.243 -92.120  1.00  0.00     0.140 A 
HETATM    6  N4  UNL     1      59.899  78.269 -92.971  1.00  0.00    -0.308 N 
HETATM    7  N3  UNL     1      60.288  78.014 -94.195  1.00  0.00    -0.288 N 
ATOM      8  H4  UNL     1      59.750  79.231 -92.665  1.00  0.00     0.186 HD
HETATM    9  C6  UNL     1      60.495  76.783 -94.643  1.00  0.00     0.114 A 
ATOM     10  H3  UNL     1      60.439  78.796 -94.832  1.00  0.00     0.188 HD
HETATM   11  N8  UNL     1      60.301  75.738 -93.811  1.00  0.00    -0.339 N 
ATOM     12  H8  UNL     1      60.457  74.783 -94.135  1.00  0.00     0.167 HD
BRANCH   9  13
HETATM   13  C5  UNL     1      60.924  76.464 -96.017  1.00  0.00     0.200 C 
BRANCH  13  14
HETATM   14  N2  UNL     1      62.369  76.606 -96.116  1.00  0.00    -0.354 N 
HETATM   15  C4  UNL     1      62.980  77.849 -96.408  1.00  0.00     0.219 C 
HETATM   16  O1  UNL     1      62.313  78.896 -96.599  1.00  0.00    -0.274 OA
ATOM     17  H2  UNL     1      62.959  75.786 -95.970  1.00  0.00     0.162 HD
BRANCH  15  18
HETATM   18  C3  UNL     1      64.455  77.921 -96.493  1.00  0.00     0.135 C 
BRANCH  18  19
HETATM   19  C2  UNL     1      64.879  78.861 -97.619  1.00  0.00     0.188 C 
HETATM   20  C1  UNL     1      66.009  78.288 -98.399  1.00  0.00     0.040 C 
BRANCH  19  21
HETATM   21  N1  UNL     1      65.196  80.151 -97.038  1.00  0.00    -0.075 N 
ATOM     22  H13 UNL     1      65.963  80.073 -96.370  1.00  0.00     0.274 HD
ATOM     23  H12 UNL     1      65.636  80.763 -97.724  1.00  0.00     0.274 HD
ATOM     24  H11 UNL     1      64.385  80.602 -96.613  1.00  0.00     0.274 HD
ENDBRANCH  19  21
ENDBRANCH  18  19
ENDBRANCH  15  18
ENDBRANCH  13  14
ENDBRANCH   9  13
ENDBRANCH   1   4
BRANCH   1  25
HETATM   25  N6  UNL     1      60.130  73.559 -91.932  1.00  0.00    -0.293 N 
HETATM   26  C16 UNL     1      59.319  72.617 -92.583  1.00  0.00     0.321 C 
HETATM   27  O4  UNL     1      58.164  72.912 -92.930  1.00  0.00    -0.247 OA
HETATM   28  N7  UNL     1      59.796  71.301 -92.866  1.00  0.00    -0.343 N 
ATOM     29  H7  UNL     1      60.742  71.061 -92.572  1.00  0.00     0.164 HD
ATOM     30  H6  UNL     1      61.074  73.286 -91.657  1.00  0.00     0.172 HD
BRANCH  28  31
HETATM   31  C17 UNL     1      59.023  70.301 -93.537  1.00  0.00     0.126 C 
BRANCH  31  32
HETATM   32  C18 UNL     1      58.744  69.117 -92.656  1.00  0.00     0.046 C 
BRANCH  32  33
HETATM   33  C19 UNL     1      59.691  69.182 -91.459  1.00  0.00     0.165 C 
BRANCH  33  34
HETATM   34  O5  UNL     1      59.001  69.478 -90.292  1.00  0.00    -0.401 OA
ATOM     35  H5  UNL     1      58.994  70.414 -90.127  1.00  0.00     0.209 HD
ENDBRANCH  33  34
ENDBRANCH  32  33
ENDBRANCH  31  32
ENDBRANCH  28  31
ENDBRANCH   1  25
BRANCH   2  36
HETATM   36  C10 UNL     1      58.865  74.037 -89.618  1.00  0.00     0.033 A 
HETATM   37  C11 UNL     1      57.617  73.448 -89.503  1.00  0.00     0.030 A 
HETATM   38  C12 UNL     1      57.409  72.401 -88.637  1.00  0.00     0.019 A 
HETATM   39  C13 UNL     1      58.439  71.916 -87.863  1.00  0.00     0.022 A 
HETATM   40  C14 UNL     1      59.692  72.502 -87.972  1.00  0.00     0.019 A 
HETATM   41  C15 UNL     1      59.912  73.550 -88.836  1.00  0.00     0.030 A 
BRANCH  39  42
HETATM   42  P1  UNL     1      58.153  70.531 -86.718  1.00  0.00     0.200 P 
BRANCH  42  43
HETATM   43  O2  UNL     1      59.680  70.054 -86.051  1.00  0.00    -0.346 OA
ATOM     44  H2  UNL     1      59.859  69.162 -86.324  1.00  0.00     0.217 HD
ENDBRANCH  42  43
BRANCH  42  45
HETATM   45  O3  UNL     1      57.450  69.218 -87.603  1.00  0.00    -0.346 OA
ATOM     46  H3  UNL     1      56.696  68.897 -87.122  1.00  0.00     0.217 HD
ENDBRANCH  42  45
ENDBRANCH  39  42
ENDBRANCH   2  36
TORSDOF 15
ENDMDL
