MODEL 1
REMARK VINA RESULT: -7.186302495      0.000      0.000
REMARK  18 active torsions:
REMARK  status: ('A' for Active; 'I' for Inactive)
REMARK    1  A    between atoms: C2_2  and  N1_3 
REMARK    2  A    between atoms: C3_6  and  N3_7 
REMARK    3  A    between atoms: C5_11  and  C6_12 
REMARK    4  A    between atoms: N6_18  and  C10_19 
REMARK    5  A    between atoms: C10_19  and  C11_20 
REMARK    6  A    between atoms: C11_20  and  O1_21 
REMARK    7  A    between atoms: C11_20  and  C12_23 
REMARK    8  A    between atoms: C12_23  and  O2_24 
REMARK    9  A    between atoms: O2_24  and  C13_25 
REMARK   10  A    between atoms: C13_25  and  C14_26 
REMARK   11  A    between atoms: C14_26  and  C15_27 
REMARK   12  A    between atoms: C17_29  and  N7_30 
REMARK   13  A    between atoms: N7_30  and  C18_32 
REMARK   14  A    between atoms: C18_32  and  C19_33 
REMARK   15  A    between atoms: C19_33  and  O3_34 
REMARK   16  A    between atoms: O3_34  and  P1_35 
REMARK   17  A    between atoms: P1_35  and  O4_36 
REMARK   18  A    between atoms: P1_35  and  O5_38 
ROOT
HETATM    1  N1  UNL     1      59.534  70.913 -92.142  1.00  0.00    -0.206 N 
HETATM    2  N2  UNL     1      58.679  71.936 -92.493  1.00  0.00    -0.264 N 
ATOM      3  H2  UNL     1      57.725  71.696 -92.760  1.00  0.00     0.190 HD
HETATM    4  C3  UNL     1      59.013  73.153 -92.501  1.00  0.00     0.140 A 
HETATM    5  C5  UNL     1      60.398  73.619 -92.121  1.00  0.00     0.099 A 
HETATM    6  C17 UNL     1      61.244  72.544 -91.778  1.00  0.00     0.135 A 
HETATM    7  N8  UNL     1      60.795  71.270 -91.796  1.00  0.00    -0.264 N 
ATOM      8  H8  UNL     1      61.446  70.530 -91.531  1.00  0.00     0.190 HD
ENDROOT
BRANCH   5   9
HETATM    9  C6  UNL     1      60.621  74.874 -92.327  1.00  0.00     0.125 A 
HETATM   10  N5  UNL     1      60.844  75.189 -93.757  1.00  0.00    -0.351 N 
HETATM   11  C7  UNL     1      60.952  76.322 -94.273  1.00  0.00     0.091 A 
ATOM     12  H5  UNL     1      60.917  74.392 -94.391  1.00  0.00     0.166 HD
HETATM   13  C8  UNL     1      60.860  77.520 -93.470  1.00  0.00     0.034 A 
HETATM   14  C9  UNL     1      60.655  77.333 -92.189  1.00  0.00     0.094 A 
HETATM   15  N6  UNL     1      60.522  76.043 -91.563  1.00  0.00    -0.340 N 
BRANCH  15  16
HETATM   16  C10 UNL     1      60.037  76.014 -90.229  1.00  0.00     0.164 C 
BRANCH  16  17
HETATM   17  C11 UNL     1      61.055  75.722 -89.149  1.00  0.00     0.160 C 
BRANCH  17  18
HETATM   18  O1  UNL     1      62.286  76.270 -89.271  1.00  0.00    -0.392 OA
ATOM     19  H1  UNL     1      62.949  76.023 -88.638  1.00  0.00     0.210 HD
ENDBRANCH  17  18
BRANCH  17  20
HETATM   20  C12 UNL     1      60.907  74.351 -88.576  1.00  0.00     0.200 C 
BRANCH  20  21
HETATM   21  O2  UNL     1      59.961  74.437 -87.585  1.00  0.00    -0.389 OA
BRANCH  21  22
HETATM   22  C13 UNL     1      59.070  73.414 -87.472  1.00  0.00     0.167 C 
BRANCH  22  23
HETATM   23  C14 UNL     1      59.283  72.287 -88.457  1.00  0.00     0.026 C 
BRANCH  23  24
HETATM   24  C15 UNL     1      58.048  71.409 -88.578  1.00  0.00    -0.002 C 
HETATM   25  C16 UNL     1      57.933  70.662 -87.241  1.00  0.00     0.005 C 
ENDBRANCH  23  24
ENDBRANCH  22  23
ENDBRANCH  21  22
ENDBRANCH  20  21
ENDBRANCH  17  20
ENDBRANCH  16  17
ENDBRANCH  15  16
ENDBRANCH   5   9
BRANCH   4  26
HETATM   26  N3  UNL     1      58.011  74.089 -92.886  1.00  0.00    -0.339 N 
HETATM   27  C4  UNL     1      57.040  74.455 -92.157  1.00  0.00     0.191 C 
HETATM   28  N4  UNL     1      56.901  73.922 -90.855  1.00  0.00    -0.097 NA
ATOM     29  H3  UNL     1      58.078  74.495 -93.820  1.00  0.00     0.167 HD
ENDBRANCH   4  26
BRANCH   6  30
HETATM   30  N7  UNL     1      62.635  72.507 -91.637  1.00  0.00    -0.372 N 
ATOM     31  H7  UNL     1      63.021  71.897 -90.915  1.00  0.00     0.161 HD
BRANCH  30  32
HETATM   32  C18 UNL     1      63.561  73.269 -92.436  1.00  0.00     0.148 C 
BRANCH  32  33
HETATM   33  C19 UNL     1      64.116  74.522 -91.913  1.00  0.00     0.197 C 
BRANCH  33  34
HETATM   34  O3  UNL     1      64.040  75.600 -92.763  1.00  0.00    -0.316 OA
BRANCH  34  35
HETATM   35  P1  UNL     1      65.598  76.008 -93.411  1.00  0.00     0.329 P 
BRANCH  35  36
HETATM   36  O4  UNL     1      66.808  75.546 -92.233  1.00  0.00    -0.328 OA
ATOM     37  H4  UNL     1      67.517  75.115 -92.696  1.00  0.00     0.219 HD
ENDBRANCH  35  36
BRANCH  35  38
HETATM   38  O5  UNL     1      65.701  77.723 -93.716  1.00  0.00    -0.328 OA
ATOM     39  H5  UNL     1      66.538  78.063 -93.421  1.00  0.00     0.219 HD
ENDBRANCH  35  38
ENDBRANCH  34  35
ENDBRANCH  33  34
ENDBRANCH  32  33
ENDBRANCH  30  32
ENDBRANCH   6  30
BRANCH   1  40
HETATM   40  C2  UNL     1      59.098  69.541 -92.153  1.00  0.00     0.126 C 
HETATM   41  C1  UNL     1      59.065  68.796 -91.080  1.00  0.00     0.033 C 
ENDBRANCH   1  40
TORSDOF 18
ENDMDL
MODEL 2
REMARK VINA RESULT: -6.944379551      0.995      1.296
REMARK  18 active torsions:
REMARK  status: ('A' for Active; 'I' for Inactive)
REMARK    1  A    between atoms: C2_2  and  N1_3 
REMARK    2  A    between atoms: C3_6  and  N3_7 
REMARK    3  A    between atoms: C5_11  and  C6_12 
REMARK    4  A    between atoms: N6_18  and  C10_19 
REMARK    5  A    between atoms: C10_19  and  C11_20 
REMARK    6  A    between atoms: C11_20  and  O1_21 
REMARK    7  A    between atoms: C11_20  and  C12_23 
REMARK    8  A    between atoms: C12_23  and  O2_24 
REMARK    9  A    between atoms: O2_24  and  C13_25 
REMARK   10  A    between atoms: C13_25  and  C14_26 
REMARK   11  A    between atoms: C14_26  and  C15_27 
REMARK   12  A    between atoms: C17_29  and  N7_30 
REMARK   13  A    between atoms: N7_30  and  C18_32 
REMARK   14  A    between atoms: C18_32  and  C19_33 
REMARK   15  A    between atoms: C19_33  and  O3_34 
REMARK   16  A    between atoms: O3_34  and  P1_35 
REMARK   17  A    between atoms: P1_35  and  O4_36 
REMARK   18  A    between atoms: P1_35  and  O5_38 
ROOT
HETATM    1  N1  UNL     1      59.566  71.394 -92.189  1.00  0.00    -0.206 N 
HETATM    2  N2  UNL     1      58.568  72.320 -91.979  1.00  0.00    -0.264 N 
ATOM      3  H2  UNL     1      57.608  71.984 -91.897  1.00  0.00     0.190 HD
HETATM    4  C3  UNL     1      58.775  73.561 -91.881  1.00  0.00     0.140 A 
HETATM    5  C5  UNL     1      60.155  74.165 -91.984  1.00  0.00     0.099 A 
HETATM    6  C17 UNL     1      61.146  73.187 -92.209  1.00  0.00     0.135 A 
HETATM    7  N8  UNL     1      60.828  71.878 -92.296  1.00  0.00    -0.264 N 
ATOM      8  H8  UNL     1      61.584  71.211 -92.451  1.00  0.00     0.190 HD
ENDROOT
BRANCH   5   9
HETATM    9  C6  UNL     1      60.179  75.456 -92.015  1.00  0.00     0.125 A 
HETATM   10  N5  UNL     1      60.090  75.997 -93.391  1.00  0.00    -0.351 N 
HETATM   11  C7  UNL     1      59.958  77.195 -93.724  1.00  0.00     0.091 A 
ATOM     12  H5  UNL     1      60.141  75.318 -94.151  1.00  0.00     0.166 HD
HETATM   13  C8  UNL     1      59.871  78.241 -92.730  1.00  0.00     0.034 A 
HETATM   14  C9  UNL     1      59.933  77.848 -91.482  1.00  0.00     0.094 A 
HETATM   15  N6  UNL     1      60.081  76.478 -91.064  1.00  0.00    -0.340 N 
BRANCH  15  16
HETATM   16  C10 UNL     1      59.861  76.189 -89.691  1.00  0.00     0.164 C 
BRANCH  16  17
HETATM   17  C11 UNL     1      61.055  75.694 -88.907  1.00  0.00     0.160 C 
BRANCH  17  18
HETATM   18  O1  UNL     1      62.283  76.124 -89.281  1.00  0.00    -0.392 OA
ATOM     19  H1  UNL     1      62.935  75.472 -89.507  1.00  0.00     0.210 HD
ENDBRANCH  17  18
BRANCH  17  20
HETATM   20  C12 UNL     1      60.879  74.297 -88.411  1.00  0.00     0.200 C 
BRANCH  20  21
HETATM   21  O2  UNL     1      60.006  74.361 -87.354  1.00  0.00    -0.389 OA
BRANCH  21  22
HETATM   22  C13 UNL     1      58.972  73.477 -87.334  1.00  0.00     0.167 C 
BRANCH  22  23
HETATM   23  C14 UNL     1      59.101  72.340 -88.321  1.00  0.00     0.026 C 
BRANCH  23  24
HETATM   24  C15 UNL     1      57.777  71.620 -88.524  1.00  0.00    -0.002 C 
HETATM   25  C16 UNL     1      57.708  70.554 -87.420  1.00  0.00     0.005 C 
ENDBRANCH  23  24
ENDBRANCH  22  23
ENDBRANCH  21  22
ENDBRANCH  20  21
ENDBRANCH  17  20
ENDBRANCH  16  17
ENDBRANCH  15  16
ENDBRANCH   5   9
BRANCH   4  26
HETATM   26  N3  UNL     1      57.635  74.386 -91.661  1.00  0.00    -0.339 N 
HETATM   27  C4  UNL     1      56.742  74.636 -92.527  1.00  0.00     0.191 C 
HETATM   28  N4  UNL     1      56.843  74.078 -93.821  1.00  0.00    -0.097 NA
ATOM     29  H3  UNL     1      57.527  74.806 -90.738  1.00  0.00     0.167 HD
ENDBRANCH   4  26
BRANCH   6  30
HETATM   30  N7  UNL     1      62.473  73.335 -92.626  1.00  0.00    -0.372 N 
ATOM     31  H7  UNL     1      62.759  72.849 -93.476  1.00  0.00     0.161 HD
BRANCH  30  32
HETATM   32  C18 UNL     1      63.465  74.125 -91.940  1.00  0.00     0.148 C 
BRANCH  32  33
HETATM   33  C19 UNL     1      64.115  75.243 -92.635  1.00  0.00     0.197 C 
BRANCH  33  34
HETATM   34  O3  UNL     1      63.279  76.033 -93.388  1.00  0.00    -0.316 OA
BRANCH  34  35
HETATM   35  P1  UNL     1      64.173  77.187 -94.328  1.00  0.00     0.329 P 
BRANCH  35  36
HETATM   36  O4  UNL     1      64.084  76.697 -96.006  1.00  0.00    -0.328 OA
ATOM     37  H4  UNL     1      63.205  76.877 -96.316  1.00  0.00     0.219 HD
ENDBRANCH  35  36
BRANCH  35  38
HETATM   38  O5  UNL     1      65.841  77.228 -93.815  1.00  0.00    -0.328 OA
ATOM     39  H5  UNL     1      66.335  77.844 -94.343  1.00  0.00     0.219 HD
ENDBRANCH  35  38
ENDBRANCH  34  35
ENDBRANCH  33  34
ENDBRANCH  32  33
ENDBRANCH  30  32
ENDBRANCH   6  30
BRANCH   1  40
HETATM   40  C2  UNL     1      59.270  69.989 -92.294  1.00  0.00     0.126 C 
HETATM   41  C1  UNL     1      59.339  69.169 -91.280  1.00  0.00     0.033 C 
ENDBRANCH   1  40
TORSDOF 18
ENDMDL
MODEL 3
REMARK VINA RESULT: -6.939852848      3.178      6.027
REMARK  18 active torsions:
REMARK  status: ('A' for Active; 'I' for Inactive)
REMARK    1  A    between atoms: C2_2  and  N1_3 
REMARK    2  A    between atoms: C3_6  and  N3_7 
REMARK    3  A    between atoms: C5_11  and  C6_12 
REMARK    4  A    between atoms: N6_18  and  C10_19 
REMARK    5  A    between atoms: C10_19  and  C11_20 
REMARK    6  A    between atoms: C11_20  and  O1_21 
REMARK    7  A    between atoms: C11_20  and  C12_23 
REMARK    8  A    between atoms: C12_23  and  O2_24 
REMARK    9  A    between atoms: O2_24  and  C13_25 
REMARK   10  A    between atoms: C13_25  and  C14_26 
REMARK   11  A    between atoms: C14_26  and  C15_27 
REMARK   12  A    between atoms: C17_29  and  N7_30 
REMARK   13  A    between atoms: N7_30  and  C18_32 
REMARK   14  A    between atoms: C18_32  and  C19_33 
REMARK   15  A    between atoms: C19_33  and  O3_34 
REMARK   16  A    between atoms: O3_34  and  P1_35 
REMARK   17  A    between atoms: P1_35  and  O4_36 
REMARK   18  A    between atoms: P1_35  and  O5_38 
ROOT
HETATM    1  N1  UNL     1      59.062  71.205 -90.875  1.00  0.00    -0.206 N 
HETATM    2  N2  UNL     1      59.218  72.171 -91.845  1.00  0.00    -0.264 N 
ATOM      3  H2  UNL     1      59.547  71.882 -92.766  1.00  0.00     0.190 HD
HETATM    4  C3  UNL     1      58.977  73.396 -91.655  1.00  0.00     0.140 A 
HETATM    5  C5  UNL     1      58.485  73.932 -90.333  1.00  0.00     0.099 A 
HETATM    6  C17 UNL     1      58.348  72.915 -89.366  1.00  0.00     0.135 A 
HETATM    7  N8  UNL     1      58.627  71.627 -89.663  1.00  0.00    -0.264 N 
ATOM      8  H8  UNL     1      58.502  70.930 -88.929  1.00  0.00     0.190 HD
ENDROOT
BRANCH   5   9
HETATM    9  C6  UNL     1      58.433  75.221 -90.258  1.00  0.00     0.125 A 
HETATM   10  N5  UNL     1      57.085  75.720 -89.900  1.00  0.00    -0.351 N 
HETATM   11  C7  UNL     1      56.763  76.897 -89.628  1.00  0.00     0.091 A 
ATOM     12  H5  UNL     1      56.337  75.026 -89.872  1.00  0.00     0.166 HD
HETATM   13  C8  UNL     1      57.743  77.959 -89.633  1.00  0.00     0.034 A 
HETATM   14  C9  UNL     1      58.968  77.603 -89.933  1.00  0.00     0.094 A 
HETATM   15  N6  UNL     1      59.373  76.257 -90.247  1.00  0.00    -0.340 N 
BRANCH  15  16
HETATM   16  C10 UNL     1      60.768  75.989 -90.283  1.00  0.00     0.164 C 
BRANCH  16  17
HETATM   17  C11 UNL     1      61.318  75.134 -89.164  1.00  0.00     0.160 C 
BRANCH  17  18
HETATM   18  O1  UNL     1      61.832  75.761 -88.080  1.00  0.00    -0.392 OA
ATOM     19  H1  UNL     1      62.283  76.586 -88.214  1.00  0.00     0.210 HD
ENDBRANCH  17  18
BRANCH  17  20
HETATM   20  C12 UNL     1      61.946  73.874 -89.659  1.00  0.00     0.200 C 
BRANCH  20  21
HETATM   21  O2  UNL     1      61.881  73.912 -91.030  1.00  0.00    -0.389 OA
BRANCH  21  22
HETATM   22  C13 UNL     1      62.974  73.497 -91.726  1.00  0.00     0.167 C 
BRANCH  22  23
HETATM   23  C14 UNL     1      64.018  74.567 -91.948  1.00  0.00     0.026 C 
BRANCH  23  24
HETATM   24  C15 UNL     1      65.061  74.129 -92.965  1.00  0.00    -0.002 C 
HETATM   25  C16 UNL     1      66.342  74.897 -92.606  1.00  0.00     0.005 C 
ENDBRANCH  23  24
ENDBRANCH  22  23
ENDBRANCH  21  22
ENDBRANCH  20  21
ENDBRANCH  17  20
ENDBRANCH  16  17
ENDBRANCH  15  16
ENDBRANCH   5   9
BRANCH   4  26
HETATM   26  N3  UNL     1      59.188  74.268 -92.762  1.00  0.00    -0.339 N 
HETATM   27  C4  UNL     1      58.350  74.479 -93.690  1.00  0.00     0.191 C 
HETATM   28  N4  UNL     1      57.098  73.823 -93.668  1.00  0.00    -0.097 NA
ATOM     29  H3  UNL     1      60.080  74.761 -92.811  1.00  0.00     0.167 HD
ENDBRANCH   4  26
BRANCH   6  30
HETATM   30  N7  UNL     1      58.189  73.011 -87.980  1.00  0.00    -0.372 N 
ATOM     31  H7  UNL     1      57.301  73.371 -87.628  1.00  0.00     0.161 HD
BRANCH  30  32
HETATM   32  C18 UNL     1      59.190  72.639 -87.012  1.00  0.00     0.148 C 
BRANCH  32  33
HETATM   33  C19 UNL     1      58.982  71.458 -86.165  1.00  0.00     0.197 C 
BRANCH  33  34
HETATM   34  O3  UNL     1      59.392  70.264 -86.709  1.00  0.00    -0.316 OA
BRANCH  34  35
HETATM   35  P1  UNL     1      58.040  69.267 -87.144  1.00  0.00     0.329 P 
BRANCH  35  36
HETATM   36  O4  UNL     1      56.755  70.318 -87.700  1.00  0.00    -0.328 OA
ATOM     37  H4  UNL     1      56.264  69.852 -88.366  1.00  0.00     0.219 HD
ENDBRANCH  35  36
BRANCH  35  38
HETATM   38  O5  UNL     1      57.492  68.347 -85.766  1.00  0.00    -0.328 OA
ATOM     39  H5  UNL     1      57.002  67.584 -86.050  1.00  0.00     0.219 HD
ENDBRANCH  35  38
ENDBRANCH  34  35
ENDBRANCH  33  34
ENDBRANCH  32  33
ENDBRANCH  30  32
ENDBRANCH   6  30
BRANCH   1  40
HETATM   40  C2  UNL     1      59.354  69.822 -91.148  1.00  0.00     0.126 C 
HETATM   41  C1  UNL     1      58.958  69.211 -92.233  1.00  0.00     0.033 C 
ENDBRANCH   1  40
TORSDOF 18
ENDMDL
MODEL 4
REMARK VINA RESULT: -6.907746699      2.239      4.653
REMARK  18 active torsions:
REMARK  status: ('A' for Active; 'I' for Inactive)
REMARK    1  A    between atoms: C2_2  and  N1_3 
REMARK    2  A    between atoms: C3_6  and  N3_7 
REMARK    3  A    between atoms: C5_11  and  C6_12 
REMARK    4  A    between atoms: N6_18  and  C10_19 
REMARK    5  A    between atoms: C10_19  and  C11_20 
REMARK    6  A    between atoms: C11_20  and  O1_21 
REMARK    7  A    between atoms: C11_20  and  C12_23 
REMARK    8  A    between atoms: C12_23  and  O2_24 
REMARK    9  A    between atoms: O2_24  and  C13_25 
REMARK   10  A    between atoms: C13_25  and  C14_26 
REMARK   11  A    between atoms: C14_26  and  C15_27 
REMARK   12  A    between atoms: C17_29  and  N7_30 
REMARK   13  A    between atoms: N7_30  and  C18_32 
REMARK   14  A    between atoms: C18_32  and  C19_33 
REMARK   15  A    between atoms: C19_33  and  O3_34 
REMARK   16  A    between atoms: O3_34  and  P1_35 
REMARK   17  A    between atoms: P1_35  and  O4_36 
REMARK   18  A    between atoms: P1_35  and  O5_38 
ROOT
HETATM    1  N1  UNL     1      63.659  74.522 -92.069  1.00  0.00    -0.206 N 
HETATM    2  N2  UNL     1      63.064  74.100 -90.899  1.00  0.00    -0.264 N 
ATOM      3  H2  UNL     1      63.665  73.764 -90.146  1.00  0.00     0.190 HD
HETATM    4  C3  UNL     1      61.816  74.106 -90.709  1.00  0.00     0.140 A 
HETATM    5  C5  UNL     1      60.837  74.583 -91.754  1.00  0.00     0.099 A 
HETATM    6  C17 UNL     1      61.483  74.996 -92.937  1.00  0.00     0.135 A 
HETATM    7  N8  UNL     1      62.829  74.957 -93.048  1.00  0.00    -0.264 N 
ATOM      8  H8  UNL     1      63.246  75.275 -93.922  1.00  0.00     0.190 HD
ENDROOT
BRANCH   5   9
HETATM    9  C6  UNL     1      59.594  74.383 -91.462  1.00  0.00     0.125 A 
HETATM   10  N5  UNL     1      58.976  75.536 -90.767  1.00  0.00    -0.351 N 
HETATM   11  C7  UNL     1      57.769  75.686 -90.481  1.00  0.00     0.091 A 
ATOM     12  H5  UNL     1      59.605  76.291 -90.491  1.00  0.00     0.166 HD
HETATM   13  C8  UNL     1      56.788  74.682 -90.828  1.00  0.00     0.034 A 
HETATM   14  C9  UNL     1      57.250  73.628 -91.455  1.00  0.00     0.094 A 
HETATM   15  N6  UNL     1      58.633  73.425 -91.803  1.00  0.00    -0.340 N 
BRANCH  15  16
HETATM   16  C10 UNL     1      58.928  72.373 -92.710  1.00  0.00     0.164 C 
BRANCH  16  17
HETATM   17  C11 UNL     1      59.891  71.314 -92.223  1.00  0.00     0.160 C 
BRANCH  17  18
HETATM   18  O1  UNL     1      60.767  70.795 -93.114  1.00  0.00    -0.392 OA
ATOM     19  H1  UNL     1      60.743  69.858 -93.268  1.00  0.00     0.210 HD
ENDBRANCH  17  18
BRANCH  17  20
HETATM   20  C12 UNL     1      59.298  70.439 -91.169  1.00  0.00     0.200 C 
BRANCH  20  21
HETATM   21  O2  UNL     1      59.456  71.096 -89.974  1.00  0.00    -0.389 OA
BRANCH  21  22
HETATM   22  C13 UNL     1      58.493  70.926 -89.028  1.00  0.00     0.167 C 
BRANCH  22  23
HETATM   23  C14 UNL     1      58.240  72.141 -88.166  1.00  0.00     0.026 C 
BRANCH  23  24
HETATM   24  C15 UNL     1      58.879  71.998 -86.794  1.00  0.00    -0.002 C 
HETATM   25  C16 UNL     1      58.496  70.596 -86.298  1.00  0.00     0.005 C 
ENDBRANCH  23  24
ENDBRANCH  22  23
ENDBRANCH  21  22
ENDBRANCH  20  21
ENDBRANCH  17  20
ENDBRANCH  16  17
ENDBRANCH  15  16
ENDBRANCH   5   9
BRANCH   4  26
HETATM   26  N3  UNL     1      61.359  73.639 -89.443  1.00  0.00    -0.339 N 
HETATM   27  C4  UNL     1      61.193  74.367 -88.418  1.00  0.00     0.191 C 
HETATM   28  N4  UNL     1      61.468  75.752 -88.488  1.00  0.00    -0.097 NA
ATOM     29  H3  UNL     1      61.150  72.645 -89.354  1.00  0.00     0.167 HD
ENDBRANCH   4  26
BRANCH   6  30
HETATM   30  N7  UNL     1      60.955  75.241 -94.209  1.00  0.00    -0.372 N 
ATOM     31  H7  UNL     1      60.593  74.444 -94.733  1.00  0.00     0.161 HD
BRANCH  30  32
HETATM   32  C18 UNL     1      60.885  76.539 -94.832  1.00  0.00     0.148 C 
BRANCH  32  33
HETATM   33  C19 UNL     1      61.849  76.897 -95.880  1.00  0.00     0.197 C 
BRANCH  33  34
HETATM   34  O3  UNL     1      63.172  76.721 -95.547  1.00  0.00    -0.316 OA
BRANCH  34  35
HETATM   35  P1  UNL     1      64.060  78.207 -95.673  1.00  0.00     0.329 P 
BRANCH  35  36
HETATM   36  O4  UNL     1      65.406  77.938 -96.760  1.00  0.00    -0.328 OA
ATOM     37  H4  UNL     1      65.859  77.154 -96.475  1.00  0.00     0.219 HD
ENDBRANCH  35  36
BRANCH  35  38
HETATM   38  O5  UNL     1      64.659  78.693 -94.107  1.00  0.00    -0.328 OA
ATOM     39  H5  UNL     1      64.522  79.624 -93.974  1.00  0.00     0.219 HD
ENDBRANCH  35  38
ENDBRANCH  34  35
ENDBRANCH  33  34
ENDBRANCH  32  33
ENDBRANCH  30  32
ENDBRANCH   6  30
BRANCH   1  40
HETATM   40  C2  UNL     1      65.089  74.491 -92.230  1.00  0.00     0.126 C 
HETATM   41  C1  UNL     1      65.740  75.341 -92.978  1.00  0.00     0.033 C 
ENDBRANCH   1  40
TORSDOF 18
ENDMDL
MODEL 5
REMARK VINA RESULT: -6.837101182      3.112      6.549
REMARK  18 active torsions:
REMARK  status: ('A' for Active; 'I' for Inactive)
REMARK    1  A    between atoms: C2_2  and  N1_3 
REMARK    2  A    between atoms: C3_6  and  N3_7 
REMARK    3  A    between atoms: C5_11  and  C6_12 
REMARK    4  A    between atoms: N6_18  and  C10_19 
REMARK    5  A    between atoms: C10_19  and  C11_20 
REMARK    6  A    between atoms: C11_20  and  O1_21 
REMARK    7  A    between atoms: C11_20  and  C12_23 
REMARK    8  A    between atoms: C12_23  and  O2_24 
REMARK    9  A    between atoms: O2_24  and  C13_25 
REMARK   10  A    between atoms: C13_25  and  C14_26 
REMARK   11  A    between atoms: C14_26  and  C15_27 
REMARK   12  A    between atoms: C17_29  and  N7_30 
REMARK   13  A    between atoms: N7_30  and  C18_32 
REMARK   14  A    between atoms: C18_32  and  C19_33 
REMARK   15  A    between atoms: C19_33  and  O3_34 
REMARK   16  A    between atoms: O3_34  and  P1_35 
REMARK   17  A    between atoms: P1_35  and  O4_36 
REMARK   18  A    between atoms: P1_35  and  O5_38 
ROOT
HETATM    1  N1  UNL     1      59.519  70.834 -91.361  1.00  0.00    -0.206 N 
HETATM    2  N2  UNL     1      60.435  71.645 -91.995  1.00  0.00    -0.264 N 
ATOM      3  H2  UNL     1      61.135  71.206 -92.594  1.00  0.00     0.190 HD
HETATM    4  C3  UNL     1      60.455  72.902 -91.877  1.00  0.00     0.140 A 
HETATM    5  C5  UNL     1      59.465  73.653 -91.020  1.00  0.00     0.099 A 
HETATM    6  C17 UNL     1      58.553  72.788 -90.381  1.00  0.00     0.135 A 
HETATM    7  N8  UNL     1      58.607  71.452 -90.572  1.00  0.00    -0.264 N 
ATOM      8  H8  UNL     1      57.918  70.872 -90.093  1.00  0.00     0.190 HD
ENDROOT
BRANCH   5   9
HETATM    9  C6  UNL     1      59.714  74.914 -90.885  1.00  0.00     0.125 A 
HETATM   10  N5  UNL     1      60.810  75.181 -89.924  1.00  0.00    -0.351 N 
HETATM   11  C7  UNL     1      61.356  76.280 -89.689  1.00  0.00     0.091 A 
ATOM     12  H5  UNL     1      61.158  74.379 -89.397  1.00  0.00     0.166 HD
HETATM   13  C8  UNL     1      60.946  77.481 -90.381  1.00  0.00     0.034 A 
HETATM   14  C9  UNL     1      59.984  77.333 -91.258  1.00  0.00     0.094 A 
HETATM   15  N6  UNL     1      59.336  76.082 -91.556  1.00  0.00    -0.340 N 
BRANCH  15  16
HETATM   16  C10 UNL     1      58.510  76.035 -92.710  1.00  0.00     0.164 C 
BRANCH  16  17
HETATM   17  C11 UNL     1      59.212  75.820 -94.032  1.00  0.00     0.160 C 
BRANCH  17  18
HETATM   18  O1  UNL     1      59.391  74.547 -94.455  1.00  0.00    -0.392 OA
ATOM     19  H1  UNL     1      58.626  73.990 -94.533  1.00  0.00     0.210 HD
ENDBRANCH  17  18
BRANCH  17  20
HETATM   20  C12 UNL     1      60.264  76.845 -94.298  1.00  0.00     0.200 C 
BRANCH  20  21
HETATM   21  O2  UNL     1      61.465  76.181 -94.326  1.00  0.00    -0.389 OA
BRANCH  21  22
HETATM   22  C13 UNL     1      62.592  76.903 -94.085  1.00  0.00     0.167 C 
BRANCH  22  23
HETATM   23  C14 UNL     1      63.711  76.667 -95.073  1.00  0.00     0.026 C 
BRANCH  23  24
HETATM   24  C15 UNL     1      63.513  77.476 -96.346  1.00  0.00    -0.002 C 
HETATM   25  C16 UNL     1      64.925  77.810 -96.852  1.00  0.00     0.005 C 
ENDBRANCH  23  24
ENDBRANCH  22  23
ENDBRANCH  21  22
ENDBRANCH  20  21
ENDBRANCH  17  20
ENDBRANCH  16  17
ENDBRANCH  15  16
ENDBRANCH   5   9
BRANCH   4  26
HETATM   26  N3  UNL     1      61.466  73.597 -92.601  1.00  0.00    -0.339 N 
HETATM   27  C4  UNL     1      62.682  73.683 -92.250  1.00  0.00     0.191 C 
HETATM   28  N4  UNL     1      63.114  73.057 -91.059  1.00  0.00    -0.097 NA
ATOM     29  H3  UNL     1      61.191  74.061 -93.467  1.00  0.00     0.167 HD
ENDBRANCH   4  26
BRANCH   6  30
HETATM   30  N7  UNL     1      57.675  73.035 -89.320  1.00  0.00    -0.372 N 
ATOM     31  H7  UNL     1      56.685  72.843 -89.470  1.00  0.00     0.161 HD
BRANCH  30  32
HETATM   32  C18 UNL     1      58.071  73.541 -88.030  1.00  0.00     0.148 C 
BRANCH  32  33
HETATM   33  C19 UNL     1      59.219  72.947 -87.334  1.00  0.00     0.197 C 
BRANCH  33  34
HETATM   34  O3  UNL     1      59.434  71.612 -87.588  1.00  0.00    -0.316 OA
BRANCH  34  35
HETATM   35  P1  UNL     1      58.231  70.620 -86.826  1.00  0.00     0.329 P 
BRANCH  35  36
HETATM   36  O4  UNL     1      59.032  69.205 -86.180  1.00  0.00    -0.328 OA
ATOM     37  H4  UNL     1      58.488  68.854 -85.484  1.00  0.00     0.219 HD
ENDBRANCH  35  36
BRANCH  35  38
HETATM   38  O5  UNL     1      57.020  70.133 -87.985  1.00  0.00    -0.328 OA
ATOM     39  H5  UNL     1      56.199  70.580 -87.816  1.00  0.00     0.219 HD
ENDBRANCH  35  38
ENDBRANCH  34  35
ENDBRANCH  33  34
ENDBRANCH  32  33
ENDBRANCH  30  32
ENDBRANCH   6  30
BRANCH   1  40
HETATM   40  C2  UNL     1      59.545  69.405 -91.533  1.00  0.00     0.126 C 
HETATM   41  C1  UNL     1      58.906  68.581 -90.746  1.00  0.00     0.033 C 
ENDBRANCH   1  40
TORSDOF 18
ENDMDL
