MODEL 1
REMARK VINA RESULT: -7.398843557      0.000      0.000
REMARK  14 active torsions:
REMARK  status: ('A' for Active; 'I' for Inactive)
REMARK    1  A    between atoms: N1_1  and  C1_5 
REMARK    2  A    between atoms: C1_5  and  C2_6 
REMARK    3  A    between atoms: C2_6  and  O1_7 
REMARK    4  A    between atoms: O1_7  and  C3_8 
REMARK    5  A    between atoms: C3_8  and  C4_9 
REMARK    6  A    between atoms: C4_9  and  N2_10 
REMARK    7  A    between atoms: C6_16  and  N5_17 
REMARK    8  A    between atoms: C11_26  and  C12_27 
REMARK    9  A    between atoms: C12_27  and  N8_28 
REMARK   10  A    between atoms: N8_28  and  C13_30 
REMARK   11  A    between atoms: C16_33  and  P1_34 
REMARK   12  A    between atoms: P1_34  and  O3_35 
REMARK   13  A    between atoms: P1_34  and  O4_37 
REMARK   14  A    between atoms: O4_37  and  O5_38 
ROOT
HETATM    1  C3  UNL     1      59.857  75.322 -92.878  1.00  0.00     0.090 C 
HETATM    2  C8  UNL     1      58.957  76.072 -93.827  1.00  0.00     0.067 C 
HETATM    3  C9  UNL     1      59.159  77.545 -93.855  1.00  0.00     0.170 C 
HETATM    4  O2  UNL     1      59.382  78.129 -92.606  1.00  0.00    -0.390 OA
HETATM    5  C10 UNL     1      60.488  77.571 -91.979  1.00  0.00     0.180 C 
HETATM    6  C11 UNL     1      60.073  76.131 -91.656  1.00  0.00     0.084 C 
ENDROOT
BRANCH   1   7
HETATM    7  O1  UNL     1      59.187  74.136 -92.528  1.00  0.00    -0.376 OA
BRANCH   7   8
HETATM    8  C2  UNL     1      58.249  73.719 -93.424  1.00  0.00     0.196 C 
BRANCH   8   9
HETATM    9  C1  UNL     1      57.912  72.233 -93.234  1.00  0.00     0.255 C 
BRANCH   9  10
HETATM   10  N1  UNL     1      58.577  71.393 -94.137  1.00  0.00    -0.077 N 
ATOM     11  H13 UNL     1      58.563  70.427 -93.810  1.00  0.00     0.274 HD
ATOM     12  H12 UNL     1      58.040  71.288 -94.997  1.00  0.00     0.274 HD
ATOM     13  H11 UNL     1      59.531  71.693 -94.340  1.00  0.00     0.274 HD
ENDBRANCH   9  10
ENDBRANCH   8   9
ENDBRANCH   7   8
ENDBRANCH   1   7
BRANCH   1  14
HETATM   14  C4  UNL     1      61.146  75.016 -93.592  1.00  0.00     0.187 C 
BRANCH  14  15
HETATM   15  N2  UNL     1      62.254  74.589 -92.826  1.00  0.00    -0.174 N 
HETATM   16  C5  UNL     1      63.430  75.201 -92.496  1.00  0.00     0.218 A 
HETATM   17  N3  UNL     1      64.182  74.435 -91.697  1.00  0.00    -0.281 N 
HETATM   18  N4  UNL     1      63.536  73.338 -91.496  1.00  0.00    -0.131 N 
ATOM     19  H3  UNL     1      65.099  74.675 -91.318  1.00  0.00     0.188 HD
HETATM   20  C6  UNL     1      62.362  73.384 -92.161  1.00  0.00     0.702 A 
ATOM     21  H4  UNL     1      63.860  72.557 -90.925  1.00  0.00     0.205 HD
BRANCH  20  22
HETATM   22  N5  UNL     1      61.427  72.322 -92.209  1.00  0.00    -0.164 N 
HETATM   23  C7  UNL     1      61.008  71.737 -91.160  1.00  0.00     0.215 C 
HETATM   24  N6  UNL     1      61.460  72.127 -89.884  1.00  0.00    -0.066 NA
HETATM   25  N7  UNL     1      60.055  70.660 -91.257  1.00  0.00    -0.066 NA
ATOM     26  H5  UNL     1      61.077  72.015 -93.116  1.00  0.00     0.186 HD
ENDBRANCH  20  22
ENDBRANCH  14  15
ENDBRANCH   1  14
BRANCH   6  27
HETATM   27  C12 UNL     1      59.072  76.139 -90.598  1.00  0.00     0.071 C 
BRANCH  27  28
HETATM   28  N8  UNL     1      59.355  75.787 -89.261  1.00  0.00    -0.369 N 
ATOM     29  H8  UNL     1      59.818  76.459 -88.650  1.00  0.00     0.165 HD
BRANCH  28  30
HETATM   30  C13 UNL     1      58.993  74.468 -88.743  1.00  0.00     0.031 A 
HETATM   31  C14 UNL     1      59.589  74.050 -87.582  1.00  0.00     0.030 A 
HETATM   32  C15 UNL     1      59.251  72.801 -87.090  1.00  0.00     0.019 A 
HETATM   33  C16 UNL     1      58.340  72.003 -87.749  1.00  0.00     0.025 A 
HETATM   34  C17 UNL     1      57.754  72.451 -88.917  1.00  0.00     0.019 A 
HETATM   35  C18 UNL     1      58.095  73.684 -89.394  1.00  0.00     0.030 A 
BRANCH  33  36
HETATM   36  P1  UNL     1      57.896  70.358 -87.098  1.00  0.00     0.239 P 
BRANCH  36  37
HETATM   37  O3  UNL     1      59.253  69.723 -86.184  1.00  0.00    -0.344 OA
ATOM     38  H3  UNL     1      59.178  70.011 -85.282  1.00  0.00     0.217 HD
ENDBRANCH  36  37
BRANCH  36  39
HETATM   39  O4  UNL     1      57.426  69.267 -88.331  1.00  0.00    -0.181 OA
BRANCH  39  40
HETATM   40  O5  UNL     1      58.378  69.039 -89.209  1.00  0.00    -0.244 OA
ATOM     41  H5  UNL     1      58.048  68.894 -90.088  1.00  0.00     0.254 HD
ENDBRANCH  39  40
ENDBRANCH  36  39
ENDBRANCH  33  36
ENDBRANCH  28  30
ENDBRANCH  27  28
ENDBRANCH   6  27
TORSDOF 14
ENDMDL
MODEL 2
REMARK VINA RESULT: -7.284758107      1.068      2.324
REMARK  14 active torsions:
REMARK  status: ('A' for Active; 'I' for Inactive)
REMARK    1  A    between atoms: N1_1  and  C1_5 
REMARK    2  A    between atoms: C1_5  and  C2_6 
REMARK    3  A    between atoms: C2_6  and  O1_7 
REMARK    4  A    between atoms: O1_7  and  C3_8 
REMARK    5  A    between atoms: C3_8  and  C4_9 
REMARK    6  A    between atoms: C4_9  and  N2_10 
REMARK    7  A    between atoms: C6_16  and  N5_17 
REMARK    8  A    between atoms: C11_26  and  C12_27 
REMARK    9  A    between atoms: C12_27  and  N8_28 
REMARK   10  A    between atoms: N8_28  and  C13_30 
REMARK   11  A    between atoms: C16_33  and  P1_34 
REMARK   12  A    between atoms: P1_34  and  O3_35 
REMARK   13  A    between atoms: P1_34  and  O4_37 
REMARK   14  A    between atoms: O4_37  and  O5_38 
ROOT
HETATM    1  C3  UNL     1      59.582  75.146 -92.651  1.00  0.00     0.090 C 
HETATM    2  C8  UNL     1      59.081  75.833 -93.896  1.00  0.00     0.067 C 
HETATM    3  C9  UNL     1      59.537  77.238 -94.066  1.00  0.00     0.170 C 
HETATM    4  O2  UNL     1      59.550  77.996 -92.893  1.00  0.00    -0.390 OA
HETATM    5  C10 UNL     1      60.359  77.413 -91.927  1.00  0.00     0.180 C 
HETATM    6  C11 UNL     1      59.634  76.119 -91.535  1.00  0.00     0.084 C 
ENDROOT
BRANCH   1   7
HETATM    7  O1  UNL     1      58.652  74.140 -92.335  1.00  0.00    -0.376 OA
BRANCH   7   8
HETATM    8  C2  UNL     1      58.284  73.348 -93.381  1.00  0.00     0.196 C 
BRANCH   8   9
HETATM    9  C1  UNL     1      58.549  71.865 -93.085  1.00  0.00     0.255 C 
BRANCH   9  10
HETATM   10  N1  UNL     1      58.601  71.070 -94.238  1.00  0.00    -0.077 N 
ATOM     11  H13 UNL     1      57.706  70.607 -94.400  1.00  0.00     0.274 HD
ATOM     12  H12 UNL     1      58.645  71.650 -95.076  1.00  0.00     0.274 HD
ATOM     13  H11 UNL     1      59.362  70.391 -94.226  1.00  0.00     0.274 HD
ENDBRANCH   9  10
ENDBRANCH   8   9
ENDBRANCH   7   8
ENDBRANCH   1   7
BRANCH   1  14
HETATM   14  C4  UNL     1      60.931  74.551 -92.950  1.00  0.00     0.187 C 
BRANCH  14  15
HETATM   15  N2  UNL     1      61.730  74.116 -91.868  1.00  0.00    -0.174 N 
HETATM   16  C5  UNL     1      61.496  73.233 -90.853  1.00  0.00     0.218 A 
HETATM   17  N3  UNL     1      62.569  73.083 -90.066  1.00  0.00    -0.281 N 
HETATM   18  N4  UNL     1      63.498  73.844 -90.535  1.00  0.00    -0.131 N 
ATOM     19  H3  UNL     1      62.637  72.479 -89.247  1.00  0.00     0.188 HD
HETATM   20  C6  UNL     1      63.036  74.491 -91.626  1.00  0.00     0.702 A 
ATOM     21  H4  UNL     1      64.434  73.942 -90.142  1.00  0.00     0.205 HD
BRANCH  20  22
HETATM   22  N5  UNL     1      63.775  75.452 -92.358  1.00  0.00    -0.164 N 
HETATM   23  C7  UNL     1      64.954  75.229 -92.777  1.00  0.00     0.215 C 
HETATM   24  N6  UNL     1      65.589  73.996 -92.531  1.00  0.00    -0.066 NA
HETATM   25  N7  UNL     1      65.668  76.238 -93.518  1.00  0.00    -0.066 NA
ATOM     26  H5  UNL     1      63.346  76.356 -92.556  1.00  0.00     0.186 HD
ENDBRANCH  20  22
ENDBRANCH  14  15
ENDBRANCH   1  14
BRANCH   6  27
HETATM   27  C12 UNL     1      58.426  76.445 -90.792  1.00  0.00     0.071 C 
BRANCH  27  28
HETATM   28  N8  UNL     1      58.280  76.209 -89.408  1.00  0.00    -0.369 N 
ATOM     29  H8  UNL     1      58.193  76.999 -88.768  1.00  0.00     0.165 HD
BRANCH  28  30
HETATM   30  C13 UNL     1      58.253  74.845 -88.880  1.00  0.00     0.031 A 
HETATM   31  C14 UNL     1      59.278  74.456 -88.058  1.00  0.00     0.030 A 
HETATM   32  C15 UNL     1      59.257  73.164 -87.559  1.00  0.00     0.019 A 
HETATM   33  C16 UNL     1      58.235  72.297 -87.881  1.00  0.00     0.025 A 
HETATM   34  C17 UNL     1      57.214  72.717 -88.712  1.00  0.00     0.019 A 
HETATM   35  C18 UNL     1      57.244  73.993 -89.199  1.00  0.00     0.030 A 
BRANCH  33  36
HETATM   36  P1  UNL     1      58.210  70.596 -87.222  1.00  0.00     0.239 P 
BRANCH  36  37
HETATM   37  O3  UNL     1      59.571  70.389 -86.134  1.00  0.00    -0.344 OA
ATOM     38  H3  UNL     1      59.253  70.394 -85.239  1.00  0.00     0.217 HD
ENDBRANCH  36  37
BRANCH  36  39
HETATM   39  O4  UNL     1      58.230  69.412 -88.458  1.00  0.00    -0.181 OA
BRANCH  39  40
HETATM   40  O5  UNL     1      58.939  69.770 -89.506  1.00  0.00    -0.244 OA
ATOM     41  H5  UNL     1      59.839  69.468 -89.467  1.00  0.00     0.254 HD
ENDBRANCH  39  40
ENDBRANCH  36  39
ENDBRANCH  33  36
ENDBRANCH  28  30
ENDBRANCH  27  28
ENDBRANCH   6  27
TORSDOF 14
ENDMDL
MODEL 3
REMARK VINA RESULT: -7.206472680      1.468      2.389
REMARK  14 active torsions:
REMARK  status: ('A' for Active; 'I' for Inactive)
REMARK    1  A    between atoms: N1_1  and  C1_5 
REMARK    2  A    between atoms: C1_5  and  C2_6 
REMARK    3  A    between atoms: C2_6  and  O1_7 
REMARK    4  A    between atoms: O1_7  and  C3_8 
REMARK    5  A    between atoms: C3_8  and  C4_9 
REMARK    6  A    between atoms: C4_9  and  N2_10 
REMARK    7  A    between atoms: C6_16  and  N5_17 
REMARK    8  A    between atoms: C11_26  and  C12_27 
REMARK    9  A    between atoms: C12_27  and  N8_28 
REMARK   10  A    between atoms: N8_28  and  C13_30 
REMARK   11  A    between atoms: C16_33  and  P1_34 
REMARK   12  A    between atoms: P1_34  and  O3_35 
REMARK   13  A    between atoms: P1_34  and  O4_37 
REMARK   14  A    between atoms: O4_37  and  O5_38 
ROOT
HETATM    1  C3  UNL     1      59.136  75.290 -92.392  1.00  0.00     0.090 C 
HETATM    2  C8  UNL     1      57.663  74.978 -92.483  1.00  0.00     0.067 C 
HETATM    3  C9  UNL     1      56.765  76.162 -92.435  1.00  0.00     0.170 C 
HETATM    4  O2  UNL     1      57.142  77.147 -91.520  1.00  0.00    -0.390 OA
HETATM    5  C10 UNL     1      58.424  77.611 -91.781  1.00  0.00     0.180 C 
HETATM    6  C11 UNL     1      59.345  76.426 -91.464  1.00  0.00     0.084 C 
ENDROOT
BRANCH   1   7
HETATM    7  O1  UNL     1      59.765  74.149 -91.865  1.00  0.00    -0.376 OA
BRANCH   7   8
HETATM    8  C2  UNL     1      59.179  72.964 -92.194  1.00  0.00     0.196 C 
BRANCH   8   9
HETATM    9  C1  UNL     1      59.807  71.792 -91.426  1.00  0.00     0.255 C 
BRANCH   9  10
HETATM   10  N1  UNL     1      60.617  72.199 -90.358  1.00  0.00    -0.077 N 
ATOM     11  H13 UNL     1      60.843  73.191 -90.431  1.00  0.00     0.274 HD
ATOM     12  H12 UNL     1      60.087  72.210 -89.486  1.00  0.00     0.274 HD
ATOM     13  H11 UNL     1      61.465  71.641 -90.259  1.00  0.00     0.274 HD
ENDBRANCH   9  10
ENDBRANCH   8   9
ENDBRANCH   7   8
ENDBRANCH   1   7
BRANCH   1  14
HETATM   14  C4  UNL     1      59.643  75.588 -93.777  1.00  0.00     0.187 C 
BRANCH  14  15
HETATM   15  N2  UNL     1      60.884  76.249 -93.912  1.00  0.00    -0.174 N 
HETATM   16  C5  UNL     1      61.207  77.529 -94.263  1.00  0.00     0.218 A 
HETATM   17  N3  UNL     1      62.527  77.741 -94.212  1.00  0.00    -0.281 N 
HETATM   18  N4  UNL     1      63.080  76.638 -93.840  1.00  0.00    -0.131 N 
ATOM     19  H3  UNL     1      63.008  78.615 -94.428  1.00  0.00     0.188 HD
HETATM   20  C6  UNL     1      62.124  75.704 -93.647  1.00  0.00     0.702 A 
ATOM     21  H4  UNL     1      64.081  76.493 -93.711  1.00  0.00     0.205 HD
BRANCH  20  22
HETATM   22  N5  UNL     1      62.381  74.358 -93.290  1.00  0.00    -0.164 N 
HETATM   23  C7  UNL     1      63.100  74.045 -92.289  1.00  0.00     0.215 C 
HETATM   24  N6  UNL     1      63.681  75.038 -91.476  1.00  0.00    -0.066 NA
HETATM   25  N7  UNL     1      63.335  72.661 -91.963  1.00  0.00    -0.066 NA
ATOM     26  H5  UNL     1      61.976  73.613 -93.856  1.00  0.00     0.186 HD
ENDBRANCH  20  22
ENDBRANCH  14  15
ENDBRANCH   1  14
BRANCH   6  27
HETATM   27  C12 UNL     1      59.368  76.200 -90.026  1.00  0.00     0.071 C 
BRANCH  27  28
HETATM   28  N8  UNL     1      58.245  75.764 -89.291  1.00  0.00    -0.369 N 
ATOM     29  H8  UNL     1      57.437  76.380 -89.193  1.00  0.00     0.165 HD
BRANCH  28  30
HETATM   30  C13 UNL     1      58.225  74.440 -88.669  1.00  0.00     0.031 A 
HETATM   31  C14 UNL     1      59.137  74.185 -87.678  1.00  0.00     0.030 A 
HETATM   32  C15 UNL     1      59.123  72.932 -87.088  1.00  0.00     0.019 A 
HETATM   33  C16 UNL     1      58.218  71.972 -87.488  1.00  0.00     0.025 A 
HETATM   34  C17 UNL     1      57.309  72.258 -88.489  1.00  0.00     0.019 A 
HETATM   35  C18 UNL     1      57.332  73.497 -89.064  1.00  0.00     0.030 A 
BRANCH  33  36
HETATM   36  P1  UNL     1      58.202  70.322 -86.709  1.00  0.00     0.239 P 
BRANCH  36  37
HETATM   37  O3  UNL     1      59.826  69.932 -86.170  1.00  0.00    -0.344 OA
ATOM     38  H3  UNL     1      60.166  70.662 -85.667  1.00  0.00     0.217 HD
ENDBRANCH  36  37
BRANCH  36  39
HETATM   39  O4  UNL     1      57.596  69.108 -87.754  1.00  0.00    -0.181 OA
BRANCH  39  40
HETATM   40  O5  UNL     1      57.470  67.938 -87.167  1.00  0.00    -0.244 OA
ATOM     41  H5  UNL     1      57.316  67.228 -87.779  1.00  0.00     0.254 HD
ENDBRANCH  39  40
ENDBRANCH  36  39
ENDBRANCH  33  36
ENDBRANCH  28  30
ENDBRANCH  27  28
ENDBRANCH   6  27
TORSDOF 14
ENDMDL
MODEL 4
REMARK VINA RESULT: -7.160952917      3.812      6.965
REMARK  14 active torsions:
REMARK  status: ('A' for Active; 'I' for Inactive)
REMARK    1  A    between atoms: N1_1  and  C1_5 
REMARK    2  A    between atoms: C1_5  and  C2_6 
REMARK    3  A    between atoms: C2_6  and  O1_7 
REMARK    4  A    between atoms: O1_7  and  C3_8 
REMARK    5  A    between atoms: C3_8  and  C4_9 
REMARK    6  A    between atoms: C4_9  and  N2_10 
REMARK    7  A    between atoms: C6_16  and  N5_17 
REMARK    8  A    between atoms: C11_26  and  C12_27 
REMARK    9  A    between atoms: C12_27  and  N8_28 
REMARK   10  A    between atoms: N8_28  and  C13_30 
REMARK   11  A    between atoms: C16_33  and  P1_34 
REMARK   12  A    between atoms: P1_34  and  O3_35 
REMARK   13  A    between atoms: P1_34  and  O4_37 
REMARK   14  A    between atoms: O4_37  and  O5_38 
ROOT
HETATM    1  C3  UNL     1      59.479  73.063 -89.902  1.00  0.00     0.090 C 
HETATM    2  C8  UNL     1      60.166  72.714 -88.605  1.00  0.00     0.067 C 
HETATM    3  C9  UNL     1      59.305  72.799 -87.395  1.00  0.00     0.170 C 
HETATM    4  O2  UNL     1      58.434  73.890 -87.371  1.00  0.00    -0.390 OA
HETATM    5  C10 UNL     1      57.594  73.887 -88.476  1.00  0.00     0.180 C 
HETATM    6  C11 UNL     1      58.514  74.163 -89.671  1.00  0.00     0.084 C 
ENDROOT
BRANCH   1   7
HETATM    7  O1  UNL     1      60.477  73.508 -90.787  1.00  0.00    -0.376 OA
BRANCH   7   8
HETATM    8  C2  UNL     1      61.720  73.002 -90.555  1.00  0.00     0.196 C 
BRANCH   8   9
HETATM    9  C1  UNL     1      62.559  72.960 -91.840  1.00  0.00     0.255 C 
BRANCH   9  10
HETATM   10  N1  UNL     1      62.009  73.710 -92.887  1.00  0.00    -0.077 N 
ATOM     11  H13 UNL     1      62.535  73.569 -93.750  1.00  0.00     0.274 HD
ATOM     12  H12 UNL     1      61.108  73.326 -93.174  1.00  0.00     0.274 HD
ATOM     13  H11 UNL     1      61.926  74.704 -92.672  1.00  0.00     0.274 HD
ENDBRANCH   9  10
ENDBRANCH   8   9
ENDBRANCH   7   8
ENDBRANCH   1   7
BRANCH   1  14
HETATM   14  C4  UNL     1      58.811  71.823 -90.431  1.00  0.00     0.187 C 
BRANCH  14  15
HETATM   15  N2  UNL     1      58.972  71.503 -91.797  1.00  0.00    -0.174 N 
HETATM   16  C5  UNL     1      59.616  70.477 -92.428  1.00  0.00     0.218 A 
HETATM   17  N3  UNL     1      59.467  70.538 -93.757  1.00  0.00    -0.281 N 
HETATM   18  N4  UNL     1      58.747  71.576 -94.016  1.00  0.00    -0.131 N 
ATOM     19  H3  UNL     1      59.853  69.885 -94.440  1.00  0.00     0.188 HD
HETATM   20  C6  UNL     1      58.423  72.193 -92.860  1.00  0.00     0.702 A 
ATOM     21  H4  UNL     1      58.466  71.882 -94.947  1.00  0.00     0.205 HD
BRANCH  20  22
HETATM   22  N5  UNL     1      57.687  73.400 -92.776  1.00  0.00    -0.164 N 
HETATM   23  C7  UNL     1      58.098  74.484 -93.298  1.00  0.00     0.215 C 
HETATM   24  N6  UNL     1      59.321  74.535 -93.995  1.00  0.00    -0.066 NA
HETATM   25  N7  UNL     1      57.315  75.689 -93.188  1.00  0.00    -0.066 NA
ATOM     26  H5  UNL     1      56.796  73.399 -92.280  1.00  0.00     0.186 HD
ENDBRANCH  20  22
ENDBRANCH  14  15
ENDBRANCH   1  14
BRANCH   6  27
HETATM   27  C12 UNL     1      58.977  75.543 -89.620  1.00  0.00     0.071 C 
BRANCH  27  28
HETATM   28  N8  UNL     1      58.207  76.636 -90.070  1.00  0.00    -0.369 N 
ATOM     29  H8  UNL     1      57.370  76.466 -90.629  1.00  0.00     0.165 HD
BRANCH  28  30
HETATM   30  C13 UNL     1      58.593  78.009 -89.745  1.00  0.00     0.031 A 
HETATM   31  C14 UNL     1      59.930  78.300 -89.681  1.00  0.00     0.030 A 
HETATM   32  C15 UNL     1      60.300  79.598 -89.371  1.00  0.00     0.019 A 
HETATM   33  C16 UNL     1      59.348  80.567 -89.133  1.00  0.00     0.025 A 
HETATM   34  C17 UNL     1      58.006  80.245 -89.206  1.00  0.00     0.019 A 
HETATM   35  C18 UNL     1      57.653  78.962 -89.512  1.00  0.00     0.030 A 
BRANCH  33  36
HETATM   36  P1  UNL     1      59.837  82.276 -88.725  1.00  0.00     0.239 P 
BRANCH  36  37
HETATM   37  O3  UNL     1      61.560  82.310 -88.394  1.00  0.00    -0.344 OA
ATOM     38  H3  UNL     1      61.865  83.209 -88.440  1.00  0.00     0.217 HD
ENDBRANCH  36  37
BRANCH  36  39
HETATM   39  O4  UNL     1      58.949  82.918 -87.410  1.00  0.00    -0.181 OA
BRANCH  39  40
HETATM   40  O5  UNL     1      59.104  84.216 -87.266  1.00  0.00    -0.244 OA
ATOM     41  H5  UNL     1      59.270  84.665 -88.086  1.00  0.00     0.254 HD
ENDBRANCH  39  40
ENDBRANCH  36  39
ENDBRANCH  33  36
ENDBRANCH  28  30
ENDBRANCH  27  28
ENDBRANCH   6  27
TORSDOF 14
ENDMDL
MODEL 5
REMARK VINA RESULT: -7.148386245      1.882      3.255
REMARK  14 active torsions:
REMARK  status: ('A' for Active; 'I' for Inactive)
REMARK    1  A    between atoms: N1_1  and  C1_5 
REMARK    2  A    between atoms: C1_5  and  C2_6 
REMARK    3  A    between atoms: C2_6  and  O1_7 
REMARK    4  A    between atoms: O1_7  and  C3_8 
REMARK    5  A    between atoms: C3_8  and  C4_9 
REMARK    6  A    between atoms: C4_9  and  N2_10 
REMARK    7  A    between atoms: C6_16  and  N5_17 
REMARK    8  A    between atoms: C11_26  and  C12_27 
REMARK    9  A    between atoms: C12_27  and  N8_28 
REMARK   10  A    between atoms: N8_28  and  C13_30 
REMARK   11  A    between atoms: C16_33  and  P1_34 
REMARK   12  A    between atoms: P1_34  and  O3_35 
REMARK   13  A    between atoms: P1_34  and  O4_37 
REMARK   14  A    between atoms: O4_37  and  O5_38 
ROOT
HETATM    1  C3  UNL     1      60.611  74.917 -92.464  1.00  0.00     0.090 C 
HETATM    2  C8  UNL     1      59.432  74.000 -92.669  1.00  0.00     0.067 C 
HETATM    3  C9  UNL     1      58.151  74.684 -92.991  1.00  0.00     0.170 C 
HETATM    4  O2  UNL     1      57.917  75.858 -92.271  1.00  0.00    -0.390 OA
HETATM    5  C10 UNL     1      58.938  76.779 -92.464  1.00  0.00     0.180 C 
HETATM    6  C11 UNL     1      60.164  76.155 -91.786  1.00  0.00     0.084 C 
ENDROOT
BRANCH   1   7
HETATM    7  O1  UNL     1      61.517  74.239 -91.629  1.00  0.00    -0.376 OA
BRANCH   7   8
HETATM    8  C2  UNL     1      61.336  72.891 -91.557  1.00  0.00     0.196 C 
BRANCH   8   9
HETATM    9  C1  UNL     1      61.661  72.354 -90.155  1.00  0.00     0.255 C 
BRANCH   9  10
HETATM   10  N1  UNL     1      62.707  73.041 -89.526  1.00  0.00    -0.077 N 
ATOM     11  H13 UNL     1      63.467  73.224 -90.182  1.00  0.00     0.274 HD
ATOM     12  H12 UNL     1      62.434  74.000 -89.313  1.00  0.00     0.274 HD
ATOM     13  H11 UNL     1      63.055  72.570 -88.691  1.00  0.00     0.274 HD
ENDBRANCH   9  10
ENDBRANCH   8   9
ENDBRANCH   7   8
ENDBRANCH   1   7
BRANCH   1  14
HETATM   14  C4  UNL     1      61.231  75.196 -93.807  1.00  0.00     0.187 C 
BRANCH  14  15
HETATM   15  N2  UNL     1      62.129  76.280 -93.921  1.00  0.00    -0.174 N 
HETATM   16  C5  UNL     1      62.012  77.510 -94.503  1.00  0.00     0.218 A 
HETATM   17  N3  UNL     1      63.113  78.251 -94.327  1.00  0.00    -0.281 N 
HETATM   18  N4  UNL     1      63.949  77.543 -93.649  1.00  0.00    -0.131 N 
ATOM     19  H3  UNL     1      63.262  79.202 -94.667  1.00  0.00     0.188 HD
HETATM   20  C6  UNL     1      63.398  76.340 -93.380  1.00  0.00     0.702 A 
ATOM     21  H4  UNL     1      64.880  77.843 -93.360  1.00  0.00     0.205 HD
BRANCH  20  22
HETATM   22  N5  UNL     1      64.063  75.289 -92.702  1.00  0.00    -0.164 N 
HETATM   23  C7  UNL     1      65.328  75.163 -92.716  1.00  0.00     0.215 C 
HETATM   24  N6  UNL     1      66.138  76.077 -93.417  1.00  0.00    -0.066 NA
HETATM   25  N7  UNL     1      65.961  74.078 -92.011  1.00  0.00    -0.066 NA
ATOM     26  H5  UNL     1      63.507  74.609 -92.183  1.00  0.00     0.186 HD
ENDBRANCH  20  22
ENDBRANCH  14  15
ENDBRANCH   1  14
BRANCH   6  27
HETATM   27  C12 UNL     1      59.982  76.173 -90.341  1.00  0.00     0.071 C 
BRANCH  27  28
HETATM   28  N8  UNL     1      58.765  75.838 -89.710  1.00  0.00    -0.369 N 
ATOM     29  H8  UNL     1      57.980  76.488 -89.754  1.00  0.00     0.165 HD
BRANCH  28  30
HETATM   30  C13 UNL     1      58.617  74.572 -88.993  1.00  0.00     0.031 A 
HETATM   31  C14 UNL     1      59.453  74.334 -87.934  1.00  0.00     0.030 A 
HETATM   32  C15 UNL     1      59.318  73.134 -87.255  1.00  0.00     0.019 A 
HETATM   33  C16 UNL     1      58.368  72.209 -87.634  1.00  0.00     0.025 A 
HETATM   34  C17 UNL     1      57.538  72.477 -88.706  1.00  0.00     0.019 A 
HETATM   35  C18 UNL     1      57.680  73.663 -89.369  1.00  0.00     0.030 A 
BRANCH  33  36
HETATM   36  P1  UNL     1      58.191  70.631 -86.738  1.00  0.00     0.239 P 
BRANCH  36  37
HETATM   37  O3  UNL     1      59.762  70.151 -86.118  1.00  0.00    -0.344 OA
ATOM     38  H3  UNL     1      60.258  69.745 -86.818  1.00  0.00     0.217 HD
ENDBRANCH  36  37
BRANCH  36  39
HETATM   39  O4  UNL     1      57.514  69.395 -87.709  1.00  0.00    -0.181 OA
BRANCH  39  40
HETATM   40  O5  UNL     1      57.547  68.211 -87.137  1.00  0.00    -0.244 OA
ATOM     41  H5  UNL     1      56.687  67.818 -87.043  1.00  0.00     0.254 HD
ENDBRANCH  39  40
ENDBRANCH  36  39
ENDBRANCH  33  36
ENDBRANCH  28  30
ENDBRANCH  27  28
ENDBRANCH   6  27
TORSDOF 14
ENDMDL
