MODEL 1
REMARK VINA RESULT: -7.997901196      0.000      0.000
REMARK  13 active torsions:
REMARK  status: ('A' for Active; 'I' for Inactive)
REMARK       I    between atoms: C1_4  and  N2_5 
REMARK       I    between atoms: C1_4  and  N6_28 
REMARK    1  A    between atoms: N2_5  and  C2_7 
REMARK    2  A    between atoms: C2_7  and  C3_8 
REMARK    3  A    between atoms: C2_7  and  N3_15 
REMARK    4  A    between atoms: C3_8  and  C4_9 
REMARK    5  A    between atoms: C4_9  and  P1_10 
REMARK    6  A    between atoms: P1_10  and  O1_11 
REMARK    7  A    between atoms: P1_10  and  O2_13 
REMARK       I    between atoms: N3_15  and  C5_17 
REMARK    8  A    between atoms: C5_17  and  C6_19 
REMARK    9  A    between atoms: C13_36  and  C14_37 
REMARK   10  A    between atoms: C14_37  and  C15_38 
REMARK   11  A    between atoms: C15_38  and  C16_39 
REMARK   12  A    between atoms: C17_40  and  C18_41 
REMARK   13  A    between atoms: C19_42  and  O5_43 
ROOT
HETATM    1  N1  UNL     1      60.969  76.844 -91.362  1.00  0.00    -0.234 N 
ATOM      2  H11 UNL     1      60.449  77.405 -90.687  1.00  0.00     0.174 HD
ATOM      3  H12 UNL     1      61.981  76.964 -91.339  1.00  0.00     0.174 HD
HETATM    4  C1  UNL     1      60.418  76.120 -92.131  1.00  0.00     0.681 C 
HETATM    5  N2  UNL     1      61.135  75.347 -93.062  1.00  0.00    -0.205 N 
ATOM      6  H2  UNL     1      60.570  74.700 -93.612  1.00  0.00     0.179 HD
HETATM    7  N6  UNL     1      58.945  75.946 -92.165  1.00  0.00    -0.142 N 
HETATM    8  C10 UNL     1      58.331  76.233 -93.413  1.00  0.00     0.223 A 
HETATM    9  N7  UNL     1      57.058  75.900 -93.545  1.00  0.00    -0.295 N 
ATOM     10  H7  UNL     1      56.571  76.081 -94.422  1.00  0.00     0.187 HD
HETATM   11  N8  UNL     1      56.391  75.309 -92.500  1.00  0.00    -0.309 N 
ATOM     12  H8  UNL     1      55.415  75.078 -92.681  1.00  0.00     0.186 HD
HETATM   13  C11 UNL     1      56.816  75.005 -91.332  1.00  0.00     0.137 A 
HETATM   14  C12 UNL     1      58.266  75.357 -91.098  1.00  0.00     0.075 A 
HETATM   15  C13 UNL     1      58.739  75.273 -89.910  1.00  0.00     0.040 C 
ENDROOT
BRANCH   5  16
HETATM   16  C2  UNL     1      62.519  75.328 -93.354  1.00  0.00     0.202 C 
BRANCH  16  17
HETATM   17  C3  UNL     1      63.424  74.638 -92.366  1.00  0.00     0.056 C 
BRANCH  17  18
HETATM   18  C4  UNL     1      64.701  74.135 -92.978  1.00  0.00     0.097 C 
BRANCH  18  19
HETATM   19  P1  UNL     1      66.173  75.144 -92.574  1.00  0.00     0.163 P 
BRANCH  19  20
HETATM   20  O1  UNL     1      67.664  74.452 -93.027  1.00  0.00    -0.350 OA
ATOM     21  H1  UNL     1      68.213  75.005 -93.571  1.00  0.00     0.217 HD
ENDBRANCH  19  20
BRANCH  19  22
HETATM   22  O2  UNL     1      66.032  76.723 -93.299  1.00  0.00    -0.350 OA
ATOM     23  H2  UNL     1      66.712  77.297 -92.965  1.00  0.00     0.217 HD
ENDBRANCH  19  22
ENDBRANCH  18  19
ENDBRANCH  17  18
ENDBRANCH  16  17
BRANCH  16  24
HETATM   24  N3  UNL     1      63.080  76.666 -93.641  1.00  0.00    -0.335 N 
HETATM   25  C5  UNL     1      62.949  77.207 -94.953  1.00  0.00     0.256 C 
HETATM   26  O3  UNL     1      62.367  76.569 -95.876  1.00  0.00    -0.268 OA
ATOM     27  H3  UNL     1      63.556  77.195 -92.910  1.00  0.00     0.164 HD
BRANCH  25  28
HETATM   28  C6  UNL     1      63.487  78.518 -95.256  1.00  0.00     0.063 A 
HETATM   29  C7  UNL     1      63.219  79.613 -94.474  1.00  0.00     0.111 A 
HETATM   30  N4  UNL     1      63.799  80.788 -94.791  1.00  0.00    -0.318 N 
HETATM   31  C8  UNL     1      64.634  80.924 -95.839  1.00  0.00     0.324 A 
ATOM     32  H4  UNL     1      63.598  81.606 -94.215  1.00  0.00     0.170 HD
HETATM   33  O4  UNL     1      65.171  82.009 -96.113  1.00  0.00    -0.247 OA
HETATM   34  N5  UNL     1      64.899  79.859 -96.608  1.00  0.00    -0.318 N 
HETATM   35  C9  UNL     1      64.348  78.653 -96.351  1.00  0.00     0.111 A 
ATOM     36  H5  UNL     1      65.529  79.962 -97.402  1.00  0.00     0.170 HD
ENDBRANCH  25  28
ENDBRANCH  16  24
ENDBRANCH   5  16
BRANCH  15  37
HETATM   37  C14 UNL     1      57.978  74.616 -88.808  1.00  0.00     0.058 C 
BRANCH  37  38
HETATM   38  C15 UNL     1      58.534  73.865 -88.031  1.00  0.00    -0.128 C 
BRANCH  38  39
HETATM   39  C16 UNL     1      59.173  72.994 -87.127  1.00  0.00     0.055 C 
HETATM   40  C17 UNL     1      58.924  71.730 -86.922  1.00  0.00     0.010 C 
BRANCH  40  41
HETATM   41  C18 UNL     1      57.941  70.884 -87.555  1.00  0.00     0.024 C 
HETATM   42  C19 UNL     1      58.001  69.550 -87.188  1.00  0.00     0.131 C 
BRANCH  42  43
HETATM   43  O5  UNL     1      58.973  69.222 -86.290  1.00  0.00    -0.373 OA
ATOM     44  H5  UNL     1      58.871  69.583 -85.417  1.00  0.00     0.216 HD
ENDBRANCH  42  43
ENDBRANCH  40  41
ENDBRANCH  38  39
ENDBRANCH  37  38
ENDBRANCH  15  37
TORSDOF 13
ENDMDL
MODEL 2
REMARK VINA RESULT: -7.916313650      1.770      2.280
REMARK  13 active torsions:
REMARK  status: ('A' for Active; 'I' for Inactive)
REMARK       I    between atoms: C1_4  and  N2_5 
REMARK       I    between atoms: C1_4  and  N6_28 
REMARK    1  A    between atoms: N2_5  and  C2_7 
REMARK    2  A    between atoms: C2_7  and  C3_8 
REMARK    3  A    between atoms: C2_7  and  N3_15 
REMARK    4  A    between atoms: C3_8  and  C4_9 
REMARK    5  A    between atoms: C4_9  and  P1_10 
REMARK    6  A    between atoms: P1_10  and  O1_11 
REMARK    7  A    between atoms: P1_10  and  O2_13 
REMARK       I    between atoms: N3_15  and  C5_17 
REMARK    8  A    between atoms: C5_17  and  C6_19 
REMARK    9  A    between atoms: C13_36  and  C14_37 
REMARK   10  A    between atoms: C14_37  and  C15_38 
REMARK   11  A    between atoms: C15_38  and  C16_39 
REMARK   12  A    between atoms: C17_40  and  C18_41 
REMARK   13  A    between atoms: C19_42  and  O5_43 
ROOT
HETATM    1  N1  UNL     1      60.945  76.435 -91.396  1.00  0.00    -0.234 N 
ATOM      2  H11 UNL     1      60.468  77.047 -90.735  1.00  0.00     0.174 HD
ATOM      3  H12 UNL     1      61.963  76.493 -91.384  1.00  0.00     0.174 HD
HETATM    4  C1  UNL     1      60.344  75.722 -92.136  1.00  0.00     0.681 C 
HETATM    5  N2  UNL     1      61.003  74.877 -93.048  1.00  0.00    -0.205 N 
ATOM      6  H2  UNL     1      60.394  74.249 -93.572  1.00  0.00     0.179 HD
HETATM    7  N6  UNL     1      58.862  75.637 -92.152  1.00  0.00    -0.142 N 
HETATM    8  C10 UNL     1      58.255  75.921 -93.404  1.00  0.00     0.223 A 
HETATM    9  N7  UNL     1      56.962  75.663 -93.514  1.00  0.00    -0.295 N 
ATOM     10  H7  UNL     1      56.478  75.846 -94.394  1.00  0.00     0.187 HD
HETATM   11  N8  UNL     1      56.272  75.147 -92.446  1.00  0.00    -0.309 N 
ATOM     12  H8  UNL     1      55.281  74.971 -92.611  1.00  0.00     0.186 HD
HETATM   13  C11 UNL     1      56.689  74.855 -91.272  1.00  0.00     0.137 A 
HETATM   14  C12 UNL     1      58.160  75.125 -91.061  1.00  0.00     0.075 A 
HETATM   15  C13 UNL     1      58.639  75.050 -89.875  1.00  0.00     0.040 C 
ENDROOT
BRANCH   5  16
HETATM   16  C2  UNL     1      62.380  74.763 -93.350  1.00  0.00     0.202 C 
BRANCH  16  17
HETATM   17  C3  UNL     1      63.245  74.020 -92.365  1.00  0.00     0.056 C 
BRANCH  17  18
HETATM   18  C4  UNL     1      62.645  72.719 -91.909  1.00  0.00     0.097 C 
BRANCH  18  19
HETATM   19  P1  UNL     1      62.115  72.714 -90.157  1.00  0.00     0.163 P 
BRANCH  19  20
HETATM   20  O1  UNL     1      62.019  74.255 -89.432  1.00  0.00    -0.350 OA
ATOM     21  H1  UNL     1      61.379  74.840 -89.820  1.00  0.00     0.217 HD
ENDBRANCH  19  20
BRANCH  19  22
HETATM   22  O2  UNL     1      60.575  71.912 -90.001  1.00  0.00    -0.350 OA
ATOM     23  H2  UNL     1      60.605  71.285 -89.288  1.00  0.00     0.217 HD
ENDBRANCH  19  22
ENDBRANCH  18  19
ENDBRANCH  17  18
ENDBRANCH  16  17
BRANCH  16  24
HETATM   24  N3  UNL     1      63.027  76.060 -93.649  1.00  0.00    -0.335 N 
HETATM   25  C5  UNL     1      62.690  76.742 -94.854  1.00  0.00     0.256 C 
HETATM   26  O3  UNL     1      61.854  76.264 -95.672  1.00  0.00    -0.268 OA
ATOM     27  H3  UNL     1      63.706  76.460 -93.001  1.00  0.00     0.164 HD
BRANCH  25  28
HETATM   28  C6  UNL     1      63.308  78.016 -95.166  1.00  0.00     0.063 A 
HETATM   29  C7  UNL     1      64.225  78.150 -96.177  1.00  0.00     0.111 A 
HETATM   30  N4  UNL     1      64.715  79.379 -96.441  1.00  0.00    -0.318 N 
HETATM   31  C8  UNL     1      64.334  80.474 -95.756  1.00  0.00     0.324 A 
ATOM     32  H4  UNL     1      65.402  79.483 -97.189  1.00  0.00     0.170 HD
HETATM   33  O4  UNL     1      64.784  81.601 -96.017  1.00  0.00    -0.247 OA
HETATM   34  N5  UNL     1      63.439  80.349 -94.767  1.00  0.00    -0.318 N 
HETATM   35  C9  UNL     1      62.911  79.148 -94.445  1.00  0.00     0.111 A 
ATOM     36  H5  UNL     1      63.151  81.177 -94.246  1.00  0.00     0.170 HD
ENDBRANCH  25  28
ENDBRANCH  16  24
ENDBRANCH   5  16
BRANCH  15  37
HETATM   37  C14 UNL     1      57.850  74.477 -88.746  1.00  0.00     0.058 C 
BRANCH  37  38
HETATM   38  C15 UNL     1      58.375  73.743 -87.931  1.00  0.00    -0.128 C 
BRANCH  38  39
HETATM   39  C16 UNL     1      58.984  72.888 -86.992  1.00  0.00     0.055 C 
HETATM   40  C17 UNL     1      58.785  71.608 -86.829  1.00  0.00     0.010 C 
BRANCH  40  41
HETATM   41  C18 UNL     1      57.901  70.727 -87.553  1.00  0.00     0.024 C 
HETATM   42  C19 UNL     1      58.018  69.388 -87.222  1.00  0.00     0.131 C 
BRANCH  42  43
HETATM   43  O5  UNL     1      58.946  69.088 -86.269  1.00  0.00    -0.373 OA
ATOM     44  H5  UNL     1      58.606  68.915 -85.399  1.00  0.00     0.216 HD
ENDBRANCH  42  43
ENDBRANCH  40  41
ENDBRANCH  38  39
ENDBRANCH  37  38
ENDBRANCH  15  37
TORSDOF 13
ENDMDL
MODEL 3
REMARK VINA RESULT: -7.875085262      4.317      7.505
REMARK  13 active torsions:
REMARK  status: ('A' for Active; 'I' for Inactive)
REMARK       I    between atoms: C1_4  and  N2_5 
REMARK       I    between atoms: C1_4  and  N6_28 
REMARK    1  A    between atoms: N2_5  and  C2_7 
REMARK    2  A    between atoms: C2_7  and  C3_8 
REMARK    3  A    between atoms: C2_7  and  N3_15 
REMARK    4  A    between atoms: C3_8  and  C4_9 
REMARK    5  A    between atoms: C4_9  and  P1_10 
REMARK    6  A    between atoms: P1_10  and  O1_11 
REMARK    7  A    between atoms: P1_10  and  O2_13 
REMARK       I    between atoms: N3_15  and  C5_17 
REMARK    8  A    between atoms: C5_17  and  C6_19 
REMARK    9  A    between atoms: C13_36  and  C14_37 
REMARK   10  A    between atoms: C14_37  and  C15_38 
REMARK   11  A    between atoms: C15_38  and  C16_39 
REMARK   12  A    between atoms: C17_40  and  C18_41 
REMARK   13  A    between atoms: C19_42  and  O5_43 
ROOT
HETATM    1  N1  UNL     1      58.644  76.206 -90.585  1.00  0.00    -0.234 N 
ATOM      2  H11 UNL     1      58.887  77.168 -90.819  1.00  0.00     0.174 HD
ATOM      3  H12 UNL     1      59.371  75.679 -90.102  1.00  0.00     0.174 HD
HETATM    4  C1  UNL     1      57.589  75.738 -90.879  1.00  0.00     0.681 C 
HETATM    5  N2  UNL     1      57.253  74.410 -90.557  1.00  0.00    -0.205 N 
ATOM      6  H2  UNL     1      56.296  74.141 -90.780  1.00  0.00     0.179 HD
HETATM    7  N6  UNL     1      56.531  76.505 -91.582  1.00  0.00    -0.142 N 
HETATM    8  C10 UNL     1      56.090  75.942 -92.809  1.00  0.00     0.223 A 
HETATM    9  N7  UNL     1      55.016  76.480 -93.363  1.00  0.00    -0.295 N 
ATOM     10  H7  UNL     1      54.656  76.110 -94.243  1.00  0.00     0.187 HD
HETATM   11  N8  UNL     1      54.386  77.536 -92.753  1.00  0.00    -0.309 N 
ATOM     12  H8  UNL     1      53.563  77.892 -93.240  1.00  0.00     0.186 HD
HETATM   13  C11 UNL     1      54.678  78.140 -91.664  1.00  0.00     0.137 A 
HETATM   14  C12 UNL     1      55.899  77.586 -90.968  1.00  0.00     0.075 A 
HETATM   15  C13 UNL     1      56.391  78.231 -89.976  1.00  0.00     0.040 C 
ENDROOT
BRANCH   5  16
HETATM   16  C2  UNL     1      58.039  73.390 -89.971  1.00  0.00     0.202 C 
BRANCH  16  17
HETATM   17  C3  UNL     1      57.764  73.048 -88.530  1.00  0.00     0.056 C 
BRANCH  17  18
HETATM   18  C4  UNL     1      58.862  72.247 -87.887  1.00  0.00     0.097 C 
BRANCH  18  19
HETATM   19  P1  UNL     1      58.270  70.829 -86.894  1.00  0.00     0.163 P 
BRANCH  19  20
HETATM   20  O1  UNL     1      57.328  69.695 -87.753  1.00  0.00    -0.350 OA
ATOM     21  H1  UNL     1      57.622  68.795 -87.679  1.00  0.00     0.217 HD
ENDBRANCH  19  20
BRANCH  19  22
HETATM   22  O2  UNL     1      59.620  70.010 -86.157  1.00  0.00    -0.350 OA
ATOM     23  H2  UNL     1      59.335  69.546 -85.379  1.00  0.00     0.217 HD
ENDBRANCH  19  22
ENDBRANCH  18  19
ENDBRANCH  17  18
ENDBRANCH  16  17
BRANCH  16  24
HETATM   24  N3  UNL     1      59.494  73.603 -90.127  1.00  0.00    -0.335 N 
HETATM   25  C5  UNL     1      60.119  73.251 -91.358  1.00  0.00     0.256 C 
HETATM   26  O3  UNL     1      59.459  72.759 -92.318  1.00  0.00    -0.268 OA
ATOM     27  H3  UNL     1      60.044  73.997 -89.363  1.00  0.00     0.164 HD
BRANCH  25  28
HETATM   28  C6  UNL     1      61.543  73.455 -91.536  1.00  0.00     0.063 A 
HETATM   29  C7  UNL     1      62.315  72.591 -92.272  1.00  0.00     0.111 A 
HETATM   30  N4  UNL     1      63.623  72.878 -92.436  1.00  0.00    -0.318 N 
HETATM   31  C8  UNL     1      64.194  73.980 -91.912  1.00  0.00     0.324 A 
ATOM     32  H4  UNL     1      64.202  72.236 -92.978  1.00  0.00     0.170 HD
HETATM   33  O4  UNL     1      65.396  74.238 -92.080  1.00  0.00    -0.247 OA
HETATM   34  N5  UNL     1      63.446  74.826 -91.192  1.00  0.00    -0.318 N 
HETATM   35  C9  UNL     1      62.131  74.598 -90.984  1.00  0.00     0.111 A 
ATOM     36  H5  UNL     1      63.878  75.659 -90.793  1.00  0.00     0.170 HD
ENDBRANCH  25  28
ENDBRANCH  16  24
ENDBRANCH   5  16
BRANCH  15  37
HETATM   37  C14 UNL     1      55.664  79.371 -89.344  1.00  0.00     0.058 C 
BRANCH  37  38
HETATM   38  C15 UNL     1      56.266  80.359 -88.970  1.00  0.00    -0.128 C 
BRANCH  38  39
HETATM   39  C16 UNL     1      56.967  81.503 -88.540  1.00  0.00     0.055 C 
HETATM   40  C17 UNL     1      58.252  81.627 -88.349  1.00  0.00     0.010 C 
BRANCH  40  41
HETATM   41  C18 UNL     1      59.295  80.646 -88.522  1.00  0.00     0.024 C 
HETATM   42  C19 UNL     1      60.583  81.142 -88.406  1.00  0.00     0.131 C 
BRANCH  42  43
HETATM   43  O5  UNL     1      60.687  82.477 -88.150  1.00  0.00    -0.373 OA
ATOM     44  H5  UNL     1      59.872  82.929 -87.967  1.00  0.00     0.216 HD
ENDBRANCH  42  43
ENDBRANCH  40  41
ENDBRANCH  38  39
ENDBRANCH  37  38
ENDBRANCH  15  37
TORSDOF 13
ENDMDL
MODEL 4
REMARK VINA RESULT: -7.870467560      2.391      2.908
REMARK  13 active torsions:
REMARK  status: ('A' for Active; 'I' for Inactive)
REMARK       I    between atoms: C1_4  and  N2_5 
REMARK       I    between atoms: C1_4  and  N6_28 
REMARK    1  A    between atoms: N2_5  and  C2_7 
REMARK    2  A    between atoms: C2_7  and  C3_8 
REMARK    3  A    between atoms: C2_7  and  N3_15 
REMARK    4  A    between atoms: C3_8  and  C4_9 
REMARK    5  A    between atoms: C4_9  and  P1_10 
REMARK    6  A    between atoms: P1_10  and  O1_11 
REMARK    7  A    between atoms: P1_10  and  O2_13 
REMARK       I    between atoms: N3_15  and  C5_17 
REMARK    8  A    between atoms: C5_17  and  C6_19 
REMARK    9  A    between atoms: C13_36  and  C14_37 
REMARK   10  A    between atoms: C14_37  and  C15_38 
REMARK   11  A    between atoms: C15_38  and  C16_39 
REMARK   12  A    between atoms: C17_40  and  C18_41 
REMARK   13  A    between atoms: C19_42  and  O5_43 
ROOT
HETATM    1  N1  UNL     1      61.225  75.009 -90.147  1.00  0.00    -0.234 N 
ATOM      2  H11 UNL     1      61.016  75.023 -89.149  1.00  0.00     0.174 HD
ATOM      3  H12 UNL     1      62.216  75.062 -90.384  1.00  0.00     0.174 HD
HETATM    4  C1  UNL     1      60.363  74.955 -90.967  1.00  0.00     0.681 C 
HETATM    5  N2  UNL     1      60.653  74.936 -92.344  1.00  0.00    -0.205 N 
ATOM      6  H2  UNL     1      59.845  74.802 -92.953  1.00  0.00     0.179 HD
HETATM    7  N6  UNL     1      58.922  74.878 -90.622  1.00  0.00    -0.142 N 
HETATM    8  C10 UNL     1      58.114  75.910 -91.169  1.00  0.00     0.223 A 
HETATM    9  N7  UNL     1      56.804  75.768 -91.055  1.00  0.00    -0.295 N 
ATOM     10  H7  UNL     1      56.179  76.480 -91.435  1.00  0.00     0.187 HD
HETATM   11  N8  UNL     1      56.285  74.664 -90.427  1.00  0.00    -0.309 N 
ATOM     12  H8  UNL     1      55.267  74.625 -90.383  1.00  0.00     0.186 HD
HETATM   13  C11 UNL     1      56.891  73.675 -89.888  1.00  0.00     0.137 A 
HETATM   14  C12 UNL     1      58.397  73.762 -89.972  1.00  0.00     0.075 A 
HETATM   15  C13 UNL     1      59.104  72.928 -89.303  1.00  0.00     0.040 C 
ENDROOT
BRANCH   5  16
HETATM   16  C2  UNL     1      61.889  75.074 -93.015  1.00  0.00     0.202 C 
BRANCH  16  17
HETATM   17  C3  UNL     1      63.007  74.153 -92.599  1.00  0.00     0.056 C 
BRANCH  17  18
HETATM   18  C4  UNL     1      64.115  74.855 -91.865  1.00  0.00     0.097 C 
BRANCH  18  19
HETATM   19  P1  UNL     1      65.726  74.823 -92.733  1.00  0.00     0.163 P 
BRANCH  19  20
HETATM   20  O1  UNL     1      66.407  76.357 -93.038  1.00  0.00    -0.350 OA
ATOM     21  H1  UNL     1      65.865  76.938 -93.559  1.00  0.00     0.217 HD
ENDBRANCH  19  20
BRANCH  19  22
HETATM   22  O2  UNL     1      66.869  73.859 -91.838  1.00  0.00    -0.350 OA
ATOM     23  H2  UNL     1      67.123  73.099 -92.347  1.00  0.00     0.217 HD
ENDBRANCH  19  22
ENDBRANCH  18  19
ENDBRANCH  17  18
ENDBRANCH  16  17
BRANCH  16  24
HETATM   24  N3  UNL     1      62.408  76.459 -93.020  1.00  0.00    -0.335 N 
HETATM   25  C5  UNL     1      62.369  77.211 -94.230  1.00  0.00     0.256 C 
HETATM   26  O3  UNL     1      61.904  76.720 -95.298  1.00  0.00    -0.268 OA
ATOM     27  H3  UNL     1      62.789  76.871 -92.168  1.00  0.00     0.164 HD
BRANCH  25  28
HETATM   28  C6  UNL     1      62.866  78.572 -94.257  1.00  0.00     0.063 A 
HETATM   29  C7  UNL     1      64.163  78.865 -94.598  1.00  0.00     0.111 A 
HETATM   30  N4  UNL     1      64.536  80.160 -94.653  1.00  0.00    -0.318 N 
HETATM   31  C8  UNL     1      63.685  81.171 -94.392  1.00  0.00     0.324 A 
ATOM     32  H4  UNL     1      65.501  80.383 -94.901  1.00  0.00     0.170 HD
HETATM   33  O4  UNL     1      64.039  82.359 -94.457  1.00  0.00    -0.247 OA
HETATM   34  N5  UNL     1      62.419  80.891 -94.057  1.00  0.00    -0.318 N 
HETATM   35  C9  UNL     1      61.979  79.617 -93.978  1.00  0.00     0.111 A 
ATOM     36  H5  UNL     1      61.775  81.656 -93.857  1.00  0.00     0.170 HD
ENDBRANCH  25  28
ENDBRANCH  16  24
ENDBRANCH   5  16
BRANCH  15  37
HETATM   37  C14 UNL     1      58.494  71.738 -88.640  1.00  0.00     0.058 C 
BRANCH  37  38
HETATM   38  C15 UNL     1      58.532  70.645 -89.170  1.00  0.00    -0.128 C 
BRANCH  38  39
HETATM   39  C16 UNL     1      58.570  69.376 -89.782  1.00  0.00     0.055 C 
HETATM   40  C17 UNL     1      58.986  69.081 -90.984  1.00  0.00     0.010 C 
BRANCH  40  41
HETATM   41  C18 UNL     1      59.514  69.956 -92.003  1.00  0.00     0.024 C 
HETATM   42  C19 UNL     1      59.196  69.593 -93.301  1.00  0.00     0.131 C 
BRANCH  42  43
HETATM   43  O5  UNL     1      58.437  68.469 -93.436  1.00  0.00    -0.373 OA
ATOM     44  H5  UNL     1      58.814  67.774 -93.963  1.00  0.00     0.216 HD
ENDBRANCH  42  43
ENDBRANCH  40  41
ENDBRANCH  38  39
ENDBRANCH  37  38
ENDBRANCH  15  37
TORSDOF 13
ENDMDL
MODEL 5
REMARK VINA RESULT: -7.864522713      4.973      9.034
REMARK  13 active torsions:
REMARK  status: ('A' for Active; 'I' for Inactive)
REMARK       I    between atoms: C1_4  and  N2_5 
REMARK       I    between atoms: C1_4  and  N6_28 
REMARK    1  A    between atoms: N2_5  and  C2_7 
REMARK    2  A    between atoms: C2_7  and  C3_8 
REMARK    3  A    between atoms: C2_7  and  N3_15 
REMARK    4  A    between atoms: C3_8  and  C4_9 
REMARK    5  A    between atoms: C4_9  and  P1_10 
REMARK    6  A    between atoms: P1_10  and  O1_11 
REMARK    7  A    between atoms: P1_10  and  O2_13 
REMARK       I    between atoms: N3_15  and  C5_17 
REMARK    8  A    between atoms: C5_17  and  C6_19 
REMARK    9  A    between atoms: C13_36  and  C14_37 
REMARK   10  A    between atoms: C14_37  and  C15_38 
REMARK   11  A    between atoms: C15_38  and  C16_39 
REMARK   12  A    between atoms: C17_40  and  C18_41 
REMARK   13  A    between atoms: C19_42  and  O5_43 
ROOT
HETATM    1  N1  UNL     1      59.682  76.492 -91.541  1.00  0.00    -0.234 N 
ATOM      2  H11 UNL     1      59.640  77.494 -91.725  1.00  0.00     0.174 HD
ATOM      3  H12 UNL     1      60.597  76.139 -91.265  1.00  0.00     0.174 HD
HETATM    4  C1  UNL     1      58.726  75.793 -91.664  1.00  0.00     0.681 C 
HETATM    5  N2  UNL     1      58.784  74.409 -91.411  1.00  0.00    -0.205 N 
ATOM      6  H2  UNL     1      57.890  73.923 -91.465  1.00  0.00     0.179 HD
HETATM    7  N6  UNL     1      57.393  76.306 -92.066  1.00  0.00    -0.142 N 
HETATM    8  C10 UNL     1      56.841  75.708 -93.230  1.00  0.00     0.223 A 
HETATM    9  N7  UNL     1      55.578  75.989 -93.506  1.00  0.00    -0.295 N 
ATOM     10  H7  UNL     1      55.133  75.583 -94.329  1.00  0.00     0.187 HD
HETATM   11  N8  UNL     1      54.867  76.829 -92.685  1.00  0.00    -0.309 N 
ATOM     12  H8  UNL     1      53.899  76.993 -92.963  1.00  0.00     0.186 HD
HETATM   13  C11 UNL     1      55.239  77.436 -91.623  1.00  0.00     0.137 A 
HETATM   14  C12 UNL     1      56.676  77.169 -91.238  1.00  0.00     0.075 A 
HETATM   15  C13 UNL     1      57.207  77.870 -90.306  1.00  0.00     0.040 C 
ENDROOT
BRANCH   5  16
HETATM   16  C2  UNL     1      59.891  73.589 -91.093  1.00  0.00     0.202 C 
BRANCH  16  17
HETATM   17  C3  UNL     1      60.698  73.042 -92.243  1.00  0.00     0.056 C 
BRANCH  17  18
HETATM   18  C4  UNL     1      60.460  71.580 -92.496  1.00  0.00     0.097 C 
BRANCH  18  19
HETATM   19  P1  UNL     1      58.847  71.209 -93.278  1.00  0.00     0.163 P 
BRANCH  19  20
HETATM   20  O1  UNL     1      58.149  72.510 -94.133  1.00  0.00    -0.350 OA
ATOM     21  H1  UNL     1      58.206  72.443 -95.079  1.00  0.00     0.217 HD
ENDBRANCH  19  20
BRANCH  19  22
HETATM   22  O2  UNL     1      59.002  69.841 -94.346  1.00  0.00    -0.350 OA
ATOM     23  H2  UNL     1      59.844  69.863 -94.785  1.00  0.00     0.217 HD
ENDBRANCH  19  22
ENDBRANCH  18  19
ENDBRANCH  17  18
ENDBRANCH  16  17
BRANCH  16  24
HETATM   24  N3  UNL     1      59.555  72.467 -90.189  1.00  0.00    -0.335 N 
HETATM   25  C5  UNL     1      59.211  72.747 -88.835  1.00  0.00     0.256 C 
HETATM   26  O3  UNL     1      59.190  73.929 -88.389  1.00  0.00    -0.268 OA
ATOM     27  H3  UNL     1      59.568  71.506 -90.531  1.00  0.00     0.164 HD
BRANCH  25  28
HETATM   28  C6  UNL     1      58.873  71.665 -87.932  1.00  0.00     0.063 A 
HETATM   29  C7  UNL     1      59.149  71.725 -86.589  1.00  0.00     0.111 A 
HETATM   30  N4  UNL     1      58.755  70.701 -85.805  1.00  0.00    -0.318 N 
HETATM   31  C8  UNL     1      58.098  69.630 -86.288  1.00  0.00     0.324 A 
ATOM     32  H4  UNL     1      58.963  70.739 -84.806  1.00  0.00     0.170 HD
HETATM   33  O4  UNL     1      57.730  68.699 -85.554  1.00  0.00    -0.247 OA
HETATM   34  N5  UNL     1      57.826  69.564 -87.598  1.00  0.00    -0.318 N 
HETATM   35  C9  UNL     1      58.196  70.552 -88.442  1.00  0.00     0.111 A 
ATOM     36  H5  UNL     1      57.331  68.752 -87.965  1.00  0.00     0.170 HD
ENDBRANCH  25  28
ENDBRANCH  16  24
ENDBRANCH   5  16
BRANCH  15  37
HETATM   37  C14 UNL     1      56.390  78.765 -89.436  1.00  0.00     0.058 C 
BRANCH  37  38
HETATM   38  C15 UNL     1      56.806  79.859 -89.106  1.00  0.00    -0.128 C 
BRANCH  38  39
HETATM   39  C16 UNL     1      57.287  81.128 -88.729  1.00  0.00     0.055 C 
HETATM   40  C17 UNL     1      58.511  81.461 -88.425  1.00  0.00     0.010 C 
BRANCH  40  41
HETATM   41  C18 UNL     1      59.696  80.638 -88.393  1.00  0.00     0.024 C 
HETATM   42  C19 UNL     1      60.882  81.334 -88.237  1.00  0.00     0.131 C 
BRANCH  42  43
HETATM   43  O5  UNL     1      60.770  82.690 -88.139  1.00  0.00    -0.373 OA
ATOM     44  H5  UNL     1      61.504  83.192 -88.471  1.00  0.00     0.216 HD
ENDBRANCH  42  43
ENDBRANCH  40  41
ENDBRANCH  38  39
ENDBRANCH  37  38
ENDBRANCH  15  37
TORSDOF 13
ENDMDL
