MODEL 1
REMARK VINA RESULT: -7.533649378      0.000      0.000
REMARK  15 active torsions:
REMARK  status: ('A' for Active; 'I' for Inactive)
REMARK    1  A    between atoms: C2_2  and  C4_4 
REMARK    2  A    between atoms: N1_6  and  C6_7 
REMARK    3  A    between atoms: C6_7  and  O1_8 
REMARK    4  A    between atoms: C6_7  and  N2_10 
REMARK    5  A    between atoms: C9_13  and  C11_15 
REMARK    6  A    between atoms: C11_15  and  C12_16 
REMARK    7  A    between atoms: C12_16  and  N3_17 
REMARK    8  A    between atoms: N3_17  and  C13_19 
REMARK    9  A    between atoms: C16_22  and  N4_23 
REMARK   10  A    between atoms: N4_23  and  N5_25 
REMARK   11  A    between atoms: N5_25  and  C17_26 
REMARK   12  A    between atoms: C17_26  and  C18_27 
REMARK   13  A    between atoms: C18_27  and  P1_28 
REMARK   14  A    between atoms: P1_28  and  O2_29 
REMARK   15  A    between atoms: P1_28  and  O3_31 
ROOT
HETATM    1  C12 UNL     1      62.355  72.497 -92.176  1.00  0.00     0.126 C 
ENDROOT
BRANCH   1   2
HETATM    2  C11 UNL     1      61.575  72.759 -90.903  1.00  0.00     0.081 C 
BRANCH   2   3
HETATM    3  C9  UNL     1      60.343  73.594 -91.113  1.00  0.00     0.147 C 
HETATM    4  N1  UNL     1      60.287  74.793 -90.249  1.00  0.00    -0.313 N 
HETATM    5  C5  UNL     1      60.433  76.151 -90.679  1.00  0.00     0.155 C 
HETATM    6  C4  UNL     1      59.189  76.713 -91.326  1.00  0.00     0.108 C 
HETATM    7  N8  UNL     1      59.065  76.106 -92.635  1.00  0.00    -0.330 N 
HETATM    8  C19 UNL     1      59.719  74.986 -93.158  1.00  0.00     0.363 C 
ATOM      9  H8  UNL     1      58.406  76.562 -93.266  1.00  0.00     0.165 HD
HETATM   10  O4  UNL     1      60.395  73.996 -92.478  1.00  0.00    -0.272 OA
HETATM   11  O5  UNL     1      59.681  74.873 -94.421  1.00  0.00    -0.238 OA
HETATM   12  C10 UNL     1      59.135  72.721 -90.951  1.00  0.00     0.072 C 
BRANCH   4  13
HETATM   13  C6  UNL     1      60.053  74.531 -88.922  1.00  0.00     0.218 C 
BRANCH  13  14
HETATM   14  O1  UNL     1      61.105  74.795 -88.154  1.00  0.00    -0.332 OA
ATOM     15  H1  UNL     1      61.190  74.190 -87.426  1.00  0.00     0.220 HD
ENDBRANCH  13  14
BRANCH  13  16
HETATM   16  N2  UNL     1      59.006  74.059 -88.144  1.00  0.00    -0.356 N 
HETATM   17  C7  UNL     1      57.667  74.737 -88.240  1.00  0.00     0.152 C 
HETATM   18  C8  UNL     1      59.025  72.982 -87.225  1.00  0.00     0.152 C 
ENDBRANCH  13  16
ENDBRANCH   4  13
BRANCH   6  19
HETATM   19  C2  UNL     1      59.418  78.216 -91.466  1.00  0.00     0.002 C 
HETATM   20  C1  UNL     1      60.557  78.480 -92.400  1.00  0.00     0.011 C 
HETATM   21  C3  UNL     1      59.554  78.881 -90.133  1.00  0.00     0.011 C 
ENDBRANCH   6  19
ENDBRANCH   2   3
ENDBRANCH   1   2
BRANCH   1  22
HETATM   22  N3  UNL     1      63.703  72.991 -92.149  1.00  0.00    -0.375 N 
ATOM     23  H3  UNL     1      64.420  72.388 -91.746  1.00  0.00     0.161 HD
BRANCH  22  24
HETATM   24  C13 UNL     1      64.112  74.266 -92.647  1.00  0.00     0.115 A 
HETATM   25  C14 UNL     1      65.437  74.626 -92.729  1.00  0.00     0.053 A 
HETATM   26  C15 UNL     1      65.759  75.872 -93.243  1.00  0.00     0.054 A 
HETATM   27  C16 UNL     1      64.776  76.725 -93.659  1.00  0.00     0.131 A 
HETATM   28  N6  UNL     1      63.503  76.319 -93.554  1.00  0.00    -0.283 N 
HETATM   29  N7  UNL     1      63.191  75.151 -93.074  1.00  0.00    -0.284 N 
ATOM     30  H6  UNL     1      62.757  76.944 -93.860  1.00  0.00     0.188 HD
ATOM     31  H7  UNL     1      62.205  74.894 -93.018  1.00  0.00     0.188 HD
BRANCH  27  32
HETATM   32  N4  UNL     1      65.076  78.017 -94.195  1.00  0.00    -0.288 N 
ATOM     33  H4  UNL     1      66.007  78.211 -94.565  1.00  0.00     0.184 HD
BRANCH  32  34
HETATM   34  N5  UNL     1      64.108  79.002 -94.212  1.00  0.00    -0.139 NA
BRANCH  34  35
HETATM   35  C17 UNL     1      63.683  79.339 -95.560  1.00  0.00     0.144 C 
BRANCH  35  36
HETATM   36  C18 UNL     1      64.228  80.678 -95.974  1.00  0.00     0.111 C 
BRANCH  36  37
HETATM   37  P1  UNL     1      64.523  81.738 -94.483  1.00  0.00     0.164 P 
BRANCH  37  38
HETATM   38  O2  UNL     1      63.130  81.803 -93.467  1.00  0.00    -0.350 OA
ATOM     39  H2  UNL     1      62.439  82.327 -93.857  1.00  0.00     0.217 HD
ENDBRANCH  37  38
BRANCH  37  40
HETATM   40  O3  UNL     1      65.874  81.094 -93.583  1.00  0.00    -0.350 OA
ATOM     41  H3  UNL     1      65.666  80.211 -93.301  1.00  0.00     0.217 HD
ENDBRANCH  37  40
ENDBRANCH  36  37
ENDBRANCH  35  36
ENDBRANCH  34  35
ENDBRANCH  32  34
ENDBRANCH  27  32
ENDBRANCH  22  24
ENDBRANCH   1  22
TORSDOF 15
ENDMDL
MODEL 2
REMARK VINA RESULT: -7.532422082      2.025      4.262
REMARK  15 active torsions:
REMARK  status: ('A' for Active; 'I' for Inactive)
REMARK    1  A    between atoms: C2_2  and  C4_4 
REMARK    2  A    between atoms: N1_6  and  C6_7 
REMARK    3  A    between atoms: C6_7  and  O1_8 
REMARK    4  A    between atoms: C6_7  and  N2_10 
REMARK    5  A    between atoms: C9_13  and  C11_15 
REMARK    6  A    between atoms: C11_15  and  C12_16 
REMARK    7  A    between atoms: C12_16  and  N3_17 
REMARK    8  A    between atoms: N3_17  and  C13_19 
REMARK    9  A    between atoms: C16_22  and  N4_23 
REMARK   10  A    between atoms: N4_23  and  N5_25 
REMARK   11  A    between atoms: N5_25  and  C17_26 
REMARK   12  A    between atoms: C17_26  and  C18_27 
REMARK   13  A    between atoms: C18_27  and  P1_28 
REMARK   14  A    between atoms: P1_28  and  O2_29 
REMARK   15  A    between atoms: P1_28  and  O3_31 
ROOT
HETATM    1  C12 UNL     1      62.770  72.783 -91.337  1.00  0.00     0.126 C 
ENDROOT
BRANCH   1   2
HETATM    2  C11 UNL     1      61.501  73.024 -92.129  1.00  0.00     0.081 C 
BRANCH   2   3
HETATM    3  C9  UNL     1      60.332  73.442 -91.282  1.00  0.00     0.147 C 
HETATM    4  N1  UNL     1      59.369  72.350 -91.022  1.00  0.00    -0.313 N 
HETATM    5  C5  UNL     1      59.152  71.697 -89.766  1.00  0.00     0.155 C 
HETATM    6  C4  UNL     1      58.305  72.503 -88.808  1.00  0.00     0.108 C 
HETATM    7  N8  UNL     1      59.119  73.597 -88.322  1.00  0.00    -0.330 N 
HETATM    8  C19 UNL     1      60.333  74.087 -88.814  1.00  0.00     0.363 C 
ATOM      9  H8  UNL     1      58.753  74.081 -87.501  1.00  0.00     0.165 HD
HETATM   10  O4  UNL     1      60.902  73.874 -90.051  1.00  0.00    -0.272 OA
HETATM   11  O5  UNL     1      60.990  74.820 -88.013  1.00  0.00    -0.238 OA
HETATM   12  C10 UNL     1      59.680  74.634 -91.914  1.00  0.00     0.072 C 
BRANCH   4  13
HETATM   13  C6  UNL     1      58.624  71.973 -92.111  1.00  0.00     0.218 C 
BRANCH  13  14
HETATM   14  O1  UNL     1      57.526  72.708 -92.260  1.00  0.00    -0.332 OA
ATOM     15  H1  UNL     1      57.713  73.636 -92.338  1.00  0.00     0.220 HD
ENDBRANCH  13  14
BRANCH  13  16
HETATM   16  N2  UNL     1      58.698  71.022 -93.118  1.00  0.00    -0.356 N 
HETATM   17  C7  UNL     1      58.888  69.578 -92.742  1.00  0.00     0.152 C 
HETATM   18  C8  UNL     1      58.625  71.232 -94.517  1.00  0.00     0.152 C 
ENDBRANCH  13  16
ENDBRANCH   4  13
BRANCH   6  19
HETATM   19  C2  UNL     1      57.946  71.565 -87.658  1.00  0.00     0.002 C 
HETATM   20  C1  UNL     1      58.940  71.706 -86.548  1.00  0.00     0.011 C 
HETATM   21  C3  UNL     1      57.753  70.160 -88.130  1.00  0.00     0.011 C 
ENDBRANCH   6  19
ENDBRANCH   2   3
ENDBRANCH   1   2
BRANCH   1  22
HETATM   22  N3  UNL     1      63.517  73.974 -91.050  1.00  0.00    -0.375 N 
ATOM     23  H3  UNL     1      63.747  74.165 -90.075  1.00  0.00     0.161 HD
BRANCH  22  24
HETATM   24  C13 UNL     1      63.963  74.911 -92.032  1.00  0.00     0.115 A 
HETATM   25  C14 UNL     1      65.248  74.899 -92.522  1.00  0.00     0.053 A 
HETATM   26  C15 UNL     1      65.601  75.826 -93.490  1.00  0.00     0.054 A 
HETATM   27  C16 UNL     1      64.688  76.733 -93.946  1.00  0.00     0.131 A 
HETATM   28  N6  UNL     1      63.451  76.697 -93.431  1.00  0.00    -0.283 N 
HETATM   29  N7  UNL     1      63.109  75.831 -92.523  1.00  0.00    -0.284 N 
ATOM     30  H6  UNL     1      62.758  77.369 -93.760  1.00  0.00     0.188 HD
ATOM     31  H7  UNL     1      62.154  75.849 -92.167  1.00  0.00     0.188 HD
BRANCH  27  32
HETATM   32  N4  UNL     1      65.022  77.702 -94.944  1.00  0.00    -0.288 N 
ATOM     33  H4  UNL     1      66.000  77.925 -95.130  1.00  0.00     0.184 HD
BRANCH  32  34
HETATM   34  N5  UNL     1      64.023  78.335 -95.658  1.00  0.00    -0.139 NA
BRANCH  34  35
HETATM   35  C17 UNL     1      64.546  79.159 -96.734  1.00  0.00     0.144 C 
BRANCH  35  36
HETATM   36  C18 UNL     1      63.839  80.486 -96.785  1.00  0.00     0.111 C 
BRANCH  36  37
HETATM   37  P1  UNL     1      64.303  81.514 -95.314  1.00  0.00     0.164 P 
BRANCH  37  38
HETATM   38  O2  UNL     1      65.034  80.558 -94.079  1.00  0.00    -0.350 OA
ATOM     39  H2  UNL     1      65.923  80.313 -94.309  1.00  0.00     0.217 HD
ENDBRANCH  37  38
BRANCH  37  40
HETATM   40  O3  UNL     1      65.411  82.765 -95.821  1.00  0.00    -0.350 OA
ATOM     41  H3  UNL     1      65.840  83.128 -95.054  1.00  0.00     0.217 HD
ENDBRANCH  37  40
ENDBRANCH  36  37
ENDBRANCH  35  36
ENDBRANCH  34  35
ENDBRANCH  32  34
ENDBRANCH  27  32
ENDBRANCH  22  24
ENDBRANCH   1  22
TORSDOF 15
ENDMDL
MODEL 3
REMARK VINA RESULT: -7.338308518      1.370      1.584
REMARK  15 active torsions:
REMARK  status: ('A' for Active; 'I' for Inactive)
REMARK    1  A    between atoms: C2_2  and  C4_4 
REMARK    2  A    between atoms: N1_6  and  C6_7 
REMARK    3  A    between atoms: C6_7  and  O1_8 
REMARK    4  A    between atoms: C6_7  and  N2_10 
REMARK    5  A    between atoms: C9_13  and  C11_15 
REMARK    6  A    between atoms: C11_15  and  C12_16 
REMARK    7  A    between atoms: C12_16  and  N3_17 
REMARK    8  A    between atoms: N3_17  and  C13_19 
REMARK    9  A    between atoms: C16_22  and  N4_23 
REMARK   10  A    between atoms: N4_23  and  N5_25 
REMARK   11  A    between atoms: N5_25  and  C17_26 
REMARK   12  A    between atoms: C17_26  and  C18_27 
REMARK   13  A    between atoms: C18_27  and  P1_28 
REMARK   14  A    between atoms: P1_28  and  O2_29 
REMARK   15  A    between atoms: P1_28  and  O3_31 
ROOT
HETATM    1  C12 UNL     1      61.962  72.748 -90.980  1.00  0.00     0.126 C 
ENDROOT
BRANCH   1   2
HETATM    2  C11 UNL     1      60.726  72.064 -91.526  1.00  0.00     0.081 C 
BRANCH   2   3
HETATM    3  C9  UNL     1      59.648  73.020 -91.955  1.00  0.00     0.147 C 
HETATM    4  N1  UNL     1      59.160  73.889 -90.862  1.00  0.00    -0.313 N 
HETATM    5  C5  UNL     1      59.390  75.297 -90.736  1.00  0.00     0.155 C 
HETATM    6  C4  UNL     1      58.503  76.133 -91.629  1.00  0.00     0.108 C 
HETATM    7  N8  UNL     1      58.980  75.978 -92.987  1.00  0.00    -0.330 N 
HETATM    8  C19 UNL     1      59.861  75.028 -93.515  1.00  0.00     0.363 C 
ATOM      9  H8  UNL     1      58.622  76.660 -93.656  1.00  0.00     0.165 HD
HETATM   10  O4  UNL     1      60.246  73.823 -92.968  1.00  0.00    -0.272 OA
HETATM   11  O5  UNL     1      60.366  75.319 -94.642  1.00  0.00    -0.238 OA
HETATM   12  C10 UNL     1      58.541  72.242 -92.599  1.00  0.00     0.072 C 
BRANCH   4  13
HETATM   13  C6  UNL     1      58.405  73.246 -89.913  1.00  0.00     0.218 C 
BRANCH  13  14
HETATM   14  O1  UNL     1      57.105  73.490 -90.040  1.00  0.00    -0.332 OA
ATOM     15  H1  UNL     1      56.826  73.530 -90.947  1.00  0.00     0.220 HD
ENDBRANCH  13  14
BRANCH  13  16
HETATM   16  N2  UNL     1      58.626  72.396 -88.839  1.00  0.00    -0.356 N 
HETATM   17  C7  UNL     1      59.177  72.967 -87.562  1.00  0.00     0.152 C 
HETATM   18  C8  UNL     1      58.401  70.999 -88.778  1.00  0.00     0.152 C 
ENDBRANCH  13  16
ENDBRANCH   4  13
BRANCH   6  19
HETATM   19  C2  UNL     1      58.677  77.581 -91.175  1.00  0.00     0.002 C 
HETATM   20  C1  UNL     1      60.130  77.935 -91.128  1.00  0.00     0.011 C 
HETATM   21  C3  UNL     1      57.939  77.854 -89.904  1.00  0.00     0.011 C 
ENDBRANCH   6  19
ENDBRANCH   2   3
ENDBRANCH   1   2
BRANCH   1  22
HETATM   22  N3  UNL     1      63.058  72.806 -91.906  1.00  0.00    -0.375 N 
ATOM     23  H3  UNL     1      63.481  71.924 -92.194  1.00  0.00     0.161 HD
BRANCH  22  24
HETATM   24  C13 UNL     1      63.597  74.011 -92.453  1.00  0.00     0.115 A 
HETATM   25  C14 UNL     1      64.921  74.121 -92.810  1.00  0.00     0.053 A 
HETATM   26  C15 UNL     1      65.367  75.314 -93.356  1.00  0.00     0.054 A 
HETATM   27  C16 UNL     1      64.506  76.359 -93.533  1.00  0.00     0.131 A 
HETATM   28  N6  UNL     1      63.228  76.194 -93.166  1.00  0.00    -0.283 N 
HETATM   29  N7  UNL     1      62.799  75.077 -92.653  1.00  0.00    -0.284 N 
ATOM     30  H6  UNL     1      62.573  76.965 -93.290  1.00  0.00     0.188 HD
ATOM     31  H7  UNL     1      61.816  75.006 -92.392  1.00  0.00     0.188 HD
BRANCH  27  32
HETATM   32  N4  UNL     1      64.936  77.603 -94.093  1.00  0.00    -0.288 N 
ATOM     33  H4  UNL     1      65.928  77.769 -94.263  1.00  0.00     0.184 HD
BRANCH  32  34
HETATM   34  N5  UNL     1      64.010  78.580 -94.406  1.00  0.00    -0.139 NA
BRANCH  34  35
HETATM   35  C17 UNL     1      64.170  79.083 -95.760  1.00  0.00     0.144 C 
BRANCH  35  36
HETATM   36  C18 UNL     1      63.575  80.457 -95.894  1.00  0.00     0.111 C 
BRANCH  36  37
HETATM   37  P1  UNL     1      64.474  81.653 -94.802  1.00  0.00     0.164 P 
BRANCH  37  38
HETATM   38  O2  UNL     1      65.539  80.840 -93.715  1.00  0.00    -0.350 OA
ATOM     39  H2  UNL     1      66.447  80.944 -93.974  1.00  0.00     0.217 HD
ENDBRANCH  37  38
BRANCH  37  40
HETATM   40  O3  UNL     1      65.387  82.760 -95.798  1.00  0.00    -0.350 OA
ATOM     41  H3  UNL     1      65.932  83.302 -95.239  1.00  0.00     0.217 HD
ENDBRANCH  37  40
ENDBRANCH  36  37
ENDBRANCH  35  36
ENDBRANCH  34  35
ENDBRANCH  32  34
ENDBRANCH  27  32
ENDBRANCH  22  24
ENDBRANCH   1  22
TORSDOF 15
ENDMDL
MODEL 4
REMARK VINA RESULT: -7.235256776      1.963      2.183
REMARK  15 active torsions:
REMARK  status: ('A' for Active; 'I' for Inactive)
REMARK    1  A    between atoms: C2_2  and  C4_4 
REMARK    2  A    between atoms: N1_6  and  C6_7 
REMARK    3  A    between atoms: C6_7  and  O1_8 
REMARK    4  A    between atoms: C6_7  and  N2_10 
REMARK    5  A    between atoms: C9_13  and  C11_15 
REMARK    6  A    between atoms: C11_15  and  C12_16 
REMARK    7  A    between atoms: C12_16  and  N3_17 
REMARK    8  A    between atoms: N3_17  and  C13_19 
REMARK    9  A    between atoms: C16_22  and  N4_23 
REMARK   10  A    between atoms: N4_23  and  N5_25 
REMARK   11  A    between atoms: N5_25  and  C17_26 
REMARK   12  A    between atoms: C17_26  and  C18_27 
REMARK   13  A    between atoms: C18_27  and  P1_28 
REMARK   14  A    between atoms: P1_28  and  O2_29 
REMARK   15  A    between atoms: P1_28  and  O3_31 
ROOT
HETATM    1  C12 UNL     1      62.017  72.663 -91.081  1.00  0.00     0.126 C 
ENDROOT
BRANCH   1   2
HETATM    2  C11 UNL     1      60.765  71.998 -91.614  1.00  0.00     0.081 C 
BRANCH   2   3
HETATM    3  C9  UNL     1      59.677  72.968 -91.983  1.00  0.00     0.147 C 
HETATM    4  N1  UNL     1      59.225  73.807 -90.852  1.00  0.00    -0.313 N 
HETATM    5  C5  UNL     1      59.463  75.210 -90.693  1.00  0.00     0.155 C 
HETATM    6  C4  UNL     1      58.552  76.073 -91.534  1.00  0.00     0.108 C 
HETATM    7  N8  UNL     1      58.987  75.956 -92.910  1.00  0.00    -0.330 N 
HETATM    8  C19 UNL     1      59.849  75.019 -93.491  1.00  0.00     0.363 C 
ATOM      9  H8  UNL     1      58.611  76.657 -93.548  1.00  0.00     0.165 HD
HETATM   10  O4  UNL     1      60.247  73.799 -92.990  1.00  0.00    -0.272 OA
HETATM   11  O5  UNL     1      60.321  75.342 -94.624  1.00  0.00    -0.238 OA
HETATM   12  C10 UNL     1      58.549  72.212 -92.615  1.00  0.00     0.072 C 
BRANCH   4  13
HETATM   13  C6  UNL     1      58.497  73.138 -89.899  1.00  0.00     0.218 C 
BRANCH  13  14
HETATM   14  O1  UNL     1      57.197  73.404 -89.967  1.00  0.00    -0.332 OA
ATOM     15  H1  UNL     1      56.817  73.170 -90.806  1.00  0.00     0.220 HD
ENDBRANCH  13  14
BRANCH  13  16
HETATM   16  N2  UNL     1      58.746  72.246 -88.866  1.00  0.00    -0.356 N 
HETATM   17  C7  UNL     1      59.299  72.771 -87.570  1.00  0.00     0.152 C 
HETATM   18  C8  UNL     1      58.549  70.844 -88.865  1.00  0.00     0.152 C 
ENDBRANCH  13  16
ENDBRANCH   4  13
BRANCH   6  19
HETATM   19  C2  UNL     1      58.744  77.507 -91.044  1.00  0.00     0.002 C 
HETATM   20  C1  UNL     1      60.168  77.728 -90.643  1.00  0.00     0.011 C 
HETATM   21  C3  UNL     1      57.748  77.869 -89.990  1.00  0.00     0.011 C 
ENDBRANCH   6  19
ENDBRANCH   2   3
ENDBRANCH   1   2
BRANCH   1  22
HETATM   22  N3  UNL     1      63.093  72.733 -92.028  1.00  0.00    -0.375 N 
ATOM     23  H3  UNL     1      63.502  71.853 -92.346  1.00  0.00     0.161 HD
BRANCH  22  24
HETATM   24  C13 UNL     1      63.633  73.944 -92.559  1.00  0.00     0.115 A 
HETATM   25  C14 UNL     1      64.974  74.088 -92.830  1.00  0.00     0.053 A 
HETATM   26  C15 UNL     1      65.421  75.286 -93.365  1.00  0.00     0.054 A 
HETATM   27  C16 UNL     1      64.544  76.303 -93.617  1.00  0.00     0.131 A 
HETATM   28  N6  UNL     1      63.249  76.104 -93.332  1.00  0.00    -0.283 N 
HETATM   29  N7  UNL     1      62.819  74.983 -92.830  1.00  0.00    -0.284 N 
ATOM     30  H6  UNL     1      62.582  76.854 -93.513  1.00  0.00     0.188 HD
ATOM     31  H7  UNL     1      61.823  74.887 -92.634  1.00  0.00     0.188 HD
BRANCH  27  32
HETATM   32  N4  UNL     1      64.974  77.550 -94.168  1.00  0.00    -0.288 N 
ATOM     33  H4  UNL     1      65.895  77.624 -94.602  1.00  0.00     0.184 HD
BRANCH  32  34
HETATM   34  N5  UNL     1      64.146  78.654 -94.115  1.00  0.00    -0.139 NA
BRANCH  34  35
HETATM   35  C17 UNL     1      64.174  79.429 -95.344  1.00  0.00     0.144 C 
BRANCH  35  36
HETATM   36  C18 UNL     1      62.789  79.869 -95.731  1.00  0.00     0.111 C 
BRANCH  36  37
HETATM   37  P1  UNL     1      61.619  78.434 -95.660  1.00  0.00     0.164 P 
BRANCH  37  38
HETATM   38  O2  UNL     1      62.382  76.970 -96.159  1.00  0.00    -0.350 OA
ATOM     39  H2  UNL     1      61.751  76.349 -96.505  1.00  0.00     0.217 HD
ENDBRANCH  37  38
BRANCH  37  40
HETATM   40  O3  UNL     1      61.029  78.261 -94.025  1.00  0.00    -0.350 OA
ATOM     41  H3  UNL     1      60.204  77.789 -94.042  1.00  0.00     0.217 HD
ENDBRANCH  37  40
ENDBRANCH  36  37
ENDBRANCH  35  36
ENDBRANCH  34  35
ENDBRANCH  32  34
ENDBRANCH  27  32
ENDBRANCH  22  24
ENDBRANCH   1  22
TORSDOF 15
ENDMDL
MODEL 5
REMARK VINA RESULT: -7.216726198      3.802      7.826
REMARK  15 active torsions:
REMARK  status: ('A' for Active; 'I' for Inactive)
REMARK    1  A    between atoms: C2_2  and  C4_4 
REMARK    2  A    between atoms: N1_6  and  C6_7 
REMARK    3  A    between atoms: C6_7  and  O1_8 
REMARK    4  A    between atoms: C6_7  and  N2_10 
REMARK    5  A    between atoms: C9_13  and  C11_15 
REMARK    6  A    between atoms: C11_15  and  C12_16 
REMARK    7  A    between atoms: C12_16  and  N3_17 
REMARK    8  A    between atoms: N3_17  and  C13_19 
REMARK    9  A    between atoms: C16_22  and  N4_23 
REMARK   10  A    between atoms: N4_23  and  N5_25 
REMARK   11  A    between atoms: N5_25  and  C17_26 
REMARK   12  A    between atoms: C17_26  and  C18_27 
REMARK   13  A    between atoms: C18_27  and  P1_28 
REMARK   14  A    between atoms: P1_28  and  O2_29 
REMARK   15  A    between atoms: P1_28  and  O3_31 
ROOT
HETATM    1  C12 UNL     1      64.104  75.562 -93.073  1.00  0.00     0.126 C 
ENDROOT
BRANCH   1   2
HETATM    2  C11 UNL     1      63.192  76.125 -94.144  1.00  0.00     0.081 C 
BRANCH   2   3
HETATM    3  C9  UNL     1      61.914  76.704 -93.603  1.00  0.00     0.147 C 
HETATM    4  N1  UNL     1      60.697  76.081 -94.169  1.00  0.00    -0.313 N 
HETATM    5  C5  UNL     1      59.786  75.223 -93.472  1.00  0.00     0.155 C 
HETATM    6  C4  UNL     1      58.833  75.968 -92.566  1.00  0.00     0.108 C 
HETATM    7  N8  UNL     1      59.588  76.425 -91.419  1.00  0.00    -0.330 N 
HETATM    8  C19 UNL     1      60.973  76.498 -91.241  1.00  0.00     0.363 C 
ATOM      9  H8  UNL     1      59.029  76.738 -90.625  1.00  0.00     0.165 HD
HETATM   10  O4  UNL     1      61.961  76.463 -92.201  1.00  0.00    -0.272 OA
HETATM   11  O5  UNL     1      61.363  76.612 -90.039  1.00  0.00    -0.238 OA
HETATM   12  C10 UNL     1      61.935  78.189 -93.801  1.00  0.00     0.072 C 
BRANCH   4  13
HETATM   13  C6  UNL     1      60.449  76.398 -95.481  1.00  0.00     0.218 C 
BRANCH  13  14
HETATM   14  O1  UNL     1      60.640  75.370 -96.302  1.00  0.00    -0.332 OA
ATOM     15  H1  UNL     1      59.833  75.059 -96.694  1.00  0.00     0.220 HD
ENDBRANCH  13  14
BRANCH  13  16
HETATM   16  N2  UNL     1      60.047  77.512 -96.202  1.00  0.00    -0.356 N 
HETATM   17  C7  UNL     1      58.853  78.294 -95.727  1.00  0.00     0.152 C 
HETATM   18  C8  UNL     1      60.627  78.037 -97.383  1.00  0.00     0.152 C 
ENDBRANCH  13  16
ENDBRANCH   4  13
BRANCH   6  19
HETATM   19  C2  UNL     1      57.775  74.957 -92.130  1.00  0.00     0.002 C 
HETATM   20  C1  UNL     1      57.752  74.848 -90.637  1.00  0.00     0.011 C 
HETATM   21  C3  UNL     1      57.936  73.649 -92.836  1.00  0.00     0.011 C 
ENDBRANCH   6  19
ENDBRANCH   2   3
ENDBRANCH   1   2
BRANCH   1  22
HETATM   22  N3  UNL     1      63.899  74.167 -92.803  1.00  0.00    -0.375 N 
ATOM     23  H3  UNL     1      64.446  73.495 -93.342  1.00  0.00     0.161 HD
BRANCH  22  24
HETATM   24  C13 UNL     1      62.986  73.651 -91.833  1.00  0.00     0.115 A 
HETATM   25  C14 UNL     1      62.005  72.745 -92.164  1.00  0.00     0.053 A 
HETATM   26  C15 UNL     1      61.170  72.272 -91.164  1.00  0.00     0.054 A 
HETATM   27  C16 UNL     1      61.319  72.701 -89.876  1.00  0.00     0.131 A 
HETATM   28  N6  UNL     1      62.291  73.585 -89.614  1.00  0.00    -0.283 N 
HETATM   29  N7  UNL     1      63.082  74.034 -90.545  1.00  0.00    -0.284 N 
ATOM     30  H6  UNL     1      62.415  73.916 -88.657  1.00  0.00     0.188 HD
ATOM     31  H7  UNL     1      63.805  74.706 -90.289  1.00  0.00     0.188 HD
BRANCH  27  32
HETATM   32  N4  UNL     1      60.473  72.232 -88.823  1.00  0.00    -0.288 N 
ATOM     33  H4  UNL     1      60.733  72.395 -87.850  1.00  0.00     0.184 HD
BRANCH  32  34
HETATM   34  N5  UNL     1      59.304  71.558 -89.120  1.00  0.00    -0.139 NA
BRANCH  34  35
HETATM   35  C17 UNL     1      58.185  72.002 -88.305  1.00  0.00     0.144 C 
BRANCH  35  36
HETATM   36  C18 UNL     1      57.365  70.830 -87.839  1.00  0.00     0.111 C 
BRANCH  36  37
HETATM   37  P1  UNL     1      58.076  70.135 -86.275  1.00  0.00     0.164 P 
BRANCH  37  38
HETATM   38  O2  UNL     1      57.651  68.476 -86.070  1.00  0.00    -0.350 OA
ATOM     39  H2  UNL     1      57.908  67.955 -86.823  1.00  0.00     0.217 HD
ENDBRANCH  37  38
BRANCH  37  40
HETATM   40  O3  UNL     1      59.814  70.295 -86.318  1.00  0.00    -0.350 OA
ATOM     41  H3  UNL     1      60.048  71.192 -86.109  1.00  0.00     0.217 HD
ENDBRANCH  37  40
ENDBRANCH  36  37
ENDBRANCH  35  36
ENDBRANCH  34  35
ENDBRANCH  32  34
ENDBRANCH  27  32
ENDBRANCH  22  24
ENDBRANCH   1  22
TORSDOF 15
ENDMDL
