MODEL 1
REMARK VINA RESULT: -11.402349180      0.000      0.000
REMARK  6 active torsions:
REMARK  status: ('A' for Active; 'I' for Inactive)
REMARK    1  A    between atoms: O1_2  and  C2_3 
REMARK    2  A    between atoms: C3_4  and  O2_5 
REMARK    3  A    between atoms: C15_21  and  O6_22 
REMARK    4  A    between atoms: C24_40  and  N3_41 
REMARK    5  A    between atoms: C25_46  and  C26_47 
REMARK    6  A    between atoms: C26_47  and  O13_48 
ROOT
HETATM    1  C2  UNL     1      34.953   3.855 -12.960  1.00  0.00     0.135 A 
HETATM    2  C3  UNL     1      33.607   3.980 -13.268  1.00  0.00     0.104 A 
HETATM    3  C4  UNL     1      33.089   5.202 -13.637  1.00  0.00     0.078 A 
HETATM    4  C5  UNL     1      33.861   6.362 -13.722  1.00  0.00     0.099 A 
HETATM    5  O3  UNL     1      33.144   7.402 -14.094  1.00  0.00    -0.274 OA
HETATM    6  C6  UNL     1      33.506   8.667 -14.043  1.00  0.00     0.299 C 
HETATM    7  O4  UNL     1      32.568   9.519 -14.073  1.00  0.00    -0.259 OA
HETATM    8  C7  UNL     1      34.748   9.252 -13.960  1.00  0.00     0.057 A 
HETATM    9  C8  UNL     1      34.752  10.615 -14.182  1.00  0.00     0.058 A 
HETATM   10  C9  UNL     1      35.889  11.365 -14.141  1.00  0.00     0.103 A 
HETATM   11  C10 UNL     1      37.096  10.718 -13.863  1.00  0.00     0.104 A 
HETATM   12  C11 UNL     1      37.090   9.342 -13.639  1.00  0.00     0.056 A 
HETATM   13  C12 UNL     1      35.930   8.600 -13.684  1.00  0.00     0.034 A 
HETATM   14  C13 UNL     1      36.126   7.238 -13.434  1.00  0.00     0.199 C 
HETATM   15  O5  UNL     1      37.305   6.887 -13.197  1.00  0.00    -0.286 OA
HETATM   16  C14 UNL     1      35.197   6.218 -13.411  1.00  0.00     0.085 A 
HETATM   17  C15 UNL     1      35.722   4.996 -13.042  1.00  0.00     0.119 A 
HETATM   18  O7  UNL     1      38.211  11.486 -13.827  1.00  0.00    -0.332 OA
HETATM   19  C16 UNL     1      38.449  12.714 -14.501  1.00  0.00     0.131 C 
HETATM   20  C17 UNL     1      37.119  13.219 -15.062  1.00  0.00     0.217 C 
HETATM   21  O8  UNL     1      36.003  12.722 -14.347  1.00  0.00    -0.345 OA
HETATM   22  C18 UNL     1      38.999  13.758 -13.603  1.00  0.00     0.133 C 
HETATM   23  C19 UNL     1      39.548  13.420 -12.266  1.00  0.00     0.310 C 
HETATM   24  O9  UNL     1      40.892  13.777 -11.944  1.00  0.00    -0.261 OA
HETATM   25  C20 UNL     1      42.035  13.040 -12.310  1.00  0.00     0.317 C 
HETATM   26  O10 UNL     1      43.069  12.886 -11.683  1.00  0.00    -0.257 OA
HETATM   27  C21 UNL     1      41.977  12.356 -13.633  1.00  0.00     0.159 A 
HETATM   28  N1  UNL     1      40.825  12.531 -14.158  1.00  0.00    -0.330 N 
ATOM     29  H1  UNL     1      40.086  13.068 -13.704  1.00  0.00     0.168 HD
HETATM   30  C22 UNL     1      40.676  11.970 -15.315  1.00  0.00     0.160 A 
HETATM   31  O11 UNL     1      41.786  11.382 -15.592  1.00  0.00    -0.278 OA
HETATM   32  C23 UNL     1      42.626  11.610 -14.544  1.00  0.00     0.192 A 
HETATM   33  N2  UNL     1      43.964  11.183 -14.352  1.00  0.00    -0.072 NA
HETATM   34  C24 UNL     1      39.259  12.301 -15.744  1.00  0.00     0.295 C 
HETATM   35  O12 UNL     1      39.219  12.138 -11.813  1.00  0.00    -0.307 OA
HETATM   36  C25 UNL     1      39.404  12.144 -10.441  1.00  0.00     0.307 C 
HETATM   37  O14 UNL     1      38.477  13.032  -9.899  1.00  0.00    -0.236 OA
HETATM   38  S1  UNL     1      38.613  14.318 -10.969  1.00  0.00     0.329 S 
HETATM   39  O15 UNL     1      39.373  15.464 -10.444  1.00  0.00    -0.193 OA
HETATM   40  O16 UNL     1      37.297  14.758 -11.500  1.00  0.00    -0.193 OA
ENDROOT
BRANCH  34  41
HETATM   41  N3  UNL     1      39.364  13.331 -16.728  1.00  0.00    -0.065 N 
ATOM     42  H33 UNL     1      39.271  14.250 -16.297  1.00  0.00     0.275 HD
ATOM     43  H32 UNL     1      40.320  13.400 -17.076  1.00  0.00     0.275 HD
ATOM     44  H31 UNL     1      38.706  13.227 -17.501  1.00  0.00     0.275 HD
ENDBRANCH  34  41
BRANCH  36  45
HETATM   45  C26 UNL     1      39.019  10.764  -9.935  1.00  0.00     0.226 C 
BRANCH  45  46
HETATM   46  O13 UNL     1      39.905  10.321  -8.955  1.00  0.00    -0.396 OA
ATOM     47  H13 UNL     1      39.510  10.361  -8.092  1.00  0.00     0.209 HD
ENDBRANCH  45  46
ENDBRANCH  36  45
BRANCH  17  48
HETATM   48  O6  UNL     1      37.074   4.878 -12.734  1.00  0.00    -0.357 OA
ATOM     49  H6  UNL     1      37.693   4.971 -13.448  1.00  0.00     0.218 HD
ENDBRANCH  17  48
BRANCH   1  50
HETATM   50  O1  UNL     1      35.464   2.628 -12.591  1.00  0.00    -0.351 OA
HETATM   51  C1  UNL     1      35.790   2.244 -11.287  1.00  0.00     0.210 C 
ENDBRANCH   1  50
BRANCH   2  52
HETATM   52  O2  UNL     1      32.799   2.843 -13.195  1.00  0.00    -0.358 OA
ATOM     53  H2  UNL     1      32.942   2.144 -13.821  1.00  0.00     0.217 HD
ENDBRANCH   2  52
TORSDOF 6
ENDMDL
MODEL 2
REMARK VINA RESULT: -11.305715627      1.853      2.378
REMARK  6 active torsions:
REMARK  status: ('A' for Active; 'I' for Inactive)
REMARK    1  A    between atoms: O1_2  and  C2_3 
REMARK    2  A    between atoms: C3_4  and  O2_5 
REMARK    3  A    between atoms: C15_21  and  O6_22 
REMARK    4  A    between atoms: C24_40  and  N3_41 
REMARK    5  A    between atoms: C25_46  and  C26_47 
REMARK    6  A    between atoms: C26_47  and  O13_48 
ROOT
HETATM    1  C2  UNL     1      35.506   4.575 -13.019  1.00  0.00     0.135 A 
HETATM    2  C3  UNL     1      34.190   4.981 -13.176  1.00  0.00     0.104 A 
HETATM    3  C4  UNL     1      33.902   6.258 -13.604  1.00  0.00     0.078 A 
HETATM    4  C5  UNL     1      34.887   7.202 -13.900  1.00  0.00     0.099 A 
HETATM    5  O3  UNL     1      34.368   8.348 -14.289  1.00  0.00    -0.274 OA
HETATM    6  C6  UNL     1      34.998   9.497 -14.412  1.00  0.00     0.299 C 
HETATM    7  O4  UNL     1      34.272  10.536 -14.418  1.00  0.00    -0.259 OA
HETATM    8  C7  UNL     1      36.337   9.788 -14.539  1.00  0.00     0.057 A 
HETATM    9  C8  UNL     1      36.604  11.094 -14.899  1.00  0.00     0.058 A 
HETATM   10  C9  UNL     1      37.871  11.565 -15.071  1.00  0.00     0.103 A 
HETATM   11  C10 UNL     1      38.937  10.682 -14.874  1.00  0.00     0.104 A 
HETATM   12  C11 UNL     1      38.664   9.365 -14.510  1.00  0.00     0.056 A 
HETATM   13  C12 UNL     1      37.377   8.906 -14.340  1.00  0.00     0.034 A 
HETATM   14  C13 UNL     1      37.305   7.558 -13.976  1.00  0.00     0.199 C 
HETATM   15  O5  UNL     1      38.402   6.965 -13.846  1.00  0.00    -0.286 OA
HETATM   16  C14 UNL     1      36.191   6.780 -13.738  1.00  0.00     0.085 A 
HETATM   17  C15 UNL     1      36.485   5.502 -13.309  1.00  0.00     0.119 A 
HETATM   18  O7  UNL     1      40.185  11.177 -15.050  1.00  0.00    -0.332 OA
HETATM   19  C16 UNL     1      40.587  12.265 -15.871  1.00  0.00     0.131 C 
HETATM   20  C17 UNL     1      39.333  13.017 -16.318  1.00  0.00     0.217 C 
HETATM   21  O8  UNL     1      38.247  12.842 -15.428  1.00  0.00    -0.345 OA
HETATM   22  C18 UNL     1      41.469  13.219 -15.157  1.00  0.00     0.133 C 
HETATM   23  C19 UNL     1      42.113  12.865 -13.868  1.00  0.00     0.310 C 
HETATM   24  O9  UNL     1      43.534  12.929 -13.747  1.00  0.00    -0.261 OA
HETATM   25  C20 UNL     1      44.428  11.926 -14.168  1.00  0.00     0.317 C 
HETATM   26  O10 UNL     1      45.481  11.586 -13.657  1.00  0.00    -0.257 OA
HETATM   27  C21 UNL     1      44.040  11.177 -15.397  1.00  0.00     0.159 A 
HETATM   28  N1  UNL     1      42.892  11.571 -15.796  1.00  0.00    -0.330 N 
ATOM     29  H1  UNL     1      42.357  12.294 -15.315  1.00  0.00     0.168 HD
HETATM   30  C22 UNL     1      42.464  10.975 -16.863  1.00  0.00     0.160 A 
HETATM   31  O11 UNL     1      43.371  10.131 -17.208  1.00  0.00    -0.278 OA
HETATM   32  C23 UNL     1      44.379  10.238 -16.297  1.00  0.00     0.192 A 
HETATM   33  N2  UNL     1      45.605   9.532 -16.223  1.00  0.00    -0.072 NA
HETATM   34  C24 UNL     1      41.107  11.587 -17.152  1.00  0.00     0.295 C 
HETATM   35  O12 UNL     1      41.580  11.729 -13.249  1.00  0.00    -0.307 OA
HETATM   36  C25 UNL     1      41.952  11.794 -11.916  1.00  0.00     0.307 C 
HETATM   37  O14 UNL     1      41.324  12.907 -11.362  1.00  0.00    -0.236 OA
HETATM   38  S1  UNL     1      41.584  14.046 -12.568  1.00  0.00     0.329 S 
HETATM   39  O15 UNL     1      42.640  15.024 -12.259  1.00  0.00    -0.193 OA
HETATM   40  O16 UNL     1      40.334  14.734 -12.981  1.00  0.00    -0.193 OA
ENDROOT
BRANCH  34  41
HETATM   41  N3  UNL     1      41.294  12.491 -18.242  1.00  0.00    -0.065 N 
ATOM     42  H33 UNL     1      41.682  13.375 -17.915  1.00  0.00     0.275 HD
ATOM     43  H32 UNL     1      42.060  12.180 -18.840  1.00  0.00     0.275 HD
ATOM     44  H31 UNL     1      40.450  12.649 -18.792  1.00  0.00     0.275 HD
ENDBRANCH  34  41
BRANCH  36  45
HETATM   45  C26 UNL     1      41.351  10.579 -11.228  1.00  0.00     0.226 C 
BRANCH  45  46
HETATM   46  O13 UNL     1      42.153  10.150 -10.173  1.00  0.00    -0.396 OA
ATOM     47  H13 UNL     1      41.844   9.324  -9.821  1.00  0.00     0.209 HD
ENDBRANCH  45  46
ENDBRANCH  36  45
BRANCH  17  48
HETATM   48  O6  UNL     1      37.809   5.101 -13.154  1.00  0.00    -0.357 OA
ATOM     49  H6  UNL     1      38.463   5.785 -13.070  1.00  0.00     0.218 HD
ENDBRANCH  17  48
BRANCH   1  50
HETATM   50  O1  UNL     1      35.786   3.295 -12.589  1.00  0.00    -0.351 OA
HETATM   51  C1  UNL     1      36.201   2.945 -11.301  1.00  0.00     0.210 C 
ENDBRANCH   1  50
BRANCH   2  52
HETATM   52  O2  UNL     1      33.173   4.067 -12.890  1.00  0.00    -0.358 OA
ATOM     53  H2  UNL     1      32.280   4.385 -12.839  1.00  0.00     0.217 HD
ENDBRANCH   2  52
TORSDOF 6
ENDMDL
MODEL 3
REMARK VINA RESULT: -11.097573164      1.129      1.328
REMARK  6 active torsions:
REMARK  status: ('A' for Active; 'I' for Inactive)
REMARK    1  A    between atoms: O1_2  and  C2_3 
REMARK    2  A    between atoms: C3_4  and  O2_5 
REMARK    3  A    between atoms: C15_21  and  O6_22 
REMARK    4  A    between atoms: C24_40  and  N3_41 
REMARK    5  A    between atoms: C25_46  and  C26_47 
REMARK    6  A    between atoms: C26_47  and  O13_48 
ROOT
HETATM    1  C2  UNL     1      36.744   3.573 -11.857  1.00  0.00     0.135 A 
HETATM    2  C3  UNL     1      35.436   3.355 -12.261  1.00  0.00     0.104 A 
HETATM    3  C4  UNL     1      34.727   4.354 -12.889  1.00  0.00     0.078 A 
HETATM    4  C5  UNL     1      35.261   5.616 -13.155  1.00  0.00     0.099 A 
HETATM    5  O3  UNL     1      34.395   6.398 -13.764  1.00  0.00    -0.274 OA
HETATM    6  C6  UNL     1      34.495   7.699 -13.940  1.00  0.00     0.299 C 
HETATM    7  O4  UNL     1      33.416   8.315 -14.190  1.00  0.00    -0.259 OA
HETATM    8  C7  UNL     1      35.585   8.538 -13.902  1.00  0.00     0.057 A 
HETATM    9  C8  UNL     1      35.343   9.808 -14.386  1.00  0.00     0.058 A 
HETATM   10  C9  UNL     1      36.302  10.775 -14.427  1.00  0.00     0.103 A 
HETATM   11  C10 UNL     1      37.581  10.457 -13.959  1.00  0.00     0.104 A 
HETATM   12  C11 UNL     1      37.822   9.174 -13.471  1.00  0.00     0.056 A 
HETATM   13  C12 UNL     1      36.840   8.209 -13.437  1.00  0.00     0.034 A 
HETATM   14  C13 UNL     1      37.273   6.986 -12.916  1.00  0.00     0.199 C 
HETATM   15  O5  UNL     1      38.470   6.939 -12.547  1.00  0.00    -0.286 OA
HETATM   16  C14 UNL     1      36.564   5.814 -12.747  1.00  0.00     0.085 A 
HETATM   17  C15 UNL     1      37.280   4.818 -12.116  1.00  0.00     0.119 A 
HETATM   18  O7  UNL     1      38.515  11.437 -14.010  1.00  0.00    -0.332 OA
HETATM   19  C16 UNL     1      38.572  12.546 -14.897  1.00  0.00     0.131 C 
HETATM   20  C17 UNL     1      37.229  12.651 -15.620  1.00  0.00     0.217 C 
HETATM   21  O8  UNL     1      36.168  12.067 -14.887  1.00  0.00    -0.345 OA
HETATM   22  C18 UNL     1      38.818  13.826 -14.189  1.00  0.00     0.133 C 
HETATM   23  C19 UNL     1      39.291  13.857 -12.783  1.00  0.00     0.310 C 
HETATM   24  O9  UNL     1      40.502  14.540 -12.461  1.00  0.00    -0.261 OA
HETATM   25  C20 UNL     1      41.797  14.007 -12.609  1.00  0.00     0.317 C 
HETATM   26  O10 UNL     1      42.776  14.188 -11.907  1.00  0.00    -0.257 OA
HETATM   27  C21 UNL     1      42.001  13.100 -13.774  1.00  0.00     0.159 A 
HETATM   28  N1  UNL     1      40.894  12.931 -14.388  1.00  0.00    -0.330 N 
ATOM     29  H1  UNL     1      40.024  13.373 -14.091  1.00  0.00     0.168 HD
HETATM   30  C22 UNL     1      40.968  12.153 -15.420  1.00  0.00     0.160 A 
HETATM   31  O11 UNL     1      42.193  11.772 -15.513  1.00  0.00    -0.278 OA
HETATM   32  C23 UNL     1      42.868  12.356 -14.483  1.00  0.00     0.192 A 
HETATM   33  N2  UNL     1      44.239  12.261 -14.136  1.00  0.00    -0.072 NA
HETATM   34  C24 UNL     1      39.562  12.096 -15.986  1.00  0.00     0.295 C 
HETATM   35  O12 UNL     1      39.177  12.637 -12.108  1.00  0.00    -0.307 OA
HETATM   36  C25 UNL     1      39.225  12.928 -10.755  1.00  0.00     0.307 C 
HETATM   37  O14 UNL     1      38.094  13.683 -10.451  1.00  0.00    -0.236 OA
HETATM   38  S1  UNL     1      38.078  14.755 -11.742  1.00  0.00     0.329 S 
HETATM   39  O15 UNL     1      38.545  16.111 -11.409  1.00  0.00    -0.193 OA
HETATM   40  O16 UNL     1      36.759  14.807 -12.423  1.00  0.00    -0.193 OA
ENDROOT
BRANCH  34  41
HETATM   41  N3  UNL     1      39.558  12.931 -17.145  1.00  0.00    -0.065 N 
ATOM     42  H33 UNL     1      40.372  12.741 -17.728  1.00  0.00     0.275 HD
ATOM     43  H32 UNL     1      38.817  12.651 -17.788  1.00  0.00     0.275 HD
ATOM     44  H31 UNL     1      39.491  13.926 -16.931  1.00  0.00     0.275 HD
ENDBRANCH  34  41
BRANCH  36  45
HETATM   45  C26 UNL     1      39.070  11.611 -10.012  1.00  0.00     0.226 C 
BRANCH  45  46
HETATM   46  O13 UNL     1      38.200  11.742  -8.932  1.00  0.00    -0.396 OA
ATOM     47  H13 UNL     1      38.531  11.286  -8.167  1.00  0.00     0.209 HD
ENDBRANCH  45  46
ENDBRANCH  36  45
BRANCH  17  48
HETATM   48  O6  UNL     1      38.593   5.043 -11.714  1.00  0.00    -0.357 OA
ATOM     49  H6  UNL     1      38.860   5.946 -11.586  1.00  0.00     0.218 HD
ENDBRANCH  17  48
BRANCH   1  50
HETATM   50  O1  UNL     1      37.448   2.568 -11.227  1.00  0.00    -0.351 OA
HETATM   51  C1  UNL     1      38.257   1.622 -11.865  1.00  0.00     0.210 C 
ENDBRANCH   1  50
BRANCH   2  52
HETATM   52  O2  UNL     1      34.863   2.106 -12.013  1.00  0.00    -0.358 OA
ATOM     53  H2  UNL     1      35.435   1.350 -11.948  1.00  0.00     0.217 HD
ENDBRANCH   2  52
TORSDOF 6
ENDMDL
MODEL 4
REMARK VINA RESULT: -10.854345715      4.198      6.964
REMARK  6 active torsions:
REMARK  status: ('A' for Active; 'I' for Inactive)
REMARK    1  A    between atoms: O1_2  and  C2_3 
REMARK    2  A    between atoms: C3_4  and  O2_5 
REMARK    3  A    between atoms: C15_21  and  O6_22 
REMARK    4  A    between atoms: C24_40  and  N3_41 
REMARK    5  A    between atoms: C25_46  and  C26_47 
REMARK    6  A    between atoms: C26_47  and  O13_48 
ROOT
HETATM    1  C2  UNL     1      37.923  11.272  -5.130  1.00  0.00     0.135 A 
HETATM    2  C3  UNL     1      37.314  12.464  -4.769  1.00  0.00     0.104 A 
HETATM    3  C4  UNL     1      37.096  13.446  -5.710  1.00  0.00     0.078 A 
HETATM    4  C5  UNL     1      37.461  13.311  -7.051  1.00  0.00     0.099 A 
HETATM    5  O3  UNL     1      37.149  14.379  -7.755  1.00  0.00    -0.274 OA
HETATM    6  C6  UNL     1      37.560  14.669  -8.971  1.00  0.00     0.299 C 
HETATM    7  O4  UNL     1      37.473  15.885  -9.317  1.00  0.00    -0.259 OA
HETATM    8  C7  UNL     1      38.081  13.874  -9.966  1.00  0.00     0.057 A 
HETATM    9  C8  UNL     1      38.164  14.486 -11.200  1.00  0.00     0.058 A 
HETATM   10  C9  UNL     1      38.653  13.855 -12.304  1.00  0.00     0.103 A 
HETATM   11  C10 UNL     1      39.086  12.532 -12.171  1.00  0.00     0.104 A 
HETATM   12  C11 UNL     1      39.002  11.917 -10.923  1.00  0.00     0.056 A 
HETATM   13  C12 UNL     1      38.504  12.570  -9.818  1.00  0.00     0.034 A 
HETATM   14  C13 UNL     1      38.499  11.789  -8.659  1.00  0.00     0.199 C 
HETATM   15  O5  UNL     1      38.949  10.625  -8.779  1.00  0.00    -0.286 OA
HETATM   16  C14 UNL     1      38.065  12.118  -7.391  1.00  0.00     0.085 A 
HETATM   17  C15 UNL     1      38.287  11.131  -6.453  1.00  0.00     0.119 A 
HETATM   18  O7  UNL     1      39.570  11.929 -13.283  1.00  0.00    -0.332 OA
HETATM   19  C16 UNL     1      39.257  12.214 -14.639  1.00  0.00     0.131 C 
HETATM   20  C17 UNL     1      38.497  13.540 -14.687  1.00  0.00     0.217 C 
HETATM   21  O8  UNL     1      38.779  14.370 -13.575  1.00  0.00    -0.345 OA
HETATM   22  C18 UNL     1      40.468  12.345 -15.485  1.00  0.00     0.133 C 
HETATM   23  C19 UNL     1      41.797  11.880 -15.015  1.00  0.00     0.310 C 
HETATM   24  O9  UNL     1      42.521  10.919 -15.784  1.00  0.00    -0.261 OA
HETATM   25  C20 UNL     1      42.311   9.528 -15.743  1.00  0.00     0.317 C 
HETATM   26  O10 UNL     1      43.134   8.635 -15.852  1.00  0.00    -0.257 OA
HETATM   27  C21 UNL     1      40.903   9.083 -15.541  1.00  0.00     0.159 A 
HETATM   28  N1  UNL     1      40.151  10.102 -15.371  1.00  0.00    -0.330 N 
ATOM     29  H1  UNL     1      40.504  11.058 -15.381  1.00  0.00     0.168 HD
HETATM   30  C22 UNL     1      38.901   9.817 -15.184  1.00  0.00     0.160 A 
HETATM   31  O11 UNL     1      38.799   8.536 -15.231  1.00  0.00    -0.278 OA
HETATM   32  C23 UNL     1      40.051   8.047 -15.455  1.00  0.00     0.192 A 
HETATM   33  N2  UNL     1      40.483   6.704 -15.590  1.00  0.00    -0.072 NA
HETATM   34  C24 UNL     1      38.205  11.153 -15.006  1.00  0.00     0.295 C 
HETATM   35  O12 UNL     1      41.866  11.620 -13.643  1.00  0.00    -0.307 OA
HETATM   36  C25 UNL     1      43.209  11.639 -13.304  1.00  0.00     0.307 C 
HETATM   37  O14 UNL     1      43.672  12.937 -13.508  1.00  0.00    -0.236 OA
HETATM   38  S1  UNL     1      42.972  13.288 -14.993  1.00  0.00     0.329 S 
HETATM   39  O15 UNL     1      43.906  13.236 -16.129  1.00  0.00    -0.193 OA
HETATM   40  O16 UNL     1      42.229  14.574 -14.982  1.00  0.00    -0.193 OA
ENDROOT
BRANCH  34  41
HETATM   41  N3  UNL     1      37.524  11.421 -16.232  1.00  0.00    -0.065 N 
ATOM     42  H33 UNL     1      37.923  10.871 -16.993  1.00  0.00     0.275 HD
ATOM     43  H32 UNL     1      36.582  11.030 -16.214  1.00  0.00     0.275 HD
ATOM     44  H31 UNL     1      37.499  12.411 -16.478  1.00  0.00     0.275 HD
ENDBRANCH  34  41
BRANCH  36  45
HETATM   45  C26 UNL     1      43.292  11.388 -11.807  1.00  0.00     0.226 C 
BRANCH  45  46
HETATM   46  O13 UNL     1      44.609  11.459 -11.357  1.00  0.00    -0.396 OA
ATOM     47  H13 UNL     1      45.105  12.103 -11.848  1.00  0.00     0.209 HD
ENDBRANCH  45  46
ENDBRANCH  36  45
BRANCH  17  48
HETATM   48  O6  UNL     1      38.898   9.936  -6.822  1.00  0.00    -0.357 OA
ATOM     49  H6  UNL     1      38.588   9.516  -7.616  1.00  0.00     0.218 HD
ENDBRANCH  17  48
BRANCH   1  50
HETATM   50  O1  UNL     1      38.139  10.294  -4.182  1.00  0.00    -0.351 OA
HETATM   51  C1  UNL     1      37.279   9.227  -3.907  1.00  0.00     0.210 C 
ENDBRANCH   1  50
BRANCH   2  52
HETATM   52  O2  UNL     1      36.934  12.640  -3.437  1.00  0.00    -0.358 OA
ATOM     53  H2  UNL     1      36.011  12.743  -3.239  1.00  0.00     0.217 HD
ENDBRANCH   2  52
TORSDOF 6
ENDMDL
MODEL 5
REMARK VINA RESULT: -10.497497162      3.820      7.308
REMARK  6 active torsions:
REMARK  status: ('A' for Active; 'I' for Inactive)
REMARK    1  A    between atoms: O1_2  and  C2_3 
REMARK    2  A    between atoms: C3_4  and  O2_5 
REMARK    3  A    between atoms: C15_21  and  O6_22 
REMARK    4  A    between atoms: C24_40  and  N3_41 
REMARK    5  A    between atoms: C25_46  and  C26_47 
REMARK    6  A    between atoms: C26_47  and  O13_48 
ROOT
HETATM    1  C2  UNL     1      37.659  11.949  -4.823  1.00  0.00     0.135 A 
HETATM    2  C3  UNL     1      37.135  13.226  -4.701  1.00  0.00     0.104 A 
HETATM    3  C4  UNL     1      37.027  14.043  -5.805  1.00  0.00     0.078 A 
HETATM    4  C5  UNL     1      37.426  13.650  -7.084  1.00  0.00     0.099 A 
HETATM    5  O3  UNL     1      37.225  14.599  -7.974  1.00  0.00    -0.274 OA
HETATM    6  C6  UNL     1      37.698  14.642  -9.202  1.00  0.00     0.299 C 
HETATM    7  O4  UNL     1      37.721  15.782  -9.754  1.00  0.00    -0.259 OA
HETATM    8  C7  UNL     1      38.189  13.650 -10.020  1.00  0.00     0.057 A 
HETATM    9  C8  UNL     1      38.362  14.031 -11.335  1.00  0.00     0.058 A 
HETATM   10  C9  UNL     1      38.838  13.183 -12.290  1.00  0.00     0.103 A 
HETATM   11  C10 UNL     1      39.159  11.876 -11.912  1.00  0.00     0.104 A 
HETATM   12  C11 UNL     1      38.984  11.495 -10.583  1.00  0.00     0.056 A 
HETATM   13  C12 UNL     1      38.502  12.365  -9.631  1.00  0.00     0.034 A 
HETATM   14  C13 UNL     1      38.395  11.800  -8.357  1.00  0.00     0.199 C 
HETATM   15  O5  UNL     1      38.755  10.604  -8.255  1.00  0.00    -0.286 OA
HETATM   16  C14 UNL     1      37.945  12.375  -7.186  1.00  0.00     0.085 A 
HETATM   17  C15 UNL     1      38.056  11.553  -6.084  1.00  0.00     0.119 A 
HETATM   18  O7  UNL     1      39.631  11.055 -12.881  1.00  0.00    -0.332 OA
HETATM   19  C16 UNL     1      39.389  11.122 -14.279  1.00  0.00     0.131 C 
HETATM   20  C17 UNL     1      38.738  12.470 -14.589  1.00  0.00     0.217 C 
HETATM   21  O8  UNL     1      39.047  13.459 -13.624  1.00  0.00    -0.345 OA
HETATM   22  C18 UNL     1      40.635  11.016 -15.077  1.00  0.00     0.133 C 
HETATM   23  C19 UNL     1      41.905  10.545 -14.472  1.00  0.00     0.310 C 
HETATM   24  O9  UNL     1      42.576   9.415 -15.030  1.00  0.00    -0.261 OA
HETATM   25  C20 UNL     1      42.256   8.070 -14.762  1.00  0.00     0.317 C 
HETATM   26  O10 UNL     1      43.008   7.115 -14.677  1.00  0.00    -0.257 OA
HETATM   27  C21 UNL     1      40.811   7.771 -14.554  1.00  0.00     0.159 A 
HETATM   28  N1  UNL     1      40.136   8.855 -14.596  1.00  0.00    -0.330 N 
ATOM     29  H1  UNL     1      40.564   9.768 -14.753  1.00  0.00     0.168 HD
HETATM   30  C22 UNL     1      38.863   8.698 -14.422  1.00  0.00     0.160 A 
HETATM   31  O11 UNL     1      38.660   7.440 -14.255  1.00  0.00    -0.278 OA
HETATM   32  C23 UNL     1      39.877   6.830 -14.332  1.00  0.00     0.192 A 
HETATM   33  N2  UNL     1      40.205   5.456 -14.215  1.00  0.00    -0.072 NA
HETATM   34  C24 UNL     1      38.269  10.092 -14.508  1.00  0.00     0.295 C 
HETATM   35  O12 UNL     1      41.906  10.523 -13.073  1.00  0.00    -0.307 OA
HETATM   36  C25 UNL     1      43.234  10.504 -12.679  1.00  0.00     0.307 C 
HETATM   37  O14 UNL     1      43.805  11.709 -13.080  1.00  0.00    -0.236 OA
HETATM   38  S1  UNL     1      43.187  11.846 -14.635  1.00  0.00     0.329 S 
HETATM   39  O15 UNL     1      44.152  11.529 -15.700  1.00  0.00    -0.193 OA
HETATM   40  O16 UNL     1      42.548  13.165 -14.880  1.00  0.00    -0.193 OA
ENDROOT
BRANCH  34  41
HETATM   41  N3  UNL     1      37.654  10.191 -15.794  1.00  0.00    -0.065 N 
ATOM     42  H33 UNL     1      37.203   9.311 -16.046  1.00  0.00     0.275 HD
ATOM     43  H32 UNL     1      36.835  10.798 -15.756  1.00  0.00     0.275 HD
ATOM     44  H31 UNL     1      38.291  10.493 -16.531  1.00  0.00     0.275 HD
ENDBRANCH  34  41
BRANCH  36  45
HETATM   45  C26 UNL     1      43.246  10.511 -11.160  1.00  0.00     0.226 C 
BRANCH  45  46
HETATM   46  O13 UNL     1      43.778  11.701 -10.666  1.00  0.00    -0.396 OA
ATOM     47  H13 UNL     1      43.091  12.291 -10.380  1.00  0.00     0.209 HD
ENDBRANCH  45  46
ENDBRANCH  36  45
BRANCH  17  48
HETATM   48  O6  UNL     1      38.583  10.271  -6.214  1.00  0.00    -0.357 OA
ATOM     49  H6  UNL     1      38.007   9.597  -6.554  1.00  0.00     0.218 HD
ENDBRANCH  17  48
BRANCH   1  50
HETATM   50  O1  UNL     1      37.765  11.138  -3.713  1.00  0.00    -0.351 OA
HETATM   51  C1  UNL     1      36.783  10.251  -3.261  1.00  0.00     0.210 C 
ENDBRANCH   1  50
BRANCH   2  52
HETATM   52  O2  UNL     1      36.725  13.659  -3.438  1.00  0.00    -0.358 OA
ATOM     53  H2  UNL     1      36.776  14.586  -3.238  1.00  0.00     0.217 HD
ENDBRANCH   2  52
TORSDOF 6
ENDMDL
