MODEL 1
REMARK VINA RESULT: -10.341070708      0.000      0.000
REMARK  3 active torsions:
REMARK  status: ('A' for Active; 'I' for Inactive)
REMARK    1  A    between atoms: O1_2  and  C2_3 
REMARK    2  A    between atoms: C4_5  and  O2_6 
REMARK    3  A    between atoms: C14_21  and  O6_22 
ROOT
HETATM    1  C2  UNL     1      36.860  11.270 -12.869  1.00  0.00     0.113 A 
HETATM    2  C3  UNL     1      36.748  10.736 -14.126  1.00  0.00     0.103 A 
HETATM    3  C4  UNL     1      37.320   9.522 -14.562  1.00  0.00     0.097 A 
HETATM    4  C5  UNL     1      38.090   8.829 -13.623  1.00  0.00     0.069 A 
HETATM    5  C6  UNL     1      38.266   9.345 -12.344  1.00  0.00     0.053 A 
HETATM    6  C7  UNL     1      37.682  10.560 -11.925  1.00  0.00     0.063 A 
HETATM    7  C8  UNL     1      38.365  11.269 -10.770  1.00  0.00     0.131 C 
HETATM    8  O3  UNL     1      38.029  11.316  -9.504  1.00  0.00    -0.268 OA
HETATM    9  C9  UNL     1      37.738  12.500  -8.815  1.00  0.00     0.340 C 
HETATM   10  O4  UNL     1      37.331  12.325  -7.675  1.00  0.00    -0.255 OA
HETATM   11  C10 UNL     1      37.884  13.761  -9.335  1.00  0.00     0.261 C 
HETATM   12  O5  UNL     1      37.339  14.680  -8.670  1.00  0.00    -0.281 OA
HETATM   13  C11 UNL     1      38.562  14.179 -10.521  1.00  0.00     0.070 C 
HETATM   14  C12 UNL     1      38.681  15.617 -10.602  1.00  0.00     0.118 C 
HETATM   15  N1  UNL     1      39.350  16.172 -11.728  1.00  0.00    -0.114 NA
HETATM   16  C13 UNL     1      39.078  13.326 -11.557  1.00  0.00     0.121 C 
HETATM   17  C14 UNL     1      39.577  12.039 -11.157  1.00  0.00     0.135 C 
HETATM   18  O7  UNL     1      38.967  13.942 -12.722  1.00  0.00    -0.336 OA
HETATM   19  C15 UNL     1      39.202  13.987 -14.053  1.00  0.00     0.181 C 
HETATM   20  C16 UNL     1      40.793  13.836 -14.276  1.00  0.00     0.204 C 
HETATM   21  O8  UNL     1      41.040  12.496 -14.304  1.00  0.00    -0.386 OA
HETATM   22  C17 UNL     1      41.942  11.977 -15.153  1.00  0.00     0.193 C 
HETATM   23  C18 UNL     1      42.596  10.699 -14.675  1.00  0.00     0.193 C 
HETATM   24  O9  UNL     1      41.821   9.561 -14.875  1.00  0.00    -0.387 OA
HETATM   25  C19 UNL     1      42.428   8.453 -14.284  1.00  0.00     0.193 C 
HETATM   26  C20 UNL     1      41.720   7.159 -14.487  1.00  0.00     0.193 C 
HETATM   27  O10 UNL     1      41.700   6.348 -13.368  1.00  0.00    -0.387 OA
HETATM   28  C21 UNL     1      41.208   5.088 -13.516  1.00  0.00     0.189 C 
HETATM   29  C22 UNL     1      39.713   4.943 -13.343  1.00  0.00     0.178 C 
HETATM   30  N2  UNL     1      39.318   4.154 -12.199  1.00  0.00    -0.257 N 
HETATM   31  N3  UNL     1      39.726   2.892 -11.965  1.00  0.00    -0.224 N 
ATOM     32  H3  UNL     1      40.359   2.369 -12.570  1.00  0.00     0.210 HD
HETATM   33  N4  UNL     1      39.206   2.426 -10.864  1.00  0.00    -0.226 N 
ATOM     34  H4  UNL     1      39.349   1.502 -10.456  1.00  0.00     0.210 HD
HETATM   35  N5  UNL     1      38.452   3.403 -10.386  1.00  0.00    -0.267 N 
ATOM     36  H5  UNL     1      37.904   3.355  -9.526  1.00  0.00     0.190 HD
HETATM   37  C23 UNL     1      38.519   4.477 -11.210  1.00  0.00     0.155 A 
HETATM   38  C24 UNL     1      37.810   5.791 -11.008  1.00  0.00     0.142 C 
HETATM   39  N6  UNL     1      38.531   6.670 -10.177  1.00  0.00    -0.337 N 
ATOM     40  H6  UNL     1      38.626   6.340  -9.216  1.00  0.00     0.168 HD
HETATM   41  C25 UNL     1      39.093   7.807 -10.391  1.00  0.00     0.192 C 
HETATM   42  N7  UNL     1      39.755   8.384  -9.212  1.00  0.00    -0.063 NA
HETATM   43  N8  UNL     1      39.174   8.521 -11.610  1.00  0.00    -0.330 N 
ATOM     44  H8  UNL     1      40.081   8.426 -12.066  1.00  0.00     0.168 HD
HETATM   45  C26 UNL     1      38.681  12.965 -14.928  1.00  0.00     0.082 C 
HETATM   46  C27 UNL     1      37.319  12.864 -15.469  1.00  0.00     0.244 C 
HETATM   47  O11 UNL     1      36.751  13.799 -16.010  1.00  0.00    -0.269 OA
HETATM   48  N9  UNL     1      36.550  11.578 -15.378  1.00  0.00    -0.319 N 
ATOM     49  H9  UNL     1      35.921  11.281 -16.124  1.00  0.00     0.169 HD
ENDROOT
BRANCH   1  50
HETATM   50  O1  UNL     1      36.119  12.496 -12.476  1.00  0.00    -0.353 OA
HETATM   51  C1  UNL     1      34.714  12.557 -12.562  1.00  0.00     0.210 C 
ENDBRANCH   1  50
BRANCH   3  52
HETATM   52  O2  UNL     1      37.158   8.994 -15.837  1.00  0.00    -0.358 OA
ATOM     53  H2  UNL     1      37.826   9.014 -16.512  1.00  0.00     0.217 HD
ENDBRANCH   3  52
BRANCH  17  54
HETATM   54  O6  UNL     1      40.855  11.623 -11.135  1.00  0.00    -0.356 OA
ATOM     55  H6  UNL     1      41.636  12.140 -11.292  1.00  0.00     0.218 HD
ENDBRANCH  17  54
TORSDOF 3
ENDMDL
MODEL 2
REMARK VINA RESULT: -10.142326458      3.593      7.292
REMARK  3 active torsions:
REMARK  status: ('A' for Active; 'I' for Inactive)
REMARK    1  A    between atoms: O1_2  and  C2_3 
REMARK    2  A    between atoms: C4_5  and  O2_6 
REMARK    3  A    between atoms: C14_21  and  O6_22 
ROOT
HETATM    1  C2  UNL     1      39.265  10.472 -11.835  1.00  0.00     0.113 A 
HETATM    2  C3  UNL     1      40.345  10.684 -11.019  1.00  0.00     0.103 A 
HETATM    3  C4  UNL     1      41.700  10.541 -11.387  1.00  0.00     0.097 A 
HETATM    4  C5  UNL     1      41.944  10.117 -12.696  1.00  0.00     0.069 A 
HETATM    5  C6  UNL     1      40.883   9.851 -13.555  1.00  0.00     0.053 A 
HETATM    6  C7  UNL     1      39.534  10.004 -13.170  1.00  0.00     0.063 A 
HETATM    7  C8  UNL     1      38.517   9.190 -13.949  1.00  0.00     0.131 C 
HETATM    8  O3  UNL     1      37.705   9.565 -14.907  1.00  0.00    -0.268 OA
HETATM    9  C9  UNL     1      36.310   9.470 -14.833  1.00  0.00     0.340 C 
HETATM   10  O4  UNL     1      35.726   9.981 -15.778  1.00  0.00    -0.255 OA
HETATM   11  C10 UNL     1      35.623   8.867 -13.810  1.00  0.00     0.261 C 
HETATM   12  O5  UNL     1      34.386   9.101 -13.786  1.00  0.00    -0.281 OA
HETATM   13  C11 UNL     1      36.108   8.016 -12.771  1.00  0.00     0.070 C 
HETATM   14  C12 UNL     1      35.034   7.403 -12.023  1.00  0.00     0.118 C 
HETATM   15  N1  UNL     1      35.375   6.517 -10.964  1.00  0.00    -0.114 NA
HETATM   16  C13 UNL     1      37.486   7.764 -12.445  1.00  0.00     0.121 C 
HETATM   17  C14 UNL     1      38.426   7.766 -13.531  1.00  0.00     0.135 C 
HETATM   18  O7  UNL     1      37.597   7.585 -11.139  1.00  0.00    -0.336 OA
HETATM   19  C15 UNL     1      38.345   7.268 -10.057  1.00  0.00     0.181 C 
HETATM   20  C16 UNL     1      38.998   5.817 -10.320  1.00  0.00     0.204 C 
HETATM   21  O8  UNL     1      40.149   6.046 -11.015  1.00  0.00    -0.386 OA
HETATM   22  C17 UNL     1      41.257   5.329 -10.772  1.00  0.00     0.193 C 
HETATM   23  C18 UNL     1      42.188   5.186 -11.956  1.00  0.00     0.193 C 
HETATM   24  O9  UNL     1      43.005   6.293 -12.166  1.00  0.00    -0.387 OA
HETATM   25  C19 UNL     1      43.727   6.143 -13.351  1.00  0.00     0.193 C 
HETATM   26  C20 UNL     1      44.687   7.241 -13.651  1.00  0.00     0.193 C 
HETATM   27  O10 UNL     1      44.724   7.607 -14.983  1.00  0.00    -0.387 OA
HETATM   28  C21 UNL     1      45.682   8.494 -15.363  1.00  0.00     0.189 C 
HETATM   29  C22 UNL     1      45.317   9.955 -15.227  1.00  0.00     0.178 C 
HETATM   30  N2  UNL     1      45.224  10.667 -16.481  1.00  0.00    -0.257 N 
HETATM   31  N3  UNL     1      46.211  10.734 -17.395  1.00  0.00    -0.224 N 
ATOM     32  H3  UNL     1      47.121  10.285 -17.295  1.00  0.00     0.210 HD
HETATM   33  N4  UNL     1      45.851  11.449 -18.424  1.00  0.00    -0.226 N 
ATOM     34  H4  UNL     1      46.405  11.658 -19.255  1.00  0.00     0.210 HD
HETATM   35  N5  UNL     1      44.616  11.846 -18.166  1.00  0.00    -0.267 N 
ATOM     36  H5  UNL     1      44.045  12.428 -18.780  1.00  0.00     0.190 HD
HETATM   37  C23 UNL     1      44.223  11.363 -16.962  1.00  0.00     0.155 A 
HETATM   38  C24 UNL     1      42.879  11.586 -16.317  1.00  0.00     0.142 C 
HETATM   39  N6  UNL     1      41.912  10.658 -16.751  1.00  0.00    -0.337 N 
ATOM     40  H6  UNL     1      41.679  10.741 -17.740  1.00  0.00     0.168 HD
HETATM   41  C25 UNL     1      41.266   9.726 -16.143  1.00  0.00     0.192 C 
HETATM   42  N7  UNL     1      40.337   8.978 -17.003  1.00  0.00    -0.063 NA
HETATM   43  N8  UNL     1      41.379   9.330 -14.790  1.00  0.00    -0.330 N 
ATOM     44  H8  UNL     1      41.937   8.485 -14.669  1.00  0.00     0.168 HD
HETATM   45  C26 UNL     1      39.500   8.056  -9.705  1.00  0.00     0.082 C 
HETATM   46  C27 UNL     1      39.521   9.334  -8.980  1.00  0.00     0.244 C 
HETATM   47  O11 UNL     1      38.921   9.509  -7.932  1.00  0.00    -0.269 OA
HETATM   48  N9  UNL     1      40.300  10.503  -9.509  1.00  0.00    -0.319 N 
ATOM     49  H9  UNL     1      40.779  11.149  -8.881  1.00  0.00     0.169 HD
ENDROOT
BRANCH   1  50
HETATM   50  O1  UNL     1      37.880  10.766 -11.386  1.00  0.00    -0.353 OA
HETATM   51  C1  UNL     1      37.190  11.903 -11.852  1.00  0.00     0.210 C 
ENDBRANCH   1  50
BRANCH   3  52
HETATM   52  O2  UNL     1      42.770  10.798 -10.540  1.00  0.00    -0.358 OA
ATOM     53  H2  UNL     1      42.692  11.224  -9.694  1.00  0.00     0.217 HD
ENDBRANCH   3  52
BRANCH  17  54
HETATM   54  O6  UNL     1      39.078   6.714 -14.056  1.00  0.00    -0.356 OA
ATOM     55  H6  UNL     1      38.994   5.799 -13.812  1.00  0.00     0.218 HD
ENDBRANCH  17  54
TORSDOF 3
ENDMDL
MODEL 3
REMARK VINA RESULT: -9.972259415      2.269      5.664
REMARK  3 active torsions:
REMARK  status: ('A' for Active; 'I' for Inactive)
REMARK    1  A    between atoms: O1_2  and  C2_3 
REMARK    2  A    between atoms: C4_5  and  O2_6 
REMARK    3  A    between atoms: C14_21  and  O6_22 
ROOT
HETATM    1  C2  UNL     1      41.506  11.218 -12.527  1.00  0.00     0.113 A 
HETATM    2  C3  UNL     1      40.593  11.537 -11.556  1.00  0.00     0.103 A 
HETATM    3  C4  UNL     1      39.522  10.724 -11.130  1.00  0.00     0.097 A 
HETATM    4  C5  UNL     1      39.375   9.499 -11.787  1.00  0.00     0.069 A 
HETATM    5  C6  UNL     1      40.251   9.142 -12.806  1.00  0.00     0.053 A 
HETATM    6  C7  UNL     1      41.321   9.967 -13.215  1.00  0.00     0.063 A 
HETATM    7  C8  UNL     1      41.831   9.751 -14.629  1.00  0.00     0.131 C 
HETATM    8  O3  UNL     1      42.898   9.113 -15.042  1.00  0.00    -0.268 OA
HETATM    9  C9  UNL     1      43.931   9.708 -15.777  1.00  0.00     0.340 C 
HETATM   10  O4  UNL     1      44.893   8.977 -15.965  1.00  0.00    -0.255 OA
HETATM   11  C10 UNL     1      43.905  10.992 -16.260  1.00  0.00     0.261 C 
HETATM   12  O5  UNL     1      45.011  11.431 -16.670  1.00  0.00    -0.281 OA
HETATM   13  C11 UNL     1      42.806  11.899 -16.364  1.00  0.00     0.070 C 
HETATM   14  C12 UNL     1      43.140  13.074 -17.135  1.00  0.00     0.118 C 
HETATM   15  N1  UNL     1      42.132  14.057 -17.331  1.00  0.00    -0.114 NA
HETATM   16  C13 UNL     1      41.501  11.731 -15.784  1.00  0.00     0.121 C 
HETATM   17  C14 UNL     1      40.998  10.389 -15.683  1.00  0.00     0.135 C 
HETATM   18  O7  UNL     1      41.023  12.915 -15.440  1.00  0.00    -0.336 OA
HETATM   19  C15 UNL     1      40.013  13.681 -14.970  1.00  0.00     0.181 C 
HETATM   20  C16 UNL     1      38.726  13.425 -15.907  1.00  0.00     0.204 C 
HETATM   21  O8  UNL     1      38.099  12.330 -15.390  1.00  0.00    -0.386 OA
HETATM   22  C17 UNL     1      36.759  12.256 -15.344  1.00  0.00     0.193 C 
HETATM   23  C18 UNL     1      36.202  10.851 -15.396  1.00  0.00     0.193 C 
HETATM   24  O9  UNL     1      36.235  10.187 -14.174  1.00  0.00    -0.387 OA
HETATM   25  C19 UNL     1      35.839   8.859 -14.335  1.00  0.00     0.193 C 
HETATM   26  C20 UNL     1      35.773   8.061 -13.079  1.00  0.00     0.193 C 
HETATM   27  O10 UNL     1      36.246   6.769 -13.209  1.00  0.00    -0.387 OA
HETATM   28  C21 UNL     1      36.079   5.931 -12.150  1.00  0.00     0.189 C 
HETATM   29  C22 UNL     1      37.172   5.964 -11.106  1.00  0.00     0.178 C 
HETATM   30  N2  UNL     1      37.929   4.738 -10.995  1.00  0.00    -0.257 N 
HETATM   31  N3  UNL     1      37.388   3.527 -10.761  1.00  0.00    -0.224 N 
ATOM     32  H3  UNL     1      36.389   3.354 -10.644  1.00  0.00     0.210 HD
HETATM   33  N4  UNL     1      38.307   2.605 -10.702  1.00  0.00    -0.226 N 
ATOM     34  H4  UNL     1      38.171   1.607 -10.538  1.00  0.00     0.210 HD
HETATM   35  N5  UNL     1      39.454   3.233 -10.901  1.00  0.00    -0.267 N 
ATOM     36  H5  UNL     1      40.373   2.789 -10.915  1.00  0.00     0.190 HD
HETATM   37  C23 UNL     1      39.224   4.557 -11.083  1.00  0.00     0.155 A 
HETATM   38  C24 UNL     1      40.271   5.607 -11.347  1.00  0.00     0.142 C 
HETATM   39  N6  UNL     1      40.601   5.708 -12.713  1.00  0.00    -0.337 N 
ATOM     40  H6  UNL     1      41.051   4.873 -13.089  1.00  0.00     0.168 HD
HETATM   41  C25 UNL     1      40.447   6.647 -13.579  1.00  0.00     0.192 C 
HETATM   42  N7  UNL     1      40.943   6.315 -14.923  1.00  0.00    -0.063 NA
HETATM   43  N8  UNL     1      39.833   7.908 -13.394  1.00  0.00    -0.330 N 
ATOM     44  H8  UNL     1      38.883   7.945 -13.761  1.00  0.00     0.168 HD
HETATM   45  C26 UNL     1      39.471  13.459 -13.652  1.00  0.00     0.082 C 
HETATM   46  C27 UNL     1      40.025  13.918 -12.371  1.00  0.00     0.244 C 
HETATM   47  O11 UNL     1      40.369  15.072 -12.175  1.00  0.00    -0.269 OA
HETATM   48  N9  UNL     1      40.193  12.966 -11.222  1.00  0.00    -0.319 N 
ATOM     49  H9  UNL     1      40.046  13.266 -10.258  1.00  0.00     0.169 HD
ENDROOT
BRANCH   1  50
HETATM   50  O1  UNL     1      42.670  12.092 -12.819  1.00  0.00    -0.353 OA
HETATM   51  C1  UNL     1      43.954  11.784 -12.325  1.00  0.00     0.210 C 
ENDBRANCH   1  50
BRANCH   3  52
HETATM   52  O2  UNL     1      38.635  11.067 -10.117  1.00  0.00    -0.358 OA
ATOM     53  H2  UNL     1      38.679  10.727  -9.231  1.00  0.00     0.217 HD
ENDBRANCH   3  52
BRANCH  17  54
HETATM   54  O6  UNL     1      39.996   9.831 -16.386  1.00  0.00    -0.356 OA
ATOM     55  H6  UNL     1      39.879   9.831 -17.329  1.00  0.00     0.218 HD
ENDBRANCH  17  54
TORSDOF 3
ENDMDL
MODEL 4
REMARK VINA RESULT: -9.947703430      4.497      7.339
REMARK  3 active torsions:
REMARK  status: ('A' for Active; 'I' for Inactive)
REMARK    1  A    between atoms: O1_2  and  C2_3 
REMARK    2  A    between atoms: C4_5  and  O2_6 
REMARK    3  A    between atoms: C14_21  and  O6_22 
ROOT
HETATM    1  C2  UNL     1      42.075  11.431 -12.686  1.00  0.00     0.113 A 
HETATM    2  C3  UNL     1      42.315  10.644 -11.591  1.00  0.00     0.103 A 
HETATM    3  C4  UNL     1      43.223   9.566 -11.530  1.00  0.00     0.097 A 
HETATM    4  C5  UNL     1      43.911   9.269 -12.710  1.00  0.00     0.069 A 
HETATM    5  C6  UNL     1      43.678  10.013 -13.862  1.00  0.00     0.053 A 
HETATM    6  C7  UNL     1      42.768  11.091 -13.902  1.00  0.00     0.063 A 
HETATM    7  C8  UNL     1      42.203  11.442 -15.266  1.00  0.00     0.131 C 
HETATM    8  O3  UNL     1      42.531  12.416 -16.080  1.00  0.00    -0.268 OA
HETATM    9  C9  UNL     1      41.643  13.409 -16.511  1.00  0.00     0.340 C 
HETATM   10  O4  UNL     1      42.168  14.294 -17.170  1.00  0.00    -0.255 OA
HETATM   11  C10 UNL     1      40.298  13.424 -16.238  1.00  0.00     0.261 C 
HETATM   12  O5  UNL     1      39.715  14.512 -16.485  1.00  0.00    -0.281 OA
HETATM   13  C11 UNL     1      39.468  12.386 -15.714  1.00  0.00     0.070 C 
HETATM   14  C12 UNL     1      38.065  12.722 -15.785  1.00  0.00     0.118 C 
HETATM   15  N1  UNL     1      37.122  11.771 -15.310  1.00  0.00    -0.114 NA
HETATM   16  C13 UNL     1      39.910  11.136 -15.156  1.00  0.00     0.121 C 
HETATM   17  C14 UNL     1      41.098  10.554 -15.717  1.00  0.00     0.135 C 
HETATM   18  O7  UNL     1      39.087  10.779 -14.185  1.00  0.00    -0.336 OA
HETATM   19  C15 UNL     1      38.681   9.876 -13.264  1.00  0.00     0.181 C 
HETATM   20  C16 UNL     1      38.393   8.487 -14.031  1.00  0.00     0.204 C 
HETATM   21  O8  UNL     1      39.591   7.841 -14.096  1.00  0.00    -0.386 OA
HETATM   22  C17 UNL     1      39.670   6.511 -13.934  1.00  0.00     0.193 C 
HETATM   23  C18 UNL     1      40.830   5.855 -14.650  1.00  0.00     0.193 C 
HETATM   24  O9  UNL     1      42.042   5.963 -13.975  1.00  0.00    -0.387 OA
HETATM   25  C19 UNL     1      43.079   5.461 -14.762  1.00  0.00     0.193 C 
HETATM   26  C20 UNL     1      44.421   5.465 -14.117  1.00  0.00     0.193 C 
HETATM   27  O10 UNL     1      45.450   5.833 -14.964  1.00  0.00    -0.387 OA
HETATM   28  C21 UNL     1      46.721   5.714 -14.494  1.00  0.00     0.189 C 
HETATM   29  C22 UNL     1      47.255   6.905 -13.731  1.00  0.00     0.178 C 
HETATM   30  N2  UNL     1      48.357   7.582 -14.375  1.00  0.00    -0.257 N 
HETATM   31  N3  UNL     1      49.504   6.984 -14.749  1.00  0.00    -0.224 N 
ATOM     32  H3  UNL     1      49.707   5.993 -14.621  1.00  0.00     0.210 HD
HETATM   33  N4  UNL     1      50.322   7.838 -15.298  1.00  0.00    -0.226 N 
ATOM     34  H4  UNL     1      51.255   7.650 -15.668  1.00  0.00     0.210 HD
HETATM   35  N5  UNL     1      49.691   9.000 -15.273  1.00  0.00    -0.267 N 
ATOM     36  H5  UNL     1      50.066   9.880 -15.630  1.00  0.00     0.190 HD
HETATM   37  C23 UNL     1      48.472   8.846 -14.702  1.00  0.00     0.155 A 
HETATM   38  C24 UNL     1      47.448   9.932 -14.498  1.00  0.00     0.142 C 
HETATM   39  N6  UNL     1      46.639  10.131 -15.634  1.00  0.00    -0.337 N 
ATOM     40  H6  UNL     1      47.149  10.482 -16.445  1.00  0.00     0.168 HD
HETATM   41  C25 UNL     1      45.383   9.957 -15.850  1.00  0.00     0.192 C 
HETATM   42  N7  UNL     1      44.953  10.293 -17.215  1.00  0.00    -0.063 NA
HETATM   43  N8  UNL     1      44.409   9.453 -14.955  1.00  0.00    -0.330 N 
ATOM     44  H8  UNL     1      44.177   8.476 -15.130  1.00  0.00     0.168 HD
HETATM   45  C26 UNL     1      39.566   9.454 -12.206  1.00  0.00     0.082 C 
HETATM   46  C27 UNL     1      39.861  10.164 -10.954  1.00  0.00     0.244 C 
HETATM   47  O11 UNL     1      38.989  10.605 -10.223  1.00  0.00    -0.269 OA
HETATM   48  N9  UNL     1      41.278  10.379 -10.509  1.00  0.00    -0.319 N 
ATOM     49  H9  UNL     1      41.536  10.349  -9.522  1.00  0.00     0.169 HD
ENDROOT
BRANCH   1  50
HETATM   50  O1  UNL     1      41.186  12.618 -12.613  1.00  0.00    -0.353 OA
HETATM   51  C1  UNL     1      41.717  13.923 -12.565  1.00  0.00     0.210 C 
ENDBRANCH   1  50
BRANCH   3  52
HETATM   52  O2  UNL     1      43.465   8.811 -10.389  1.00  0.00    -0.358 OA
ATOM     53  H2  UNL     1      43.405   7.863 -10.354  1.00  0.00     0.217 HD
ENDBRANCH   3  52
BRANCH  17  54
HETATM   54  O6  UNL     1      41.192   9.451 -16.480  1.00  0.00    -0.356 OA
ATOM     55  H6  UNL     1      41.401   8.568 -16.200  1.00  0.00     0.218 HD
ENDBRANCH  17  54
TORSDOF 3
ENDMDL
MODEL 5
REMARK VINA RESULT: -9.944384135      3.919      6.826
REMARK  3 active torsions:
REMARK  status: ('A' for Active; 'I' for Inactive)
REMARK    1  A    between atoms: O1_2  and  C2_3 
REMARK    2  A    between atoms: C4_5  and  O2_6 
REMARK    3  A    between atoms: C14_21  and  O6_22 
ROOT
HETATM    1  C2  UNL     1      40.816  11.307 -12.233  1.00  0.00     0.113 A 
HETATM    2  C3  UNL     1      41.235  10.594 -11.141  1.00  0.00     0.103 A 
HETATM    3  C4  UNL     1      42.249   9.612 -11.134  1.00  0.00     0.097 A 
HETATM    4  C5  UNL     1      42.849   9.334 -12.365  1.00  0.00     0.069 A 
HETATM    5  C6  UNL     1      42.436  10.003 -13.512  1.00  0.00     0.053 A 
HETATM    6  C7  UNL     1      41.423  10.986 -13.498  1.00  0.00     0.063 A 
HETATM    7  C8  UNL     1      40.701  11.223 -14.812  1.00  0.00     0.131 C 
HETATM    8  O3  UNL     1      40.852  12.189 -15.685  1.00  0.00    -0.268 OA
HETATM    9  C9  UNL     1      39.832  13.072 -16.059  1.00  0.00     0.340 C 
HETATM   10  O4  UNL     1      40.202  13.976 -16.795  1.00  0.00    -0.255 OA
HETATM   11  C10 UNL     1      38.524  12.968 -15.658  1.00  0.00     0.261 C 
HETATM   12  O5  UNL     1      37.814  13.983 -15.882  1.00  0.00    -0.281 OA
HETATM   13  C11 UNL     1      37.855  11.878 -15.023  1.00  0.00     0.070 C 
HETATM   14  C12 UNL     1      36.425  12.074 -14.968  1.00  0.00     0.118 C 
HETATM   15  N1  UNL     1      35.630  11.056 -14.373  1.00  0.00    -0.114 NA
HETATM   16  C13 UNL     1      38.471  10.701 -14.470  1.00  0.00     0.121 C 
HETATM   17  C14 UNL     1      39.653  10.214 -15.124  1.00  0.00     0.135 C 
HETATM   18  O7  UNL     1      37.782  10.307 -13.413  1.00  0.00    -0.336 OA
HETATM   19  C15 UNL     1      37.556   9.408 -12.427  1.00  0.00     0.181 C 
HETATM   20  C16 UNL     1      37.338   7.967 -13.117  1.00  0.00     0.204 C 
HETATM   21  O8  UNL     1      38.585   7.438 -13.278  1.00  0.00    -0.386 OA
HETATM   22  C17 UNL     1      38.811   6.129 -13.081  1.00  0.00     0.193 C 
HETATM   23  C18 UNL     1      39.959   5.560 -13.885  1.00  0.00     0.193 C 
HETATM   24  O9  UNL     1      41.212   5.812 -13.335  1.00  0.00    -0.387 OA
HETATM   25  C19 UNL     1      42.216   5.382 -14.201  1.00  0.00     0.193 C 
HETATM   26  C20 UNL     1      43.606   5.542 -13.690  1.00  0.00     0.193 C 
HETATM   27  O10 UNL     1      44.509   5.972 -14.644  1.00  0.00    -0.387 OA
HETATM   28  C21 UNL     1      45.824   5.996 -14.297  1.00  0.00     0.189 C 
HETATM   29  C22 UNL     1      46.304   7.265 -13.628  1.00  0.00     0.178 C 
HETATM   30  N2  UNL     1      47.268   8.017 -14.397  1.00  0.00    -0.257 N 
HETATM   31  N3  UNL     1      48.429   7.518 -14.862  1.00  0.00    -0.224 N 
ATOM     32  H3  UNL     1      48.741   6.557 -14.722  1.00  0.00     0.210 HD
HETATM   33  N4  UNL     1      49.102   8.424 -15.514  1.00  0.00    -0.226 N 
ATOM     34  H4  UNL     1      50.010   8.312 -15.967  1.00  0.00     0.210 HD
HETATM   35  N5  UNL     1      48.363   9.520 -15.467  1.00  0.00    -0.267 N 
ATOM     36  H5  UNL     1      48.612  10.416 -15.887  1.00  0.00     0.190 HD
HETATM   37  C23 UNL     1      47.224   9.272 -14.775  1.00  0.00     0.155 A 
HETATM   38  C24 UNL     1      46.119  10.262 -14.508  1.00  0.00     0.142 C 
HETATM   39  N6  UNL     1      45.192  10.333 -15.566  1.00  0.00    -0.337 N 
ATOM     40  H6  UNL     1      45.587  10.698 -16.433  1.00  0.00     0.168 HD
HETATM   41  C25 UNL     1      43.945  10.029 -15.653  1.00  0.00     0.192 C 
HETATM   42  N7  UNL     1      43.358  10.264 -16.981  1.00  0.00    -0.063 NA
HETATM   43  N8  UNL     1      43.114   9.472 -14.652  1.00  0.00    -0.330 N 
ATOM     44  H8  UNL     1      42.966   8.470 -14.772  1.00  0.00     0.168 HD
HETATM   45  C26 UNL     1      38.574   9.119 -11.448  1.00  0.00     0.082 C 
HETATM   46  C27 UNL     1      38.912   9.905 -10.253  1.00  0.00     0.244 C 
HETATM   47  O11 UNL     1      38.072  10.291  -9.456  1.00  0.00    -0.269 OA
HETATM   48  N9  UNL     1      40.336  10.275  -9.955  1.00  0.00    -0.319 N 
ATOM     49  H9  UNL     1      40.686  10.312  -8.998  1.00  0.00     0.169 HD
ENDROOT
BRANCH   1  50
HETATM   50  O1  UNL     1      39.823  12.405 -12.112  1.00  0.00    -0.353 OA
HETATM   51  C1  UNL     1      40.216  13.755 -12.206  1.00  0.00     0.210 C 
ENDBRANCH   1  50
BRANCH   3  52
HETATM   52  O2  UNL     1      42.670   8.932  -9.998  1.00  0.00    -0.358 OA
ATOM     53  H2  UNL     1      43.563   8.645  -9.848  1.00  0.00     0.217 HD
ENDBRANCH   3  52
BRANCH  17  54
HETATM   54  O6  UNL     1      39.786   9.094 -15.857  1.00  0.00    -0.356 OA
ATOM     55  H6  UNL     1      39.780   9.017 -16.804  1.00  0.00     0.218 HD
ENDBRANCH  17  54
TORSDOF 3
ENDMDL
