MODEL 1
REMARK VINA RESULT: -10.388621723      0.000      0.000
REMARK  5 active torsions:
REMARK  status: ('A' for Active; 'I' for Inactive)
REMARK    1  A    between atoms: N2_7  and  N3_8 
REMARK    2  A    between atoms: C6_13  and  N4_14 
REMARK    3  A    between atoms: N4_14  and  O3_16 
REMARK    4  A    between atoms: C7_19  and  N6_20 
REMARK    5  A    between atoms: C18_41  and  O5_42 
ROOT
HETATM    1  N6  UNL     1      38.472  10.631  -9.220  1.00  0.00    -0.189 N 
ATOM      2  H6  UNL     1      38.478   9.811  -8.613  1.00  0.00     0.184 HD
HETATM    3  C8  UNL     1      38.931  10.190 -10.421  1.00  0.00     0.065 A 
HETATM    4  C9  UNL     1      40.107  10.610 -10.834  1.00  0.00     0.080 A 
HETATM    5  C10 UNL     1      40.712  10.227 -12.076  1.00  0.00     0.114 A 
HETATM    6  N7  UNL     1      41.825  10.621 -12.455  1.00  0.00    -0.339 N 
ATOM      7  H7  UNL     1      42.253  11.245 -11.771  1.00  0.00     0.167 HD
HETATM    8  C11 UNL     1      42.654  10.438 -13.573  1.00  0.00     0.090 A 
HETATM    9  C12 UNL     1      43.537  11.129 -14.140  1.00  0.00     0.143 C 
HETATM   10  O4  UNL     1      44.100  12.397 -14.078  1.00  0.00    -0.316 OA
HETATM   11  C13 UNL     1      43.735  13.306 -15.092  1.00  0.00     0.235 C 
HETATM   12  C14 UNL     1      42.270  13.594 -15.298  1.00  0.00     0.071 C 
HETATM   13  C15 UNL     1      42.024  13.438 -16.910  1.00  0.00     0.108 C 
HETATM   14  C16 UNL     1      42.490  12.048 -17.153  1.00  0.00     0.106 C 
HETATM   15  N8  UNL     1      43.602  12.272 -18.253  1.00  0.00    -0.286 N 
ATOM     16  H8  UNL     1      43.913  13.054 -18.829  1.00  0.00     0.188 HD
HETATM   17  N9  UNL     1      44.009  10.803 -18.078  1.00  0.00    -0.278 N 
ATOM     18  H9  UNL     1      44.080   9.936 -18.610  1.00  0.00     0.189 HD
HETATM   19  C17 UNL     1      44.250  11.348 -16.668  1.00  0.00     0.168 C 
HETATM   20  S1  UNL     1      44.705  10.285 -15.496  1.00  0.00    -0.025 SA
HETATM   21  N10 UNL     1      44.026  12.740 -16.440  1.00  0.00    -0.306 N 
HETATM   22  C18 UNL     1      43.704  14.005 -17.081  1.00  0.00     0.236 C 
HETATM   23  N11 UNL     1      42.001  10.823 -16.857  1.00  0.00    -0.330 N 
ATOM     24  H11 UNL     1      41.213  10.678 -17.488  1.00  0.00     0.168 HD
HETATM   25  C19 UNL     1      42.086   9.617 -16.048  1.00  0.00     0.114 C 
HETATM   26  N12 UNL     1      42.254   8.475 -16.635  1.00  0.00    -0.385 N 
ATOM     27 1H12 UNL     1      42.313   7.629 -16.069  1.00  0.00     0.157 HD
ATOM     28 2H12 UNL     1      42.394   8.559 -17.643  1.00  0.00     0.157 HD
HETATM   29  C20 UNL     1      41.876   9.491 -14.544  1.00  0.00     0.054 A 
HETATM   30  C21 UNL     1      40.693   9.038 -14.137  1.00  0.00     0.116 A 
HETATM   31  N13 UNL     1      40.026   9.336 -12.931  1.00  0.00    -0.306 N 
HETATM   32  C22 UNL     1      38.767   8.866 -12.521  1.00  0.00     0.053 A 
HETATM   33  C23 UNL     1      38.075   8.004 -13.367  1.00  0.00     0.031 A 
HETATM   34  C24 UNL     1      36.831   7.559 -12.972  1.00  0.00     0.002 A 
HETATM   35  C25 UNL     1      36.269   7.952 -11.762  1.00  0.00     0.001 A 
HETATM   36  C26 UNL     1      36.969   8.805 -10.940  1.00  0.00     0.016 A 
HETATM   37  C27 UNL     1      38.218   9.267 -11.310  1.00  0.00     0.018 A 
ENDROOT
BRANCH   1  38
HETATM   38  C7  UNL     1      38.054  11.541  -8.523  1.00  0.00     0.708 A 
HETATM   39  N5  UNL     1      37.712  11.255  -7.206  1.00  0.00    -0.051 N 
HETATM   40  N1  UNL     1      37.259  12.142  -6.374  1.00  0.00    -0.190 N 
HETATM   41  C6  UNL     1      37.849   9.987  -6.734  1.00  0.00     0.236 A 
HETATM   42  C3  UNL     1      37.116  13.398  -6.818  1.00  0.00     0.148 A 
HETATM   43  C4  UNL     1      36.942  11.808  -5.099  1.00  0.00     0.370 A 
HETATM   44  C2  UNL     1      37.436  13.745  -8.112  1.00  0.00     0.042 A 
HETATM   45  C1  UNL     1      37.243  15.141  -8.543  1.00  0.00     0.070 C 
HETATM   46  N14 UNL     1      37.910  12.797  -8.962  1.00  0.00    -0.188 N 
HETATM   47  C28 UNL     1      38.234  13.253 -10.296  1.00  0.00     0.175 C 
HETATM   48  O1  UNL     1      36.503  12.745  -4.346  1.00  0.00    -0.242 OA
HETATM   49  N2  UNL     1      37.061  10.576  -4.598  1.00  0.00    -0.170 N 
HETATM   50  C5  UNL     1      37.529   9.636  -5.442  1.00  0.00     0.318 A 
HETATM   51  O2  UNL     1      37.653   8.466  -5.001  1.00  0.00    -0.262 OA
BRANCH  49  52
HETATM   52  N3  UNL     1      36.714  10.326  -3.261  1.00  0.00    -0.331 N 
ATOM     53  H32 UNL     1      36.658  11.047  -2.543  1.00  0.00     0.177 HD
ATOM     54  H31 UNL     1      36.493   9.376  -2.960  1.00  0.00     0.177 HD
ENDBRANCH  49  52
BRANCH  41  55
HETATM   55  N4  UNL     1      38.290   9.062  -7.503  1.00  0.00    -0.246 N 
ATOM     56  H4  UNL     1      39.212   9.147  -7.931  1.00  0.00     0.196 HD
BRANCH  55  57
HETATM   57  O3  UNL     1      37.519   7.961  -7.749  1.00  0.00    -0.288 OA
ATOM     58  H3  UNL     1      37.904   7.094  -7.689  1.00  0.00     0.244 HD
ENDBRANCH  55  57
ENDBRANCH  41  55
ENDBRANCH   1  38
BRANCH  22  59
HETATM   59  O5  UNL     1      43.560  15.110 -16.352  1.00  0.00    -0.376 OA
ATOM     60  H5  UNL     1      44.486  15.253 -16.196  1.00  0.00     0.212 HD
ENDBRANCH  22  59
TORSDOF 5
ENDMDL
MODEL 2
REMARK VINA RESULT: -10.238170210      4.984      7.612
REMARK  5 active torsions:
REMARK  status: ('A' for Active; 'I' for Inactive)
REMARK    1  A    between atoms: N2_7  and  N3_8 
REMARK    2  A    between atoms: C6_13  and  N4_14 
REMARK    3  A    between atoms: N4_14  and  O3_16 
REMARK    4  A    between atoms: C7_19  and  N6_20 
REMARK    5  A    between atoms: C18_41  and  O5_42 
ROOT
HETATM    1  N6  UNL     1      42.934   7.400 -10.868  1.00  0.00    -0.189 N 
ATOM      2  H6  UNL     1      43.950   7.490 -10.862  1.00  0.00     0.184 HD
HETATM    3  C8  UNL     1      42.501   8.297 -11.793  1.00  0.00     0.065 A 
HETATM    4  C9  UNL     1      41.828   9.347 -11.380  1.00  0.00     0.080 A 
HETATM    5  C10 UNL     1      41.313  10.369 -12.244  1.00  0.00     0.114 A 
HETATM    6  N7  UNL     1      40.685  11.362 -11.845  1.00  0.00    -0.339 N 
ATOM      7  H7  UNL     1      40.588  11.359 -10.830  1.00  0.00     0.167 HD
HETATM    8  C11 UNL     1      40.073  12.488 -12.417  1.00  0.00     0.090 A 
HETATM    9  C12 UNL     1      39.115  13.233 -12.092  1.00  0.00     0.143 C 
HETATM   10  O4  UNL     1      38.118  13.328 -11.130  1.00  0.00    -0.316 OA
HETATM   11  C13 UNL     1      36.809  13.001 -11.535  1.00  0.00     0.235 C 
HETATM   12  C14 UNL     1      36.568  11.642 -12.142  1.00  0.00     0.071 C 
HETATM   13  C15 UNL     1      35.712  11.928 -13.508  1.00  0.00     0.108 C 
HETATM   14  C16 UNL     1      36.613  12.855 -14.241  1.00  0.00     0.106 C 
HETATM   15  N8  UNL     1      35.672  14.105 -14.463  1.00  0.00    -0.286 N 
ATOM     16  H8  UNL     1      34.681  14.306 -14.334  1.00  0.00     0.188 HD
HETATM   17  N9  UNL     1      36.899  14.885 -14.955  1.00  0.00    -0.278 N 
ATOM     18  H9  UNL     1      37.242  15.373 -15.782  1.00  0.00     0.189 HD
HETATM   19  C17 UNL     1      37.327  14.530 -13.529  1.00  0.00     0.168 C 
HETATM   20  S1  UNL     1      38.848  14.942 -13.053  1.00  0.00    -0.025 SA
HETATM   21  N10 UNL     1      36.395  13.826 -12.706  1.00  0.00    -0.306 N 
HETATM   22  C18 UNL     1      35.034  13.320 -12.628  1.00  0.00     0.236 C 
HETATM   23  N11 UNL     1      37.792  12.711 -14.887  1.00  0.00    -0.330 N 
ATOM     24  H11 UNL     1      37.574  12.223 -15.756  1.00  0.00     0.168 HD
HETATM   25  C19 UNL     1      39.228  12.936 -14.908  1.00  0.00     0.114 C 
HETATM   26  N12 UNL     1      39.746  13.614 -15.884  1.00  0.00    -0.385 N 
ATOM     27 1H12 UNL     1      40.753  13.772 -15.899  1.00  0.00     0.157 HD
ATOM     28 2H12 UNL     1      39.046  14.002 -16.518  1.00  0.00     0.157 HD
HETATM   29  C20 UNL     1      40.274  12.358 -13.962  1.00  0.00     0.054 A 
HETATM   30  C21 UNL     1      40.970  11.312 -14.401  1.00  0.00     0.116 A 
HETATM   31  N13 UNL     1      41.533  10.271 -13.636  1.00  0.00    -0.306 N 
HETATM   32  C22 UNL     1      42.251   9.161 -14.113  1.00  0.00     0.053 A 
HETATM   33  C23 UNL     1      42.455   9.045 -15.485  1.00  0.00     0.031 A 
HETATM   34  C24 UNL     1      43.142   7.946 -15.954  1.00  0.00     0.002 A 
HETATM   35  C25 UNL     1      43.625   6.969 -15.090  1.00  0.00     0.001 A 
HETATM   36  C26 UNL     1      43.414   7.101 -13.737  1.00  0.00     0.016 A 
HETATM   37  C27 UNL     1      42.728   8.192 -13.239  1.00  0.00     0.018 A 
ENDROOT
BRANCH   1  38
HETATM   38  C7  UNL     1      42.685   6.538 -10.041  1.00  0.00     0.708 A 
HETATM   39  N5  UNL     1      43.686   6.180  -9.145  1.00  0.00    -0.051 N 
HETATM   40  N1  UNL     1      43.534   5.278  -8.224  1.00  0.00    -0.190 N 
HETATM   41  C6  UNL     1      44.899   6.790  -9.210  1.00  0.00     0.236 A 
HETATM   42  C3  UNL     1      42.346   4.664  -8.142  1.00  0.00     0.148 A 
HETATM   43  C4  UNL     1      44.545   4.969  -7.374  1.00  0.00     0.370 A 
HETATM   44  C2  UNL     1      41.316   4.972  -9.001  1.00  0.00     0.042 A 
HETATM   45  C1  UNL     1      40.038   4.250  -8.868  1.00  0.00     0.070 C 
HETATM   46  N14 UNL     1      41.500   5.921  -9.956  1.00  0.00    -0.188 N 
HETATM   47  C28 UNL     1      40.360   6.191 -10.803  1.00  0.00     0.175 C 
HETATM   48  O1  UNL     1      44.310   4.069  -6.496  1.00  0.00    -0.242 OA
HETATM   49  N2  UNL     1      45.750   5.545  -7.406  1.00  0.00    -0.170 N 
HETATM   50  C5  UNL     1      45.933   6.484  -8.353  1.00  0.00     0.318 A 
HETATM   51  O2  UNL     1      47.056   7.045  -8.410  1.00  0.00    -0.262 OA
BRANCH  49  52
HETATM   52  N3  UNL     1      46.734   5.164  -6.480  1.00  0.00    -0.331 N 
ATOM     53  H32 UNL     1      46.543   4.618  -5.639  1.00  0.00     0.177 HD
ATOM     54  H31 UNL     1      47.707   5.429  -6.631  1.00  0.00     0.177 HD
ENDBRANCH  49  52
BRANCH  41  55
HETATM   55  N4  UNL     1      45.117   7.690 -10.097  1.00  0.00    -0.246 N 
ATOM     56  H4  UNL     1      44.650   8.594 -10.035  1.00  0.00     0.196 HD
BRANCH  55  57
HETATM   57  O3  UNL     1      45.976   7.432 -11.126  1.00  0.00    -0.288 OA
ATOM     58  H3  UNL     1      45.733   7.668 -12.013  1.00  0.00     0.244 HD
ENDBRANCH  55  57
ENDBRANCH  41  55
ENDBRANCH   1  38
BRANCH  22  59
HETATM   59  O5  UNL     1      34.632  12.635 -11.559  1.00  0.00    -0.376 OA
ATOM     60  H5  UNL     1      33.741  12.967 -11.552  1.00  0.00     0.212 HD
ENDBRANCH  22  59
TORSDOF 5
ENDMDL
MODEL 3
REMARK VINA RESULT: -10.154815715      5.779      9.135
REMARK  5 active torsions:
REMARK  status: ('A' for Active; 'I' for Inactive)
REMARK    1  A    between atoms: N2_7  and  N3_8 
REMARK    2  A    between atoms: C6_13  and  N4_14 
REMARK    3  A    between atoms: N4_14  and  O3_16 
REMARK    4  A    between atoms: C7_19  and  N6_20 
REMARK    5  A    between atoms: C18_41  and  O5_42 
ROOT
HETATM    1  N6  UNL     1      46.548   6.523 -12.407  1.00  0.00    -0.189 N 
ATOM      2  H6  UNL     1      47.277   6.103 -12.983  1.00  0.00     0.184 HD
HETATM    3  C8  UNL     1      45.645   7.031 -13.287  1.00  0.00     0.065 A 
HETATM    4  C9  UNL     1      45.523   8.337 -13.376  1.00  0.00     0.080 A 
HETATM    5  C10 UNL     1      44.613   9.006 -14.259  1.00  0.00     0.114 A 
HETATM    6  N7  UNL     1      44.510  10.239 -14.343  1.00  0.00    -0.339 N 
ATOM      7  H7  UNL     1      45.155  10.711 -13.710  1.00  0.00     0.167 HD
HETATM    8  C11 UNL     1      43.743  11.158 -15.076  1.00  0.00     0.090 A 
HETATM    9  C12 UNL     1      43.338  12.330 -14.874  1.00  0.00     0.143 C 
HETATM   10  O4  UNL     1      43.315  13.291 -13.871  1.00  0.00    -0.316 OA
HETATM   11  C13 UNL     1      42.083  13.505 -13.221  1.00  0.00     0.235 C 
HETATM   12  C14 UNL     1      41.403  12.324 -12.576  1.00  0.00     0.071 C 
HETATM   13  C15 UNL     1      39.853  12.382 -13.101  1.00  0.00     0.108 C 
HETATM   14  C16 UNL     1      40.032  12.347 -14.576  1.00  0.00     0.106 C 
HETATM   15  N8  UNL     1      39.286  13.668 -15.018  1.00  0.00    -0.286 N 
ATOM     16  H8  UNL     1      38.687  14.357 -14.564  1.00  0.00     0.188 HD
HETATM   17  N9  UNL     1      39.855  13.464 -16.429  1.00  0.00    -0.278 N 
ATOM     18  H9  UNL     1      39.546  13.323 -17.390  1.00  0.00     0.189 HD
HETATM   19  C17 UNL     1      41.140  13.586 -15.606  1.00  0.00     0.168 C 
HETATM   20  S1  UNL     1      42.576  13.365 -16.378  1.00  0.00    -0.025 SA
HETATM   21  N10 UNL     1      41.017  13.844 -14.206  1.00  0.00    -0.306 N 
HETATM   22  C18 UNL     1      40.077  14.148 -13.139  1.00  0.00     0.236 C 
HETATM   23  N11 UNL     1      40.403  11.394 -15.459  1.00  0.00    -0.330 N 
ATOM     24  H11 UNL     1      39.608  10.759 -15.533  1.00  0.00     0.168 HD
HETATM   25  C19 UNL     1      41.419  10.861 -16.353  1.00  0.00     0.114 C 
HETATM   26  N12 UNL     1      41.140  10.719 -17.611  1.00  0.00    -0.385 N 
ATOM     27 1H12 UNL     1      41.852  10.345 -18.238  1.00  0.00     0.157 HD
ATOM     28 2H12 UNL     1      40.222  11.088 -17.862  1.00  0.00     0.157 HD
HETATM   29  C20 UNL     1      42.789  10.310 -15.979  1.00  0.00     0.054 A 
HETATM   30  C21 UNL     1      42.909   8.986 -15.920  1.00  0.00     0.116 A 
HETATM   31  N13 UNL     1      43.784   8.237 -15.106  1.00  0.00    -0.306 N 
HETATM   32  C22 UNL     1      43.888   6.838 -15.038  1.00  0.00     0.053 A 
HETATM   33  C23 UNL     1      43.060   6.072 -15.854  1.00  0.00     0.031 A 
HETATM   34  C24 UNL     1      43.150   4.699 -15.772  1.00  0.00     0.002 A 
HETATM   35  C25 UNL     1      44.041   4.079 -14.902  1.00  0.00     0.001 A 
HETATM   36  C26 UNL     1      44.851   4.853 -14.104  1.00  0.00     0.016 A 
HETATM   37  C27 UNL     1      44.783   6.232 -14.164  1.00  0.00     0.018 A 
ENDROOT
BRANCH   1  38
HETATM   38  C7  UNL     1      46.901   6.331 -11.254  1.00  0.00     0.708 A 
HETATM   39  N5  UNL     1      48.253   6.117 -11.010  1.00  0.00    -0.051 N 
HETATM   40  N1  UNL     1      48.742   5.904  -9.827  1.00  0.00    -0.190 N 
HETATM   41  C6  UNL     1      49.135   6.128 -12.044  1.00  0.00     0.236 A 
HETATM   42  C3  UNL     1      47.891   5.890  -8.792  1.00  0.00     0.148 A 
HETATM   43  C4  UNL     1      50.071   5.703  -9.645  1.00  0.00     0.370 A 
HETATM   44  C2  UNL     1      46.540   6.093  -8.970  1.00  0.00     0.042 A 
HETATM   45  C1  UNL     1      45.654   6.051  -7.793  1.00  0.00     0.070 C 
HETATM   46  N14 UNL     1      46.054   6.316 -10.219  1.00  0.00    -0.188 N 
HETATM   47  C28 UNL     1      44.627   6.534 -10.309  1.00  0.00     0.175 C 
HETATM   48  O1  UNL     1      50.468   5.501  -8.446  1.00  0.00    -0.242 OA
HETATM   49  N2  UNL     1      50.969   5.705 -10.634  1.00  0.00    -0.170 N 
HETATM   50  C5  UNL     1      50.487   5.924 -11.872  1.00  0.00     0.318 A 
HETATM   51  O2  UNL     1      51.306   5.932 -12.825  1.00  0.00    -0.262 OA
BRANCH  49  52
HETATM   52  N3  UNL     1      52.327   5.494 -10.348  1.00  0.00    -0.331 N 
ATOM     53  H32 UNL     1      52.678   5.202  -9.436  1.00  0.00     0.177 HD
ATOM     54  H31 UNL     1      53.028   5.626 -11.077  1.00  0.00     0.177 HD
ENDBRANCH  49  52
BRANCH  41  55
HETATM   55  N4  UNL     1      48.719   6.332 -13.239  1.00  0.00    -0.246 N 
ATOM     56  H4  UNL     1      48.107   5.653 -13.691  1.00  0.00     0.196 HD
BRANCH  55  57
HETATM   57  O3  UNL     1      49.099   7.462 -13.905  1.00  0.00    -0.288 OA
ATOM     58  H3  UNL     1      48.617   7.740 -14.675  1.00  0.00     0.244 HD
ENDBRANCH  55  57
ENDBRANCH  41  55
ENDBRANCH   1  38
BRANCH  22  59
HETATM   59  O5  UNL     1      40.503  14.268 -11.883  1.00  0.00    -0.376 OA
ATOM     60  H5  UNL     1      40.695  13.347 -11.750  1.00  0.00     0.212 HD
ENDBRANCH  22  59
TORSDOF 5
ENDMDL
MODEL 4
REMARK VINA RESULT: -10.064296596      3.607      4.640
REMARK  5 active torsions:
REMARK  status: ('A' for Active; 'I' for Inactive)
REMARK    1  A    between atoms: N2_7  and  N3_8 
REMARK    2  A    between atoms: C6_13  and  N4_14 
REMARK    3  A    between atoms: N4_14  and  O3_16 
REMARK    4  A    between atoms: C7_19  and  N6_20 
REMARK    5  A    between atoms: C18_41  and  O5_42 
ROOT
HETATM    1  N6  UNL     1      39.120  10.642 -11.258  1.00  0.00    -0.189 N 
ATOM      2  H6  UNL     1      38.538  10.285 -10.500  1.00  0.00     0.184 HD
HETATM    3  C8  UNL     1      39.896   9.592 -11.637  1.00  0.00     0.065 A 
HETATM    4  C9  UNL     1      41.187   9.648 -11.394  1.00  0.00     0.080 A 
HETATM    5  C10 UNL     1      42.121   8.616 -11.738  1.00  0.00     0.114 A 
HETATM    6  N7  UNL     1      43.336   8.673 -11.498  1.00  0.00    -0.339 N 
ATOM      7  H7  UNL     1      43.583   9.541 -11.023  1.00  0.00     0.167 HD
HETATM    8  C11 UNL     1      44.463   7.862 -11.704  1.00  0.00     0.090 A 
HETATM    9  C12 UNL     1      45.692   8.078 -11.852  1.00  0.00     0.143 C 
HETATM   10  O4  UNL     1      46.577   9.139 -11.991  1.00  0.00    -0.316 OA
HETATM   11  C13 UNL     1      47.098   9.370 -13.280  1.00  0.00     0.235 C 
HETATM   12  C14 UNL     1      46.126   9.588 -14.413  1.00  0.00     0.071 C 
HETATM   13  C15 UNL     1      46.636   8.595 -15.611  1.00  0.00     0.108 C 
HETATM   14  C16 UNL     1      46.617   7.271 -14.936  1.00  0.00     0.106 C 
HETATM   15  N8  UNL     1      48.111   6.794 -15.128  1.00  0.00    -0.286 N 
ATOM     16  H8  UNL     1      48.919   7.116 -15.660  1.00  0.00     0.188 HD
HETATM   17  N9  UNL     1      47.817   5.635 -14.165  1.00  0.00    -0.278 N 
ATOM     18  H9  UNL     1      47.809   4.616 -14.139  1.00  0.00     0.189 HD
HETATM   19  C17 UNL     1      47.540   6.843 -13.268  1.00  0.00     0.168 C 
HETATM   20  S1  UNL     1      46.961   6.564 -11.752  1.00  0.00    -0.025 SA
HETATM   21  N10 UNL     1      47.762   8.146 -13.810  1.00  0.00    -0.306 N 
HETATM   22  C18 UNL     1      48.271   8.876 -14.961  1.00  0.00     0.236 C 
HETATM   23  N11 UNL     1      45.636   6.437 -14.524  1.00  0.00    -0.330 N 
ATOM     24  H11 UNL     1      45.252   6.020 -15.372  1.00  0.00     0.168 HD
HETATM   25  C19 UNL     1      44.881   5.863 -13.422  1.00  0.00     0.114 C 
HETATM   26  N12 UNL     1      44.876   4.577 -13.264  1.00  0.00    -0.385 N 
ATOM     27 1H12 UNL     1      44.346   4.173 -12.492  1.00  0.00     0.157 HD
ATOM     28 2H12 UNL     1      45.496   4.091 -13.912  1.00  0.00     0.157 HD
HETATM   29  C20 UNL     1      43.954   6.587 -12.454  1.00  0.00     0.054 A 
HETATM   30  C21 UNL     1      42.648   6.501 -12.692  1.00  0.00     0.116 A 
HETATM   31  N13 UNL     1      41.651   7.446 -12.376  1.00  0.00    -0.306 N 
HETATM   32  C22 UNL     1      40.276   7.352 -12.650  1.00  0.00     0.053 A 
HETATM   33  C23 UNL     1      39.807   6.212 -13.297  1.00  0.00     0.031 A 
HETATM   34  C24 UNL     1      38.461   6.130 -13.583  1.00  0.00     0.002 A 
HETATM   35  C25 UNL     1      37.581   7.151 -13.240  1.00  0.00     0.001 A 
HETATM   36  C26 UNL     1      38.064   8.269 -12.600  1.00  0.00     0.016 A 
HETATM   37  C27 UNL     1      39.408   8.380 -12.301  1.00  0.00     0.018 A 
ENDROOT
BRANCH   1  38
HETATM   38  C7  UNL     1      38.789  11.808 -11.395  1.00  0.00     0.708 A 
HETATM   39  N5  UNL     1      38.384  12.512 -10.265  1.00  0.00    -0.051 N 
HETATM   40  N1  UNL     1      38.012  13.754 -10.290  1.00  0.00    -0.190 N 
HETATM   41  C6  UNL     1      38.369  11.892  -9.055  1.00  0.00     0.236 A 
HETATM   42  C3  UNL     1      38.018  14.385 -11.473  1.00  0.00     0.148 A 
HETATM   43  C4  UNL     1      37.628  14.393  -9.157  1.00  0.00     0.370 A 
HETATM   44  C2  UNL     1      38.406  13.742 -12.628  1.00  0.00     0.042 A 
HETATM   45  C1  UNL     1      38.378  14.487 -13.899  1.00  0.00     0.070 C 
HETATM   46  N14 UNL     1      38.794  12.441 -12.573  1.00  0.00    -0.188 N 
HETATM   47  C28 UNL     1      39.199  11.853 -13.831  1.00  0.00     0.175 C 
HETATM   48  O1  UNL     1      37.276  15.617  -9.272  1.00  0.00    -0.242 OA
HETATM   49  N2  UNL     1      37.599  13.820  -7.951  1.00  0.00    -0.170 N 
HETATM   50  C5  UNL     1      37.982  12.530  -7.898  1.00  0.00     0.318 A 
HETATM   51  O2  UNL     1      37.965  11.962  -6.777  1.00  0.00    -0.262 OA
BRANCH  49  52
HETATM   52  N3  UNL     1      37.193  14.564  -6.831  1.00  0.00    -0.331 N 
ATOM     53  H32 UNL     1      37.540  15.497  -6.611  1.00  0.00     0.177 HD
ATOM     54  H31 UNL     1      36.506  14.177  -6.183  1.00  0.00     0.177 HD
ENDBRANCH  49  52
BRANCH  41  55
HETATM   55  N4  UNL     1      38.725  10.665  -8.959  1.00  0.00    -0.246 N 
ATOM     56  H4  UNL     1      38.223   9.944  -9.478  1.00  0.00     0.196 HD
BRANCH  55  57
HETATM   57  O3  UNL     1      39.778  10.325  -8.159  1.00  0.00    -0.288 OA
ATOM     58  H3  UNL     1      39.893   9.421  -7.890  1.00  0.00     0.244 HD
ENDBRANCH  55  57
ENDBRANCH  41  55
ENDBRANCH   1  38
BRANCH  22  59
HETATM   59  O5  UNL     1      48.213  10.206 -14.991  1.00  0.00    -0.376 OA
ATOM     60  H5  UNL     1      47.524  10.295 -14.343  1.00  0.00     0.212 HD
ENDBRANCH  22  59
TORSDOF 5
ENDMDL
MODEL 5
REMARK VINA RESULT: -9.980116143      4.009      6.628
REMARK  5 active torsions:
REMARK  status: ('A' for Active; 'I' for Inactive)
REMARK    1  A    between atoms: N2_7  and  N3_8 
REMARK    2  A    between atoms: C6_13  and  N4_14 
REMARK    3  A    between atoms: N4_14  and  O3_16 
REMARK    4  A    between atoms: C7_19  and  N6_20 
REMARK    5  A    between atoms: C18_41  and  O5_42 
ROOT
HETATM    1  N6  UNL     1      37.197   6.994 -11.313  1.00  0.00    -0.189 N 
ATOM      2  H6  UNL     1      36.252   7.190 -10.981  1.00  0.00     0.184 HD
HETATM    3  C8  UNL     1      37.770   8.212 -11.497  1.00  0.00     0.065 A 
HETATM    4  C9  UNL     1      38.041   8.598 -12.725  1.00  0.00     0.080 A 
HETATM    5  C10 UNL     1      38.644   9.854 -13.065  1.00  0.00     0.114 A 
HETATM    6  N7  UNL     1      38.889  10.213 -14.225  1.00  0.00    -0.339 N 
ATOM      7  H7  UNL     1      38.603   9.507 -14.903  1.00  0.00     0.167 HD
HETATM    8  C11 UNL     1      39.453  11.332 -14.857  1.00  0.00     0.090 A 
HETATM    9  C12 UNL     1      40.071  11.520 -15.935  1.00  0.00     0.143 C 
HETATM   10  O4  UNL     1      40.607  10.800 -16.994  1.00  0.00    -0.316 OA
HETATM   11  C13 UNL     1      42.010  10.667 -17.030  1.00  0.00     0.235 C 
HETATM   12  C14 UNL     1      42.700  10.070 -15.830  1.00  0.00     0.071 C 
HETATM   13  C15 UNL     1      43.933  11.093 -15.491  1.00  0.00     0.108 C 
HETATM   14  C16 UNL     1      43.214  12.379 -15.298  1.00  0.00     0.106 C 
HETATM   15  N8  UNL     1      43.926  13.305 -16.361  1.00  0.00    -0.286 N 
ATOM     16  H8  UNL     1      44.746  13.231 -16.964  1.00  0.00     0.188 HD
HETATM   17  N9  UNL     1      42.849  14.365 -16.095  1.00  0.00    -0.278 N 
ATOM     18  H9  UNL     1      42.753  15.326 -15.765  1.00  0.00     0.189 HD
HETATM   19  C17 UNL     1      41.997  13.195 -16.592  1.00  0.00     0.168 C 
HETATM   20  S1  UNL     1      40.360  13.370 -16.576  1.00  0.00    -0.025 SA
HETATM   21  N10 UNL     1      42.669  12.003 -17.003  1.00  0.00    -0.306 N 
HETATM   22  C18 UNL     1      43.973  11.406 -17.244  1.00  0.00     0.236 C 
HETATM   23  N11 UNL     1      42.405  12.873 -14.334  1.00  0.00    -0.330 N 
ATOM     24  H11 UNL     1      43.012  13.084 -13.542  1.00  0.00     0.168 HD
HETATM   25  C19 UNL     1      41.062  13.240 -13.912  1.00  0.00     0.114 C 
HETATM   26  N12 UNL     1      40.828  14.461 -13.547  1.00  0.00    -0.385 N 
ATOM     27 1H12 UNL     1      39.887  14.719 -13.251  1.00  0.00     0.157 HD
ATOM     28 2H12 UNL     1      41.630  15.079 -13.679  1.00  0.00     0.157 HD
HETATM   29  C20 UNL     1      39.865  12.318 -13.715  1.00  0.00     0.054 A 
HETATM   30  C21 UNL     1      39.583  11.957 -12.466  1.00  0.00     0.116 A 
HETATM   31  N13 UNL     1      38.975  10.760 -12.033  1.00  0.00    -0.306 N 
HETATM   32  C22 UNL     1      38.699  10.382 -10.708  1.00  0.00     0.053 A 
HETATM   33  C23 UNL     1      39.041  11.260  -9.684  1.00  0.00     0.031 A 
HETATM   34  C24 UNL     1      38.787  10.878  -8.383  1.00  0.00     0.002 A 
HETATM   35  C25 UNL     1      38.204   9.651  -8.087  1.00  0.00     0.001 A 
HETATM   36  C26 UNL     1      37.873   8.797  -9.113  1.00  0.00     0.016 A 
HETATM   37  C27 UNL     1      38.116   9.152 -10.426  1.00  0.00     0.018 A 
ENDROOT
BRANCH   1  38
HETATM   38  C7  UNL     1      37.275   5.777 -11.355  1.00  0.00     0.708 A 
HETATM   39  N5  UNL     1      36.204   5.069 -11.891  1.00  0.00    -0.051 N 
HETATM   40  N1  UNL     1      36.177   3.776 -11.988  1.00  0.00    -0.190 N 
HETATM   41  C6  UNL     1      35.114   5.740 -12.349  1.00  0.00     0.236 A 
HETATM   42  C3  UNL     1      37.241   3.094 -11.543  1.00  0.00     0.148 A 
HETATM   43  C4  UNL     1      35.107   3.136 -12.522  1.00  0.00     0.370 A 
HETATM   44  C2  UNL     1      38.331   3.736 -10.999  1.00  0.00     0.042 A 
HETATM   45  C1  UNL     1      39.464   2.928 -10.515  1.00  0.00     0.070 C 
HETATM   46  N14 UNL     1      38.335   5.092 -10.912  1.00  0.00    -0.188 N 
HETATM   47  C28 UNL     1      39.526   5.682 -10.342  1.00  0.00     0.175 C 
HETATM   48  O1  UNL     1      35.163   1.859 -12.579  1.00  0.00    -0.242 OA
HETATM   49  N2  UNL     1      34.018   3.758 -12.981  1.00  0.00    -0.170 N 
HETATM   50  C5  UNL     1      34.022   5.102 -12.893  1.00  0.00     0.318 A 
HETATM   51  O2  UNL     1      33.011   5.718 -13.316  1.00  0.00    -0.262 OA
BRANCH  49  52
HETATM   52  N3  UNL     1      32.960   3.012 -13.524  1.00  0.00    -0.331 N 
ATOM     53  H32 UNL     1      32.532   3.205 -14.429  1.00  0.00     0.177 HD
ATOM     54  H31 UNL     1      32.578   2.219 -13.008  1.00  0.00     0.177 HD
ENDBRANCH  49  52
BRANCH  41  55
HETATM   55  N4  UNL     1      35.075   7.020 -12.283  1.00  0.00    -0.246 N 
ATOM     56  H4  UNL     1      35.216   7.491 -11.390  1.00  0.00     0.196 HD
BRANCH  55  57
HETATM   57  O3  UNL     1      34.844   7.749 -13.414  1.00  0.00    -0.288 OA
ATOM     58  H3  UNL     1      34.322   7.377 -14.116  1.00  0.00     0.244 HD
ENDBRANCH  55  57
ENDBRANCH  41  55
ENDBRANCH   1  38
BRANCH  22  59
HETATM   59  O5  UNL     1      44.069  10.131 -17.617  1.00  0.00    -0.376 OA
ATOM     60  H5  UNL     1      45.018  10.096 -17.627  1.00  0.00     0.212 HD
ENDBRANCH  22  59
TORSDOF 5
ENDMDL
