MODEL 1
REMARK VINA RESULT: -11.199944130      0.000      0.000
REMARK  5 active torsions:
REMARK  status: ('A' for Active; 'I' for Inactive)
REMARK    1  A    between atoms: C3_5  and  N2_6 
REMARK    2  A    between atoms: C7_18  and  O5_19 
REMARK    3  A    between atoms: O5_19  and  C8_20 
REMARK    4  A    between atoms: C9_23  and  N4_24 
REMARK    5  A    between atoms: C10_30  and  C11_31 
ROOT
HETATM    1  C1  UNL     1      42.804   8.667 -10.011  1.00  0.00     0.089 C 
HETATM    2  C2  UNL     1      42.004   9.869 -10.480  1.00  0.00     0.086 C 
HETATM    3  N1  UNL     1      42.461  10.476 -11.515  1.00  0.00    -0.344 N 
ATOM      4  H1  UNL     1      43.314  10.080 -11.909  1.00  0.00     0.163 HD
HETATM    5  C3  UNL     1      41.956  11.616 -12.191  1.00  0.00     0.356 C 
HETATM    6  S1  UNL     1      41.787  11.238 -13.978  1.00  0.00    -0.007 SA
HETATM    7  C4  UNL     1      42.715  12.348 -14.990  1.00  0.00     0.333 C 
HETATM    8  O1  UNL     1      43.875  12.686 -14.647  1.00  0.00    -0.251 OA
HETATM    9  O2  UNL     1      42.169  12.841 -16.148  1.00  0.00    -0.234 OA
HETATM   10  C5  UNL     1      40.868  13.244 -16.326  1.00  0.00     0.290 C 
HETATM   11  O3  UNL     1      40.217  13.017 -17.402  1.00  0.00    -0.262 OA
HETATM   12  C6  UNL     1      40.124  13.981 -15.263  1.00  0.00     0.283 C 
HETATM   13  O4  UNL     1      38.858  13.404 -15.185  1.00  0.00    -0.343 OA
HETATM   14  C7  UNL     1      37.918  14.387 -14.914  1.00  0.00     0.363 C 
HETATM   15  C17 UNL     1      38.129  14.939 -13.551  1.00  0.00     0.274 C 
HETATM   16  O7  UNL     1      37.967  16.180 -13.347  1.00  0.00    -0.268 OA
HETATM   17  N9  UNL     1      38.510  14.144 -12.436  1.00  0.00    -0.348 N 
ATOM     18  H9  UNL     1      39.178  14.527 -11.767  1.00  0.00     0.163 HD
HETATM   19  C18 UNL     1      37.979  12.792 -12.209  1.00  0.00     0.226 C 
HETATM   20  C19 UNL     1      37.782  12.555 -10.756  1.00  0.00     0.249 C 
HETATM   21  O8  UNL     1      36.730  13.031 -10.208  1.00  0.00    -0.271 OA
HETATM   22  N10 UNL     1      38.666  11.842  -9.923  1.00  0.00    -0.236 N 
ATOM     23  H10 UNL     1      38.902  12.261  -9.024  1.00  0.00     0.183 HD
HETATM   24  S3  UNL     1      39.382  10.317 -10.298  1.00  0.00     0.326 S 
HETATM   25  O9  UNL     1      38.646   9.310  -9.410  1.00  0.00    -0.182 OA
HETATM   26  O10 UNL     1      39.127   9.827 -11.855  1.00  0.00    -0.182 OA
HETATM   27  N11 UNL     1      40.851  10.295  -9.826  1.00  0.00    -0.257 N 
ATOM     28  H11 UNL     1      41.002  10.649  -8.881  1.00  0.00     0.181 HD
ENDROOT
BRANCH  14  29
HETATM   29  O5  UNL     1      36.614  13.927 -15.119  1.00  0.00    -0.280 OA
BRANCH  29  30
HETATM   30  C8  UNL     1      36.241  12.625 -14.825  1.00  0.00     0.242 A 
HETATM   31  N3  UNL     1      35.036  12.425 -14.243  1.00  0.00    -0.153 N 
HETATM   32  C9  UNL     1      34.585  11.205 -13.920  1.00  0.00     0.702 A 
ATOM     33  H3  UNL     1      34.448  13.234 -14.044  1.00  0.00     0.188 HD
HETATM   34  N5  UNL     1      35.376  10.151 -14.194  1.00  0.00    -0.062 N 
HETATM   35  N6  UNL     1      34.985   8.922 -13.897  1.00  0.00    -0.261 N 
HETATM   36  C16 UNL     1      36.581  10.315 -14.772  1.00  0.00     0.217 A 
HETATM   37  C10 UNL     1      35.729   7.862 -14.149  1.00  0.00     0.141 A 
ATOM     38  H6  UNL     1      34.074   8.790 -13.457  1.00  0.00     0.190 HD
HETATM   39  N7  UNL     1      36.916   7.972 -14.714  1.00  0.00    -0.304 N 
HETATM   40  C15 UNL     1      37.350   9.203 -15.030  1.00  0.00     0.293 A 
ATOM     41  H7  UNL     1      37.486   7.148 -14.905  1.00  0.00     0.171 HD
HETATM   42  O6  UNL     1      38.477   9.401 -15.575  1.00  0.00    -0.264 OA
HETATM   43  N8  UNL     1      37.023  11.566 -15.094  1.00  0.00    -0.301 N 
ATOM     44  H8  UNL     1      37.934  11.695 -15.534  1.00  0.00     0.171 HD
BRANCH  32  45
HETATM   45  N4  UNL     1      33.439  10.985 -13.365  1.00  0.00    -0.233 N 
ATOM     46  H42 UNL     1      32.725  11.712 -13.421  1.00  0.00     0.174 HD
ATOM     47  H41 UNL     1      33.204  10.125 -12.869  1.00  0.00     0.174 HD
ENDBRANCH  32  45
BRANCH  37  48
HETATM   48  C11 UNL     1      35.205   6.532 -13.783  1.00  0.00     0.050 A 
HETATM   49  C12 UNL     1      33.979   5.999 -14.065  1.00  0.00     0.023 A 
HETATM   50  C13 UNL     1      33.722   4.761 -13.627  1.00  0.00     0.009 A 
HETATM   51  C14 UNL     1      34.716   4.127 -12.927  1.00  0.00     0.050 A 
HETATM   52  S2  UNL     1      35.970   5.283 -12.908  1.00  0.00    -0.098 SA
ENDBRANCH  37  48
ENDBRANCH  29  30
ENDBRANCH  14  29
BRANCH   5  53
HETATM   53  N2  UNL     1      42.898  12.752 -12.129  1.00  0.00    -0.049 N 
ATOM     54  H23 UNL     1      42.552  13.551 -12.661  1.00  0.00     0.277 HD
ATOM     55  H22 UNL     1      42.912  13.173 -11.201  1.00  0.00     0.277 HD
ATOM     56  H21 UNL     1      43.836  12.484 -12.429  1.00  0.00     0.277 HD
ENDBRANCH   5  53
TORSDOF 5
ENDMDL
MODEL 2
REMARK VINA RESULT: -11.006222695      1.411      2.072
REMARK  5 active torsions:
REMARK  status: ('A' for Active; 'I' for Inactive)
REMARK    1  A    between atoms: C3_5  and  N2_6 
REMARK    2  A    between atoms: C7_18  and  O5_19 
REMARK    3  A    between atoms: O5_19  and  C8_20 
REMARK    4  A    between atoms: C9_23  and  N4_24 
REMARK    5  A    between atoms: C10_30  and  C11_31 
ROOT
HETATM    1  C1  UNL     1      43.462   7.488  -9.633  1.00  0.00     0.089 C 
HETATM    2  C2  UNL     1      42.764   8.780 -10.022  1.00  0.00     0.086 C 
HETATM    3  N1  UNL     1      43.341   9.474 -10.935  1.00  0.00    -0.344 N 
ATOM      4  H1  UNL     1      44.207   9.077 -11.300  1.00  0.00     0.163 HD
HETATM    5  C3  UNL     1      42.953  10.710 -11.511  1.00  0.00     0.356 C 
HETATM    6  S1  UNL     1      42.928  10.549 -13.338  1.00  0.00    -0.007 SA
HETATM    7  C4  UNL     1      43.994  11.713 -14.129  1.00  0.00     0.333 C 
HETATM    8  O1  UNL     1      45.134  11.943 -13.652  1.00  0.00    -0.251 OA
HETATM    9  O2  UNL     1      43.579  12.365 -15.262  1.00  0.00    -0.234 OA
HETATM   10  C5  UNL     1      42.320  12.860 -15.500  1.00  0.00     0.290 C 
HETATM   11  O3  UNL     1      41.759  12.794 -16.647  1.00  0.00    -0.262 OA
HETATM   12  C6  UNL     1      41.518  13.512 -14.424  1.00  0.00     0.283 C 
HETATM   13  O4  UNL     1      40.225  13.002 -14.522  1.00  0.00    -0.343 OA
HETATM   14  C7  UNL     1      39.311  14.000 -14.216  1.00  0.00     0.363 C 
HETATM   15  C17 UNL     1      39.423  14.379 -12.784  1.00  0.00     0.274 C 
HETATM   16  O7  UNL     1      39.301  15.596 -12.448  1.00  0.00    -0.268 OA
HETATM   17  N9  UNL     1      39.664  13.442 -11.743  1.00  0.00    -0.348 N 
ATOM     18  H9  UNL     1      40.287  13.707 -10.980  1.00  0.00     0.163 HD
HETATM   19  C18 UNL     1      39.053  12.105 -11.724  1.00  0.00     0.226 C 
HETATM   20  C19 UNL     1      38.714  11.715 -10.332  1.00  0.00     0.249 C 
HETATM   21  O8  UNL     1      37.640  12.185  -9.821  1.00  0.00    -0.271 OA
HETATM   22  N10 UNL     1      39.485  10.863  -9.517  1.00  0.00    -0.236 N 
ATOM     23  H10 UNL     1      39.658  11.162  -8.558  1.00  0.00     0.183 HD
HETATM   24  S3  UNL     1      40.161   9.352 -10.010  1.00  0.00     0.326 S 
HETATM   25  O9  UNL     1      39.301   8.294  -9.312  1.00  0.00    -0.182 OA
HETATM   26  O10 UNL     1      40.024   9.059 -11.629  1.00  0.00    -0.182 OA
HETATM   27  N11 UNL     1      41.578   9.193  -9.421  1.00  0.00    -0.257 N 
ATOM     28  H11 UNL     1      41.660   9.428  -8.432  1.00  0.00     0.181 HD
ENDROOT
BRANCH  14  29
HETATM   29  O5  UNL     1      38.010  13.641 -14.583  1.00  0.00    -0.280 OA
BRANCH  29  30
HETATM   30  C8  UNL     1      37.539  12.345 -14.439  1.00  0.00     0.242 A 
HETATM   31  N3  UNL     1      38.269  11.341 -14.978  1.00  0.00    -0.153 N 
HETATM   32  C9  UNL     1      37.899  10.056 -14.894  1.00  0.00     0.702 A 
ATOM     33  H3  UNL     1      39.134  11.571 -15.467  1.00  0.00     0.188 HD
HETATM   34  N5  UNL     1      36.755   9.774 -14.243  1.00  0.00    -0.062 N 
HETATM   35  N6  UNL     1      36.338   8.523 -14.128  1.00  0.00    -0.261 N 
HETATM   36  C16 UNL     1      36.006  10.750 -13.696  1.00  0.00     0.217 A 
HETATM   37  C10 UNL     1      35.224   8.203 -13.498  1.00  0.00     0.141 A 
ATOM     38  H6  UNL     1      36.900   7.779 -14.542  1.00  0.00     0.190 HD
HETATM   39  N7  UNL     1      34.457   9.123 -12.945  1.00  0.00    -0.304 N 
HETATM   40  C15 UNL     1      34.845  10.405 -13.041  1.00  0.00     0.293 A 
ATOM     41  H7  UNL     1      33.596   8.869 -12.460  1.00  0.00     0.171 HD
HETATM   42  O6  UNL     1      34.169  11.353 -12.540  1.00  0.00    -0.264 OA
HETATM   43  N8  UNL     1      36.400  12.053 -13.792  1.00  0.00    -0.301 N 
ATOM     44  H8  UNL     1      35.836  12.795 -13.377  1.00  0.00     0.171 HD
BRANCH  32  45
HETATM   45  N4  UNL     1      38.576   9.077 -15.399  1.00  0.00    -0.233 N 
ATOM     46  H42 UNL     1      39.344   9.296 -16.033  1.00  0.00     0.174 HD
ATOM     47  H41 UNL     1      38.387   8.095 -15.201  1.00  0.00     0.174 HD
ENDBRANCH  32  45
BRANCH  37  48
HETATM   48  C11 UNL     1      34.843   6.780 -13.420  1.00  0.00     0.050 A 
HETATM   49  C12 UNL     1      33.724   6.175 -13.918  1.00  0.00     0.023 A 
HETATM   50  C13 UNL     1      33.590   4.858 -13.726  1.00  0.00     0.009 A 
HETATM   51  C14 UNL     1      34.591   4.221 -13.040  1.00  0.00     0.050 A 
HETATM   52  S2  UNL     1      35.682   5.485 -12.692  1.00  0.00    -0.098 SA
ENDBRANCH  37  48
ENDBRANCH  29  30
ENDBRANCH  14  29
BRANCH   5  53
HETATM   53  N2  UNL     1      43.937  11.776 -11.235  1.00  0.00    -0.049 N 
ATOM     54  H23 UNL     1      43.944  12.029 -10.247  1.00  0.00     0.277 HD
ATOM     55  H22 UNL     1      44.893  11.430 -11.318  1.00  0.00     0.277 HD
ATOM     56  H21 UNL     1      43.786  12.594 -11.827  1.00  0.00     0.277 HD
ENDBRANCH   5  53
TORSDOF 5
ENDMDL
MODEL 3
REMARK VINA RESULT: -10.828049710      0.998      1.712
REMARK  5 active torsions:
REMARK  status: ('A' for Active; 'I' for Inactive)
REMARK    1  A    between atoms: C3_5  and  N2_6 
REMARK    2  A    between atoms: C7_18  and  O5_19 
REMARK    3  A    between atoms: O5_19  and  C8_20 
REMARK    4  A    between atoms: C9_23  and  N4_24 
REMARK    5  A    between atoms: C10_30  and  C11_31 
ROOT
HETATM    1  C1  UNL     1      43.167   8.403  -9.994  1.00  0.00     0.089 C 
HETATM    2  C2  UNL     1      42.332   9.590 -10.441  1.00  0.00     0.086 C 
HETATM    3  N1  UNL     1      42.779  10.239 -11.454  1.00  0.00    -0.344 N 
ATOM      4  H1  UNL     1      43.649   9.882 -11.849  1.00  0.00     0.163 HD
HETATM    5  C3  UNL     1      42.243  11.379 -12.106  1.00  0.00     0.356 C 
HETATM    6  S1  UNL     1      42.105  11.043 -13.904  1.00  0.00    -0.007 SA
HETATM    7  C4  UNL     1      43.004  12.210 -14.876  1.00  0.00     0.333 C 
HETATM    8  O1  UNL     1      44.150  12.577 -14.512  1.00  0.00    -0.251 OA
HETATM    9  O2  UNL     1      42.454  12.715 -16.027  1.00  0.00    -0.234 OA
HETATM   10  C5  UNL     1      41.142  13.079 -16.208  1.00  0.00     0.290 C 
HETATM   11  O3  UNL     1      40.510  12.859 -17.297  1.00  0.00    -0.262 OA
HETATM   12  C6  UNL     1      40.363  13.763 -15.134  1.00  0.00     0.283 C 
HETATM   13  O4  UNL     1      39.117  13.142 -15.085  1.00  0.00    -0.343 OA
HETATM   14  C7  UNL     1      38.142  14.086 -14.799  1.00  0.00     0.363 C 
HETATM   15  C17 UNL     1      38.321  14.608 -13.420  1.00  0.00     0.274 C 
HETATM   16  O7  UNL     1      38.115  15.838 -13.184  1.00  0.00    -0.268 OA
HETATM   17  N9  UNL     1      38.717  13.797 -12.321  1.00  0.00    -0.348 N 
ATOM     18  H9  UNL     1      39.365  14.184 -11.636  1.00  0.00     0.163 HD
HETATM   19  C18 UNL     1      38.230  12.423 -12.135  1.00  0.00     0.226 C 
HETATM   20  C19 UNL     1      38.026  12.141 -10.692  1.00  0.00     0.249 C 
HETATM   21  O8  UNL     1      36.953  12.567 -10.142  1.00  0.00    -0.271 OA
HETATM   22  N10 UNL     1      38.924  11.436  -9.868  1.00  0.00    -0.236 N 
ATOM     23  H10 UNL     1      39.137  11.839  -8.955  1.00  0.00     0.183 HD
HETATM   24  S3  UNL     1      39.696   9.946 -10.275  1.00  0.00     0.326 S 
HETATM   25  O9  UNL     1      38.984   8.892  -9.421  1.00  0.00    -0.182 OA
HETATM   26  O10 UNL     1      39.472   9.489 -11.847  1.00  0.00    -0.182 OA
HETATM   27  N11 UNL     1      41.160   9.960  -9.787  1.00  0.00    -0.257 N 
ATOM     28  H11 UNL     1      41.289  10.294  -8.832  1.00  0.00     0.181 HD
ENDROOT
BRANCH  14  29
HETATM   29  O5  UNL     1      36.856  13.588 -15.029  1.00  0.00    -0.280 OA
BRANCH  29  30
HETATM   30  C8  UNL     1      36.536  12.256 -14.818  1.00  0.00     0.242 A 
HETATM   31  N3  UNL     1      37.409  11.318 -15.252  1.00  0.00    -0.153 N 
HETATM   32  C9  UNL     1      37.192  10.005 -15.096  1.00  0.00     0.702 A 
ATOM     33  H3  UNL     1      38.266  11.621 -15.716  1.00  0.00     0.188 HD
HETATM   34  N5  UNL     1      36.057   9.625 -14.481  1.00  0.00    -0.062 N 
HETATM   35  N6  UNL     1      35.787   8.343 -14.298  1.00  0.00    -0.261 N 
HETATM   36  C16 UNL     1      35.168  10.534 -14.037  1.00  0.00     0.217 A 
HETATM   37  C10 UNL     1      34.687   7.928 -13.699  1.00  0.00     0.141 A 
ATOM     38  H6  UNL     1      36.456   7.648 -14.633  1.00  0.00     0.190 HD
HETATM   39  N7  UNL     1      33.787   8.779 -13.247  1.00  0.00    -0.304 N 
HETATM   40  C15 UNL     1      34.023  10.091 -13.413  1.00  0.00     0.293 A 
ATOM     41  H7  UNL     1      32.938   8.452 -12.785  1.00  0.00     0.171 HD
HETATM   42  O6  UNL     1      33.212  10.978 -13.010  1.00  0.00    -0.264 OA
HETATM   43  N8  UNL     1      35.407  11.867 -14.205  1.00  0.00    -0.301 N 
ATOM     44  H8  UNL     1      34.737  12.559 -13.868  1.00  0.00     0.171 HD
BRANCH  32  45
HETATM   45  N4  UNL     1      38.008   9.087 -15.500  1.00  0.00    -0.233 N 
ATOM     46  H42 UNL     1      39.008   9.233 -15.365  1.00  0.00     0.174 HD
ATOM     47  H41 UNL     1      37.711   8.221 -15.951  1.00  0.00     0.174 HD
ENDBRANCH  32  45
BRANCH  37  48
HETATM   48  C11 UNL     1      34.477   6.476 -13.541  1.00  0.00     0.050 A 
HETATM   49  C12 UNL     1      33.447   5.714 -14.016  1.00  0.00     0.023 A 
HETATM   50  C13 UNL     1      33.466   4.404 -13.746  1.00  0.00     0.009 A 
HETATM   51  C14 UNL     1      34.522   3.932 -13.011  1.00  0.00     0.050 A 
HETATM   52  S2  UNL     1      35.448   5.336 -12.725  1.00  0.00    -0.098 SA
ENDBRANCH  37  48
ENDBRANCH  29  30
ENDBRANCH  14  29
BRANCH   5  53
HETATM   53  N2  UNL     1      43.146  12.544 -12.004  1.00  0.00    -0.049 N 
ATOM     54  H23 UNL     1      42.622  13.409 -11.870  1.00  0.00     0.277 HD
ATOM     55  H22 UNL     1      43.666  12.535 -11.127  1.00  0.00     0.277 HD
ATOM     56  H21 UNL     1      43.772  12.609 -12.807  1.00  0.00     0.277 HD
ENDBRANCH   5  53
TORSDOF 5
ENDMDL
MODEL 4
REMARK VINA RESULT: -10.634876027      3.326      7.959
REMARK  5 active torsions:
REMARK  status: ('A' for Active; 'I' for Inactive)
REMARK    1  A    between atoms: C3_5  and  N2_6 
REMARK    2  A    between atoms: C7_18  and  O5_19 
REMARK    3  A    between atoms: O5_19  and  C8_20 
REMARK    4  A    between atoms: C9_23  and  N4_24 
REMARK    5  A    between atoms: C10_30  and  C11_31 
ROOT
HETATM    1  C1  UNL     1      36.677   7.334 -10.831  1.00  0.00     0.089 C 
HETATM    2  C2  UNL     1      37.221   8.283 -11.885  1.00  0.00     0.086 C 
HETATM    3  N1  UNL     1      37.254   9.524 -11.557  1.00  0.00    -0.344 N 
ATOM      4  H1  UNL     1      36.911   9.734 -10.619  1.00  0.00     0.163 HD
HETATM    5  C3  UNL     1      37.697  10.645 -12.304  1.00  0.00     0.356 C 
HETATM    6  S1  UNL     1      38.915  11.594 -11.313  1.00  0.00    -0.007 SA
HETATM    7  C4  UNL     1      38.423  13.271 -11.070  1.00  0.00     0.333 C 
HETATM    8  O1  UNL     1      37.226  13.539 -10.798  1.00  0.00    -0.251 OA
HETATM    9  O2  UNL     1      39.345  14.281 -11.177  1.00  0.00    -0.234 OA
HETATM   10  C5  UNL     1      40.352  14.366 -12.109  1.00  0.00     0.290 C 
HETATM   11  O3  UNL     1      41.517  14.806 -11.825  1.00  0.00    -0.262 OA
HETATM   12  C6  UNL     1      40.146  13.947 -13.526  1.00  0.00     0.283 C 
HETATM   13  O4  UNL     1      41.263  13.199 -13.890  1.00  0.00    -0.343 OA
HETATM   14  C7  UNL     1      41.575  13.451 -15.218  1.00  0.00     0.363 C 
HETATM   15  C17 UNL     1      40.506  12.925 -16.105  1.00  0.00     0.274 C 
HETATM   16  O7  UNL     1      40.168  13.584 -17.135  1.00  0.00    -0.268 OA
HETATM   17  N9  UNL     1      39.822  11.702 -15.867  1.00  0.00    -0.348 N 
ATOM     18  H9  UNL     1      38.821  11.655 -16.057  1.00  0.00     0.163 HD
HETATM   19  C18 UNL     1      40.501  10.502 -15.356  1.00  0.00     0.226 C 
HETATM   20  C19 UNL     1      39.929   9.283 -15.981  1.00  0.00     0.249 C 
HETATM   21  O8  UNL     1      40.321   8.971 -17.158  1.00  0.00    -0.271 OA
HETATM   22  N10 UNL     1      38.980   8.432 -15.382  1.00  0.00    -0.236 N 
ATOM     23  H10 UNL     1      38.183   8.145 -15.950  1.00  0.00     0.183 HD
HETATM   24  S3  UNL     1      39.057   7.833 -13.765  1.00  0.00     0.326 S 
HETATM   25  O9  UNL     1      39.437   6.357 -13.913  1.00  0.00    -0.182 OA
HETATM   26  O10 UNL     1      40.249   8.524 -12.855  1.00  0.00    -0.182 OA
HETATM   27  N11 UNL     1      37.648   7.840 -13.134  1.00  0.00    -0.257 N 
ATOM     28  H11 UNL     1      36.912   7.458 -13.727  1.00  0.00     0.181 HD
ENDROOT
BRANCH  14  29
HETATM   29  O5  UNL     1      42.844  12.970 -15.552  1.00  0.00    -0.280 OA
BRANCH  29  30
HETATM   30  C8  UNL     1      43.581  12.181 -14.684  1.00  0.00     0.242 A 
HETATM   31  N3  UNL     1      43.406  12.364 -13.354  1.00  0.00    -0.153 N 
HETATM   32  C9  UNL     1      44.071  11.652 -12.434  1.00  0.00     0.702 A 
ATOM     33  H3  UNL     1      42.741  13.072 -13.041  1.00  0.00     0.188 HD
HETATM   34  N5  UNL     1      44.942  10.723 -12.869  1.00  0.00    -0.062 N 
HETATM   35  N6  UNL     1      45.628   9.990 -12.008  1.00  0.00    -0.261 N 
HETATM   36  C16 UNL     1      45.140  10.516 -14.185  1.00  0.00     0.217 A 
HETATM   37  C10 UNL     1      46.491   9.068 -12.392  1.00  0.00     0.141 A 
ATOM     38  H6  UNL     1      45.484  10.142 -11.009  1.00  0.00     0.190 HD
HETATM   39  N7  UNL     1      46.719   8.827 -13.669  1.00  0.00    -0.304 N 
HETATM   40  C15 UNL     1      46.043   9.552 -14.575  1.00  0.00     0.293 A 
ATOM     41  H7  UNL     1      47.388   8.114 -13.958  1.00  0.00     0.171 HD
HETATM   42  O6  UNL     1      46.200   9.388 -15.822  1.00  0.00    -0.264 OA
HETATM   43  N8  UNL     1      44.453  11.251 -15.107  1.00  0.00    -0.301 N 
ATOM     44  H8  UNL     1      44.598  11.096 -16.105  1.00  0.00     0.171 HD
BRANCH  32  45
HETATM   45  N4  UNL     1      43.922  11.806 -11.160  1.00  0.00    -0.233 N 
ATOM     46  H42 UNL     1      44.715  12.148 -10.617  1.00  0.00     0.174 HD
ATOM     47  H41 UNL     1      43.056  11.605 -10.661  1.00  0.00     0.174 HD
ENDBRANCH  32  45
BRANCH  37  48
HETATM   48  C11 UNL     1      47.207   8.299 -11.355  1.00  0.00     0.050 A 
HETATM   49  C12 UNL     1      48.518   8.397 -10.985  1.00  0.00     0.023 A 
HETATM   50  C13 UNL     1      48.952   7.589 -10.011  1.00  0.00     0.009 A 
HETATM   51  C14 UNL     1      48.040   6.726  -9.462  1.00  0.00     0.050 A 
HETATM   52  S2  UNL     1      46.612   7.075 -10.328  1.00  0.00    -0.098 SA
ENDBRANCH  37  48
ENDBRANCH  29  30
ENDBRANCH  14  29
BRANCH   5  53
HETATM   53  N2  UNL     1      36.598  11.596 -12.568  1.00  0.00    -0.049 N 
ATOM     54  H23 UNL     1      35.805  11.133 -13.013  1.00  0.00     0.277 HD
ATOM     55  H22 UNL     1      36.146  11.891 -11.703  1.00  0.00     0.277 HD
ATOM     56  H21 UNL     1      36.914  12.398 -13.114  1.00  0.00     0.277 HD
ENDBRANCH   5  53
TORSDOF 5
ENDMDL
MODEL 5
REMARK VINA RESULT: -10.634222434      3.505      6.426
REMARK  5 active torsions:
REMARK  status: ('A' for Active; 'I' for Inactive)
REMARK    1  A    between atoms: C3_5  and  N2_6 
REMARK    2  A    between atoms: C7_18  and  O5_19 
REMARK    3  A    between atoms: O5_19  and  C8_20 
REMARK    4  A    between atoms: C9_23  and  N4_24 
REMARK    5  A    between atoms: C10_30  and  C11_31 
ROOT
HETATM    1  C1  UNL     1      45.047   8.139 -15.295  1.00  0.00     0.089 C 
HETATM    2  C2  UNL     1      44.022   9.260 -15.327  1.00  0.00     0.086 C 
HETATM    3  N1  UNL     1      42.798   8.894 -15.454  1.00  0.00    -0.344 N 
ATOM      4  H1  UNL     1      42.650   7.887 -15.518  1.00  0.00     0.163 HD
HETATM    5  C3  UNL     1      41.621   9.683 -15.519  1.00  0.00     0.356 C 
HETATM    6  S1  UNL     1      40.414   9.077 -14.278  1.00  0.00    -0.007 SA
HETATM    7  C4  UNL     1      38.879   8.605 -15.010  1.00  0.00     0.333 C 
HETATM    8  O1  UNL     1      38.872   7.958 -16.087  1.00  0.00    -0.251 OA
HETATM    9  O2  UNL     1      37.695   8.943 -14.404  1.00  0.00    -0.234 OA
HETATM   10  C5  UNL     1      37.411  10.138 -13.788  1.00  0.00     0.290 C 
HETATM   11  O3  UNL     1      36.723  10.211 -12.713  1.00  0.00    -0.262 OA
HETATM   12  C6  UNL     1      37.890  11.438 -14.339  1.00  0.00     0.283 C 
HETATM   13  O4  UNL     1      38.385  12.173 -13.264  1.00  0.00    -0.343 OA
HETATM   14  C7  UNL     1      38.096  13.516 -13.450  1.00  0.00     0.363 C 
HETATM   15  C17 UNL     1      38.857  14.050 -14.609  1.00  0.00     0.274 C 
HETATM   16  O7  UNL     1      38.305  14.886 -15.388  1.00  0.00    -0.268 OA
HETATM   17  N9  UNL     1      40.194  13.673 -14.907  1.00  0.00    -0.348 N 
ATOM     18  H9  UNL     1      40.460  13.542 -15.884  1.00  0.00     0.163 HD
HETATM   19  C18 UNL     1      41.209  13.464 -13.865  1.00  0.00     0.226 C 
HETATM   20  C19 UNL     1      42.535  13.941 -14.335  1.00  0.00     0.249 C 
HETATM   21  O8  UNL     1      42.775  15.196 -14.280  1.00  0.00    -0.271 OA
HETATM   22  N10 UNL     1      43.560  13.119 -14.842  1.00  0.00    -0.236 N 
ATOM     23  H10 UNL     1      44.022  13.423 -15.698  1.00  0.00     0.183 HD
HETATM   24  S3  UNL     1      44.099  11.641 -14.132  1.00  0.00     0.326 S 
HETATM   25  O9  UNL     1      45.460  11.977 -13.515  1.00  0.00    -0.182 OA
HETATM   26  O10 UNL     1      43.149  11.116 -12.886  1.00  0.00    -0.182 OA
HETATM   27  N11 UNL     1      44.385  10.600 -15.235  1.00  0.00    -0.257 N 
ATOM     28  H11 UNL     1      44.928  10.952 -16.023  1.00  0.00     0.181 HD
ENDROOT
BRANCH  14  29
HETATM   29  O5  UNL     1      38.296  14.257 -12.281  1.00  0.00    -0.280 OA
BRANCH  29  30
HETATM   30  C8  UNL     1      38.109  13.706 -11.024  1.00  0.00     0.242 A 
HETATM   31  N3  UNL     1      37.661  14.515 -10.036  1.00  0.00    -0.153 N 
HETATM   32  C9  UNL     1      37.449  14.079  -8.787  1.00  0.00     0.702 A 
ATOM     33  H3  UNL     1      37.478  15.495 -10.251  1.00  0.00     0.188 HD
HETATM   34  N5  UNL     1      37.695  12.782  -8.525  1.00  0.00    -0.062 N 
HETATM   35  N6  UNL     1      37.504  12.293  -7.310  1.00  0.00    -0.261 N 
HETATM   36  C16 UNL     1      38.141  11.949  -9.485  1.00  0.00     0.217 A 
HETATM   37  C10 UNL     1      37.733  11.028  -7.011  1.00  0.00     0.141 A 
ATOM     38  H6  UNL     1      37.168  12.918  -6.577  1.00  0.00     0.190 HD
HETATM   39  N7  UNL     1      38.170  10.174  -7.918  1.00  0.00    -0.304 N 
HETATM   40  C15 UNL     1      38.377  10.632  -9.163  1.00  0.00     0.293 A 
ATOM     41  H7  UNL     1      38.345   9.198  -7.680  1.00  0.00     0.171 HD
HETATM   42  O6  UNL     1      38.795   9.882 -10.095  1.00  0.00    -0.264 OA
HETATM   43  N8  UNL     1      38.351  12.413 -10.752  1.00  0.00    -0.301 N 
ATOM     44  H8  UNL     1      38.687  11.786 -11.483  1.00  0.00     0.171 HD
BRANCH  32  45
HETATM   45  N4  UNL     1      37.021  14.829  -7.825  1.00  0.00    -0.233 N 
ATOM     46  H42 UNL     1      36.905  14.414  -6.901  1.00  0.00     0.174 HD
ATOM     47  H41 UNL     1      36.791  15.817  -7.935  1.00  0.00     0.174 HD
ENDBRANCH  32  45
BRANCH  37  48
HETATM   48  C11 UNL     1      37.488  10.577  -5.628  1.00  0.00     0.050 A 
HETATM   49  C12 UNL     1      38.356   9.955  -4.776  1.00  0.00     0.023 A 
HETATM   50  C13 UNL     1      37.909   9.635  -3.556  1.00  0.00     0.009 A 
HETATM   51  C14 UNL     1      36.610   9.959  -3.261  1.00  0.00     0.050 A 
HETATM   52  S2  UNL     1      36.063  10.698  -4.699  1.00  0.00    -0.098 SA
ENDBRANCH  37  48
ENDBRANCH  29  30
ENDBRANCH  14  29
BRANCH   5  53
HETATM   53  N2  UNL     1      40.936   9.540 -16.819  1.00  0.00    -0.049 N 
ATOM     54  H23 UNL     1      41.418   8.872 -17.422  1.00  0.00     0.277 HD
ATOM     55  H22 UNL     1      40.047   9.051 -16.719  1.00  0.00     0.277 HD
ATOM     56  H21 UNL     1      40.815  10.440 -17.285  1.00  0.00     0.277 HD
ENDBRANCH   5  53
TORSDOF 5
ENDMDL
