MODEL 1
REMARK VINA RESULT: -12.063005593      0.000      0.000
REMARK  9 active torsions:
REMARK  status: ('A' for Active; 'I' for Inactive)
REMARK    1  A    between atoms: C4_6  and  O3_7 
REMARK    2  A    between atoms: C6_10  and  O4_11 
REMARK    3  A    between atoms: C12_20  and  C13_21 
REMARK    4  A    between atoms: C17_27  and  O9_28 
REMARK    5  A    between atoms: C18_30  and  O10_31 
REMARK    6  A    between atoms: O10_31  and  C19_32 
REMARK    7  A    between atoms: C23_41  and  O15_42 
REMARK    8  A    between atoms: C25_47  and  O18_48 
REMARK    9  A    between atoms: C26_50  and  O19_51 
ROOT
HETATM    1  C13 UNL     1      39.899   9.243 -15.103  1.00  0.00     0.150 A 
HETATM    2  O7  UNL     1      41.151   8.865 -15.392  1.00  0.00    -0.269 OA
HETATM    3  C14 UNL     1      42.022   9.593 -15.989  1.00  0.00     0.300 A 
HETATM    4  O8  UNL     1      43.197   9.198 -16.245  1.00  0.00    -0.259 OA
HETATM    5  C15 UNL     1      41.722  10.884 -16.398  1.00  0.00     0.088 A 
HETATM    6  C16 UNL     1      40.466  11.371 -16.150  1.00  0.00     0.053 A 
HETATM    7  C17 UNL     1      39.545  10.515 -15.487  1.00  0.00     0.116 A 
HETATM    8  C18 UNL     1      40.110  12.705 -16.571  1.00  0.00     0.110 A 
HETATM    9  C24 UNL     1      41.044  13.436 -17.210  1.00  0.00     0.176 A 
HETATM   10  O17 UNL     1      42.291  12.948 -17.459  1.00  0.00    -0.325 OA
HETATM   11  C25 UNL     1      42.746  11.700 -17.080  1.00  0.00     0.304 A 
ENDROOT
BRANCH   1  12
HETATM   12  C12 UNL     1      39.057   8.283 -14.421  1.00  0.00     0.147 A 
HETATM   13  O6  UNL     1      37.716   8.284 -14.556  1.00  0.00    -0.300 OA
HETATM   14  C11 UNL     1      37.150   7.368 -13.885  1.00  0.00     0.147 A 
HETATM   15  C1  UNL     1      35.686   7.112 -13.827  1.00  0.00     0.257 C 
HETATM   16  C10 UNL     1      38.128   6.669 -13.229  1.00  0.00     0.089 A 
HETATM   17  O1  UNL     1      34.982   8.115 -14.104  1.00  0.00    -0.281 OA
HETATM   18  C2  UNL     1      35.016   5.870 -13.499  1.00  0.00     0.238 C 
HETATM   19  O2  UNL     1      33.825   5.801 -13.834  1.00  0.00    -0.283 OA
HETATM   20  C3  UNL     1      35.591   4.697 -12.816  1.00  0.00     0.066 A 
HETATM   21  C4  UNL     1      34.653   3.705 -12.734  1.00  0.00     0.083 A 
HETATM   22  C8  UNL     1      36.869   4.559 -12.315  1.00  0.00     0.035 A 
HETATM   23  C5  UNL     1      35.004   2.523 -12.122  1.00  0.00     0.074 A 
HETATM   24  C6  UNL     1      36.284   2.355 -11.607  1.00  0.00     0.069 A 
HETATM   25  C7  UNL     1      37.208   3.381 -11.710  1.00  0.00     0.053 A 
HETATM   26  C9  UNL     1      37.981   5.538 -12.334  1.00  0.00     0.199 C 
HETATM   27  O5  UNL     1      38.859   5.346 -11.486  1.00  0.00    -0.286 OA
HETATM   28  C26 UNL     1      39.342   7.261 -13.580  1.00  0.00     0.119 A 
BRANCH  21  29
HETATM   29  O3  UNL     1      33.370   3.871 -13.249  1.00  0.00    -0.360 OA
ATOM     30  H3  UNL     1      33.183   4.525 -13.912  1.00  0.00     0.217 HD
ENDBRANCH  21  29
BRANCH  24  31
HETATM   31  O4  UNL     1      36.594   1.148 -11.001  1.00  0.00    -0.361 OA
ATOM     32  H4  UNL     1      36.940   0.449 -11.543  1.00  0.00     0.217 HD
ENDBRANCH  24  31
BRANCH  28  33
HETATM   33  O19 UNL     1      40.523   6.818 -13.114  1.00  0.00    -0.357 OA
ATOM     34  H19 UNL     1      41.345   7.249 -13.316  1.00  0.00     0.218 HD
ENDBRANCH  28  33
ENDBRANCH   1  12
BRANCH   7  35
HETATM   35  O9  UNL     1      38.327  10.965 -15.245  1.00  0.00    -0.357 OA
ATOM     36  H9  UNL     1      37.664  10.934 -15.925  1.00  0.00     0.217 HD
ENDBRANCH   7  35
BRANCH   8  37
HETATM   37  O10 UNL     1      38.870  13.248 -16.342  1.00  0.00    -0.294 OA
BRANCH  37  38
HETATM   38  C19 UNL     1      38.668  14.287 -15.408  1.00  0.00     0.419 C 
HETATM   39  O11 UNL     1      37.316  14.625 -15.440  1.00  0.00    -0.336 OA
HETATM   40  C20 UNL     1      37.035  15.212 -14.209  1.00  0.00     0.217 C 
HETATM   41  C21 UNL     1      38.145  14.760 -13.299  1.00  0.00     0.152 C 
HETATM   42  C22 UNL     1      37.564  13.931 -12.210  1.00  0.00     0.234 C 
HETATM   43  C23 UNL     1      38.810  15.960 -12.672  1.00  0.00     0.307 C 
HETATM   44  O16 UNL     1      39.005  14.034 -14.117  1.00  0.00    -0.319 OA
HETATM   45  O12 UNL     1      38.526  13.769 -11.217  1.00  0.00    -0.271 OA
HETATM   46  S1  UNL     1      38.989  15.389 -10.974  1.00  0.00     0.295 S 
HETATM   47  O13 UNL     1      37.992  16.017 -10.074  1.00  0.00    -0.196 OA
HETATM   48  O14 UNL     1      40.384  15.495 -10.495  1.00  0.00    -0.196 OA
BRANCH  43  49
HETATM   49  O15 UNL     1      38.066  17.109 -12.753  1.00  0.00    -0.375 OA
ATOM     50  H15 UNL     1      38.136  17.552 -13.590  1.00  0.00     0.211 HD
ENDBRANCH  43  49
ENDBRANCH  37  38
ENDBRANCH   8  37
BRANCH  11  51
HETATM   51  O18 UNL     1      43.771  11.896 -16.137  1.00  0.00    -0.366 OA
ATOM     52  H18 UNL     1      43.369  11.765 -15.286  1.00  0.00     0.213 HD
ENDBRANCH  11  51
TORSDOF 9
ENDMDL
MODEL 2
REMARK VINA RESULT: -10.761631284      1.973      5.404
REMARK  9 active torsions:
REMARK  status: ('A' for Active; 'I' for Inactive)
REMARK    1  A    between atoms: C4_6  and  O3_7 
REMARK    2  A    between atoms: C6_10  and  O4_11 
REMARK    3  A    between atoms: C12_20  and  C13_21 
REMARK    4  A    between atoms: C17_27  and  O9_28 
REMARK    5  A    between atoms: C18_30  and  O10_31 
REMARK    6  A    between atoms: O10_31  and  C19_32 
REMARK    7  A    between atoms: C23_41  and  O15_42 
REMARK    8  A    between atoms: C25_47  and  O18_48 
REMARK    9  A    between atoms: C26_50  and  O19_51 
ROOT
HETATM    1  C13 UNL     1      37.707  11.438 -11.581  1.00  0.00     0.150 A 
HETATM    2  O7  UNL     1      37.719  11.788 -10.288  1.00  0.00    -0.269 OA
HETATM    3  C14 UNL     1      37.955  12.968  -9.846  1.00  0.00     0.300 A 
HETATM    4  O8  UNL     1      37.958  13.259  -8.615  1.00  0.00    -0.259 OA
HETATM    5  C15 UNL     1      38.227  14.019 -10.710  1.00  0.00     0.088 A 
HETATM    6  C16 UNL     1      38.239  13.770 -12.056  1.00  0.00     0.053 A 
HETATM    7  C17 UNL     1      37.972  12.441 -12.484  1.00  0.00     0.116 A 
HETATM    8  C18 UNL     1      38.530  14.833 -12.988  1.00  0.00     0.110 A 
HETATM    9  C24 UNL     1      38.791  16.057 -12.487  1.00  0.00     0.176 A 
HETATM   10  O17 UNL     1      38.782  16.301 -11.148  1.00  0.00    -0.325 OA
HETATM   11  C25 UNL     1      38.493  15.368 -10.171  1.00  0.00     0.304 A 
ENDROOT
BRANCH   1  12
HETATM   12  C12 UNL     1      37.417  10.054 -11.891  1.00  0.00     0.147 A 
HETATM   13  O6  UNL     1      38.220   9.047 -11.489  1.00  0.00    -0.300 OA
HETATM   14  C11 UNL     1      37.802   7.906 -11.853  1.00  0.00     0.147 A 
HETATM   15  C1  UNL     1      38.465   6.606 -11.564  1.00  0.00     0.257 C 
HETATM   16  C10 UNL     1      36.641   8.093 -12.554  1.00  0.00     0.089 A 
HETATM   17  O1  UNL     1      39.698   6.702 -11.339  1.00  0.00    -0.281 OA
HETATM   18  C2  UNL     1      37.857   5.293 -11.517  1.00  0.00     0.238 C 
HETATM   19  O2  UNL     1      38.519   4.418 -10.940  1.00  0.00    -0.283 OA
HETATM   20  C3  UNL     1      36.554   4.889 -12.075  1.00  0.00     0.066 A 
HETATM   21  C4  UNL     1      36.312   3.575 -11.783  1.00  0.00     0.083 A 
HETATM   22  C8  UNL     1      35.669   5.669 -12.792  1.00  0.00     0.035 A 
HETATM   23  C5  UNL     1      35.137   3.013 -12.227  1.00  0.00     0.074 A 
HETATM   24  C6  UNL     1      34.227   3.774 -12.952  1.00  0.00     0.069 A 
HETATM   25  C7  UNL     1      34.504   5.101 -13.228  1.00  0.00     0.053 A 
HETATM   26  C9  UNL     1      35.795   7.095 -13.179  1.00  0.00     0.199 C 
HETATM   27  O5  UNL     1      35.096   7.438 -14.137  1.00  0.00    -0.286 OA
HETATM   28  C26 UNL     1      36.404   9.468 -12.571  1.00  0.00     0.119 A 
BRANCH  21  29
HETATM   29  O3  UNL     1      37.223   2.812 -11.057  1.00  0.00    -0.360 OA
ATOM     30  H3  UNL     1      38.159   2.902 -11.187  1.00  0.00     0.217 HD
ENDBRANCH  21  29
BRANCH  24  31
HETATM   31  O4  UNL     1      33.056   3.166 -13.376  1.00  0.00    -0.361 OA
ATOM     32  H4  UNL     1      32.362   3.717 -13.716  1.00  0.00     0.217 HD
ENDBRANCH  24  31
BRANCH  28  33
HETATM   33  O19 UNL     1      35.333  10.009 -13.178  1.00  0.00    -0.357 OA
ATOM     34  H19 UNL     1      35.303  10.166 -14.114  1.00  0.00     0.218 HD
ENDBRANCH  28  33
ENDBRANCH   1  12
BRANCH   7  35
HETATM   35  O9  UNL     1      37.986  12.180 -13.779  1.00  0.00    -0.357 OA
ATOM     36  H9  UNL     1      38.235  12.855 -14.399  1.00  0.00     0.217 HD
ENDBRANCH   7  35
BRANCH   8  37
HETATM   37  O10 UNL     1      38.548  14.643 -14.347  1.00  0.00    -0.294 OA
BRANCH  37  38
HETATM   38  C19 UNL     1      39.345  13.650 -14.955  1.00  0.00     0.419 C 
HETATM   39  O11 UNL     1      39.311  13.865 -16.331  1.00  0.00    -0.336 OA
HETATM   40  C20 UNL     1      40.463  13.275 -16.844  1.00  0.00     0.217 C 
HETATM   41  C21 UNL     1      41.390  13.142 -15.665  1.00  0.00     0.152 C 
HETATM   42  C22 UNL     1      42.594  13.979 -15.905  1.00  0.00     0.234 C 
HETATM   43  C23 UNL     1      41.836  11.707 -15.528  1.00  0.00     0.307 C 
HETATM   44  O16 UNL     1      40.647  13.581 -14.573  1.00  0.00    -0.319 OA
HETATM   45  O12 UNL     1      43.571  13.627 -14.977  1.00  0.00    -0.271 OA
HETATM   46  S1  UNL     1      43.586  11.937 -15.180  1.00  0.00     0.295 S 
HETATM   47  O13 UNL     1      44.429  11.628 -16.360  1.00  0.00    -0.196 OA
HETATM   48  O14 UNL     1      44.005  11.240 -13.944  1.00  0.00    -0.196 OA
BRANCH  43  49
HETATM   49  O15 UNL     1      41.629  10.954 -16.656  1.00  0.00    -0.375 OA
ATOM     50  H15 UNL     1      42.354  10.380 -16.871  1.00  0.00     0.211 HD
ENDBRANCH  43  49
ENDBRANCH  37  38
ENDBRANCH   8  37
BRANCH  11  51
HETATM   51  O18 UNL     1      37.299  15.772  -9.545  1.00  0.00    -0.366 OA
ATOM     52  H18 UNL     1      37.197  16.693  -9.755  1.00  0.00     0.213 HD
ENDBRANCH  11  51
TORSDOF 9
ENDMDL
MODEL 3
REMARK VINA RESULT: -10.734897978      5.073      8.193
REMARK  9 active torsions:
REMARK  status: ('A' for Active; 'I' for Inactive)
REMARK    1  A    between atoms: C4_6  and  O3_7 
REMARK    2  A    between atoms: C6_10  and  O4_11 
REMARK    3  A    between atoms: C12_20  and  C13_21 
REMARK    4  A    between atoms: C17_27  and  O9_28 
REMARK    5  A    between atoms: C18_30  and  O10_31 
REMARK    6  A    between atoms: O10_31  and  C19_32 
REMARK    7  A    between atoms: C23_41  and  O15_42 
REMARK    8  A    between atoms: C25_47  and  O18_48 
REMARK    9  A    between atoms: C26_50  and  O19_51 
ROOT
HETATM    1  C13 UNL     1      39.889  13.177 -13.343  1.00  0.00     0.150 A 
HETATM    2  O7  UNL     1      39.027  13.369 -14.350  1.00  0.00    -0.269 OA
HETATM    3  C14 UNL     1      39.350  13.477 -15.586  1.00  0.00     0.300 A 
HETATM    4  O8  UNL     1      38.505  13.659 -16.510  1.00  0.00    -0.259 OA
HETATM    5  C15 UNL     1      40.675  13.399 -15.993  1.00  0.00     0.088 A 
HETATM    6  C16 UNL     1      41.639  13.203 -15.040  1.00  0.00     0.053 A 
HETATM    7  C17 UNL     1      41.217  13.093 -13.688  1.00  0.00     0.116 A 
HETATM    8  C18 UNL     1      43.029  13.129 -15.421  1.00  0.00     0.110 A 
HETATM    9  C24 UNL     1      43.334  13.264 -16.727  1.00  0.00     0.176 A 
HETATM   10  O17 UNL     1      42.374  13.463 -17.671  1.00  0.00    -0.325 OA
HETATM   11  C25 UNL     1      41.016  13.525 -17.424  1.00  0.00     0.304 A 
ENDROOT
BRANCH   1  12
HETATM   12  C12 UNL     1      39.337  13.077 -12.008  1.00  0.00     0.147 A 
HETATM   13  O6  UNL     1      39.215  11.895 -11.371  1.00  0.00    -0.300 OA
HETATM   14  C11 UNL     1      38.712  12.008 -10.211  1.00  0.00     0.147 A 
HETATM   15  C1  UNL     1      38.452  10.890  -9.265  1.00  0.00     0.257 C 
HETATM   16  C10 UNL     1      38.455  13.336  -9.997  1.00  0.00     0.089 A 
HETATM   17  O1  UNL     1      38.321   9.771  -9.823  1.00  0.00    -0.281 OA
HETATM   18  C2  UNL     1      38.340  10.957  -7.823  1.00  0.00     0.238 C 
HETATM   19  O2  UNL     1      38.454   9.877  -7.227  1.00  0.00    -0.283 OA
HETATM   20  C3  UNL     1      38.107  12.157  -6.999  1.00  0.00     0.066 A 
HETATM   21  C4  UNL     1      38.113  11.816  -5.674  1.00  0.00     0.083 A 
HETATM   22  C8  UNL     1      37.906  13.450  -7.436  1.00  0.00     0.035 A 
HETATM   23  C5  UNL     1      37.907  12.809  -4.743  1.00  0.00     0.074 A 
HETATM   24  C6  UNL     1      37.701  14.121  -5.154  1.00  0.00     0.069 A 
HETATM   25  C7  UNL     1      37.703  14.430  -6.503  1.00  0.00     0.053 A 
HETATM   26  C9  UNL     1      37.875  13.964  -8.826  1.00  0.00     0.199 C 
HETATM   27  O5  UNL     1      37.286  15.039  -8.972  1.00  0.00    -0.286 OA
HETATM   28  C26 UNL     1      38.860  14.010 -11.150  1.00  0.00     0.119 A 
BRANCH  21  29
HETATM   29  O3  UNL     1      38.319  10.503  -5.262  1.00  0.00    -0.360 OA
ATOM     30  H3  UNL     1      39.176  10.196  -4.992  1.00  0.00     0.217 HD
ENDBRANCH  21  29
BRANCH  24  31
HETATM   31  O4  UNL     1      37.500  15.088  -4.182  1.00  0.00    -0.361 OA
ATOM     32  H4  UNL     1      38.124  15.802  -4.122  1.00  0.00     0.217 HD
ENDBRANCH  24  31
BRANCH  28  33
HETATM   33  O19 UNL     1      38.754  15.344 -11.282  1.00  0.00    -0.357 OA
ATOM     34  H19 UNL     1      39.368  15.856 -11.794  1.00  0.00     0.218 HD
ENDBRANCH  28  33
ENDBRANCH   1  12
BRANCH   7  35
HETATM   35  O9  UNL     1      42.134  12.911 -12.754  1.00  0.00    -0.357 OA
ATOM     36  H9  UNL     1      43.050  12.833 -12.994  1.00  0.00     0.217 HD
ENDBRANCH   7  35
BRANCH   8  37
HETATM   37  O10 UNL     1      44.037  12.926 -14.511  1.00  0.00    -0.294 OA
BRANCH  37  38
HETATM   38  C19 UNL     1      44.575  11.645 -14.263  1.00  0.00     0.419 C 
HETATM   39  O11 UNL     1      45.701  11.810 -13.459  1.00  0.00    -0.336 OA
HETATM   40  C20 UNL     1      45.886  10.597 -12.799  1.00  0.00     0.217 C 
HETATM   41  C21 UNL     1      44.555   9.900 -12.884  1.00  0.00     0.152 C 
HETATM   42  C22 UNL     1      44.017   9.727 -11.509  1.00  0.00     0.234 C 
HETATM   43  C23 UNL     1      44.735   8.532 -13.494  1.00  0.00     0.307 C 
HETATM   44  O16 UNL     1      43.761  10.737 -13.663  1.00  0.00    -0.319 OA
HETATM   45  O12 UNL     1      42.953   8.830 -11.561  1.00  0.00    -0.271 OA
HETATM   46  S1  UNL     1      43.676   7.550 -12.419  1.00  0.00     0.295 S 
HETATM   47  O13 UNL     1      44.465   6.745 -11.455  1.00  0.00    -0.196 OA
HETATM   48  O14 UNL     1      42.679   6.768 -13.182  1.00  0.00    -0.196 OA
BRANCH  43  49
HETATM   49  O15 UNL     1      46.032   8.089 -13.484  1.00  0.00    -0.375 OA
ATOM     50  H15 UNL     1      46.374   7.924 -12.613  1.00  0.00     0.211 HD
ENDBRANCH  43  49
ENDBRANCH  37  38
ENDBRANCH   8  37
BRANCH  11  51
HETATM   51  O18 UNL     1      40.423  12.417 -18.058  1.00  0.00    -0.366 OA
ATOM     52  H18 UNL     1      39.624  12.743 -18.455  1.00  0.00     0.213 HD
ENDBRANCH  11  51
TORSDOF 9
ENDMDL
MODEL 4
REMARK VINA RESULT: -10.694790463      2.197      5.222
REMARK  9 active torsions:
REMARK  status: ('A' for Active; 'I' for Inactive)
REMARK    1  A    between atoms: C4_6  and  O3_7 
REMARK    2  A    between atoms: C6_10  and  O4_11 
REMARK    3  A    between atoms: C12_20  and  C13_21 
REMARK    4  A    between atoms: C17_27  and  O9_28 
REMARK    5  A    between atoms: C18_30  and  O10_31 
REMARK    6  A    between atoms: O10_31  and  C19_32 
REMARK    7  A    between atoms: C23_41  and  O15_42 
REMARK    8  A    between atoms: C25_47  and  O18_48 
REMARK    9  A    between atoms: C26_50  and  O19_51 
ROOT
HETATM    1  C13 UNL     1      36.819  10.409 -13.422  1.00  0.00     0.150 A 
HETATM    2  O7  UNL     1      35.783  10.980 -14.050  1.00  0.00    -0.269 OA
HETATM    3  C14 UNL     1      35.630  12.241 -14.223  1.00  0.00     0.300 A 
HETATM    4  O8  UNL     1      34.635  12.743 -14.822  1.00  0.00    -0.259 OA
HETATM    5  C15 UNL     1      36.568  13.151 -13.754  1.00  0.00     0.088 A 
HETATM    6  C16 UNL     1      37.669  12.671 -13.097  1.00  0.00     0.053 A 
HETATM    7  C17 UNL     1      37.780  11.263 -12.935  1.00  0.00     0.116 A 
HETATM    8  C18 UNL     1      38.661  13.585 -12.582  1.00  0.00     0.110 A 
HETATM    9  C24 UNL     1      38.460  14.904 -12.767  1.00  0.00     0.176 A 
HETATM   10  O17 UNL     1      37.362  15.379 -13.417  1.00  0.00    -0.325 OA
HETATM   11  C25 UNL     1      36.366  14.597 -13.970  1.00  0.00     0.304 A 
ENDROOT
BRANCH   1  12
HETATM   12  C12 UNL     1      36.821   8.964 -13.325  1.00  0.00     0.147 A 
HETATM   13  O6  UNL     1      37.953   8.262 -13.116  1.00  0.00    -0.300 OA
HETATM   14  C11 UNL     1      37.755   7.010 -13.059  1.00  0.00     0.147 A 
HETATM   15  C1  UNL     1      38.800   5.975 -12.839  1.00  0.00     0.257 C 
HETATM   16  C10 UNL     1      36.415   6.793 -13.237  1.00  0.00     0.089 A 
HETATM   17  O1  UNL     1      39.957   6.342 -13.167  1.00  0.00    -0.281 OA
HETATM   18  C2  UNL     1      38.627   4.640 -12.305  1.00  0.00     0.238 C 
HETATM   19  O2  UNL     1      39.661   4.086 -11.905  1.00  0.00    -0.283 OA
HETATM   20  C3  UNL     1      37.370   3.879 -12.189  1.00  0.00     0.066 A 
HETATM   21  C4  UNL     1      37.613   2.675 -11.588  1.00  0.00     0.083 A 
HETATM   22  C8  UNL     1      36.112   4.267 -12.603  1.00  0.00     0.035 A 
HETATM   23  C5  UNL     1      36.554   1.817 -11.393  1.00  0.00     0.074 A 
HETATM   24  C6  UNL     1      35.275   2.179 -11.801  1.00  0.00     0.069 A 
HETATM   25  C7  UNL     1      35.067   3.407 -12.405  1.00  0.00     0.053 A 
HETATM   26  C9  UNL     1      35.702   5.530 -13.261  1.00  0.00     0.199 C 
HETATM   27  O5  UNL     1      34.640   5.471 -13.888  1.00  0.00    -0.286 OA
HETATM   28  C26 UNL     1      35.827   8.048 -13.405  1.00  0.00     0.119 A 
BRANCH  21  29
HETATM   29  O3  UNL     1      38.893   2.310 -11.179  1.00  0.00    -0.360 OA
ATOM     30  H3  UNL     1      39.167   1.401 -11.161  1.00  0.00     0.217 HD
ENDBRANCH  21  29
BRANCH  24  31
HETATM   31  O4  UNL     1      34.240   1.285 -11.584  1.00  0.00    -0.361 OA
ATOM     32  H4  UNL     1      33.655   1.090 -12.306  1.00  0.00     0.217 HD
ENDBRANCH  24  31
BRANCH  28  33
HETATM   33  O19 UNL     1      34.507   8.207 -13.601  1.00  0.00    -0.357 OA
ATOM     34  H19 UNL     1      33.887   8.256 -12.883  1.00  0.00     0.218 HD
ENDBRANCH  28  33
ENDBRANCH   1  12
BRANCH   7  35
HETATM   35  O9  UNL     1      38.832  10.782 -12.298  1.00  0.00    -0.357 OA
ATOM     36  H9  UNL     1      39.453  11.374 -11.888  1.00  0.00     0.217 HD
ENDBRANCH   7  35
BRANCH   8  37
HETATM   37  O10 UNL     1      39.788  13.160 -11.923  1.00  0.00    -0.294 OA
BRANCH  37  38
HETATM   38  C19 UNL     1      41.031  13.023 -12.577  1.00  0.00     0.419 C 
HETATM   39  O11 UNL     1      41.426  11.692 -12.456  1.00  0.00    -0.336 OA
HETATM   40  C20 UNL     1      42.308  11.453 -13.507  1.00  0.00     0.217 C 
HETATM   41  C21 UNL     1      42.028  12.544 -14.507  1.00  0.00     0.152 C 
HETATM   42  C22 UNL     1      41.520  11.926 -15.760  1.00  0.00     0.234 C 
HETATM   43  C23 UNL     1      43.306  13.279 -14.829  1.00  0.00     0.307 C 
HETATM   44  O16 UNL     1      41.079  13.357 -13.893  1.00  0.00    -0.319 OA
HETATM   45  O12 UNL     1      41.550  12.886 -16.769  1.00  0.00    -0.271 OA
HETATM   46  S1  UNL     1      43.152  13.440 -16.615  1.00  0.00     0.295 S 
HETATM   47  O13 UNL     1      44.033  12.487 -17.332  1.00  0.00    -0.196 OA
HETATM   48  O14 UNL     1      43.292  14.843 -17.063  1.00  0.00    -0.196 OA
BRANCH  43  49
HETATM   49  O15 UNL     1      44.440  12.599 -14.468  1.00  0.00    -0.375 OA
ATOM     50  H15 UNL     1      44.814  12.078 -15.169  1.00  0.00     0.211 HD
ENDBRANCH  43  49
ENDBRANCH  37  38
ENDBRANCH   8  37
BRANCH  11  51
HETATM   51  O18 UNL     1      36.410  14.786 -15.364  1.00  0.00    -0.366 OA
ATOM     52  H18 UNL     1      36.848  15.618 -15.499  1.00  0.00     0.213 HD
ENDBRANCH  11  51
TORSDOF 9
ENDMDL
MODEL 5
REMARK VINA RESULT: -10.433799499      5.261      8.609
REMARK  9 active torsions:
REMARK  status: ('A' for Active; 'I' for Inactive)
REMARK    1  A    between atoms: C4_6  and  O3_7 
REMARK    2  A    between atoms: C6_10  and  O4_11 
REMARK    3  A    between atoms: C12_20  and  C13_21 
REMARK    4  A    between atoms: C17_27  and  O9_28 
REMARK    5  A    between atoms: C18_30  and  O10_31 
REMARK    6  A    between atoms: O10_31  and  C19_32 
REMARK    7  A    between atoms: C23_41  and  O15_42 
REMARK    8  A    between atoms: C25_47  and  O18_48 
REMARK    9  A    between atoms: C26_50  and  O19_51 
ROOT
HETATM    1  C13 UNL     1      39.726  13.190 -12.963  1.00  0.00     0.150 A 
HETATM    2  O7  UNL     1      38.874  13.369 -13.981  1.00  0.00    -0.269 OA
HETATM    3  C14 UNL     1      39.211  13.479 -15.213  1.00  0.00     0.300 A 
HETATM    4  O8  UNL     1      38.375  13.649 -16.147  1.00  0.00    -0.259 OA
HETATM    5  C15 UNL     1      40.541  13.416 -15.604  1.00  0.00     0.088 A 
HETATM    6  C16 UNL     1      41.496  13.234 -14.639  1.00  0.00     0.053 A 
HETATM    7  C17 UNL     1      41.059  13.121 -13.291  1.00  0.00     0.116 A 
HETATM    8  C18 UNL     1      42.891  13.176 -15.003  1.00  0.00     0.110 A 
HETATM    9  C24 UNL     1      43.210  13.312 -16.305  1.00  0.00     0.176 A 
HETATM   10  O17 UNL     1      42.259  13.497 -17.262  1.00  0.00    -0.325 OA
HETATM   11  C25 UNL     1      40.898  13.543 -17.030  1.00  0.00     0.304 A 
ENDROOT
BRANCH   1  12
HETATM   12  C12 UNL     1      39.159  13.086 -11.634  1.00  0.00     0.147 A 
HETATM   13  O6  UNL     1      38.995  11.898 -11.017  1.00  0.00    -0.300 OA
HETATM   14  C11 UNL     1      38.486  12.008  -9.860  1.00  0.00     0.147 A 
HETATM   15  C1  UNL     1      38.183  10.884  -8.935  1.00  0.00     0.257 C 
HETATM   16  C10 UNL     1      38.268  13.340  -9.627  1.00  0.00     0.089 A 
HETATM   17  O1  UNL     1      38.024   9.778  -9.511  1.00  0.00    -0.281 OA
HETATM   18  C2  UNL     1      38.061  10.932  -7.492  1.00  0.00     0.238 C 
HETATM   19  O2  UNL     1      38.137   9.839  -6.913  1.00  0.00    -0.283 OA
HETATM   20  C3  UNL     1      37.856  12.125  -6.651  1.00  0.00     0.066 A 
HETATM   21  C4  UNL     1      37.840  11.763  -5.332  1.00  0.00     0.083 A 
HETATM   22  C8  UNL     1      37.699  13.431  -7.069  1.00  0.00     0.035 A 
HETATM   23  C5  UNL     1      37.656  12.747  -4.387  1.00  0.00     0.074 A 
HETATM   24  C6  UNL     1      37.494  14.071  -4.779  1.00  0.00     0.069 A 
HETATM   25  C7  UNL     1      37.517  14.401  -6.123  1.00  0.00     0.053 A 
HETATM   26  C9  UNL     1      37.696  13.966  -8.451  1.00  0.00     0.199 C 
HETATM   27  O5  UNL     1      37.141  15.061  -8.585  1.00  0.00    -0.286 OA
HETATM   28  C26 UNL     1      38.702  14.019 -10.766  1.00  0.00     0.119 A 
BRANCH  21  29
HETATM   29  O3  UNL     1      38.002  10.438  -4.939  1.00  0.00    -0.360 OA
ATOM     30  H3  UNL     1      38.180  10.206  -4.036  1.00  0.00     0.217 HD
ENDBRANCH  21  29
BRANCH  24  31
HETATM   31  O4  UNL     1      37.313  15.028  -3.793  1.00  0.00    -0.361 OA
ATOM     32  H4  UNL     1      36.703  15.737  -3.961  1.00  0.00     0.217 HD
ENDBRANCH  24  31
BRANCH  28  33
HETATM   33  O19 UNL     1      38.638  15.357 -10.877  1.00  0.00    -0.357 OA
ATOM     34  H19 UNL     1      38.428  15.791 -11.695  1.00  0.00     0.218 HD
ENDBRANCH  28  33
ENDBRANCH   1  12
BRANCH   7  35
HETATM   35  O9  UNL     1      41.967  12.952 -12.346  1.00  0.00    -0.357 OA
ATOM     36  H9  UNL     1      42.889  13.057 -12.547  1.00  0.00     0.217 HD
ENDBRANCH   7  35
BRANCH   8  37
HETATM   37  O10 UNL     1      43.890  12.986 -14.081  1.00  0.00    -0.294 OA
BRANCH  37  38
HETATM   38  C19 UNL     1      44.420  11.709 -13.801  1.00  0.00     0.419 C 
HETATM   39  O11 UNL     1      43.421  10.772 -14.063  1.00  0.00    -0.336 OA
HETATM   40  C20 UNL     1      44.075   9.568 -14.311  1.00  0.00     0.217 C 
HETATM   41  C21 UNL     1      45.488   9.956 -14.658  1.00  0.00     0.152 C 
HETATM   42  C22 UNL     1      45.764   9.550 -16.061  1.00  0.00     0.234 C 
HETATM   43  C23 UNL     1      46.452   9.223 -13.758  1.00  0.00     0.307 C 
HETATM   44  O16 UNL     1      45.533  11.336 -14.486  1.00  0.00    -0.319 OA
HETATM   45  O12 UNL     1      47.137   9.629 -16.282  1.00  0.00    -0.271 OA
HETATM   46  S1  UNL     1      47.710   8.737 -14.950  1.00  0.00     0.295 S 
HETATM   47  O13 UNL     1      47.618   7.298 -15.293  1.00  0.00    -0.196 OA
HETATM   48  O14 UNL     1      49.064   9.172 -14.540  1.00  0.00    -0.196 OA
BRANCH  43  49
HETATM   49  O15 UNL     1      45.900   8.142 -13.121  1.00  0.00    -0.375 OA
ATOM     50  H15 UNL     1      45.211   8.369 -12.509  1.00  0.00     0.211 HD
ENDBRANCH  43  49
ENDBRANCH  37  38
ENDBRANCH   8  37
BRANCH  11  51
HETATM   51  O18 UNL     1      40.326  12.427 -17.669  1.00  0.00    -0.366 OA
ATOM     52  H18 UNL     1      41.035  11.806 -17.788  1.00  0.00     0.213 HD
ENDBRANCH  11  51
TORSDOF 9
ENDMDL
