MODEL 1
REMARK VINA RESULT: -11.723497706      0.000      0.000
REMARK  8 active torsions:
REMARK  status: ('A' for Active; 'I' for Inactive)
REMARK    1  A    between atoms: N2_9  and  C7_10 
REMARK    2  A    between atoms: C7_10  and  O2_11 
REMARK    3  A    between atoms: C7_10  and  N3_13 
REMARK    4  A    between atoms: N4_16  and  C10_17 
REMARK    5  A    between atoms: C12_19  and  O3_20 
REMARK    6  A    between atoms: C13_22  and  O4_23 
REMARK    7  A    between atoms: N5_28  and  O5_29 
REMARK    8  A    between atoms: C17_31  and  C18_32 
ROOT
HETATM    1  C18 UNL     1      38.215  13.981 -10.385  1.00  0.00     0.113 A 
HETATM    2  C19 UNL     1      37.723  13.623 -11.623  1.00  0.00     0.161 A 
HETATM    3  N6  UNL     1      38.033  14.613 -12.476  1.00  0.00    -0.090 N 
HETATM    4  C20 UNL     1      37.730  14.677 -13.859  1.00  0.00     0.203 C 
HETATM    5  N7  UNL     1      37.499  14.723 -14.987  1.00  0.00    -0.171 NA
HETATM    6  C21 UNL     1      38.695  15.563 -11.811  1.00  0.00     0.692 A 
HETATM    7  N8  UNL     1      39.171  16.684 -12.264  1.00  0.00    -0.233 N 
ATOM      8  H81 UNL     1      39.677  17.410 -11.756  1.00  0.00     0.174 HD
ATOM      9  H82 UNL     1      39.089  16.982 -13.236  1.00  0.00     0.174 HD
HETATM   10  N9  UNL     1      38.802  15.173 -10.538  1.00  0.00    -0.186 N 
ATOM     11  H9  UNL     1      39.261  15.703  -9.798  1.00  0.00     0.184 HD
ENDROOT
BRANCH   1  12
HETATM   12  C17 UNL     1      38.087  13.159  -9.161  1.00  0.00     0.164 A 
HETATM   13  N5  UNL     1      37.667  13.691  -7.924  1.00  0.00    -0.202 N 
HETATM   14  C16 UNL     1      37.554  12.843  -6.767  1.00  0.00     0.118 A 
HETATM   15  C11 UNL     1      37.873  11.504  -6.935  1.00  0.00     0.078 A 
HETATM   16  C15 UNL     1      37.146  13.358  -5.567  1.00  0.00     0.142 A 
HETATM   17  C10 UNL     1      38.262  11.008  -8.086  1.00  0.00     0.145 A 
HETATM   18  C12 UNL     1      37.761  10.684  -5.815  1.00  0.00     0.116 A 
HETATM   19  N10 UNL     1      38.359  11.916  -9.230  1.00  0.00    -0.323 N 
ATOM     20  H10 UNL     1      38.661  11.536 -10.126  1.00  0.00     0.169 HD
HETATM   21  C13 UNL     1      37.346  11.204  -4.583  1.00  0.00     0.113 A 
HETATM   22  C14 UNL     1      37.047  12.535  -4.491  1.00  0.00     0.040 A 
HETATM   23  C23 UNL     1      36.653  13.021  -3.324  1.00  0.00     0.036 A 
HETATM   24  C22 UNL     1      36.344  14.436  -3.261  1.00  0.00     0.115 A 
HETATM   25  N11 UNL     1      36.442  15.217  -4.295  1.00  0.00    -0.272 N 
HETATM   26  O6  UNL     1      36.848  14.724  -5.509  1.00  0.00    -0.235 OA
ATOM     27  H11 UNL     1      36.214  16.208  -4.204  1.00  0.00     0.194 HD
BRANCH  13  28
HETATM   28  O5  UNL     1      37.372  15.001  -7.811  1.00  0.00    -0.281 OA
ATOM     29  H5  UNL     1      37.916  15.639  -8.257  1.00  0.00     0.245 HD
ENDBRANCH  13  28
BRANCH  17  30
HETATM   30  N4  UNL     1      38.586   9.667  -8.278  1.00  0.00    -0.233 N 
HETATM   31  C9  UNL     1      37.492   8.703  -8.450  1.00  0.00     0.178 C 
HETATM   32  C8  UNL     1      38.104   7.319  -8.583  1.00  0.00     0.156 C 
HETATM   33  N3  UNL     1      38.991   7.464  -9.840  1.00  0.00    -0.267 N 
HETATM   34  C24 UNL     1      39.950   8.467  -9.632  1.00  0.00     0.379 C 
HETATM   35  O7  UNL     1      39.804   9.152  -8.374  1.00  0.00    -0.193 OA
HETATM   36  N12 UNL     1      41.320   7.960  -9.604  1.00  0.00    -0.260 N 
HETATM   37  O9  UNL     1      40.388   9.349 -10.611  1.00  0.00    -0.225 OA
HETATM   38  C25 UNL     1      41.710   9.259 -10.096  1.00  0.00     0.371 C 
ATOM     39  H12 UNL     1      41.787   7.089  -9.353  1.00  0.00     0.172 HD
HETATM   40  O8  UNL     1      42.749   9.938 -10.056  1.00  0.00    -0.238 OA
BRANCH  33  41
HETATM   41  C7  UNL     1      38.620   6.588 -10.823  1.00  0.00     0.251 C 
BRANCH  41  42
HETATM   42  N2  UNL     1      37.473   6.119 -11.464  1.00  0.00    -0.165 N 
HETATM   43  C6  UNL     1      36.918   4.966 -11.769  1.00  0.00     0.356 A 
HETATM   44  N1  UNL     1      35.726   5.109 -12.448  1.00  0.00    -0.257 N 
HETATM   45  O1  UNL     1      37.334   3.817 -11.524  1.00  0.00    -0.244 OA
HETATM   46  C5  UNL     1      34.838   4.238 -12.946  1.00  0.00     0.103 A 
HETATM   47  C26 UNL     1      35.555   6.428 -12.555  1.00  0.00     0.137 A 
HETATM   48  C4  UNL     1      33.703   4.653 -13.594  1.00  0.00     0.018 A 
HETATM   49  C3  UNL     1      33.523   6.026 -13.706  1.00  0.00     0.012 A 
HETATM   50  C2  UNL     1      34.426   6.916 -13.200  1.00  0.00    -0.016 A 
HETATM   51  C1  UNL     1      34.232   8.360 -13.322  1.00  0.00     0.052 C 
HETATM   52  N13 UNL     1      36.582   7.037 -11.976  1.00  0.00    -0.271 N 
ATOM     53  H13 UNL     1      36.698   8.049 -11.919  1.00  0.00     0.189 HD
ENDBRANCH  41  42
BRANCH  41  54
HETATM   54  O2  UNL     1      39.710   5.966 -11.356  1.00  0.00    -0.331 OA
ATOM     55  H2  UNL     1      40.002   6.453 -12.118  1.00  0.00     0.221 HD
ENDBRANCH  41  54
ENDBRANCH  33  41
ENDBRANCH  17  30
BRANCH  18  56
HETATM   56  O3  UNL     1      38.062   9.354  -5.912  1.00  0.00    -0.357 OA
ATOM     57  H3  UNL     1      38.493   8.912  -5.190  1.00  0.00     0.217 HD
ENDBRANCH  18  56
BRANCH  21  58
HETATM   58  O4  UNL     1      37.242  10.366  -3.477  1.00  0.00    -0.357 OA
ATOM     59  H4  UNL     1      36.504  10.454  -2.885  1.00  0.00     0.217 HD
ENDBRANCH  21  58
ENDBRANCH   1  12
TORSDOF 8
ENDMDL
MODEL 2
REMARK VINA RESULT: -11.526845633      4.068      7.841
REMARK  8 active torsions:
REMARK  status: ('A' for Active; 'I' for Inactive)
REMARK    1  A    between atoms: N2_9  and  C7_10 
REMARK    2  A    between atoms: C7_10  and  O2_11 
REMARK    3  A    between atoms: C7_10  and  N3_13 
REMARK    4  A    between atoms: N4_16  and  C10_17 
REMARK    5  A    between atoms: C12_19  and  O3_20 
REMARK    6  A    between atoms: C13_22  and  O4_23 
REMARK    7  A    between atoms: N5_28  and  O5_29 
REMARK    8  A    between atoms: C17_31  and  C18_32 
ROOT
HETATM    1  C18 UNL     1      39.928   8.648  -9.976  1.00  0.00     0.113 A 
HETATM    2  C19 UNL     1      39.276   7.559 -10.515  1.00  0.00     0.161 A 
HETATM    3  N6  UNL     1      40.102   6.506 -10.407  1.00  0.00    -0.090 N 
HETATM    4  C20 UNL     1      39.853   5.175 -10.828  1.00  0.00     0.203 C 
HETATM    5  N7  UNL     1      39.644   4.090 -11.154  1.00  0.00    -0.171 NA
HETATM    6  C21 UNL     1      41.235   6.904  -9.823  1.00  0.00     0.692 A 
HETATM    7  N8  UNL     1      42.288   6.199  -9.535  1.00  0.00    -0.233 N 
ATOM      8  H81 UNL     1      43.153   6.504  -9.089  1.00  0.00     0.174 HD
ATOM      9  H82 UNL     1      42.373   5.202  -9.735  1.00  0.00     0.174 HD
HETATM   10  N9  UNL     1      41.123   8.209  -9.563  1.00  0.00    -0.186 N 
ATOM     11  H9  UNL     1      41.839   8.783  -9.118  1.00  0.00     0.184 HD
ENDROOT
BRANCH   1  12
HETATM   12  C17 UNL     1      39.360  10.012  -9.895  1.00  0.00     0.164 A 
HETATM   13  N5  UNL     1      39.006  10.621  -8.674  1.00  0.00    -0.202 N 
HETATM   14  C16 UNL     1      38.464  11.954  -8.655  1.00  0.00     0.118 A 
HETATM   15  C11 UNL     1      38.315  12.590  -9.878  1.00  0.00     0.078 A 
HETATM   16  C15 UNL     1      38.121  12.546  -7.471  1.00  0.00     0.142 A 
HETATM   17  C10 UNL     1      38.646  12.024 -11.015  1.00  0.00     0.145 A 
HETATM   18  C12 UNL     1      37.792  13.880  -9.858  1.00  0.00     0.116 A 
HETATM   19  N10 UNL     1      39.192  10.667 -10.975  1.00  0.00    -0.323 N 
ATOM     20  H10 UNL     1      39.451  10.222 -11.856  1.00  0.00     0.169 HD
HETATM   21  C13 UNL     1      37.438  14.492  -8.650  1.00  0.00     0.113 A 
HETATM   22  C14 UNL     1      37.613  13.805  -7.481  1.00  0.00     0.040 A 
HETATM   23  C23 UNL     1      37.277  14.390  -6.341  1.00  0.00     0.036 A 
HETATM   24  C22 UNL     1      37.475  13.635  -5.120  1.00  0.00     0.115 A 
HETATM   25  N11 UNL     1      37.962  12.429  -5.118  1.00  0.00    -0.272 N 
HETATM   26  O6  UNL     1      38.315  11.814  -6.293  1.00  0.00    -0.235 OA
ATOM     27  H11 UNL     1      38.084  11.935  -4.234  1.00  0.00     0.194 HD
BRANCH  13  28
HETATM   28  O5  UNL     1      39.167   9.960  -7.511  1.00  0.00    -0.281 OA
ATOM     29  H5  UNL     1      40.026   9.933  -7.107  1.00  0.00     0.245 HD
ENDBRANCH  13  28
BRANCH  17  30
HETATM   30  N4  UNL     1      38.506  12.644 -12.254  1.00  0.00    -0.233 N 
HETATM   31  C9  UNL     1      39.631  13.434 -12.770  1.00  0.00     0.178 C 
HETATM   32  C8  UNL     1      39.206  14.044 -14.095  1.00  0.00     0.156 C 
HETATM   33  N3  UNL     1      38.895  12.797 -14.953  1.00  0.00    -0.267 N 
HETATM   34  C24 UNL     1      37.877  12.045 -14.347  1.00  0.00     0.379 C 
HETATM   35  O7  UNL     1      37.462  12.561 -13.069  1.00  0.00    -0.193 OA
HETATM   36  N12 UNL     1      36.644  12.004 -15.131  1.00  0.00    -0.260 N 
HETATM   37  O9  UNL     1      37.820  10.657 -14.346  1.00  0.00    -0.225 OA
HETATM   38  C25 UNL     1      36.410  10.719 -14.520  1.00  0.00     0.371 C 
ATOM     39  H12 UNL     1      36.168  12.608 -15.801  1.00  0.00     0.172 HD
HETATM   40  O8  UNL     1      35.406  10.028 -14.283  1.00  0.00    -0.238 OA
BRANCH  33  41
HETATM   41  C7  UNL     1      39.682  12.744 -16.071  1.00  0.00     0.251 C 
BRANCH  41  42
HETATM   42  N2  UNL     1      40.985  12.422 -16.450  1.00  0.00    -0.165 N 
HETATM   43  C6  UNL     1      41.957  12.939 -17.170  1.00  0.00     0.356 A 
HETATM   44  N1  UNL     1      43.079  12.139 -17.206  1.00  0.00    -0.257 N 
HETATM   45  O1  UNL     1      41.971  14.020 -17.790  1.00  0.00    -0.244 OA
HETATM   46  C5  UNL     1      44.277  12.256 -17.798  1.00  0.00     0.103 A 
HETATM   47  C26 UNL     1      42.763  11.078 -16.463  1.00  0.00     0.137 A 
HETATM   48  C4  UNL     1      45.243  11.291 -17.671  1.00  0.00     0.018 A 
HETATM   49  C3  UNL     1      44.914  10.185 -16.898  1.00  0.00     0.012 A 
HETATM   50  C2  UNL     1      43.695  10.063 -16.294  1.00  0.00    -0.016 A 
HETATM   51  C1  UNL     1      43.355   8.897 -15.482  1.00  0.00     0.052 C 
HETATM   52  N13 UNL     1      41.525  11.233 -16.010  1.00  0.00    -0.271 N 
ATOM     53  H13 UNL     1      41.038  10.562 -15.415  1.00  0.00     0.189 HD
ENDBRANCH  41  42
BRANCH  41  54
HETATM   54  O2  UNL     1      38.981  13.128 -17.176  1.00  0.00    -0.331 OA
ATOM     55  H2  UNL     1      38.078  12.847 -17.083  1.00  0.00     0.221 HD
ENDBRANCH  41  54
ENDBRANCH  33  41
ENDBRANCH  17  30
BRANCH  18  56
HETATM   56  O3  UNL     1      37.619  14.563 -11.030  1.00  0.00    -0.357 OA
ATOM     57  H3  UNL     1      36.791  14.995 -11.208  1.00  0.00     0.217 HD
ENDBRANCH  18  56
BRANCH  21  58
HETATM   58  O4  UNL     1      36.916  15.783  -8.654  1.00  0.00    -0.357 OA
ATOM     59  H4  UNL     1      36.100  15.962  -9.106  1.00  0.00     0.217 HD
ENDBRANCH  21  58
ENDBRANCH   1  12
TORSDOF 8
ENDMDL
MODEL 3
REMARK VINA RESULT: -11.397849061      3.971      7.855
REMARK  8 active torsions:
REMARK  status: ('A' for Active; 'I' for Inactive)
REMARK    1  A    between atoms: N2_9  and  C7_10 
REMARK    2  A    between atoms: C7_10  and  O2_11 
REMARK    3  A    between atoms: C7_10  and  N3_13 
REMARK    4  A    between atoms: N4_16  and  C10_17 
REMARK    5  A    between atoms: C12_19  and  O3_20 
REMARK    6  A    between atoms: C13_22  and  O4_23 
REMARK    7  A    between atoms: N5_28  and  O5_29 
REMARK    8  A    between atoms: C17_31  and  C18_32 
ROOT
HETATM    1  C18 UNL     1      38.718   7.864 -10.771  1.00  0.00     0.113 A 
HETATM    2  C19 UNL     1      39.380   7.542 -11.937  1.00  0.00     0.161 A 
HETATM    3  N6  UNL     1      39.337   6.205 -12.063  1.00  0.00    -0.090 N 
HETATM    4  C20 UNL     1      39.888   5.427 -13.111  1.00  0.00     0.203 C 
HETATM    5  N7  UNL     1      40.320   4.794 -13.972  1.00  0.00    -0.171 NA
HETATM    6  C21 UNL     1      38.677   5.695 -11.021  1.00  0.00     0.692 A 
HETATM    7  N8  UNL     1      38.416   4.449 -10.761  1.00  0.00    -0.233 N 
ATOM      8  H81 UNL     1      37.911   4.059  -9.965  1.00  0.00     0.174 HD
ATOM      9  H82 UNL     1      38.703   3.674 -11.359  1.00  0.00     0.174 HD
HETATM   10  N9  UNL     1      38.302   6.709 -10.237  1.00  0.00    -0.186 N 
ATOM     11  H9  UNL     1      37.780   6.618  -9.367  1.00  0.00     0.184 HD
ENDROOT
BRANCH   1  12
HETATM   12  C17 UNL     1      38.534   9.242 -10.262  1.00  0.00     0.164 A 
HETATM   13  N5  UNL     1      38.239   9.525  -8.913  1.00  0.00    -0.202 N 
HETATM   14  C16 UNL     1      38.077  10.885  -8.473  1.00  0.00     0.118 A 
HETATM   15  C11 UNL     1      38.225  11.878  -9.429  1.00  0.00     0.078 A 
HETATM   16  C15 UNL     1      37.793  11.161  -7.163  1.00  0.00     0.142 A 
HETATM   17  C10 UNL     1      38.500  11.615 -10.685  1.00  0.00     0.145 A 
HETATM   18  C12 UNL     1      38.070  13.194  -9.001  1.00  0.00     0.116 A 
HETATM   19  N10 UNL     1      38.655  10.213 -11.078  1.00  0.00    -0.323 N 
ATOM     20  H10 UNL     1      38.869  10.003 -12.052  1.00  0.00     0.169 HD
HETATM   21  C13 UNL     1      37.778  13.484  -7.663  1.00  0.00     0.113 A 
HETATM   22  C14 UNL     1      37.646  12.454  -6.774  1.00  0.00     0.040 A 
HETATM   23  C23 UNL     1      37.371  12.734  -5.509  1.00  0.00     0.036 A 
HETATM   24  C22 UNL     1      37.238  11.619  -4.593  1.00  0.00     0.115 A 
HETATM   25  N11 UNL     1      37.379  10.384  -4.973  1.00  0.00    -0.272 N 
HETATM   26  O6  UNL     1      37.666  10.082  -6.280  1.00  0.00    -0.235 OA
ATOM     27  H11 UNL     1      37.277   9.631  -4.292  1.00  0.00     0.194 HD
BRANCH  13  28
HETATM   28  O5  UNL     1      38.101   8.524  -8.021  1.00  0.00    -0.281 OA
ATOM     29  H5  UNL     1      38.769   8.399  -7.357  1.00  0.00     0.245 HD
ENDBRANCH  13  28
BRANCH  17  30
HETATM   30  N4  UNL     1      38.655  12.595 -11.662  1.00  0.00    -0.233 N 
HETATM   31  C9  UNL     1      40.016  12.967 -12.069  1.00  0.00     0.178 C 
HETATM   32  C8  UNL     1      39.910  14.084 -13.093  1.00  0.00     0.156 C 
HETATM   33  N3  UNL     1      39.095  13.423 -14.227  1.00  0.00    -0.267 N 
HETATM   34  C24 UNL     1      37.846  13.010 -13.738  1.00  0.00     0.379 C 
HETATM   35  O7  UNL     1      37.686  13.216 -12.322  1.00  0.00    -0.193 OA
HETATM   36  N12 UNL     1      36.725  13.736 -14.332  1.00  0.00    -0.260 N 
HETATM   37  O9  UNL     1      37.193  11.850 -14.132  1.00  0.00    -0.225 OA
HETATM   38  C25 UNL     1      35.951  12.542 -14.095  1.00  0.00     0.371 C 
ATOM     39  H12 UNL     1      36.564  14.660 -14.730  1.00  0.00     0.172 HD
HETATM   40  O8  UNL     1      34.745  12.294 -13.939  1.00  0.00    -0.238 OA
BRANCH  33  41
HETATM   41  C7  UNL     1      39.791  13.407 -15.406  1.00  0.00     0.251 C 
BRANCH  41  42
HETATM   42  N2  UNL     1      40.993  12.937 -15.934  1.00  0.00    -0.165 N 
HETATM   43  C6  UNL     1      41.894  13.313 -16.816  1.00  0.00     0.356 A 
HETATM   44  N1  UNL     1      42.925  12.407 -16.946  1.00  0.00    -0.257 N 
HETATM   45  O1  UNL     1      41.913  14.347 -17.510  1.00  0.00    -0.244 OA
HETATM   46  C5  UNL     1      44.032  12.370 -17.702  1.00  0.00     0.103 A 
HETATM   47  C26 UNL     1      42.626  11.428 -16.090  1.00  0.00     0.137 A 
HETATM   48  C4  UNL     1      44.917  11.326 -17.637  1.00  0.00     0.018 A 
HETATM   49  C3  UNL     1      44.607  10.306 -16.746  1.00  0.00     0.012 A 
HETATM   50  C2  UNL     1      43.481  10.340 -15.975  1.00  0.00    -0.016 A 
HETATM   51  C1  UNL     1      43.159   9.265 -15.039  1.00  0.00     0.052 C 
HETATM   52  N13 UNL     1      41.484  11.731 -15.484  1.00  0.00    -0.271 N 
ATOM     53  H13 UNL     1      41.030  11.148 -14.780  1.00  0.00     0.189 HD
ENDBRANCH  41  42
BRANCH  41  54
HETATM   54  O2  UNL     1      39.100  14.056 -16.385  1.00  0.00    -0.331 OA
ATOM     55  H2  UNL     1      38.188  13.792 -16.348  1.00  0.00     0.221 HD
ENDBRANCH  41  54
ENDBRANCH  33  41
ENDBRANCH  17  30
BRANCH  18  56
HETATM   56  O3  UNL     1      38.202  14.220  -9.895  1.00  0.00    -0.357 OA
ATOM     57  H3  UNL     1      37.929  15.097  -9.652  1.00  0.00     0.217 HD
ENDBRANCH  18  56
BRANCH  21  58
HETATM   58  O4  UNL     1      37.626  14.807  -7.258  1.00  0.00    -0.357 OA
ATOM     59  H4  UNL     1      36.995  15.025  -6.582  1.00  0.00     0.217 HD
ENDBRANCH  21  58
ENDBRANCH   1  12
TORSDOF 8
ENDMDL
MODEL 4
REMARK VINA RESULT: -11.391390125      0.787      1.397
REMARK  8 active torsions:
REMARK  status: ('A' for Active; 'I' for Inactive)
REMARK    1  A    between atoms: N2_9  and  C7_10 
REMARK    2  A    between atoms: C7_10  and  O2_11 
REMARK    3  A    between atoms: C7_10  and  N3_13 
REMARK    4  A    between atoms: N4_16  and  C10_17 
REMARK    5  A    between atoms: C12_19  and  O3_20 
REMARK    6  A    between atoms: C13_22  and  O4_23 
REMARK    7  A    between atoms: N5_28  and  O5_29 
REMARK    8  A    between atoms: C17_31  and  C18_32 
ROOT
HETATM    1  C18 UNL     1      38.164  13.984 -10.385  1.00  0.00     0.113 A 
HETATM    2  C19 UNL     1      37.591  13.652 -11.594  1.00  0.00     0.161 A 
HETATM    3  N6  UNL     1      37.928  14.611 -12.472  1.00  0.00    -0.090 N 
HETATM    4  C20 UNL     1      37.565  14.685 -13.840  1.00  0.00     0.203 C 
HETATM    5  N7  UNL     1      37.285  14.737 -14.957  1.00  0.00    -0.171 NA
HETATM    6  C21 UNL     1      38.684  15.518 -11.850  1.00  0.00     0.692 A 
HETATM    7  N8  UNL     1      39.215  16.600 -12.337  1.00  0.00    -0.233 N 
ATOM      8  H81 UNL     1      39.792  17.293 -11.861  1.00  0.00     0.174 HD
ATOM      9  H82 UNL     1      39.107  16.895 -13.307  1.00  0.00     0.174 HD
HETATM   10  N9  UNL     1      38.824  15.132 -10.579  1.00  0.00    -0.186 N 
ATOM     11  H9  UNL     1      39.353  15.634  -9.867  1.00  0.00     0.184 HD
ENDROOT
BRANCH   1  12
HETATM   12  C17 UNL     1      38.037  13.183  -9.147  1.00  0.00     0.164 A 
HETATM   13  N5  UNL     1      37.626  13.737  -7.917  1.00  0.00    -0.202 N 
HETATM   14  C16 UNL     1      37.514  12.909  -6.746  1.00  0.00     0.118 A 
HETATM   15  C11 UNL     1      37.825  11.566  -6.894  1.00  0.00     0.078 A 
HETATM   16  C15 UNL     1      37.113  13.446  -5.553  1.00  0.00     0.142 A 
HETATM   17  C10 UNL     1      38.208  11.050  -8.038  1.00  0.00     0.145 A 
HETATM   18  C12 UNL     1      37.715  10.765  -5.759  1.00  0.00     0.116 A 
HETATM   19  N10 UNL     1      38.304  11.939  -9.197  1.00  0.00    -0.323 N 
ATOM     20  H10 UNL     1      38.600  11.542 -10.088  1.00  0.00     0.169 HD
HETATM   21  C13 UNL     1      37.307  11.307  -4.535  1.00  0.00     0.113 A 
HETATM   22  C14 UNL     1      37.015  12.641  -4.463  1.00  0.00     0.040 A 
HETATM   23  C23 UNL     1      36.628  13.148  -3.303  1.00  0.00     0.036 A 
HETATM   24  C22 UNL     1      36.327  14.565  -3.261  1.00  0.00     0.115 A 
HETATM   25  N11 UNL     1      36.424  15.329  -4.309  1.00  0.00    -0.272 N 
HETATM   26  O6  UNL     1      36.822  14.814  -5.516  1.00  0.00    -0.235 OA
ATOM     27  H11 UNL     1      36.201  16.322  -4.232  1.00  0.00     0.194 HD
BRANCH  13  28
HETATM   28  O5  UNL     1      37.337  15.051  -7.824  1.00  0.00    -0.281 OA
ATOM     29  H5  UNL     1      37.524  15.620  -8.561  1.00  0.00     0.245 HD
ENDBRANCH  13  28
BRANCH  17  30
HETATM   30  N4  UNL     1      38.524   9.704  -8.209  1.00  0.00    -0.233 N 
HETATM   31  C9  UNL     1      37.425   8.741  -8.344  1.00  0.00     0.178 C 
HETATM   32  C8  UNL     1      38.030   7.352  -8.460  1.00  0.00     0.156 C 
HETATM   33  N3  UNL     1      38.896   7.470  -9.735  1.00  0.00    -0.267 N 
HETATM   34  C24 UNL     1      39.861   8.474  -9.563  1.00  0.00     0.379 C 
HETATM   35  O7  UNL     1      39.739   9.183  -8.316  1.00  0.00    -0.193 OA
HETATM   36  N12 UNL     1      41.230   7.963  -9.549  1.00  0.00    -0.260 N 
HETATM   37  O9  UNL     1      40.284   9.336 -10.567  1.00  0.00    -0.225 OA
HETATM   38  C25 UNL     1      41.615   9.251 -10.072  1.00  0.00     0.371 C 
ATOM     39  H12 UNL     1      41.698   7.095  -9.289  1.00  0.00     0.172 HD
HETATM   40  O8  UNL     1      42.656   9.927 -10.064  1.00  0.00    -0.238 OA
BRANCH  33  41
HETATM   41  C7  UNL     1      38.505   6.576 -10.695  1.00  0.00     0.251 C 
BRANCH  41  42
HETATM   42  N2  UNL     1      37.376   6.222 -11.433  1.00  0.00    -0.165 N 
HETATM   43  C6  UNL     1      36.499   6.798 -12.227  1.00  0.00     0.356 A 
HETATM   44  N1  UNL     1      35.542   5.921 -12.692  1.00  0.00    -0.257 N 
HETATM   45  O1  UNL     1      36.445   7.990 -12.586  1.00  0.00    -0.244 OA
HETATM   46  C5  UNL     1      34.482   6.057 -13.502  1.00  0.00     0.103 A 
HETATM   47  C26 UNL     1      35.864   4.748 -12.145  1.00  0.00     0.137 A 
HETATM   48  C4  UNL     1      33.670   4.997 -13.813  1.00  0.00     0.018 A 
HETATM   49  C3  UNL     1      34.004   3.775 -13.244  1.00  0.00     0.012 A 
HETATM   50  C2  UNL     1      35.082   3.633 -12.418  1.00  0.00    -0.016 A 
HETATM   51  C1  UNL     1      35.428   2.345 -11.822  1.00  0.00     0.052 C 
HETATM   52  N13 UNL     1      36.948   4.913 -11.397  1.00  0.00    -0.271 N 
ATOM     53  H13 UNL     1      37.404   4.171 -10.866  1.00  0.00     0.189 HD
ENDBRANCH  41  42
BRANCH  41  54
HETATM   54  O2  UNL     1      39.541   5.764 -11.052  1.00  0.00    -0.331 OA
ATOM     55  H2  UNL     1      40.069   5.582 -10.284  1.00  0.00     0.221 HD
ENDBRANCH  41  54
ENDBRANCH  33  41
ENDBRANCH  17  30
BRANCH  18  56
HETATM   56  O3  UNL     1      38.008   9.432  -5.837  1.00  0.00    -0.357 OA
ATOM     57  H3  UNL     1      38.846   9.152  -6.186  1.00  0.00     0.217 HD
ENDBRANCH  18  56
BRANCH  21  58
HETATM   58  O4  UNL     1      37.204  10.488  -3.414  1.00  0.00    -0.357 OA
ATOM     59  H4  UNL     1      37.016  10.870  -2.565  1.00  0.00     0.217 HD
ENDBRANCH  21  58
ENDBRANCH   1  12
TORSDOF 8
ENDMDL
MODEL 5
REMARK VINA RESULT: -10.956407857      3.723      7.701
REMARK  8 active torsions:
REMARK  status: ('A' for Active; 'I' for Inactive)
REMARK    1  A    between atoms: N2_9  and  C7_10 
REMARK    2  A    between atoms: C7_10  and  O2_11 
REMARK    3  A    between atoms: C7_10  and  N3_13 
REMARK    4  A    between atoms: N4_16  and  C10_17 
REMARK    5  A    between atoms: C12_19  and  O3_20 
REMARK    6  A    between atoms: C13_22  and  O4_23 
REMARK    7  A    between atoms: N5_28  and  O5_29 
REMARK    8  A    between atoms: C17_31  and  C18_32 
ROOT
HETATM    1  C18 UNL     1      36.948   6.628 -10.620  1.00  0.00     0.113 A 
HETATM    2  C19 UNL     1      35.791   6.517 -11.362  1.00  0.00     0.161 A 
HETATM    3  N6  UNL     1      35.775   5.284 -11.893  1.00  0.00    -0.090 N 
HETATM    4  C20 UNL     1      34.776   4.724 -12.728  1.00  0.00     0.203 C 
HETATM    5  N7  UNL     1      33.956   4.262 -13.393  1.00  0.00    -0.171 NA
HETATM    6  C21 UNL     1      36.876   4.634 -11.506  1.00  0.00     0.692 A 
HETATM    7  N8  UNL     1      37.244   3.422 -11.798  1.00  0.00    -0.233 N 
ATOM      8  H81 UNL     1      38.084   2.926 -11.502  1.00  0.00     0.174 HD
ATOM      9  H82 UNL     1      36.701   2.793 -12.390  1.00  0.00     0.174 HD
HETATM   10  N9  UNL     1      37.586   5.457 -10.731  1.00  0.00    -0.186 N 
ATOM     11  H9  UNL     1      38.477   5.229 -10.292  1.00  0.00     0.184 HD
ENDROOT
BRANCH   1  12
HETATM   12  C17 UNL     1      37.349   7.837  -9.865  1.00  0.00     0.164 A 
HETATM   13  N5  UNL     1      37.363   7.887  -8.456  1.00  0.00    -0.202 N 
HETATM   14  C16 UNL     1      37.769   9.088  -7.774  1.00  0.00     0.118 A 
HETATM   15  C11 UNL     1      38.137  10.166  -8.564  1.00  0.00     0.078 A 
HETATM   16  C15 UNL     1      37.785   9.137  -6.407  1.00  0.00     0.142 A 
HETATM   17  C10 UNL     1      38.124  10.119  -9.876  1.00  0.00     0.145 A 
HETATM   18  C12 UNL     1      38.531  11.326  -7.903  1.00  0.00     0.116 A 
HETATM   19  N10 UNL     1      37.703   8.873 -10.517  1.00  0.00    -0.323 N 
ATOM     20  H10 UNL     1      37.692   8.831 -11.535  1.00  0.00     0.169 HD
HETATM   21  C13 UNL     1      38.548  11.385  -6.505  1.00  0.00     0.113 A 
HETATM   22  C14 UNL     1      38.173  10.282  -5.789  1.00  0.00     0.040 A 
HETATM   23  C23 UNL     1      38.193  10.343  -4.466  1.00  0.00     0.036 A 
HETATM   24  C22 UNL     1      37.789   9.157  -3.738  1.00  0.00     0.115 A 
HETATM   25  N11 UNL     1      37.418   8.064  -4.337  1.00  0.00    -0.272 N 
HETATM   26  O6  UNL     1      37.395   7.990  -5.707  1.00  0.00    -0.235 OA
ATOM     27  H11 UNL     1      37.142   7.253  -3.783  1.00  0.00     0.194 HD
BRANCH  13  28
HETATM   28  O5  UNL     1      36.993   6.813  -7.732  1.00  0.00    -0.281 OA
ATOM     29  H5  UNL     1      36.391   6.183  -8.111  1.00  0.00     0.245 HD
ENDBRANCH  13  28
BRANCH  17  30
HETATM   30  N4  UNL     1      38.491  11.189 -10.689  1.00  0.00    -0.233 N 
HETATM   31  C9  UNL     1      39.830  11.181 -11.291  1.00  0.00     0.178 C 
HETATM   32  C8  UNL     1      39.998  12.471 -12.075  1.00  0.00     0.156 C 
HETATM   33  N3  UNL     1      38.861  12.380 -13.118  1.00  0.00    -0.267 N 
HETATM   34  C24 UNL     1      37.622  12.296 -12.465  1.00  0.00     0.379 C 
HETATM   35  O7  UNL     1      37.731  12.221 -11.032  1.00  0.00    -0.193 OA
HETATM   36  N12 UNL     1      36.768  13.459 -12.696  1.00  0.00    -0.260 N 
HETATM   37  O9  UNL     1      36.552  11.529 -12.907  1.00  0.00    -0.225 OA
HETATM   38  C25 UNL     1      35.655  12.559 -12.510  1.00  0.00     0.371 C 
ATOM     39  H12 UNL     1      36.897  14.450 -12.897  1.00  0.00     0.172 HD
HETATM   40  O8  UNL     1      34.471  12.686 -12.160  1.00  0.00    -0.238 OA
BRANCH  33  41
HETATM   41  C7  UNL     1      39.347  12.404 -14.398  1.00  0.00     0.251 C 
BRANCH  41  42
HETATM   42  N2  UNL     1      40.520  12.138 -15.104  1.00  0.00    -0.165 N 
HETATM   43  C6  UNL     1      41.323  12.753 -15.945  1.00  0.00     0.356 A 
HETATM   44  N1  UNL     1      42.381  11.965 -16.347  1.00  0.00    -0.257 N 
HETATM   45  O1  UNL     1      41.233  13.911 -16.394  1.00  0.00    -0.244 OA
HETATM   46  C5  UNL     1      43.419  12.165 -17.172  1.00  0.00     0.103 A 
HETATM   47  C26 UNL     1      42.203  10.808 -15.708  1.00  0.00     0.137 A 
HETATM   48  C4  UNL     1      44.355  11.191 -17.404  1.00  0.00     0.018 A 
HETATM   49  C3  UNL     1      44.171   9.985 -16.739  1.00  0.00     0.012 A 
HETATM   50  C2  UNL     1      43.115   9.778 -15.898  1.00  0.00    -0.016 A 
HETATM   51  C1  UNL     1      42.926   8.508 -15.202  1.00  0.00     0.052 C 
HETATM   52  N13 UNL     1      41.104  10.897 -14.968  1.00  0.00    -0.271 N 
ATOM     53  H13 UNL     1      40.741  10.149 -14.378  1.00  0.00     0.189 HD
ENDBRANCH  41  42
BRANCH  41  54
HETATM   54  O2  UNL     1      38.388  12.820 -15.273  1.00  0.00    -0.331 OA
ATOM     55  H2  UNL     1      38.525  12.390 -16.109  1.00  0.00     0.221 HD
ENDBRANCH  41  54
ENDBRANCH  33  41
ENDBRANCH  17  30
BRANCH  18  56
HETATM   56  O3  UNL     1      38.905  12.427  -8.624  1.00  0.00    -0.357 OA
ATOM     57  H3  UNL     1      38.242  12.995  -8.998  1.00  0.00     0.217 HD
ENDBRANCH  18  56
BRANCH  21  58
HETATM   58  O4  UNL     1      38.945  12.556  -5.865  1.00  0.00    -0.357 OA
ATOM     59  H4  UNL     1      39.863  12.800  -5.852  1.00  0.00     0.217 HD
ENDBRANCH  21  58
ENDBRANCH   1  12
TORSDOF 8
ENDMDL
