MODEL 1
REMARK VINA RESULT: -8.522995926      0.000      0.000
REMARK  9 active torsions:
REMARK  status: ('A' for Active; 'I' for Inactive)
REMARK       I    between atoms: C2_2  and  N1_4 
REMARK    1  A    between atoms: N1_4  and  C3_6 
REMARK    2  A    between atoms: C3_6  and  C4_7 
REMARK    3  A    between atoms: C3_6  and  C19_29 
REMARK    4  A    between atoms: C4_7  and  C5_8 
REMARK    5  A    between atoms: C5_8  and  C6_9 
REMARK    6  A    between atoms: C6_9  and  C7_10 
REMARK    7  A    between atoms: C8_11  and  C9_12 
REMARK    8  A    between atoms: C17_23  and  O2_24 
REMARK    9  A    between atoms: C18_26  and  O3_27 
ROOT
HETATM    1  C9  UNL     1      33.125  59.973  42.501  1.00  0.00     0.043 C 
HETATM    2  C10 UNL     1      32.415  58.780  42.034  1.00  0.00     0.072 C 
HETATM    3  N2  UNL     1      31.319  59.127  41.481  1.00  0.00    -0.401 N 
ATOM      4  H2  UNL     1      30.650  58.473  41.076  1.00  0.00     0.158 HD
HETATM    5  C11 UNL     1      31.145  60.551  41.496  1.00  0.00     0.125 C 
HETATM    6  C12 UNL     1      32.598  61.049  41.601  1.00  0.00     0.034 C 
HETATM    7  C13 UNL     1      33.244  61.151  40.269  1.00  0.00    -0.008 C 
HETATM    8  C14 UNL     1      32.800  60.108  39.278  1.00  0.00     0.018 C 
HETATM    9  C15 UNL     1      32.834  62.506  39.671  1.00  0.00     0.018 C 
HETATM   10  C16 UNL     1      34.730  61.155  40.370  1.00  0.00     0.209 C 
HETATM   11  F1  UNL     1      35.165  62.353  40.920  1.00  0.00    -0.246 F 
HETATM   12  C17 UNL     1      35.290  60.047  41.214  1.00  0.00     0.182 C 
HETATM   13  C18 UNL     1      34.610  59.850  42.511  1.00  0.00     0.167 C 
ENDROOT
BRANCH   1  14
HETATM   14  C8  UNL     1      32.696  60.232  43.897  1.00  0.00    -0.013 C 
HETATM   15  C7  UNL     1      32.477  59.208  44.698  1.00  0.00    -0.029 C 
BRANCH  15  16
HETATM   16  C6  UNL     1      32.043  59.361  46.119  1.00  0.00     0.027 C 
BRANCH  16  17
HETATM   17  C5  UNL     1      33.012  58.552  46.983  1.00  0.00     0.006 C 
BRANCH  17  18
HETATM   18  C4  UNL     1      34.374  58.588  46.352  1.00  0.00     0.026 C 
BRANCH  18  19
HETATM   19  C3  UNL     1      35.408  59.068  47.305  1.00  0.00     0.088 C 
BRANCH  19  20
HETATM   20  N1  UNL     1      34.761  59.673  48.443  1.00  0.00    -0.356 N 
HETATM   21  C2  UNL     1      35.169  60.947  48.884  1.00  0.00     0.213 C 
HETATM   22  C1  UNL     1      34.534  61.618  50.056  1.00  0.00     0.117 C 
HETATM   23  O1  UNL     1      36.097  61.560  48.290  1.00  0.00    -0.274 OA
ATOM     24  H1  UNL     1      34.011  59.180  48.926  1.00  0.00     0.162 HD
ENDBRANCH  19  20
BRANCH  19  25
HETATM   25  C19 UNL     1      36.319  57.986  47.816  1.00  0.00     0.008 C 
HETATM   26  C20 UNL     1      37.716  58.520  48.057  1.00  0.00     0.007 C 
HETATM   27  C21 UNL     1      38.465  57.500  48.852  1.00  0.00     0.000 C 
HETATM   28  C22 UNL     1      38.382  56.113  48.363  1.00  0.00     0.000 C 
HETATM   29  C23 UNL     1      37.249  55.738  47.508  1.00  0.00     0.000 C 
HETATM   30  C24 UNL     1      36.477  56.835  46.873  1.00  0.00     0.007 C 
ENDBRANCH  19  25
ENDBRANCH  18  19
ENDBRANCH  17  18
ENDBRANCH  16  17
ENDBRANCH  15  16
ENDBRANCH   1  14
BRANCH  13  31
HETATM   31  O3  UNL     1      35.110  60.740  43.472  1.00  0.00    -0.391 OA
ATOM     32  H3  UNL     1      36.057  60.746  43.400  1.00  0.00     0.210 HD
ENDBRANCH  13  31
BRANCH  12  33
HETATM   33  O2  UNL     1      35.375  58.834  40.526  1.00  0.00    -0.390 OA
ATOM     34  H2  UNL     1      34.601  58.294  40.636  1.00  0.00     0.210 HD
ENDBRANCH  12  33
TORSDOF 9
ENDMDL
MODEL 2
REMARK VINA RESULT: -8.355504907      2.137      2.851
REMARK  9 active torsions:
REMARK  status: ('A' for Active; 'I' for Inactive)
REMARK       I    between atoms: C2_2  and  N1_4 
REMARK    1  A    between atoms: N1_4  and  C3_6 
REMARK    2  A    between atoms: C3_6  and  C4_7 
REMARK    3  A    between atoms: C3_6  and  C19_29 
REMARK    4  A    between atoms: C4_7  and  C5_8 
REMARK    5  A    between atoms: C5_8  and  C6_9 
REMARK    6  A    between atoms: C6_9  and  C7_10 
REMARK    7  A    between atoms: C8_11  and  C9_12 
REMARK    8  A    between atoms: C17_23  and  O2_24 
REMARK    9  A    between atoms: C18_26  and  O3_27 
ROOT
HETATM    1  C9  UNL     1      33.547  59.426  42.235  1.00  0.00     0.043 C 
HETATM    2  C10 UNL     1      34.587  60.348  42.695  1.00  0.00     0.072 C 
HETATM    3  N2  UNL     1      35.560  60.336  41.871  1.00  0.00    -0.401 N 
ATOM      4  H2  UNL     1      36.406  60.897  41.975  1.00  0.00     0.158 HD
HETATM    5  C11 UNL     1      35.320  59.437  40.779  1.00  0.00     0.125 C 
HETATM    6  C12 UNL     1      33.782  59.368  40.756  1.00  0.00     0.034 C 
HETATM    7  C13 UNL     1      33.192  60.475  39.964  1.00  0.00    -0.008 C 
HETATM    8  C14 UNL     1      33.957  61.770  40.032  1.00  0.00     0.018 C 
HETATM    9  C15 UNL     1      33.223  60.042  38.490  1.00  0.00     0.018 C 
HETATM   10  C16 UNL     1      31.764  60.711  40.315  1.00  0.00     0.209 C 
HETATM   11  F1  UNL     1      30.981  59.662  39.850  1.00  0.00    -0.246 F 
HETATM   12  C17 UNL     1      31.508  60.838  41.789  1.00  0.00     0.182 C 
HETATM   13  C18 UNL     1      32.160  59.807  42.623  1.00  0.00     0.167 C 
ENDROOT
BRANCH   1  14
HETATM   14  C8  UNL     1      33.824  58.101  42.839  1.00  0.00    -0.013 C 
HETATM   15  C7  UNL     1      34.150  58.036  44.115  1.00  0.00    -0.029 C 
BRANCH  15  16
HETATM   16  C6  UNL     1      34.448  56.752  44.817  1.00  0.00     0.027 C 
BRANCH  16  17
HETATM   17  C5  UNL     1      35.805  56.912  45.506  1.00  0.00     0.006 C 
BRANCH  17  18
HETATM   18  C4  UNL     1      36.115  58.375  45.638  1.00  0.00     0.026 C 
BRANCH  18  19
HETATM   19  C3  UNL     1      36.891  58.663  46.872  1.00  0.00     0.088 C 
BRANCH  19  20
HETATM   20  N1  UNL     1      35.978  58.919  47.958  1.00  0.00    -0.356 N 
HETATM   21  C2  UNL     1      35.867  60.221  48.486  1.00  0.00     0.213 C 
HETATM   22  C1  UNL     1      34.938  60.540  49.610  1.00  0.00     0.117 C 
HETATM   23  O1  UNL     1      36.561  61.161  48.016  1.00  0.00    -0.274 OA
ATOM     24  H1  UNL     1      35.415  58.161  48.342  1.00  0.00     0.162 HD
ENDBRANCH  19  20
BRANCH  19  25
HETATM   25  C19 UNL     1      37.806  57.547  47.295  1.00  0.00     0.008 C 
HETATM   26  C20 UNL     1      37.582  57.180  48.747  1.00  0.00     0.007 C 
HETATM   27  C21 UNL     1      38.275  55.882  49.003  1.00  0.00     0.000 C 
HETATM   28  C22 UNL     1      39.665  55.786  48.523  1.00  0.00     0.000 C 
HETATM   29  C23 UNL     1      40.098  56.687  47.448  1.00  0.00     0.000 C 
HETATM   30  C24 UNL     1      39.260  57.882  47.176  1.00  0.00     0.007 C 
ENDBRANCH  19  25
ENDBRANCH  18  19
ENDBRANCH  17  18
ENDBRANCH  16  17
ENDBRANCH  15  16
ENDBRANCH   1  14
BRANCH  13  31
HETATM   31  O3  UNL     1      31.386  58.639  42.662  1.00  0.00    -0.391 OA
ATOM     32  H3  UNL     1      30.509  58.878  42.940  1.00  0.00     0.210 HD
ENDBRANCH  13  31
BRANCH  12  33
HETATM   33  O2  UNL     1      31.802  62.112  42.281  1.00  0.00    -0.390 OA
ATOM     34  H2  UNL     1      31.051  62.694  42.264  1.00  0.00     0.210 HD
ENDBRANCH  12  33
TORSDOF 9
ENDMDL
MODEL 3
REMARK VINA RESULT: -8.319928895      2.754      4.500
REMARK  9 active torsions:
REMARK  status: ('A' for Active; 'I' for Inactive)
REMARK       I    between atoms: C2_2  and  N1_4 
REMARK    1  A    between atoms: N1_4  and  C3_6 
REMARK    2  A    between atoms: C3_6  and  C4_7 
REMARK    3  A    between atoms: C3_6  and  C19_29 
REMARK    4  A    between atoms: C4_7  and  C5_8 
REMARK    5  A    between atoms: C5_8  and  C6_9 
REMARK    6  A    between atoms: C6_9  and  C7_10 
REMARK    7  A    between atoms: C8_11  and  C9_12 
REMARK    8  A    between atoms: C17_23  and  O2_24 
REMARK    9  A    between atoms: C18_26  and  O3_27 
ROOT
HETATM    1  C9  UNL     1      34.035  57.726  44.981  1.00  0.00     0.043 C 
HETATM    2  C10 UNL     1      34.545  58.888  45.711  1.00  0.00     0.072 C 
HETATM    3  N2  UNL     1      35.290  59.580  44.942  1.00  0.00    -0.401 N 
ATOM      4  H2  UNL     1      35.762  60.440  45.223  1.00  0.00     0.158 HD
HETATM    5  C11 UNL     1      35.384  59.002  43.632  1.00  0.00     0.125 C 
HETATM    6  C12 UNL     1      34.083  58.181  43.554  1.00  0.00     0.034 C 
HETATM    7  C13 UNL     1      32.937  59.005  43.099  1.00  0.00    -0.008 C 
HETATM    8  C14 UNL     1      32.979  60.439  43.555  1.00  0.00     0.018 C 
HETATM    9  C15 UNL     1      32.990  59.047  41.564  1.00  0.00     0.018 C 
HETATM   10  C16 UNL     1      31.630  58.393  43.469  1.00  0.00     0.209 C 
HETATM   11  F1  UNL     1      31.404  57.257  42.704  1.00  0.00    -0.246 F 
HETATM   12  C17 UNL     1      31.530  57.987  44.911  1.00  0.00     0.182 C 
HETATM   13  C18 UNL     1      32.698  57.245  45.429  1.00  0.00     0.167 C 
ENDROOT
BRANCH   1  14
HETATM   14  C8  UNL     1      34.994  56.613  45.186  1.00  0.00    -0.013 C 
HETATM   15  C7  UNL     1      35.572  56.476  46.362  1.00  0.00    -0.029 C 
BRANCH  15  16
HETATM   16  C6  UNL     1      36.551  55.391  46.670  1.00  0.00     0.027 C 
BRANCH  16  17
HETATM   17  C5  UNL     1      37.563  55.957  47.667  1.00  0.00     0.006 C 
BRANCH  17  18
HETATM   18  C4  UNL     1      38.409  56.985  46.973  1.00  0.00     0.026 C 
BRANCH  18  19
HETATM   19  C3  UNL     1      38.712  58.138  47.860  1.00  0.00     0.088 C 
BRANCH  19  20
HETATM   20  N1  UNL     1      37.552  58.437  48.662  1.00  0.00    -0.356 N 
HETATM   21  C2  UNL     1      36.796  59.595  48.394  1.00  0.00     0.213 C 
HETATM   22  C1  UNL     1      35.587  59.952  49.194  1.00  0.00     0.117 C 
HETATM   23  O1  UNL     1      37.128  60.371  47.458  1.00  0.00    -0.274 OA
ATOM     24  H1  UNL     1      37.281  57.813  49.421  1.00  0.00     0.162 HD
ENDBRANCH  19  20
BRANCH  19  25
HETATM   25  C19 UNL     1      39.868  57.906  48.792  1.00  0.00     0.008 C 
HETATM   26  C20 UNL     1      40.348  59.208  49.400  1.00  0.00     0.007 C 
HETATM   27  C21 UNL     1      41.260  58.875  50.535  1.00  0.00     0.000 C 
HETATM   28  C22 UNL     1      42.304  57.875  50.252  1.00  0.00     0.000 C 
HETATM   29  C23 UNL     1      42.098  56.943  49.136  1.00  0.00     0.000 C 
HETATM   30  C24 UNL     1      41.064  57.296  48.131  1.00  0.00     0.007 C 
ENDBRANCH  19  25
ENDBRANCH  18  19
ENDBRANCH  17  18
ENDBRANCH  16  17
ENDBRANCH  15  16
ENDBRANCH   1  14
BRANCH  13  31
HETATM   31  O3  UNL     1      32.600  55.883  45.112  1.00  0.00    -0.391 OA
ATOM     32  H3  UNL     1      31.829  55.537  45.545  1.00  0.00     0.210 HD
ENDBRANCH  13  31
BRANCH  12  33
HETATM   33  O2  UNL     1      31.227  59.058  45.755  1.00  0.00    -0.390 OA
ATOM     34  H2  UNL     1      31.974  59.346  46.266  1.00  0.00     0.210 HD
ENDBRANCH  12  33
TORSDOF 9
ENDMDL
MODEL 4
REMARK VINA RESULT: -8.256672969      4.584      8.837
REMARK  9 active torsions:
REMARK  status: ('A' for Active; 'I' for Inactive)
REMARK       I    between atoms: C2_2  and  N1_4 
REMARK    1  A    between atoms: N1_4  and  C3_6 
REMARK    2  A    between atoms: C3_6  and  C4_7 
REMARK    3  A    between atoms: C3_6  and  C19_29 
REMARK    4  A    between atoms: C4_7  and  C5_8 
REMARK    5  A    between atoms: C5_8  and  C6_9 
REMARK    6  A    between atoms: C6_9  and  C7_10 
REMARK    7  A    between atoms: C8_11  and  C9_12 
REMARK    8  A    between atoms: C17_23  and  O2_24 
REMARK    9  A    between atoms: C18_26  and  O3_27 
ROOT
HETATM    1  C9  UNL     1      40.812  57.555  48.435  1.00  0.00     0.043 C 
HETATM    2  C10 UNL     1      41.069  57.160  47.048  1.00  0.00     0.072 C 
HETATM    3  N2  UNL     1      40.778  58.127  46.269  1.00  0.00    -0.401 N 
ATOM      4  H2  UNL     1      40.872  58.094  45.254  1.00  0.00     0.158 HD
HETATM    5  C11 UNL     1      40.300  59.268  46.996  1.00  0.00     0.125 C 
HETATM    6  C12 UNL     1      40.931  59.048  48.384  1.00  0.00     0.034 C 
HETATM    7  C13 UNL     1      42.309  59.590  48.456  1.00  0.00    -0.008 C 
HETATM    8  C14 UNL     1      43.089  59.487  47.171  1.00  0.00     0.018 C 
HETATM    9  C15 UNL     1      42.191  61.091  48.760  1.00  0.00     0.018 C 
HETATM   10  C16 UNL     1      43.088  58.984  49.571  1.00  0.00     0.209 C 
HETATM   11  F1  UNL     1      42.606  59.441  50.790  1.00  0.00    -0.246 F 
HETATM   12  C17 UNL     1      43.041  57.484  49.607  1.00  0.00     0.182 C 
HETATM   13  C18 UNL     1      41.693  56.901  49.442  1.00  0.00     0.167 C 
ENDROOT
BRANCH   1  14
HETATM   14  C8  UNL     1      39.416  57.173  48.756  1.00  0.00    -0.013 C 
HETATM   15  C7  UNL     1      38.885  56.126  48.157  1.00  0.00    -0.029 C 
BRANCH  15  16
HETATM   16  C6  UNL     1      37.490  55.659  48.411  1.00  0.00     0.027 C 
BRANCH  16  17
HETATM   17  C5  UNL     1      36.861  55.337  47.054  1.00  0.00     0.006 C 
BRANCH  17  18
HETATM   18  C4  UNL     1      37.113  56.482  46.116  1.00  0.00     0.026 C 
BRANCH  18  19
HETATM   19  C3  UNL     1      35.919  57.356  45.983  1.00  0.00     0.088 C 
BRANCH  19  20
HETATM   20  N1  UNL     1      34.754  56.538  45.757  1.00  0.00    -0.356 N 
HETATM   21  C2  UNL     1      34.032  56.666  44.553  1.00  0.00     0.213 C 
HETATM   22  C1  UNL     1      32.819  55.844  44.269  1.00  0.00     0.117 C 
HETATM   23  O1  UNL     1      34.398  57.492  43.675  1.00  0.00    -0.274 OA
ATOM     24  H1  UNL     1      34.453  55.869  46.465  1.00  0.00     0.162 HD
ENDBRANCH  19  20
BRANCH  19  25
HETATM   25  C19 UNL     1      35.650  58.214  47.189  1.00  0.00     0.008 C 
HETATM   26  C20 UNL     1      34.386  59.028  47.007  1.00  0.00     0.007 C 
HETATM   27  C21 UNL     1      34.012  59.596  48.337  1.00  0.00     0.000 C 
HETATM   28  C22 UNL     1      35.097  60.252  49.086  1.00  0.00     0.000 C 
HETATM   29  C23 UNL     1      36.484  59.893  48.769  1.00  0.00     0.000 C 
HETATM   30  C24 UNL     1      36.736  59.202  47.480  1.00  0.00     0.007 C 
ENDBRANCH  19  25
ENDBRANCH  18  19
ENDBRANCH  17  18
ENDBRANCH  16  17
ENDBRANCH  15  16
ENDBRANCH   1  14
BRANCH  13  31
HETATM   31  O3  UNL     1      41.009  56.882  50.666  1.00  0.00    -0.391 OA
ATOM     32  H3  UNL     1      40.529  56.064  50.720  1.00  0.00     0.210 HD
ENDBRANCH  13  31
BRANCH  12  33
HETATM   33  O2  UNL     1      43.934  56.892  48.711  1.00  0.00    -0.390 OA
ATOM     34  H2  UNL     1      44.773  56.690  49.108  1.00  0.00     0.210 HD
ENDBRANCH  12  33
TORSDOF 9
ENDMDL
MODEL 5
REMARK VINA RESULT: -8.216979699      3.105      4.948
REMARK  9 active torsions:
REMARK  status: ('A' for Active; 'I' for Inactive)
REMARK       I    between atoms: C2_2  and  N1_4 
REMARK    1  A    between atoms: N1_4  and  C3_6 
REMARK    2  A    between atoms: C3_6  and  C4_7 
REMARK    3  A    between atoms: C3_6  and  C19_29 
REMARK    4  A    between atoms: C4_7  and  C5_8 
REMARK    5  A    between atoms: C5_8  and  C6_9 
REMARK    6  A    between atoms: C6_9  and  C7_10 
REMARK    7  A    between atoms: C8_11  and  C9_12 
REMARK    8  A    between atoms: C17_23  and  O2_24 
REMARK    9  A    between atoms: C18_26  and  O3_27 
ROOT
HETATM    1  C9  UNL     1      33.561  58.289  45.478  1.00  0.00     0.043 C 
HETATM    2  C10 UNL     1      34.960  58.067  45.109  1.00  0.00     0.072 C 
HETATM    3  N2  UNL     1      35.273  56.852  45.337  1.00  0.00    -0.401 N 
ATOM      4  H2  UNL     1      36.196  56.455  45.161  1.00  0.00     0.158 HD
HETATM    5  C11 UNL     1      34.167  56.112  45.873  1.00  0.00     0.125 C 
HETATM    6  C12 UNL     1      32.963  56.920  45.357  1.00  0.00     0.034 C 
HETATM    7  C13 UNL     1      32.566  56.507  43.989  1.00  0.00    -0.008 C 
HETATM    8  C14 UNL     1      33.711  56.082  43.108  1.00  0.00     0.018 C 
HETATM    9  C15 UNL     1      31.662  55.273  44.133  1.00  0.00     0.018 C 
HETATM   10  C16 UNL     1      31.760  57.555  43.303  1.00  0.00     0.209 C 
HETATM   11  F1  UNL     1      30.501  57.641  43.883  1.00  0.00    -0.246 F 
HETATM   12  C17 UNL     1      32.369  58.926  43.352  1.00  0.00     0.182 C 
HETATM   13  C18 UNL     1      32.865  59.338  44.681  1.00  0.00     0.167 C 
ENDROOT
BRANCH   1  14
HETATM   14  C8  UNL     1      33.536  58.724  46.896  1.00  0.00    -0.013 C 
HETATM   15  C7  UNL     1      34.590  59.338  47.394  1.00  0.00    -0.029 C 
BRANCH  15  16
HETATM   16  C6  UNL     1      34.664  59.816  48.807  1.00  0.00     0.027 C 
BRANCH  16  17
HETATM   17  C5  UNL     1      36.139  59.808  49.215  1.00  0.00     0.006 C 
BRANCH  17  18
HETATM   18  C4  UNL     1      36.984  59.655  47.984  1.00  0.00     0.026 C 
BRANCH  18  19
HETATM   19  C3  UNL     1      38.053  58.640  48.175  1.00  0.00     0.088 C 
BRANCH  19  20
HETATM   20  N1  UNL     1      37.645  57.401  47.562  1.00  0.00    -0.356 N 
HETATM   21  C2  UNL     1      37.574  56.227  48.338  1.00  0.00     0.213 C 
HETATM   22  C1  UNL     1      37.158  54.918  47.754  1.00  0.00     0.117 C 
HETATM   23  O1  UNL     1      37.865  56.254  49.564  1.00  0.00    -0.274 OA
ATOM     24  H1  UNL     1      37.409  57.374  46.571  1.00  0.00     0.162 HD
ENDBRANCH  19  20
BRANCH  19  25
HETATM   25  C19 UNL     1      39.380  59.030  47.584  1.00  0.00     0.008 C 
HETATM   26  C20 UNL     1      39.522  58.503  46.171  1.00  0.00     0.007 C 
HETATM   27  C21 UNL     1      40.695  59.185  45.544  1.00  0.00     0.000 C 
HETATM   28  C22 UNL     1      41.929  59.214  46.347  1.00  0.00     0.000 C 
HETATM   29  C23 UNL     1      41.822  59.056  47.803  1.00  0.00     0.000 C 
HETATM   30  C24 UNL     1      40.556  58.498  48.341  1.00  0.00     0.007 C 
ENDBRANCH  19  25
ENDBRANCH  18  19
ENDBRANCH  17  18
ENDBRANCH  16  17
ENDBRANCH  15  16
ENDBRANCH   1  14
BRANCH  13  31
HETATM   31  O3  UNL     1      31.820  59.850  45.463  1.00  0.00    -0.391 OA
ATOM     32  H3  UNL     1      31.695  60.761  45.223  1.00  0.00     0.210 HD
ENDBRANCH  13  31
BRANCH  12  33
HETATM   33  O2  UNL     1      33.363  59.112  42.388  1.00  0.00    -0.390 OA
ATOM     34  H2  UNL     1      33.859  59.911  42.521  1.00  0.00     0.210 HD
ENDBRANCH  12  33
TORSDOF 9
ENDMDL
