MODEL 1
REMARK VINA RESULT: -8.621664407      0.000      0.000
REMARK  6 active torsions:
REMARK  status: ('A' for Active; 'I' for Inactive)
REMARK    1  A    between atoms: C2_2  and  C3_3 
REMARK    2  A    between atoms: C2_2  and  C23_30 
REMARK    3  A    between atoms: C4_4  and  C5_6 
REMARK       I    between atoms: C5_6  and  N1_8 
REMARK    4  A    between atoms: N1_8  and  C6_10 
REMARK    5  A    between atoms: C11_15  and  C12_16 
REMARK    6  A    between atoms: C12_16  and  O2_18 
ROOT
HETATM    1  C6  UNL     1      36.527  58.938  46.199  1.00  0.00     0.042 C 
HETATM    2  C7  UNL     1      37.102  57.706  45.473  1.00  0.00     0.038 C 
HETATM    3  C8  UNL     1      37.981  56.837  46.266  1.00  0.00     0.012 C 
HETATM    4  C9  UNL     1      37.149  56.261  47.389  1.00  0.00     0.012 C 
HETATM    5  C10 UNL     1      37.110  57.547  48.246  1.00  0.00     0.005 C 
HETATM    6  C11 UNL     1      36.132  58.423  47.571  1.00  0.00     0.047 C 
HETATM    7  C14 UNL     1      38.562  57.811  48.295  1.00  0.00    -0.023 C 
HETATM    8  C15 UNL     1      39.091  56.568  49.080  1.00  0.00     0.017 C 
HETATM    9  C16 UNL     1      39.040  58.924  49.138  1.00  0.00     0.017 C 
HETATM   10  C17 UNL     1      39.066  57.674  46.920  1.00  0.00     0.091 C 
HETATM   11  N2  UNL     1      39.506  58.761  46.199  1.00  0.00    -0.403 N 
HETATM   12  C18 UNL     1      40.605  58.531  45.297  1.00  0.00     0.118 C 
HETATM   13  C19 UNL     1      40.591  59.663  44.324  1.00  0.00     0.021 C 
HETATM   14  C20 UNL     1      39.260  60.297  44.530  1.00  0.00     0.026 C 
HETATM   15  C21 UNL     1      38.869  59.930  45.971  1.00  0.00     0.082 C 
HETATM   16  C22 UNL     1      37.417  60.110  46.157  1.00  0.00     0.056 C 
ENDROOT
BRANCH   1  17
HETATM   17  N1  UNL     1      35.396  59.271  45.356  1.00  0.00    -0.345 N 
HETATM   18  C5  UNL     1      34.199  58.590  45.088  1.00  0.00     0.280 C 
HETATM   19  O1  UNL     1      33.991  57.532  45.641  1.00  0.00    -0.265 OA
ATOM     20  H1  UNL     1      35.486  60.162  44.869  1.00  0.00     0.163 HD
BRANCH  18  21
HETATM   21  C4  UNL     1      33.242  59.149  44.172  1.00  0.00     0.184 C 
HETATM   22  C3  UNL     1      33.230  59.742  43.050  1.00  0.00     0.065 C 
HETATM   23  F1  UNL     1      31.872  59.001  44.663  1.00  0.00    -0.200 F 
BRANCH  22  24
HETATM   24  C2  UNL     1      34.052  60.232  41.994  1.00  0.00     0.034 C 
HETATM   25  C1  UNL     1      34.735  61.391  42.307  1.00  0.00     0.030 C 
BRANCH  24  26
HETATM   26  C23 UNL     1      34.326  59.782  40.666  1.00  0.00     0.208 C 
HETATM   27  O3  UNL     1      34.031  60.212  39.549  1.00  0.00    -0.644 OA
HETATM   28  O4  UNL     1      35.113  58.570  40.517  1.00  0.00    -0.644 OA
ENDBRANCH  24  26
ENDBRANCH  22  24
ENDBRANCH  18  21
ENDBRANCH   1  17
BRANCH   6  29
HETATM   29  C12 UNL     1      35.317  59.279  48.453  1.00  0.00     0.120 C 
HETATM   30  C13 UNL     1      36.059  60.626  48.718  1.00  0.00     0.040 C 
BRANCH  29  31
HETATM   31  O2  UNL     1      34.112  59.759  47.980  1.00  0.00    -0.395 OA
ATOM     32  H2  UNL     1      33.746  60.540  48.378  1.00  0.00     0.210 HD
ENDBRANCH  29  31
ENDBRANCH   6  29
TORSDOF 6
ENDMDL
MODEL 2
REMARK VINA RESULT: -8.549207400      1.813      2.137
REMARK  6 active torsions:
REMARK  status: ('A' for Active; 'I' for Inactive)
REMARK    1  A    between atoms: C2_2  and  C3_3 
REMARK    2  A    between atoms: C2_2  and  C23_30 
REMARK    3  A    between atoms: C4_4  and  C5_6 
REMARK       I    between atoms: C5_6  and  N1_8 
REMARK    4  A    between atoms: N1_8  and  C6_10 
REMARK    5  A    between atoms: C11_15  and  C12_16 
REMARK    6  A    between atoms: C12_16  and  O2_18 
ROOT
HETATM    1  C6  UNL     1      37.344  58.968  46.028  1.00  0.00     0.042 C 
HETATM    2  C7  UNL     1      37.492  57.535  45.482  1.00  0.00     0.038 C 
HETATM    3  C8  UNL     1      37.946  56.519  46.441  1.00  0.00     0.012 C 
HETATM    4  C9  UNL     1      36.887  56.409  47.514  1.00  0.00     0.012 C 
HETATM    5  C10 UNL     1      37.248  57.723  48.243  1.00  0.00     0.005 C 
HETATM    6  C11 UNL     1      36.696  58.794  47.390  1.00  0.00     0.047 C 
HETATM    7  C14 UNL     1      38.692  57.472  48.426  1.00  0.00    -0.023 C 
HETATM    8  C15 UNL     1      38.687  56.228  49.372  1.00  0.00     0.017 C 
HETATM    9  C16 UNL     1      39.475  58.444  49.212  1.00  0.00     0.017 C 
HETATM   10  C17 UNL     1      39.209  57.002  47.131  1.00  0.00     0.091 C 
HETATM   11  N2  UNL     1      40.057  57.773  46.368  1.00  0.00    -0.403 N 
HETATM   12  C18 UNL     1      41.062  57.068  45.615  1.00  0.00     0.118 C 
HETATM   13  C19 UNL     1      41.520  58.007  44.548  1.00  0.00     0.021 C 
HETATM   14  C20 UNL     1      40.491  59.082  44.551  1.00  0.00     0.026 C 
HETATM   15  C21 UNL     1      39.895  59.052  45.968  1.00  0.00     0.082 C 
HETATM   16  C22 UNL     1      38.593  59.746  45.978  1.00  0.00     0.056 C 
ENDROOT
BRANCH   1  17
HETATM   17  N1  UNL     1      36.467  59.567  45.041  1.00  0.00    -0.345 N 
HETATM   18  C5  UNL     1      35.201  59.192  44.567  1.00  0.00     0.280 C 
HETATM   19  O1  UNL     1      34.669  58.209  45.034  1.00  0.00    -0.265 OA
ATOM     20  H1  UNL     1      36.838  60.416  44.614  1.00  0.00     0.163 HD
BRANCH  18  21
HETATM   21  C4  UNL     1      34.556  59.969  43.543  1.00  0.00     0.184 C 
HETATM   22  C3  UNL     1      33.537  59.897  42.792  1.00  0.00     0.065 C 
HETATM   23  F1  UNL     1      35.277  61.213  43.274  1.00  0.00    -0.200 F 
BRANCH  22  24
HETATM   24  C2  UNL     1      32.410  59.095  42.447  1.00  0.00     0.034 C 
HETATM   25  C1  UNL     1      31.706  59.557  41.353  1.00  0.00     0.030 C 
BRANCH  24  26
HETATM   26  C23 UNL     1      31.842  57.902  42.993  1.00  0.00     0.208 C 
HETATM   27  O3  UNL     1      30.706  57.599  43.362  1.00  0.00    -0.644 OA
HETATM   28  O4  UNL     1      32.726  56.765  43.186  1.00  0.00    -0.644 OA
ENDBRANCH  24  26
ENDBRANCH  22  24
ENDBRANCH  18  21
ENDBRANCH   1  17
BRANCH   6  29
HETATM   29  C12 UNL     1      36.180  59.980  48.098  1.00  0.00     0.120 C 
HETATM   30  C13 UNL     1      34.732  59.703  48.610  1.00  0.00     0.040 C 
BRANCH  29  31
HETATM   31  O2  UNL     1      36.783  60.360  49.279  1.00  0.00    -0.395 OA
ATOM     32  H2  UNL     1      37.687  60.109  49.431  1.00  0.00     0.210 HD
ENDBRANCH  29  31
ENDBRANCH   6  29
TORSDOF 6
ENDMDL
MODEL 3
REMARK VINA RESULT: -8.520829769      3.361      4.375
REMARK  6 active torsions:
REMARK  status: ('A' for Active; 'I' for Inactive)
REMARK    1  A    between atoms: C2_2  and  C3_3 
REMARK    2  A    between atoms: C2_2  and  C23_30 
REMARK    3  A    between atoms: C4_4  and  C5_6 
REMARK       I    between atoms: C5_6  and  N1_8 
REMARK    4  A    between atoms: N1_8  and  C6_10 
REMARK    5  A    between atoms: C11_15  and  C12_16 
REMARK    6  A    between atoms: C12_16  and  O2_18 
ROOT
HETATM    1  C6  UNL     1      38.724  59.364  46.690  1.00  0.00     0.042 C 
HETATM    2  C7  UNL     1      39.113  58.383  45.567  1.00  0.00     0.038 C 
HETATM    3  C8  UNL     1      38.655  56.997  45.729  1.00  0.00     0.012 C 
HETATM    4  C9  UNL     1      37.143  57.019  45.706  1.00  0.00     0.012 C 
HETATM    5  C10 UNL     1      36.962  57.586  47.133  1.00  0.00     0.005 C 
HETATM    6  C11 UNL     1      37.281  59.022  47.013  1.00  0.00     0.047 C 
HETATM    7  C14 UNL     1      37.800  56.609  47.856  1.00  0.00    -0.023 C 
HETATM    8  C15 UNL     1      37.019  55.276  47.622  1.00  0.00     0.017 C 
HETATM    9  C16 UNL     1      37.840  56.679  49.329  1.00  0.00     0.017 C 
HETATM   10  C17 UNL     1      39.057  56.486  47.101  1.00  0.00     0.091 C 
HETATM   11  N2  UNL     1      40.248  56.965  47.597  1.00  0.00    -0.403 N 
HETATM   12  C18 UNL     1      41.430  56.210  47.268  1.00  0.00     0.118 C 
HETATM   13  C19 UNL     1      42.587  57.129  47.486  1.00  0.00     0.021 C 
HETATM   14  C20 UNL     1      41.960  58.473  47.603  1.00  0.00     0.026 C 
HETATM   15  C21 UNL     1      40.523  58.197  48.076  1.00  0.00     0.082 C 
HETATM   16  C22 UNL     1      39.675  59.375  47.814  1.00  0.00     0.056 C 
ENDROOT
BRANCH   1  17
HETATM   17  N1  UNL     1      38.882  60.643  46.027  1.00  0.00    -0.345 N 
HETATM   18  C5  UNL     1      39.928  61.171  45.254  1.00  0.00     0.280 C 
HETATM   19  O1  UNL     1      40.903  60.483  45.042  1.00  0.00    -0.265 OA
ATOM     20  H1  UNL     1      38.090  61.275  46.142  1.00  0.00     0.163 HD
BRANCH  18  21
HETATM   21  C4  UNL     1      39.832  62.506  44.728  1.00  0.00     0.184 C 
HETATM   22  C3  UNL     1      39.214  63.127  43.812  1.00  0.00     0.065 C 
HETATM   23  F1  UNL     1      40.700  63.435  45.452  1.00  0.00    -0.200 F 
BRANCH  22  24
HETATM   24  C2  UNL     1      38.270  62.984  42.753  1.00  0.00     0.034 C 
HETATM   25  C1  UNL     1      37.371  61.952  42.939  1.00  0.00     0.030 C 
BRANCH  24  26
HETATM   26  C23 UNL     1      38.047  63.684  41.527  1.00  0.00     0.208 C 
HETATM   27  O3  UNL     1      37.057  63.839  40.810  1.00  0.00    -0.644 OA
HETATM   28  O4  UNL     1      39.177  64.383  40.939  1.00  0.00    -0.644 OA
ENDBRANCH  24  26
ENDBRANCH  22  24
ENDBRANCH  18  21
ENDBRANCH   1  17
BRANCH   6  29
HETATM   29  C12 UNL     1      36.503  59.929  47.878  1.00  0.00     0.120 C 
HETATM   30  C13 UNL     1      35.072  59.350  48.102  1.00  0.00     0.040 C 
BRANCH  29  31
HETATM   31  O2  UNL     1      36.901  60.097  49.189  1.00  0.00    -0.395 OA
ATOM     32  H2  UNL     1      37.554  59.507  49.545  1.00  0.00     0.210 HD
ENDBRANCH  29  31
ENDBRANCH   6  29
TORSDOF 6
ENDMDL
MODEL 4
REMARK VINA RESULT: -8.448164999      2.926      3.843
REMARK  6 active torsions:
REMARK  status: ('A' for Active; 'I' for Inactive)
REMARK    1  A    between atoms: C2_2  and  C3_3 
REMARK    2  A    between atoms: C2_2  and  C23_30 
REMARK    3  A    between atoms: C4_4  and  C5_6 
REMARK       I    between atoms: C5_6  and  N1_8 
REMARK    4  A    between atoms: N1_8  and  C6_10 
REMARK    5  A    between atoms: C11_15  and  C12_16 
REMARK    6  A    between atoms: C12_16  and  O2_18 
ROOT
HETATM    1  C6  UNL     1      38.556  57.614  46.453  1.00  0.00     0.042 C 
HETATM    2  C7  UNL     1      39.622  57.582  45.340  1.00  0.00     0.038 C 
HETATM    3  C8  UNL     1      41.021  57.662  45.780  1.00  0.00     0.012 C 
HETATM    4  C9  UNL     1      41.302  56.430  46.610  1.00  0.00     0.012 C 
HETATM    5  C10 UNL     1      40.541  56.899  47.871  1.00  0.00     0.005 C 
HETATM    6  C11 UNL     1      39.113  56.717  47.543  1.00  0.00     0.047 C 
HETATM    7  C14 UNL     1      41.192  58.215  48.032  1.00  0.00    -0.023 C 
HETATM    8  C15 UNL     1      42.673  57.810  48.324  1.00  0.00     0.017 C 
HETATM    9  C16 UNL     1      40.859  59.017  49.224  1.00  0.00     0.017 C 
HETATM   10  C17 UNL     1      41.194  58.853  46.706  1.00  0.00     0.091 C 
HETATM   11  N2  UNL     1      40.411  59.950  46.430  1.00  0.00    -0.403 N 
HETATM   12  C18 UNL     1      40.964  60.921  45.521  1.00  0.00     0.118 C 
HETATM   13  C19 UNL     1      39.811  61.728  45.019  1.00  0.00     0.021 C 
HETATM   14  C20 UNL     1      38.618  60.935  45.421  1.00  0.00     0.026 C 
HETATM   15  C21 UNL     1      39.085  60.106  46.629  1.00  0.00     0.082 C 
HETATM   16  C22 UNL     1      38.161  58.977  46.847  1.00  0.00     0.056 C 
ENDROOT
BRANCH   1  17
HETATM   17  N1  UNL     1      37.406  57.052  45.771  1.00  0.00    -0.345 N 
HETATM   18  C5  UNL     1      36.028  57.218  45.973  1.00  0.00     0.280 C 
HETATM   19  O1  UNL     1      35.651  57.967  46.848  1.00  0.00    -0.265 OA
ATOM     20  H1  UNL     1      37.643  56.423  45.004  1.00  0.00     0.163 HD
BRANCH  18  21
HETATM   21  C4  UNL     1      35.089  56.505  45.150  1.00  0.00     0.184 C 
HETATM   22  C3  UNL     1      33.898  56.634  44.732  1.00  0.00     0.065 C 
HETATM   23  F1  UNL     1      35.657  55.259  44.636  1.00  0.00    -0.200 F 
BRANCH  22  24
HETATM   24  C2  UNL     1      32.749  57.477  44.760  1.00  0.00     0.034 C 
HETATM   25  C1  UNL     1      31.869  57.260  43.718  1.00  0.00     0.030 C 
BRANCH  24  26
HETATM   26  C23 UNL     1      32.303  58.510  45.641  1.00  0.00     0.208 C 
HETATM   27  O3  UNL     1      31.944  59.676  45.463  1.00  0.00    -0.644 OA
HETATM   28  O4  UNL     1      32.231  58.199  47.058  1.00  0.00    -0.644 OA
ENDBRANCH  24  26
ENDBRANCH  22  24
ENDBRANCH  18  21
ENDBRANCH   1  17
BRANCH   6  29
HETATM   29  C12 UNL     1      38.240  56.317  48.662  1.00  0.00     0.120 C 
HETATM   30  C13 UNL     1      37.454  55.023  48.286  1.00  0.00     0.040 C 
BRANCH  29  31
HETATM   31  O2  UNL     1      38.825  55.907  49.843  1.00  0.00    -0.395 OA
ATOM     32  H2  UNL     1      38.549  56.316  50.654  1.00  0.00     0.210 HD
ENDBRANCH  29  31
ENDBRANCH   6  29
TORSDOF 6
ENDMDL
MODEL 5
REMARK VINA RESULT: -8.369820955      2.544      3.015
REMARK  6 active torsions:
REMARK  status: ('A' for Active; 'I' for Inactive)
REMARK    1  A    between atoms: C2_2  and  C3_3 
REMARK    2  A    between atoms: C2_2  and  C23_30 
REMARK    3  A    between atoms: C4_4  and  C5_6 
REMARK       I    between atoms: C5_6  and  N1_8 
REMARK    4  A    between atoms: N1_8  and  C6_10 
REMARK    5  A    between atoms: C11_15  and  C12_16 
REMARK    6  A    between atoms: C12_16  and  O2_18 
ROOT
HETATM    1  C6  UNL     1      37.206  59.586  45.877  1.00  0.00     0.042 C 
HETATM    2  C7  UNL     1      37.495  58.220  45.224  1.00  0.00     0.038 C 
HETATM    3  C8  UNL     1      37.835  57.122  46.140  1.00  0.00     0.012 C 
HETATM    4  C9  UNL     1      36.626  56.877  47.014  1.00  0.00     0.012 C 
HETATM    5  C10 UNL     1      36.817  58.118  47.916  1.00  0.00     0.005 C 
HETATM    6  C11 UNL     1      36.361  59.257  47.094  1.00  0.00     0.047 C 
HETATM    7  C14 UNL     1      38.222  57.885  48.301  1.00  0.00    -0.023 C 
HETATM    8  C15 UNL     1      38.120  56.551  49.109  1.00  0.00     0.017 C 
HETATM    9  C16 UNL     1      38.833  58.790  49.293  1.00  0.00     0.017 C 
HETATM   10  C17 UNL     1      38.954  57.563  47.066  1.00  0.00     0.091 C 
HETATM   11  N2  UNL     1      39.878  58.428  46.526  1.00  0.00    -0.403 N 
HETATM   12  C18 UNL     1      41.016  57.829  45.878  1.00  0.00     0.118 C 
HETATM   13  C19 UNL     1      41.597  58.883  44.994  1.00  0.00     0.021 C 
HETATM   14  C20 UNL     1      40.538  59.927  44.938  1.00  0.00     0.026 C 
HETATM   15  C21 UNL     1      39.730  59.738  46.233  1.00  0.00     0.082 C 
HETATM   16  C22 UNL     1      38.416  60.394  46.102  1.00  0.00     0.056 C 
ENDROOT
BRANCH   1  17
HETATM   17  N1  UNL     1      36.471  60.261  44.825  1.00  0.00    -0.345 N 
HETATM   18  C5  UNL     1      36.900  60.996  43.711  1.00  0.00     0.280 C 
HETATM   19  O1  UNL     1      38.089  61.116  43.512  1.00  0.00    -0.265 OA
ATOM     20  H1  UNL     1      35.457  60.188  44.912  1.00  0.00     0.163 HD
BRANCH  18  21
HETATM   21  C4  UNL     1      35.935  61.592  42.826  1.00  0.00     0.184 C 
HETATM   22  C3  UNL     1      35.910  62.398  41.847  1.00  0.00     0.065 C 
HETATM   23  F1  UNL     1      34.575  61.150  43.133  1.00  0.00    -0.200 F 
BRANCH  22  24
HETATM   24  C2  UNL     1      36.717  63.210  40.998  1.00  0.00     0.034 C 
HETATM   25  C1  UNL     1      36.141  63.488  39.774  1.00  0.00     0.030 C 
BRANCH  24  26
HETATM   26  C23 UNL     1      38.009  63.807  41.138  1.00  0.00     0.208 C 
HETATM   27  O3  UNL     1      39.154  63.352  41.141  1.00  0.00    -0.644 OA
HETATM   28  O4  UNL     1      38.066  65.247  41.319  1.00  0.00    -0.644 OA
ENDBRANCH  24  26
ENDBRANCH  22  24
ENDBRANCH  18  21
ENDBRANCH   1  17
BRANCH   6  29
HETATM   29  C12 UNL     1      35.694  60.352  47.823  1.00  0.00     0.120 C 
HETATM   30  C13 UNL     1      35.260  59.858  49.238  1.00  0.00     0.040 C 
BRANCH  29  31
HETATM   31  O2  UNL     1      36.435  61.462  48.174  1.00  0.00    -0.395 OA
ATOM     32  H2  UNL     1      37.105  61.769  47.575  1.00  0.00     0.210 HD
ENDBRANCH  29  31
ENDBRANCH   6  29
TORSDOF 6
ENDMDL
