MODEL 1
REMARK VINA RESULT: -9.125450547      0.000      0.000
REMARK  8 active torsions:
REMARK  status: ('A' for Active; 'I' for Inactive)
REMARK    1  A    between atoms: N1_2  and  C3_4 
REMARK    2  A    between atoms: C3_4  and  C4_5 
REMARK    3  A    between atoms: C4_5  and  C5_6 
REMARK    4  A    between atoms: C5_6  and  N2_7 
REMARK    5  A    between atoms: N2_7  and  C6_9 
REMARK    6  A    between atoms: C7_12  and  N4_13 
REMARK    7  A    between atoms: N4_13  and  C8_15 
REMARK    8  A    between atoms: C10_17  and  C11_18 
ROOT
HETATM    1  C6  UNL     1      34.380  63.527  38.733  1.00  0.00     0.679 A 
HETATM    2  N3  UNL     1      33.656  62.809  39.630  1.00  0.00    -0.175 N 
ATOM      3  H3  UNL     1      33.831  62.961  40.624  1.00  0.00     0.186 HD
HETATM    4  C7  UNL     1      32.722  61.912  39.279  1.00  0.00     0.141 A 
HETATM    5  C17 UNL     1      32.507  61.727  37.921  1.00  0.00     0.071 A 
HETATM    6 BR1  UNL     1      31.185  60.457  37.406  1.00  0.00    -0.046 Br
HETATM    7  C18 UNL     1      33.229  62.444  36.971  1.00  0.00     0.129 A 
HETATM    8  N7  UNL     1      34.141  63.318  37.427  1.00  0.00    -0.201 N 
ATOM      9  H7  UNL     1      34.681  63.852  36.746  1.00  0.00     0.183 HD
ENDROOT
BRANCH   4  10
HETATM   10  N4  UNL     1      31.967  61.167  40.178  1.00  0.00    -0.326 N 
ATOM     11  H4  UNL     1      31.103  60.790  39.788  1.00  0.00     0.169 HD
BRANCH  10  12
HETATM   12  C8  UNL     1      32.160  60.876  41.388  1.00  0.00     0.123 A 
HETATM   13  C9  UNL     1      32.390  59.584  41.822  1.00  0.00     0.076 A 
HETATM   14  C10 UNL     1      32.561  59.594  43.185  1.00  0.00     0.033 A 
HETATM   15  N5  UNL     1      32.435  60.877  43.563  1.00  0.00    -0.303 N 
HETATM   16  N6  UNL     1      32.197  61.637  42.495  1.00  0.00    -0.285 N 
ATOM     17  H5  UNL     1      32.511  61.217  44.521  1.00  0.00     0.186 HD
ATOM     18  H6  UNL     1      32.062  62.648  42.515  1.00  0.00     0.188 HD
BRANCH  14  19
HETATM   19  C11 UNL     1      32.829  58.462  44.110  1.00  0.00     0.037 C 
HETATM   20  C12 UNL     1      32.606  57.128  43.413  1.00  0.00     0.011 C 
HETATM   21  C13 UNL     1      32.518  56.009  44.411  1.00  0.00     0.001 C 
HETATM   22  C14 UNL     1      33.344  56.411  45.630  1.00  0.00     0.000 C 
HETATM   23  C15 UNL     1      32.695  57.559  46.372  1.00  0.00     0.001 C 
HETATM   24  C16 UNL     1      32.033  58.528  45.387  1.00  0.00     0.011 C 
ENDBRANCH  14  19
ENDBRANCH  10  12
ENDBRANCH   4  10
BRANCH   1  25
HETATM   25  N2  UNL     1      35.271  64.384  39.128  1.00  0.00    -0.226 N 
ATOM     26  H2  UNL     1      35.073  65.384  39.139  1.00  0.00     0.177 HD
BRANCH  25  27
HETATM   27  C5  UNL     1      36.549  63.875  39.550  1.00  0.00     0.140 C 
BRANCH  27  28
HETATM   28  C4  UNL     1      37.098  64.574  40.763  1.00  0.00     0.050 C 
BRANCH  28  29
HETATM   29  C3  UNL     1      38.413  63.934  41.113  1.00  0.00     0.273 C 
BRANCH  29  30
HETATM   30  N1  UNL     1      38.300  62.788  41.967  1.00  0.00     0.080 N 
HETATM   31  C1  UNL     1      38.920  61.657  41.324  1.00  0.00     0.309 C 
HETATM   32  C2  UNL     1      38.798  63.038  43.296  1.00  0.00     0.309 C 
ENDBRANCH  29  30
ENDBRANCH  28  29
ENDBRANCH  27  28
ENDBRANCH  25  27
ENDBRANCH   1  25
TORSDOF 8
ENDMDL
MODEL 2
REMARK VINA RESULT: -9.052539614      0.439      1.007
REMARK  8 active torsions:
REMARK  status: ('A' for Active; 'I' for Inactive)
REMARK    1  A    between atoms: N1_2  and  C3_4 
REMARK    2  A    between atoms: C3_4  and  C4_5 
REMARK    3  A    between atoms: C4_5  and  C5_6 
REMARK    4  A    between atoms: C5_6  and  N2_7 
REMARK    5  A    between atoms: N2_7  and  C6_9 
REMARK    6  A    between atoms: C7_12  and  N4_13 
REMARK    7  A    between atoms: N4_13  and  C8_15 
REMARK    8  A    between atoms: C10_17  and  C11_18 
ROOT
HETATM    1  C6  UNL     1      34.450  63.523  38.850  1.00  0.00     0.679 A 
HETATM    2  N3  UNL     1      33.700  62.813  39.730  1.00  0.00    -0.175 N 
ATOM      3  H3  UNL     1      33.861  62.955  40.727  1.00  0.00     0.186 HD
HETATM    4  C7  UNL     1      32.756  61.933  39.359  1.00  0.00     0.141 A 
HETATM    5  C17 UNL     1      32.560  61.761  37.996  1.00  0.00     0.071 A 
HETATM    6 BR1  UNL     1      31.225  60.516  37.452  1.00  0.00    -0.046 Br
HETATM    7  C18 UNL     1      33.309  62.471  37.063  1.00  0.00     0.129 A 
HETATM    8  N7  UNL     1      34.228  63.327  37.539  1.00  0.00    -0.201 N 
ATOM      9  H7  UNL     1      34.788  63.855  36.870  1.00  0.00     0.183 HD
ENDROOT
BRANCH   4  10
HETATM   10  N4  UNL     1      31.974  61.196  40.241  1.00  0.00    -0.326 N 
ATOM     11  H4  UNL     1      31.088  60.878  39.850  1.00  0.00     0.169 HD
BRANCH  10  12
HETATM   12  C8  UNL     1      32.167  60.852  41.437  1.00  0.00     0.123 A 
HETATM   13  C9  UNL     1      32.336  59.535  41.822  1.00  0.00     0.076 A 
HETATM   14  C10 UNL     1      32.523  59.487  43.182  1.00  0.00     0.033 A 
HETATM   15  N5  UNL     1      32.467  60.760  43.607  1.00  0.00    -0.303 N 
HETATM   16  N6  UNL     1      32.255  61.570  42.570  1.00  0.00    -0.285 N 
ATOM     17  H5  UNL     1      32.571  61.061  44.576  1.00  0.00     0.186 HD
ATOM     18  H6  UNL     1      32.172  62.585  42.628  1.00  0.00     0.188 HD
BRANCH  14  19
HETATM   19  C11 UNL     1      32.745  58.310  44.062  1.00  0.00     0.037 C 
HETATM   20  C12 UNL     1      34.027  58.467  44.866  1.00  0.00     0.011 C 
HETATM   21  C13 UNL     1      34.446  57.157  45.469  1.00  0.00     0.001 C 
HETATM   22  C14 UNL     1      33.185  56.326  45.690  1.00  0.00     0.000 C 
HETATM   23  C15 UNL     1      32.580  55.896  44.371  1.00  0.00     0.001 C 
HETATM   24  C16 UNL     1      32.745  56.999  43.321  1.00  0.00     0.011 C 
ENDBRANCH  14  19
ENDBRANCH  10  12
ENDBRANCH   4  10
BRANCH   1  25
HETATM   25  N2  UNL     1      35.349  64.363  39.264  1.00  0.00    -0.226 N 
ATOM     26  H2  UNL     1      35.146  65.359  39.338  1.00  0.00     0.177 HD
BRANCH  25  27
HETATM   27  C5  UNL     1      36.642  63.840  39.615  1.00  0.00     0.140 C 
BRANCH  27  28
HETATM   28  C4  UNL     1      37.288  64.565  40.762  1.00  0.00     0.050 C 
BRANCH  28  29
HETATM   29  C3  UNL     1      38.563  63.848  41.109  1.00  0.00     0.273 C 
BRANCH  29  30
HETATM   30  N1  UNL     1      38.396  62.769  42.039  1.00  0.00     0.080 N 
HETATM   31  C1  UNL     1      39.040  61.591  41.517  1.00  0.00     0.309 C 
HETATM   32  C2  UNL     1      38.825  63.117  43.370  1.00  0.00     0.309 C 
ENDBRANCH  29  30
ENDBRANCH  28  29
ENDBRANCH  27  28
ENDBRANCH  25  27
ENDBRANCH   1  25
TORSDOF 8
ENDMDL
MODEL 3
REMARK VINA RESULT: -8.768195244      0.571      1.273
REMARK  8 active torsions:
REMARK  status: ('A' for Active; 'I' for Inactive)
REMARK    1  A    between atoms: N1_2  and  C3_4 
REMARK    2  A    between atoms: C3_4  and  C4_5 
REMARK    3  A    between atoms: C4_5  and  C5_6 
REMARK    4  A    between atoms: C5_6  and  N2_7 
REMARK    5  A    between atoms: N2_7  and  C6_9 
REMARK    6  A    between atoms: C7_12  and  N4_13 
REMARK    7  A    between atoms: N4_13  and  C8_15 
REMARK    8  A    between atoms: C10_17  and  C11_18 
ROOT
HETATM    1  C6  UNL     1      34.287  63.616  38.723  1.00  0.00     0.679 A 
HETATM    2  N3  UNL     1      33.553  62.921  39.629  1.00  0.00    -0.175 N 
ATOM      3  H3  UNL     1      33.661  63.151  40.617  1.00  0.00     0.186 HD
HETATM    4  C7  UNL     1      32.692  61.947  39.295  1.00  0.00     0.141 A 
HETATM    5  C17 UNL     1      32.567  61.657  37.944  1.00  0.00     0.071 A 
HETATM    6 BR1  UNL     1      31.349  60.277  37.452  1.00  0.00    -0.046 Br
HETATM    7  C18 UNL     1      33.302  62.347  36.985  1.00  0.00     0.129 A 
HETATM    8  N7  UNL     1      34.136  63.304  37.424  1.00  0.00    -0.201 N 
ATOM      9  H7  UNL     1      34.684  63.820  36.736  1.00  0.00     0.183 HD
ENDROOT
BRANCH   4  10
HETATM   10  N4  UNL     1      31.928  61.224  40.203  1.00  0.00    -0.326 N 
ATOM     11  H4  UNL     1      31.042  60.883  39.829  1.00  0.00     0.169 HD
BRANCH  10  12
HETATM   12  C8  UNL     1      32.137  60.913  41.406  1.00  0.00     0.123 A 
HETATM   13  C9  UNL     1      32.341  59.610  41.821  1.00  0.00     0.076 A 
HETATM   14  C10 UNL     1      32.538  59.600  43.181  1.00  0.00     0.033 A 
HETATM   15  N5  UNL     1      32.453  60.881  43.575  1.00  0.00    -0.303 N 
HETATM   16  N6  UNL     1      32.214  61.660  42.521  1.00  0.00    -0.285 N 
ATOM     17  H5  UNL     1      32.555  61.208  44.536  1.00  0.00     0.186 HD
ATOM     18  H6  UNL     1      32.107  62.674  42.554  1.00  0.00     0.188 HD
BRANCH  14  19
HETATM   19  C11 UNL     1      32.794  58.451  44.087  1.00  0.00     0.037 C 
HETATM   20  C12 UNL     1      32.180  58.694  45.458  1.00  0.00     0.011 C 
HETATM   21  C13 UNL     1      32.731  57.730  46.470  1.00  0.00     0.001 C 
HETATM   22  C14 UNL     1      33.128  56.457  45.728  1.00  0.00     0.000 C 
HETATM   23  C15 UNL     1      34.321  56.701  44.831  1.00  0.00     0.001 C 
HETATM   24  C16 UNL     1      34.253  58.103  44.217  1.00  0.00     0.011 C 
ENDBRANCH  14  19
ENDBRANCH  10  12
ENDBRANCH   4  10
BRANCH   1  25
HETATM   25  N2  UNL     1      35.105  64.550  39.102  1.00  0.00    -0.226 N 
ATOM     26  H2  UNL     1      35.146  65.445  38.615  1.00  0.00     0.177 HD
BRANCH  25  27
HETATM   27  C5  UNL     1      35.952  64.280  40.232  1.00  0.00     0.140 C 
BRANCH  27  28
HETATM   28  C4  UNL     1      37.208  63.536  39.873  1.00  0.00     0.050 C 
BRANCH  28  29
HETATM   29  C3  UNL     1      38.260  63.879  40.891  1.00  0.00     0.273 C 
BRANCH  29  30
HETATM   30  N1  UNL     1      38.882  62.740  41.500  1.00  0.00     0.080 N 
HETATM   31  C1  UNL     1      38.692  62.805  42.927  1.00  0.00     0.309 C 
HETATM   32  C2  UNL     1      38.447  61.496  40.918  1.00  0.00     0.309 C 
ENDBRANCH  29  30
ENDBRANCH  28  29
ENDBRANCH  27  28
ENDBRANCH  25  27
ENDBRANCH   1  25
TORSDOF 8
ENDMDL
MODEL 4
REMARK VINA RESULT: -8.495747095      2.862      5.852
REMARK  8 active torsions:
REMARK  status: ('A' for Active; 'I' for Inactive)
REMARK    1  A    between atoms: N1_2  and  C3_4 
REMARK    2  A    between atoms: C3_4  and  C4_5 
REMARK    3  A    between atoms: C4_5  and  C5_6 
REMARK    4  A    between atoms: C5_6  and  N2_7 
REMARK    5  A    between atoms: N2_7  and  C6_9 
REMARK    6  A    between atoms: C7_12  and  N4_13 
REMARK    7  A    between atoms: N4_13  and  C8_15 
REMARK    8  A    between atoms: C10_17  and  C11_18 
ROOT
HETATM    1  C6  UNL     1      32.065  61.727  37.729  1.00  0.00     0.679 A 
HETATM    2  N3  UNL     1      32.515  61.511  38.992  1.00  0.00    -0.175 N 
ATOM      3  H3  UNL     1      32.021  60.832  39.570  1.00  0.00     0.186 HD
HETATM    4  C7  UNL     1      33.576  62.143  39.518  1.00  0.00     0.141 A 
HETATM    5  C17 UNL     1      34.226  63.061  38.707  1.00  0.00     0.071 A 
HETATM    6 BR1  UNL     1      35.733  63.967  39.439  1.00  0.00    -0.046 Br
HETATM    7  C18 UNL     1      33.795  63.310  37.407  1.00  0.00     0.129 A 
HETATM    8  N7  UNL     1      32.724  62.625  36.976  1.00  0.00    -0.201 N 
ATOM      9  H7  UNL     1      32.392  62.795  36.026  1.00  0.00     0.183 HD
ENDROOT
BRANCH   4  10
HETATM   10  N4  UNL     1      34.056  61.937  40.806  1.00  0.00    -0.326 N 
ATOM     11  H4  UNL     1      34.994  62.305  40.968  1.00  0.00     0.169 HD
BRANCH  10  12
HETATM   12  C8  UNL     1      33.539  61.377  41.809  1.00  0.00     0.123 A 
HETATM   13  C9  UNL     1      33.877  60.099  42.213  1.00  0.00     0.076 A 
HETATM   14  C10 UNL     1      33.145  59.775  43.329  1.00  0.00     0.033 A 
HETATM   15  N5  UNL     1      32.378  60.846  43.591  1.00  0.00    -0.303 N 
HETATM   16  N6  UNL     1      32.612  61.797  42.688  1.00  0.00    -0.285 N 
ATOM     17  H5  UNL     1      31.717  60.920  44.364  1.00  0.00     0.186 HD
ATOM     18  H6  UNL     1      32.156  62.708  42.666  1.00  0.00     0.188 HD
BRANCH  14  19
HETATM   19  C11 UNL     1      33.150  58.521  44.128  1.00  0.00     0.037 C 
HETATM   20  C12 UNL     1      32.721  57.335  43.277  1.00  0.00     0.011 C 
HETATM   21  C13 UNL     1      32.374  56.154  44.138  1.00  0.00     0.001 C 
HETATM   22  C14 UNL     1      33.194  56.262  45.421  1.00  0.00     0.000 C 
HETATM   23  C15 UNL     1      32.730  57.427  46.267  1.00  0.00     0.001 C 
HETATM   24  C16 UNL     1      32.312  58.602  45.377  1.00  0.00     0.011 C 
ENDBRANCH  14  19
ENDBRANCH  10  12
ENDBRANCH   4  10
BRANCH   1  25
HETATM   25  N2  UNL     1      31.034  61.087  37.269  1.00  0.00    -0.226 N 
ATOM     26  H2  UNL     1      30.134  61.551  37.151  1.00  0.00     0.177 HD
BRANCH  25  27
HETATM   27  C5  UNL     1      31.205  59.699  36.930  1.00  0.00     0.140 C 
BRANCH  27  28
HETATM   28  C4  UNL     1      29.939  59.041  36.457  1.00  0.00     0.050 C 
BRANCH  28  29
HETATM   29  C3  UNL     1      28.883  59.253  37.507  1.00  0.00     0.273 C 
BRANCH  29  30
HETATM   30  N1  UNL     1      27.553  59.377  36.985  1.00  0.00     0.080 N 
HETATM   31  C1  UNL     1      26.685  58.461  37.681  1.00  0.00     0.309 C 
HETATM   32  C2  UNL     1      27.080  60.738  36.997  1.00  0.00     0.309 C 
ENDBRANCH  29  30
ENDBRANCH  28  29
ENDBRANCH  27  28
ENDBRANCH  25  27
ENDBRANCH   1  25
TORSDOF 8
ENDMDL
MODEL 5
REMARK VINA RESULT: -8.381140150      3.347      5.946
REMARK  8 active torsions:
REMARK  status: ('A' for Active; 'I' for Inactive)
REMARK    1  A    between atoms: N1_2  and  C3_4 
REMARK    2  A    between atoms: C3_4  and  C4_5 
REMARK    3  A    between atoms: C4_5  and  C5_6 
REMARK    4  A    between atoms: C5_6  and  N2_7 
REMARK    5  A    between atoms: N2_7  and  C6_9 
REMARK    6  A    between atoms: C7_12  and  N4_13 
REMARK    7  A    between atoms: N4_13  and  C8_15 
REMARK    8  A    between atoms: C10_17  and  C11_18 
ROOT
HETATM    1  C6  UNL     1      31.100  60.343  37.093  1.00  0.00     0.679 A 
HETATM    2  N3  UNL     1      31.252  60.747  38.381  1.00  0.00    -0.175 N 
ATOM      3  H3  UNL     1      30.641  60.342  39.090  1.00  0.00     0.186 HD
HETATM    4  C7  UNL     1      32.164  61.651  38.770  1.00  0.00     0.141 A 
HETATM    5  C17 UNL     1      32.980  62.185  37.783  1.00  0.00     0.071 A 
HETATM    6 BR1  UNL     1      34.281  63.470  38.319  1.00  0.00    -0.046 Br
HETATM    7  C18 UNL     1      32.855  61.796  36.453  1.00  0.00     0.129 A 
HETATM    8  N7  UNL     1      31.911  60.884  36.168  1.00  0.00    -0.201 N 
ATOM      9  H7  UNL     1      31.803  60.587  35.199  1.00  0.00     0.183 HD
ENDROOT
BRANCH   4  10
HETATM   10  N4  UNL     1      32.340  62.080  40.081  1.00  0.00    -0.326 N 
ATOM     11  H4  UNL     1      32.440  63.090  40.182  1.00  0.00     0.169 HD
BRANCH  10  12
HETATM   12  C8  UNL     1      32.399  61.442  41.165  1.00  0.00     0.123 A 
HETATM   13  C9  UNL     1      32.735  60.102  41.232  1.00  0.00     0.076 A 
HETATM   14  C10 UNL     1      32.710  59.700  42.545  1.00  0.00     0.033 A 
HETATM   15  N5  UNL     1      32.363  60.785  43.256  1.00  0.00    -0.303 N 
HETATM   16  N6  UNL     1      32.177  61.819  42.436  1.00  0.00    -0.285 N 
ATOM     17  H5  UNL     1      32.257  60.813  44.270  1.00  0.00     0.186 HD
ATOM     18  H6  UNL     1      31.908  62.757  42.730  1.00  0.00     0.188 HD
BRANCH  14  19
HETATM   19  C11 UNL     1      32.994  58.362  43.126  1.00  0.00     0.037 C 
HETATM   20  C12 UNL     1      31.720  57.536  43.234  1.00  0.00     0.011 C 
HETATM   21  C13 UNL     1      31.924  56.352  44.135  1.00  0.00     0.001 C 
HETATM   22  C14 UNL     1      33.401  55.969  44.069  1.00  0.00     0.000 C 
HETATM   23  C15 UNL     1      34.266  57.025  44.721  1.00  0.00     0.001 C 
HETATM   24  C16 UNL     1      33.697  58.422  44.457  1.00  0.00     0.011 C 
ENDBRANCH  14  19
ENDBRANCH  10  12
ENDBRANCH   4  10
BRANCH   1  25
HETATM   25  N2  UNL     1      30.201  59.463  36.772  1.00  0.00    -0.226 N 
ATOM     26  H2  UNL     1      30.464  58.559  36.380  1.00  0.00     0.177 HD
BRANCH  25  27
HETATM   27  C5  UNL     1      28.821  59.806  36.988  1.00  0.00     0.140 C 
BRANCH  27  28
HETATM   28  C4  UNL     1      28.320  60.877  36.059  1.00  0.00     0.050 C 
BRANCH  28  29
HETATM   29  C3  UNL     1      27.520  61.859  36.869  1.00  0.00     0.273 C 
BRANCH  29  30
HETATM   30  N1  UNL     1      27.771  63.233  36.543  1.00  0.00     0.080 N 
HETATM   31  C1  UNL     1      27.092  64.076  37.494  1.00  0.00     0.309 C 
HETATM   32  C2  UNL     1      29.177  63.523  36.419  1.00  0.00     0.309 C 
ENDBRANCH  29  30
ENDBRANCH  28  29
ENDBRANCH  27  28
ENDBRANCH  25  27
ENDBRANCH   1  25
TORSDOF 8
ENDMDL
