MODEL 1
REMARK VINA RESULT: -7.668194165      0.000      0.000
REMARK  8 active torsions:
REMARK  status: ('A' for Active; 'I' for Inactive)
REMARK    1  A    between atoms: C2_2  and  O1_4 
REMARK    2  A    between atoms: C2_2  and  C4_6 
REMARK    3  A    between atoms: C4_6  and  C5_7 
REMARK    4  A    between atoms: C7_11  and  N2_12 
REMARK    5  A    between atoms: N2_12  and  C8_14 
REMARK    6  A    between atoms: C8_14  and  C9_15 
REMARK    7  A    between atoms: C9_15  and  N3_16 
REMARK    8  A    between atoms: C15_22  and  C16_23 
ROOT
HETATM    1  C5  UNL     1      38.591  61.883  42.720  1.00  0.00     0.028 A 
HETATM    2  C6  UNL     1      38.787  62.911  41.823  1.00  0.00     0.114 A 
HETATM    3  N1  UNL     1      37.719  63.365  41.157  1.00  0.00    -0.349 N 
ATOM      4  H1  UNL     1      37.835  64.126  40.488  1.00  0.00     0.167 HD
HETATM    5  C7  UNL     1      36.473  62.833  41.352  1.00  0.00     0.130 A 
HETATM    6  C15 UNL     1      36.260  61.812  42.237  1.00  0.00     0.103 A 
HETATM    7  N5  UNL     1      37.364  61.361  42.908  1.00  0.00    -0.353 N 
ATOM      8  H5  UNL     1      37.253  60.601  43.579  1.00  0.00     0.166 HD
ENDROOT
BRANCH   5   9
HETATM    9  N2  UNL     1      35.486  63.312  40.685  1.00  0.00    -0.373 N 
ATOM     10  H2  UNL     1      34.667  63.682  41.168  1.00  0.00     0.161 HD
BRANCH   9  11
HETATM   11  C8  UNL     1      35.546  63.321  39.244  1.00  0.00     0.151 C 
BRANCH  11  12
HETATM   12  C9  UNL     1      34.124  63.435  38.745  1.00  0.00     0.292 C 
BRANCH  12  13
HETATM   13  N3  UNL     1      33.556  62.182  38.350  1.00  0.00     0.090 N 
HETATM   14  C10 UNL     1      32.812  61.534  39.411  1.00  0.00     0.272 C 
HETATM   15  C11 UNL     1      32.774  60.054  39.067  1.00  0.00     0.030 C 
HETATM   16  C12 UNL     1      32.040  59.922  37.761  1.00  0.00     0.003 C 
HETATM   17  C13 UNL     1      32.634  60.774  36.667  1.00  0.00     0.030 C 
HETATM   18  C14 UNL     1      32.817  62.225  37.118  1.00  0.00     0.272 C 
ENDBRANCH  12  13
ENDBRANCH  11  12
ENDBRANCH   9  11
ENDBRANCH   5   9
BRANCH   6  19
HETATM   19  C16 UNL     1      34.965  61.194  42.501  1.00  0.00     0.064 A 
HETATM   20  C17 UNL     1      34.577  59.914  42.381  1.00  0.00     0.052 A 
HETATM   21  C18 UNL     1      33.225  59.756  42.744  1.00  0.00     0.028 A 
HETATM   22 BR1  UNL     1      32.197  58.163  42.755  1.00  0.00    -0.050 Br
HETATM   23  C19 UNL     1      32.825  61.025  43.089  1.00  0.00     0.107 A 
HETATM   24  N4  UNL     1      33.853  61.864  42.943  1.00  0.00    -0.363 N 
ATOM     25  H4  UNL     1      33.817  62.865  43.135  1.00  0.00     0.165 HD
ENDBRANCH   6  19
BRANCH   1  26
HETATM   26  C4  UNL     1      39.652  61.279  43.542  1.00  0.00     0.095 C 
BRANCH  26  27
HETATM   27  C2  UNL     1      39.647  61.579  44.981  1.00  0.00     0.056 C 
HETATM   28  C1  UNL     1      40.465  62.882  45.148  1.00  0.00     0.045 C 
HETATM   29  C3  UNL     1      40.484  60.549  45.746  1.00  0.00     0.045 C 
BRANCH  27  30
HETATM   30  O1  UNL     1      38.440  61.848  45.568  1.00  0.00    -0.390 OA
ATOM     31  H1  UNL     1      38.571  61.661  46.490  1.00  0.00     0.210 HD
ENDBRANCH  27  30
ENDBRANCH  26  27
ENDBRANCH   1  26
TORSDOF 8
ENDMDL
MODEL 2
REMARK VINA RESULT: -7.658530615      3.918      7.709
REMARK  8 active torsions:
REMARK  status: ('A' for Active; 'I' for Inactive)
REMARK    1  A    between atoms: C2_2  and  O1_4 
REMARK    2  A    between atoms: C2_2  and  C4_6 
REMARK    3  A    between atoms: C4_6  and  C5_7 
REMARK    4  A    between atoms: C7_11  and  N2_12 
REMARK    5  A    between atoms: N2_12  and  C8_14 
REMARK    6  A    between atoms: C8_14  and  C9_15 
REMARK    7  A    between atoms: C9_15  and  N3_16 
REMARK    8  A    between atoms: C15_22  and  C16_23 
ROOT
HETATM    1  C5  UNL     1      32.460  60.302  38.279  1.00  0.00     0.028 A 
HETATM    2  C6  UNL     1      31.542  60.006  39.264  1.00  0.00     0.114 A 
HETATM    3  N1  UNL     1      31.760  60.507  40.485  1.00  0.00    -0.349 N 
ATOM      4  H1  UNL     1      31.096  60.304  41.232  1.00  0.00     0.167 HD
HETATM    5  C7  UNL     1      32.852  61.286  40.756  1.00  0.00     0.130 A 
HETATM    6  C15 UNL     1      33.773  61.589  39.792  1.00  0.00     0.103 A 
HETATM    7  N5  UNL     1      33.534  61.069  38.550  1.00  0.00    -0.353 N 
ATOM      8  H5  UNL     1      34.194  61.269  37.799  1.00  0.00     0.166 HD
ENDROOT
BRANCH   5   9
HETATM    9  N2  UNL     1      33.005  61.740  41.947  1.00  0.00    -0.373 N 
ATOM     10  H2  UNL     1      33.336  62.694  42.098  1.00  0.00     0.161 HD
BRANCH   9  11
HETATM   11  C8  UNL     1      32.707  60.888  43.071  1.00  0.00     0.151 C 
BRANCH  11  12
HETATM   12  C9  UNL     1      33.840  59.894  43.182  1.00  0.00     0.292 C 
BRANCH  12  13
HETATM   13  N3  UNL     1      33.452  58.652  43.778  1.00  0.00     0.090 N 
HETATM   14  C10 UNL     1      32.676  57.811  42.890  1.00  0.00     0.272 C 
HETATM   15  C11 UNL     1      31.884  56.865  43.778  1.00  0.00     0.030 C 
HETATM   16  C12 UNL     1      32.881  56.034  44.538  1.00  0.00     0.003 C 
HETATM   17  C13 UNL     1      33.879  56.871  45.299  1.00  0.00     0.030 C 
HETATM   18  C14 UNL     1      34.527  57.930  44.404  1.00  0.00     0.272 C 
ENDBRANCH  12  13
ENDBRANCH  11  12
ENDBRANCH   9  11
ENDBRANCH   5   9
BRANCH   6  19
HETATM   19  C16 UNL     1      34.959  62.413  40.002  1.00  0.00     0.064 A 
HETATM   20  C17 UNL     1      36.108  62.128  40.635  1.00  0.00     0.052 A 
HETATM   21  C18 UNL     1      36.993  63.224  40.602  1.00  0.00     0.028 A 
HETATM   22 BR1  UNL     1      38.735  63.341  41.342  1.00  0.00    -0.050 Br
HETATM   23  C19 UNL     1      36.301  64.187  39.907  1.00  0.00     0.107 A 
HETATM   24  N4  UNL     1      35.107  63.702  39.559  1.00  0.00    -0.363 N 
ATOM     25  H4  UNL     1      34.401  64.220  39.034  1.00  0.00     0.165 HD
ENDBRANCH   6  19
BRANCH   1  26
HETATM   26  C4  UNL     1      32.364  59.844  36.882  1.00  0.00     0.095 C 
BRANCH  26  27
HETATM   27  C2  UNL     1      32.107  60.862  35.853  1.00  0.00     0.056 C 
HETATM   28  C1  UNL     1      31.000  60.277  34.943  1.00  0.00     0.045 C 
HETATM   29  C3  UNL     1      33.304  60.979  34.905  1.00  0.00     0.045 C 
BRANCH  27  30
HETATM   30  O1  UNL     1      31.615  62.071  36.266  1.00  0.00    -0.390 OA
ATOM     31  H1  UNL     1      31.265  61.906  37.134  1.00  0.00     0.210 HD
ENDBRANCH  27  30
ENDBRANCH  26  27
ENDBRANCH   1  26
TORSDOF 8
ENDMDL
MODEL 3
REMARK VINA RESULT: -7.527760206      3.813      7.691
REMARK  8 active torsions:
REMARK  status: ('A' for Active; 'I' for Inactive)
REMARK    1  A    between atoms: C2_2  and  O1_4 
REMARK    2  A    between atoms: C2_2  and  C4_6 
REMARK    3  A    between atoms: C4_6  and  C5_7 
REMARK    4  A    between atoms: C7_11  and  N2_12 
REMARK    5  A    between atoms: N2_12  and  C8_14 
REMARK    6  A    between atoms: C8_14  and  C9_15 
REMARK    7  A    between atoms: C9_15  and  N3_16 
REMARK    8  A    between atoms: C15_22  and  C16_23 
ROOT
HETATM    1  C5  UNL     1      32.404  60.318  38.326  1.00  0.00     0.028 A 
HETATM    2  C6  UNL     1      31.456  60.050  39.289  1.00  0.00     0.114 A 
HETATM    3  N1  UNL     1      31.680  60.511  40.525  1.00  0.00    -0.349 N 
ATOM      4  H1  UNL     1      30.994  60.326  41.257  1.00  0.00     0.167 HD
HETATM    5  C7  UNL     1      32.807  61.223  40.831  1.00  0.00     0.130 A 
HETATM    6  C15 UNL     1      33.759  61.498  39.888  1.00  0.00     0.103 A 
HETATM    7  N5  UNL     1      33.512  61.020  38.631  1.00  0.00    -0.353 N 
ATOM      8  H5  UNL     1      34.195  61.201  37.895  1.00  0.00     0.166 HD
ENDROOT
BRANCH   5   9
HETATM    9  N2  UNL     1      32.966  61.641  42.035  1.00  0.00    -0.373 N 
ATOM     10  H2  UNL     1      33.212  62.615  42.215  1.00  0.00     0.161 HD
BRANCH   9  11
HETATM   11  C8  UNL     1      32.792  60.719  43.130  1.00  0.00     0.151 C 
BRANCH  11  12
HETATM   12  C9  UNL     1      34.008  59.822  43.146  1.00  0.00     0.292 C 
BRANCH  12  13
HETATM   13  N3  UNL     1      33.749  58.521  43.685  1.00  0.00     0.090 N 
HETATM   14  C10 UNL     1      34.371  58.306  44.976  1.00  0.00     0.272 C 
HETATM   15  C11 UNL     1      34.504  56.800  45.142  1.00  0.00     0.030 C 
HETATM   16  C12 UNL     1      33.112  56.230  45.133  1.00  0.00     0.003 C 
HETATM   17  C13 UNL     1      32.325  56.628  43.910  1.00  0.00     0.030 C 
HETATM   18  C14 UNL     1      32.363  58.141  43.681  1.00  0.00     0.272 C 
ENDBRANCH  12  13
ENDBRANCH  11  12
ENDBRANCH   9  11
ENDBRANCH   5   9
BRANCH   6  19
HETATM   19  C16 UNL     1      34.984  62.251  40.136  1.00  0.00     0.064 A 
HETATM   20  C17 UNL     1      36.116  61.882  40.754  1.00  0.00     0.052 A 
HETATM   21  C18 UNL     1      37.054  62.933  40.771  1.00  0.00     0.028 A 
HETATM   22 BR1  UNL     1      38.798  62.930  41.515  1.00  0.00    -0.050 Br
HETATM   23  C19 UNL     1      36.411  63.960  40.123  1.00  0.00     0.107 A 
HETATM   24  N4  UNL     1      35.196  63.551  39.752  1.00  0.00    -0.363 N 
ATOM     25  H4  UNL     1      34.517  64.127  39.253  1.00  0.00     0.165 HD
ENDBRANCH   6  19
BRANCH   1  26
HETATM   26  C4  UNL     1      32.306  59.899  36.918  1.00  0.00     0.095 C 
BRANCH  26  27
HETATM   27  C2  UNL     1      32.102  60.950  35.910  1.00  0.00     0.056 C 
HETATM   28  C1  UNL     1      30.899  60.490  35.052  1.00  0.00     0.045 C 
HETATM   29  C3  UNL     1      33.257  60.959  34.905  1.00  0.00     0.045 C 
BRANCH  27  30
HETATM   30  O1  UNL     1      31.755  62.197  36.358  1.00  0.00    -0.390 OA
ATOM     31  H1  UNL     1      32.089  62.793  35.697  1.00  0.00     0.210 HD
ENDBRANCH  27  30
ENDBRANCH  26  27
ENDBRANCH   1  26
TORSDOF 8
ENDMDL
MODEL 4
REMARK VINA RESULT: -7.522353389      3.089      7.252
REMARK  8 active torsions:
REMARK  status: ('A' for Active; 'I' for Inactive)
REMARK    1  A    between atoms: C2_2  and  O1_4 
REMARK    2  A    between atoms: C2_2  and  C4_6 
REMARK    3  A    between atoms: C4_6  and  C5_7 
REMARK    4  A    between atoms: C7_11  and  N2_12 
REMARK    5  A    between atoms: N2_12  and  C8_14 
REMARK    6  A    between atoms: C8_14  and  C9_15 
REMARK    7  A    between atoms: C9_15  and  N3_16 
REMARK    8  A    between atoms: C15_22  and  C16_23 
ROOT
HETATM    1  C5  UNL     1      32.181  60.695  38.524  1.00  0.00     0.028 A 
HETATM    2  C6  UNL     1      32.653  61.964  38.780  1.00  0.00     0.114 A 
HETATM    3  N1  UNL     1      32.983  62.260  40.042  1.00  0.00    -0.349 N 
ATOM      4  H1  UNL     1      33.336  63.193  40.259  1.00  0.00     0.167 HD
HETATM    5  C7  UNL     1      32.859  61.343  41.050  1.00  0.00     0.130 A 
HETATM    6  C15 UNL     1      32.391  60.080  40.815  1.00  0.00     0.103 A 
HETATM    7  N5  UNL     1      32.059  59.795  39.519  1.00  0.00    -0.353 N 
ATOM      8  H5  UNL     1      31.706  58.864  39.297  1.00  0.00     0.166 HD
ENDROOT
BRANCH   5   9
HETATM    9  N2  UNL     1      33.193  61.686  42.242  1.00  0.00    -0.373 N 
ATOM     10  H2  UNL     1      32.496  62.063  42.885  1.00  0.00     0.161 HD
BRANCH   9  11
HETATM   11  C8  UNL     1      34.564  61.534  42.661  1.00  0.00     0.151 C 
BRANCH  11  12
HETATM   12  C9  UNL     1      35.402  61.463  41.405  1.00  0.00     0.292 C 
BRANCH  12  13
HETATM   13  N3  UNL     1      36.402  62.485  41.329  1.00  0.00     0.090 N 
HETATM   14  C10 UNL     1      37.711  62.033  41.756  1.00  0.00     0.272 C 
HETATM   15  C11 UNL     1      38.483  63.279  42.163  1.00  0.00     0.030 C 
HETATM   16  C12 UNL     1      38.606  64.142  40.937  1.00  0.00     0.003 C 
HETATM   17  C13 UNL     1      37.272  64.447  40.301  1.00  0.00     0.030 C 
HETATM   18  C14 UNL     1      36.453  63.176  40.069  1.00  0.00     0.272 C 
ENDBRANCH  12  13
ENDBRANCH  11  12
ENDBRANCH   9  11
ENDBRANCH   5   9
BRANCH   6  19
HETATM   19  C16 UNL     1      32.231  59.048  41.834  1.00  0.00     0.064 A 
HETATM   20  C17 UNL     1      33.144  58.242  42.400  1.00  0.00     0.052 A 
HETATM   21  C18 UNL     1      32.550  57.385  43.347  1.00  0.00     0.028 A 
HETATM   22 BR1  UNL     1      33.392  56.067  44.419  1.00  0.00    -0.050 Br
HETATM   23  C19 UNL     1      31.219  57.727  43.314  1.00  0.00     0.107 A 
HETATM   24  N4  UNL     1      31.041  58.705  42.423  1.00  0.00    -0.363 N 
ATOM     25  H4  UNL     1      30.142  59.137  42.209  1.00  0.00     0.165 HD
ENDBRANCH   6  19
BRANCH   1  26
HETATM   26  C4  UNL     1      31.789  60.201  37.194  1.00  0.00     0.095 C 
BRANCH  26  27
HETATM   27  C2  UNL     1      30.357  60.215  36.861  1.00  0.00     0.056 C 
HETATM   28  C1  UNL     1      30.137  59.041  35.878  1.00  0.00     0.045 C 
HETATM   29  C3  UNL     1      30.016  61.443  36.011  1.00  0.00     0.045 C 
BRANCH  27  30
HETATM   30  O1  UNL     1      29.468  59.989  37.878  1.00  0.00    -0.390 OA
ATOM     31  H1  UNL     1      29.001  60.810  37.978  1.00  0.00     0.210 HD
ENDBRANCH  27  30
ENDBRANCH  26  27
ENDBRANCH   1  26
TORSDOF 8
ENDMDL
MODEL 5
REMARK VINA RESULT: -7.507277006      3.354      4.919
REMARK  8 active torsions:
REMARK  status: ('A' for Active; 'I' for Inactive)
REMARK    1  A    between atoms: C2_2  and  O1_4 
REMARK    2  A    between atoms: C2_2  and  C4_6 
REMARK    3  A    between atoms: C4_6  and  C5_7 
REMARK    4  A    between atoms: C7_11  and  N2_12 
REMARK    5  A    between atoms: N2_12  and  C8_14 
REMARK    6  A    between atoms: C8_14  and  C9_15 
REMARK    7  A    between atoms: C9_15  and  N3_16 
REMARK    8  A    between atoms: C15_22  and  C16_23 
ROOT
HETATM    1  C5  UNL     1      39.088  58.365  46.647  1.00  0.00     0.028 A 
HETATM    2  C6  UNL     1      39.535  59.572  46.154  1.00  0.00     0.114 A 
HETATM    3  N1  UNL     1      38.650  60.348  45.518  1.00  0.00    -0.349 N 
ATOM      4  H1  UNL     1      38.955  61.247  45.143  1.00  0.00     0.167 HD
HETATM    5  C7  UNL     1      37.346  59.966  45.358  1.00  0.00     0.130 A 
HETATM    6  C15 UNL     1      36.884  58.772  45.840  1.00  0.00     0.103 A 
HETATM    7  N5  UNL     1      37.803  57.992  46.488  1.00  0.00    -0.353 N 
ATOM      8  H5  UNL     1      37.504  57.093  46.865  1.00  0.00     0.166 HD
ENDROOT
BRANCH   5   9
HETATM    9  N2  UNL     1      36.542  60.755  44.740  1.00  0.00    -0.373 N 
ATOM     10  H2  UNL     1      35.652  61.019  45.163  1.00  0.00     0.161 HD
BRANCH   9  11
HETATM   11  C8  UNL     1      36.912  61.263  43.442  1.00  0.00     0.151 C 
BRANCH  11  12
HETATM   12  C9  UNL     1      35.642  61.753  42.785  1.00  0.00     0.292 C 
BRANCH  12  13
HETATM   13  N3  UNL     1      34.659  60.727  42.608  1.00  0.00     0.090 N 
HETATM   14  C10 UNL     1      33.300  61.213  42.732  1.00  0.00     0.272 C 
HETATM   15  C11 UNL     1      32.445  60.008  43.091  1.00  0.00     0.030 C 
HETATM   16  C12 UNL     1      32.547  59.037  41.947  1.00  0.00     0.003 C 
HETATM   17  C13 UNL     1      33.974  58.678  41.610  1.00  0.00     0.030 C 
HETATM   18  C14 UNL     1      34.842  59.925  41.429  1.00  0.00     0.272 C 
ENDBRANCH  12  13
ENDBRANCH  11  12
ENDBRANCH   9  11
ENDBRANCH   5   9
BRANCH   6  19
HETATM   19  C16 UNL     1      35.511  58.296  45.712  1.00  0.00     0.064 A 
HETATM   20  C17 UNL     1      35.002  57.322  44.940  1.00  0.00     0.052 A 
HETATM   21  C18 UNL     1      33.612  57.195  45.131  1.00  0.00     0.028 A 
HETATM   22 BR1  UNL     1      32.424  55.979  44.292  1.00  0.00    -0.050 Br
HETATM   23  C19 UNL     1      33.318  58.157  46.068  1.00  0.00     0.107 A 
HETATM   24  N4  UNL     1      34.439  58.799  46.403  1.00  0.00    -0.363 N 
ATOM     25  H4  UNL     1      34.491  59.560  47.081  1.00  0.00     0.165 HD
ENDBRANCH   6  19
BRANCH   1  26
HETATM   26  C4  UNL     1      39.924  57.402  47.383  1.00  0.00     0.095 C 
BRANCH  26  27
HETATM   27  C2  UNL     1      39.595  57.159  48.795  1.00  0.00     0.056 C 
HETATM   28  C1  UNL     1      40.948  56.949  49.517  1.00  0.00     0.045 C 
HETATM   29  C3  UNL     1      38.904  55.802  48.958  1.00  0.00     0.045 C 
BRANCH  27  30
HETATM   30  O1  UNL     1      38.985  58.172  49.486  1.00  0.00    -0.390 OA
ATOM     31  H1  UNL     1      39.314  58.970  49.088  1.00  0.00     0.210 HD
ENDBRANCH  27  30
ENDBRANCH  26  27
ENDBRANCH   1  26
TORSDOF 8
ENDMDL
