MODEL 1
REMARK VINA RESULT: -5.211485804      0.000      0.000
REMARK  6 active torsions:
REMARK  status: ('A' for Active; 'I' for Inactive)
REMARK    1  A    between atoms: N1_2  and  C2_5 
REMARK    2  A    between atoms: C2_5  and  C3_6 
REMARK    3  A    between atoms: C3_6  and  N2_7 
REMARK    4  A    between atoms: C4_9  and  C5_10 
REMARK    5  A    between atoms: C6_15  and  N5_16 
REMARK    6  A    between atoms: N6_19  and  N7_20 
ROOT
HETATM    1  C5  UNL     1      47.229  16.977 -14.476  1.00  0.00     0.174 A 
HETATM    2  N3  UNL     1      46.541  16.027 -15.158  1.00  0.00    -0.268 N 
ATOM      3  H3  UNL     1      46.247  15.126 -14.781  1.00  0.00     0.189 HD
HETATM    4  N4  UNL     1      46.312  16.453 -16.386  1.00  0.00    -0.129 N 
ATOM      5  H4  UNL     1      45.814  15.930 -17.106  1.00  0.00     0.205 HD
HETATM    6  C6  UNL     1      46.836  17.679 -16.547  1.00  0.00     0.713 A 
HETATM    7  N6  UNL     1      47.395  17.988 -15.363  1.00  0.00    -0.073 N 
ENDROOT
BRANCH   1   8
HETATM    8  C4  UNL     1      47.692  16.933 -13.093  1.00  0.00     0.136 C 
HETATM    9  N2  UNL     1      47.628  15.799 -12.483  1.00  0.00    -0.394 N 
ATOM     10  H2  UNL     1      47.265  14.976 -12.964  1.00  0.00     0.159 HD
BRANCH   9  11
HETATM   11  C3  UNL     1      48.070  15.707 -11.130  1.00  0.00     0.146 C 
BRANCH  11  12
HETATM   12  C2  UNL     1      46.890  15.391 -10.245  1.00  0.00     0.251 C 
BRANCH  12  13
HETATM   13  N1  UNL     1      46.457  14.014 -10.396  1.00  0.00    -0.077 N 
HETATM   14  C1  UNL     1      46.842  13.313  -9.190  1.00  0.00     0.267 C 
ATOM     15  H12 UNL     1      46.811  13.574 -11.246  1.00  0.00     0.276 HD
ATOM     16  H11 UNL     1      45.463  13.928 -10.610  1.00  0.00     0.276 HD
ENDBRANCH  12  13
ENDBRANCH  11  12
ENDBRANCH   9  11
ENDBRANCH   1   8
BRANCH   7  17
HETATM   17  N7  UNL     1      48.066  19.171 -15.043  1.00  0.00    -0.322 N 
ATOM     18  H72 UNL     1      47.698  19.950 -14.498  1.00  0.00     0.178 HD
ATOM     19  H71 UNL     1      49.022  19.360 -15.343  1.00  0.00     0.178 HD
ENDBRANCH   7  17
BRANCH   6  20
HETATM   20  N5  UNL     1      46.797  18.403 -17.631  1.00  0.00    -0.232 N 
ATOM     21  H52 UNL     1      47.457  18.406 -18.410  1.00  0.00     0.174 HD
ATOM     22  H51 UNL     1      46.087  19.093 -17.874  1.00  0.00     0.174 HD
ENDBRANCH   6  20
TORSDOF 6
ENDMDL
MODEL 2
REMARK VINA RESULT: -5.190012809      1.051      1.804
REMARK  6 active torsions:
REMARK  status: ('A' for Active; 'I' for Inactive)
REMARK    1  A    between atoms: N1_2  and  C2_5 
REMARK    2  A    between atoms: C2_5  and  C3_6 
REMARK    3  A    between atoms: C3_6  and  N2_7 
REMARK    4  A    between atoms: C4_9  and  C5_10 
REMARK    5  A    between atoms: C6_15  and  N5_16 
REMARK    6  A    between atoms: N6_19  and  N7_20 
ROOT
HETATM    1  C5  UNL     1      47.739  17.603 -14.852  1.00  0.00     0.174 A 
HETATM    2  N3  UNL     1      48.670  18.293 -15.558  1.00  0.00    -0.268 N 
ATOM      3  H3  UNL     1      49.370  18.919 -15.158  1.00  0.00     0.189 HD
HETATM    4  N4  UNL     1      48.527  18.027 -16.843  1.00  0.00    -0.129 N 
ATOM      5  H4  UNL     1      49.101  18.418 -17.591  1.00  0.00     0.205 HD
HETATM    6  C6  UNL     1      47.512  17.166 -17.019  1.00  0.00     0.713 A 
HETATM    7  N6  UNL     1      47.039  16.913 -15.785  1.00  0.00    -0.073 N 
ENDROOT
BRANCH   1   8
HETATM    8  C4  UNL     1      47.530  17.594 -13.408  1.00  0.00     0.136 C 
HETATM    9  N2  UNL     1      47.809  16.506 -12.776  1.00  0.00    -0.394 N 
ATOM     10  H2  UNL     1      48.161  15.693 -13.282  1.00  0.00     0.159 HD
BRANCH   9  11
HETATM   11  C3  UNL     1      47.620  16.450 -11.363  1.00  0.00     0.146 C 
BRANCH  11  12
HETATM   12  C2  UNL     1      48.018  15.083 -10.865  1.00  0.00     0.251 C 
BRANCH  12  13
HETATM   13  N1  UNL     1      46.870  14.203 -10.737  1.00  0.00    -0.077 N 
HETATM   14  C1  UNL     1      46.991  13.532  -9.459  1.00  0.00     0.267 C 
ATOM     15  H12 UNL     1      46.771  13.557 -11.520  1.00  0.00     0.276 HD
ATOM     16  H11 UNL     1      45.980  14.687 -10.852  1.00  0.00     0.276 HD
ENDBRANCH  12  13
ENDBRANCH  11  12
ENDBRANCH   9  11
ENDBRANCH   1   8
BRANCH   7  17
HETATM   17  N7  UNL     1      45.975  16.069 -15.459  1.00  0.00    -0.322 N 
ATOM     18  H72 UNL     1      45.080  16.002 -15.945  1.00  0.00     0.178 HD
ATOM     19  H71 UNL     1      46.007  15.422 -14.672  1.00  0.00     0.178 HD
ENDBRANCH   7  17
BRANCH   6  20
HETATM   20  N5  UNL     1      47.091  16.685 -18.156  1.00  0.00    -0.232 N 
ATOM     21  H52 UNL     1      47.075  17.146 -19.066  1.00  0.00     0.174 HD
ATOM     22  H51 UNL     1      46.704  15.755 -18.315  1.00  0.00     0.174 HD
ENDBRANCH   6  20
TORSDOF 6
ENDMDL
MODEL 3
REMARK VINA RESULT: -5.183581495      1.186      2.103
REMARK  6 active torsions:
REMARK  status: ('A' for Active; 'I' for Inactive)
REMARK    1  A    between atoms: N1_2  and  C2_5 
REMARK    2  A    between atoms: C2_5  and  C3_6 
REMARK    3  A    between atoms: C3_6  and  N2_7 
REMARK    4  A    between atoms: C4_9  and  C5_10 
REMARK    5  A    between atoms: C6_15  and  N5_16 
REMARK    6  A    between atoms: N6_19  and  N7_20 
ROOT
HETATM    1  C5  UNL     1      47.382  16.452 -13.532  1.00  0.00     0.174 A 
HETATM    2  N3  UNL     1      47.903  17.680 -13.782  1.00  0.00    -0.268 N 
ATOM      3  H3  UNL     1      48.405  18.256 -13.107  1.00  0.00     0.189 HD
HETATM    4  N4  UNL     1      47.656  18.010 -15.036  1.00  0.00    -0.129 N 
ATOM      5  H4  UNL     1      47.940  18.884 -15.479  1.00  0.00     0.205 HD
HETATM    6  C6  UNL     1      46.975  17.023 -15.641  1.00  0.00     0.713 A 
HETATM    7  N6  UNL     1      46.815  16.072 -14.704  1.00  0.00    -0.073 N 
ENDROOT
BRANCH   1   8
HETATM    8  C4  UNL     1      47.418  15.697 -12.285  1.00  0.00     0.136 C 
HETATM    9  N2  UNL     1      47.259  16.357 -11.189  1.00  0.00    -0.394 N 
ATOM     10  H2  UNL     1      47.116  17.367 -11.212  1.00  0.00     0.159 HD
BRANCH   9  11
HETATM   11  C3  UNL     1      47.286  15.661  -9.943  1.00  0.00     0.146 C 
BRANCH  11  12
HETATM   12  C2  UNL     1      47.280  14.175 -10.208  1.00  0.00     0.251 C 
BRANCH  12  13
HETATM   13  N1  UNL     1      46.172  13.515  -9.541  1.00  0.00    -0.077 N 
HETATM   14  C1  UNL     1      45.256  14.551  -9.112  1.00  0.00     0.267 C 
ATOM     15  H12 UNL     1      46.469  12.903  -8.781  1.00  0.00     0.276 HD
ATOM     16  H11 UNL     1      45.727  12.801 -10.117  1.00  0.00     0.276 HD
ENDBRANCH  12  13
ENDBRANCH  11  12
ENDBRANCH   9  11
ENDBRANCH   1   8
BRANCH   7  17
HETATM   17  N7  UNL     1      46.162  14.848 -14.864  1.00  0.00    -0.322 N 
ATOM     18  H72 UNL     1      45.580  14.374 -14.173  1.00  0.00     0.178 HD
ATOM     19  H71 UNL     1      46.218  14.302 -15.724  1.00  0.00     0.178 HD
ENDBRANCH   7  17
BRANCH   6  20
HETATM   20  N5  UNL     1      46.566  17.009 -16.880  1.00  0.00    -0.232 N 
ATOM     21  H52 UNL     1      45.606  16.987 -17.225  1.00  0.00     0.174 HD
ATOM     22  H51 UNL     1      47.155  17.018 -17.712  1.00  0.00     0.174 HD
ENDBRANCH   6  20
TORSDOF 6
ENDMDL
MODEL 4
REMARK VINA RESULT: -5.022188095      1.474      6.002
REMARK  6 active torsions:
REMARK  status: ('A' for Active; 'I' for Inactive)
REMARK    1  A    between atoms: N1_2  and  C2_5 
REMARK    2  A    between atoms: C2_5  and  C3_6 
REMARK    3  A    between atoms: C3_6  and  N2_7 
REMARK    4  A    between atoms: C4_9  and  C5_10 
REMARK    5  A    between atoms: C6_15  and  N5_16 
REMARK    6  A    between atoms: N6_19  and  N7_20 
ROOT
HETATM    1  C5  UNL     1      47.306  16.004 -12.609  1.00  0.00     0.174 A 
HETATM    2  N3  UNL     1      47.615  16.703 -11.488  1.00  0.00    -0.268 N 
ATOM      3  H3  UNL     1      47.869  17.691 -11.459  1.00  0.00     0.189 HD
HETATM    4  N4  UNL     1      47.534  15.903 -10.441  1.00  0.00    -0.129 N 
ATOM      5  H4  UNL     1      47.718  16.179  -9.476  1.00  0.00     0.205 HD
HETATM    6  C6  UNL     1      47.175  14.671 -10.836  1.00  0.00     0.713 A 
HETATM    7  N6  UNL     1      47.038  14.750 -12.172  1.00  0.00    -0.073 N 
ENDROOT
BRANCH   1   8
HETATM    8  C4  UNL     1      47.267  16.485 -13.986  1.00  0.00     0.136 C 
HETATM    9  N2  UNL     1      47.946  17.546 -14.262  1.00  0.00    -0.394 N 
ATOM     10  H2  UNL     1      48.482  18.017 -13.534  1.00  0.00     0.159 HD
BRANCH   9  11
HETATM   11  C3  UNL     1      47.939  18.053 -15.596  1.00  0.00     0.146 C 
BRANCH  11  12
HETATM   12  C2  UNL     1      46.860  17.352 -16.385  1.00  0.00     0.251 C 
BRANCH  12  13
HETATM   13  N1  UNL     1      47.372  16.809 -17.630  1.00  0.00    -0.077 N 
HETATM   14  C1  UNL     1      48.571  17.551 -17.955  1.00  0.00     0.267 C 
ATOM     15  H12 UNL     1      46.683  16.812 -18.382  1.00  0.00     0.276 HD
ATOM     16  H11 UNL     1      47.523  15.801 -17.595  1.00  0.00     0.276 HD
ENDBRANCH  12  13
ENDBRANCH  11  12
ENDBRANCH   9  11
ENDBRANCH   1   8
BRANCH   7  17
HETATM   17  N7  UNL     1      46.673  13.712 -13.033  1.00  0.00    -0.322 N 
ATOM     18  H72 UNL     1      47.175  13.411 -13.869  1.00  0.00     0.178 HD
ATOM     19  H71 UNL     1      45.837  13.146 -12.890  1.00  0.00     0.178 HD
ENDBRANCH   7  17
BRANCH   6  20
HETATM   20  N5  UNL     1      46.999  13.631 -10.069  1.00  0.00    -0.232 N 
ATOM     21  H52 UNL     1      47.316  12.674 -10.225  1.00  0.00     0.174 HD
ATOM     22  H51 UNL     1      46.507  13.613  -9.176  1.00  0.00     0.174 HD
ENDBRANCH   6  20
TORSDOF 6
ENDMDL
MODEL 5
REMARK VINA RESULT: -4.738963191      1.926      5.965
REMARK  6 active torsions:
REMARK  status: ('A' for Active; 'I' for Inactive)
REMARK    1  A    between atoms: N1_2  and  C2_5 
REMARK    2  A    between atoms: C2_5  and  C3_6 
REMARK    3  A    between atoms: C3_6  and  N2_7 
REMARK    4  A    between atoms: C4_9  and  C5_10 
REMARK    5  A    between atoms: C6_15  and  N5_16 
REMARK    6  A    between atoms: N6_19  and  N7_20 
ROOT
HETATM    1  C5  UNL     1      46.865  15.801 -14.302  1.00  0.00     0.174 A 
HETATM    2  N3  UNL     1      46.426  14.546 -14.568  1.00  0.00    -0.268 N 
ATOM      3  H3  UNL     1      46.122  14.208 -15.482  1.00  0.00     0.189 HD
HETATM    4  N4  UNL     1      46.454  13.830 -13.459  1.00  0.00    -0.129 N 
ATOM      5  H4  UNL     1      46.173  12.852 -13.385  1.00  0.00     0.205 HD
HETATM    6  C6  UNL     1      46.907  14.582 -12.444  1.00  0.00     0.713 A 
HETATM    7  N6  UNL     1      47.156  15.791 -12.978  1.00  0.00    -0.073 N 
ENDROOT
BRANCH   1   8
HETATM    8  C4  UNL     1      47.001  16.922 -15.225  1.00  0.00     0.136 C 
HETATM    9  N2  UNL     1      46.531  16.767 -16.416  1.00  0.00    -0.394 N 
ATOM     10  H2  UNL     1      46.087  15.889 -16.684  1.00  0.00     0.159 HD
BRANCH   9  11
HETATM   11  C3  UNL     1      46.641  17.836 -17.355  1.00  0.00     0.146 C 
BRANCH  11  12
HETATM   12  C2  UNL     1      46.971  17.269 -18.714  1.00  0.00     0.251 C 
BRANCH  12  13
HETATM   13  N1  UNL     1      48.115  16.377 -18.661  1.00  0.00    -0.077 N 
HETATM   14  C1  UNL     1      49.297  17.191 -18.850  1.00  0.00     0.267 C 
ATOM     15  H12 UNL     1      48.051  15.604 -19.322  1.00  0.00     0.276 HD
ATOM     16  H11 UNL     1      48.147  15.817 -17.808  1.00  0.00     0.276 HD
ENDBRANCH  12  13
ENDBRANCH  11  12
ENDBRANCH   9  11
ENDBRANCH   1   8
BRANCH   7  17
HETATM   17  N7  UNL     1      47.646  16.913 -12.304  1.00  0.00    -0.322 N 
ATOM     18  H72 UNL     1      47.241  17.850 -12.309  1.00  0.00     0.178 HD
ATOM     19  H71 UNL     1      48.487  16.886 -11.728  1.00  0.00     0.178 HD
ENDBRANCH   7  17
BRANCH   6  20
HETATM   20  N5  UNL     1      47.066  14.201 -11.206  1.00  0.00    -0.232 N 
ATOM     21  H52 UNL     1      46.815  13.305 -10.787  1.00  0.00     0.174 HD
ATOM     22  H51 UNL     1      47.474  14.751 -10.451  1.00  0.00     0.174 HD
ENDBRANCH   6  20
TORSDOF 6
ENDMDL
