MODEL 1
REMARK VINA RESULT: -5.353027222      0.000      0.000
REMARK  4 active torsions:
REMARK  status: ('A' for Active; 'I' for Inactive)
REMARK    1  A    between atoms: N5_15  and  C6_16 
REMARK    2  A    between atoms: C6_16  and  C7_17 
REMARK    3  A    between atoms: C7_17  and  N6_18 
REMARK    4  A    between atoms: N6_18  and  N7_19 
ROOT
HETATM    1  N1  UNL     1      46.832  16.966 -15.543  1.00  0.00    -0.383 N 
ATOM      2  H11 UNL     1      47.117  17.933 -15.388  1.00  0.00     0.157 HD
ATOM      3  H12 UNL     1      46.548  16.725 -16.493  1.00  0.00     0.157 HD
HETATM    4  C1  UNL     1      46.823  16.076 -14.603  1.00  0.00     0.131 A 
HETATM    5  N2  UNL     1      46.449  14.801 -14.807  1.00  0.00    -0.337 N 
ATOM      6  H2  UNL     1      46.162  14.537 -15.749  1.00  0.00     0.168 HD
HETATM    7  C2  UNL     1      46.425  13.848 -13.859  1.00  0.00     0.183 A 
HETATM    8  N3  UNL     1      46.803  14.185 -12.613  1.00  0.00    -0.336 N 
ATOM      9  H3  UNL     1      46.794  13.480 -11.876  1.00  0.00     0.168 HD
HETATM   10  C3  UNL     1      47.192  15.438 -12.326  1.00  0.00     0.140 A 
HETATM   11  C4  UNL     1      47.208  16.402 -13.317  1.00  0.00     0.122 A 
HETATM   12  N4  UNL     1      47.633  17.515 -12.721  1.00  0.00    -0.346 N 
ATOM     13  H4  UNL     1      47.758  18.418 -13.178  1.00  0.00     0.167 HD
HETATM   14  C5  UNL     1      47.869  17.265 -11.431  1.00  0.00     0.185 A 
HETATM   15  N5  UNL     1      47.607  15.983 -11.146  1.00  0.00    -0.326 N 
ENDROOT
BRANCH  15  16
HETATM   16  C6  UNL     1      47.731  15.309  -9.875  1.00  0.00     0.149 C 
BRANCH  16  17
HETATM   17  C7  UNL     1      46.406  15.192  -9.164  1.00  0.00     0.154 C 
BRANCH  17  18
HETATM   18  N6  UNL     1      45.988  13.787  -9.298  1.00  0.00    -0.147 NA
BRANCH  18  19
HETATM   19  N7  UNL     1      47.030  12.941  -8.866  1.00  0.00    -0.348 N 
ATOM     20  H72 UNL     1      47.814  12.649  -9.449  1.00  0.00     0.172 HD
ATOM     21  H71 UNL     1      46.874  12.677  -7.893  1.00  0.00     0.172 HD
ENDBRANCH  18  19
ENDBRANCH  17  18
ENDBRANCH  16  17
ENDBRANCH  15  16
TORSDOF 4
ENDMDL
MODEL 2
REMARK VINA RESULT: -5.221506350      2.052      3.663
REMARK  4 active torsions:
REMARK  status: ('A' for Active; 'I' for Inactive)
REMARK    1  A    between atoms: N5_15  and  C6_16 
REMARK    2  A    between atoms: C6_16  and  C7_17 
REMARK    3  A    between atoms: C7_17  and  N6_18 
REMARK    4  A    between atoms: N6_18  and  N7_19 
ROOT
HETATM    1  N1  UNL     1      46.547  17.060 -18.292  1.00  0.00    -0.383 N 
ATOM      2  H11 UNL     1      46.091  16.147 -18.293  1.00  0.00     0.157 HD
ATOM      3  H12 UNL     1      46.616  17.532 -19.194  1.00  0.00     0.157 HD
HETATM    4  C1  UNL     1      47.021  17.608 -17.220  1.00  0.00     0.131 A 
HETATM    5  N2  UNL     1      47.621  18.811 -17.218  1.00  0.00    -0.337 N 
ATOM      6  H2  UNL     1      47.700  19.302 -18.108  1.00  0.00     0.168 HD
HETATM    7  C2  UNL     1      48.126  19.414 -16.127  1.00  0.00     0.183 A 
HETATM    8  N3  UNL     1      48.026  18.776 -14.948  1.00  0.00    -0.336 N 
ATOM      9  H3  UNL     1      48.401  19.212 -14.106  1.00  0.00     0.168 HD
HETATM   10  C3  UNL     1      47.439  17.570 -14.864  1.00  0.00     0.140 A 
HETATM   11  C4  UNL     1      46.928  16.968 -15.999  1.00  0.00     0.122 A 
HETATM   12  N4  UNL     1      46.424  15.806 -15.586  1.00  0.00    -0.346 N 
ATOM     13  H4  UNL     1      45.968  15.117 -16.184  1.00  0.00     0.167 HD
HETATM   14  C5  UNL     1      46.609  15.684 -14.270  1.00  0.00     0.185 A 
HETATM   15  N5  UNL     1      47.237  16.762 -13.783  1.00  0.00    -0.326 N 
ENDROOT
BRANCH  15  16
HETATM   16  C6  UNL     1      47.624  17.027 -12.417  1.00  0.00     0.149 C 
BRANCH  16  17
HETATM   17  C7  UNL     1      48.033  15.771 -11.690  1.00  0.00     0.154 C 
BRANCH  17  18
HETATM   18  N6  UNL     1      46.938  15.460 -10.756  1.00  0.00    -0.147 NA
BRANCH  18  19
HETATM   19  N7  UNL     1      46.698  14.071 -10.756  1.00  0.00    -0.348 N 
ATOM     20  H72 UNL     1      46.368  13.543 -11.564  1.00  0.00     0.172 HD
ATOM     21  H71 UNL     1      46.905  13.688  -9.833  1.00  0.00     0.172 HD
ENDBRANCH  18  19
ENDBRANCH  17  18
ENDBRANCH  16  17
ENDBRANCH  15  16
TORSDOF 4
ENDMDL
MODEL 3
REMARK VINA RESULT: -5.161989807      1.662      3.049
REMARK  4 active torsions:
REMARK  status: ('A' for Active; 'I' for Inactive)
REMARK    1  A    between atoms: N5_15  and  C6_16 
REMARK    2  A    between atoms: C6_16  and  C7_17 
REMARK    3  A    between atoms: C7_17  and  N6_18 
REMARK    4  A    between atoms: N6_18  and  N7_19 
ROOT
HETATM    1  N1  UNL     1      46.420  16.898 -17.488  1.00  0.00    -0.383 N 
ATOM      2  H11 UNL     1      46.036  15.956 -17.563  1.00  0.00     0.157 HD
ATOM      3  H12 UNL     1      46.412  17.458 -18.341  1.00  0.00     0.157 HD
HETATM    4  C1  UNL     1      46.897  17.378 -16.385  1.00  0.00     0.131 A 
HETATM    5  N2  UNL     1      47.403  18.619 -16.286  1.00  0.00    -0.337 N 
ATOM      6  H2  UNL     1      47.404  19.198 -17.126  1.00  0.00     0.168 HD
HETATM    7  C2  UNL     1      47.908  19.155 -15.161  1.00  0.00     0.183 A 
HETATM    8  N3  UNL     1      47.909  18.401 -14.047  1.00  0.00    -0.336 N 
ATOM      9  H3  UNL     1      48.287  18.784 -13.181  1.00  0.00     0.168 HD
HETATM   10  C3  UNL     1      47.421  17.150 -14.061  1.00  0.00     0.140 A 
HETATM   11  C4  UNL     1      46.908  16.620 -15.230  1.00  0.00     0.122 A 
HETATM   12  N4  UNL     1      46.513  15.387 -14.916  1.00  0.00    -0.346 N 
ATOM     13  H4  UNL     1      46.086  14.723 -15.561  1.00  0.00     0.167 HD
HETATM   14  C5  UNL     1      46.765  15.155 -13.626  1.00  0.00     0.185 A 
HETATM   15  N5  UNL     1      47.330  16.229 -13.059  1.00  0.00    -0.326 N 
ENDROOT
BRANCH  15  16
HETATM   16  C6  UNL     1      47.755  16.393 -11.688  1.00  0.00     0.149 C 
BRANCH  16  17
HETATM   17  C7  UNL     1      47.146  15.356 -10.778  1.00  0.00     0.154 C 
BRANCH  17  18
HETATM   18  N6  UNL     1      48.253  14.491 -10.339  1.00  0.00    -0.147 NA
BRANCH  18  19
HETATM   19  N7  UNL     1      47.856  13.755  -9.204  1.00  0.00    -0.348 N 
ATOM     20  H72 UNL     1      47.431  14.164  -8.372  1.00  0.00     0.172 HD
ATOM     21  H71 UNL     1      48.059  12.766  -9.350  1.00  0.00     0.172 HD
ENDBRANCH  18  19
ENDBRANCH  17  18
ENDBRANCH  16  17
ENDBRANCH  15  16
TORSDOF 4
ENDMDL
MODEL 4
REMARK VINA RESULT: -4.814326116      3.352      5.232
REMARK  4 active torsions:
REMARK  status: ('A' for Active; 'I' for Inactive)
REMARK    1  A    between atoms: N5_15  and  C6_16 
REMARK    2  A    between atoms: C6_16  and  C7_17 
REMARK    3  A    between atoms: C7_17  and  N6_18 
REMARK    4  A    between atoms: N6_18  and  N7_19 
ROOT
HETATM    1  N1  UNL     1      50.625  19.563 -18.329  1.00  0.00    -0.383 N 
ATOM      2  H11 UNL     1      50.848  20.171 -17.540  1.00  0.00     0.157 HD
ATOM      3  H12 UNL     1      51.161  19.717 -19.184  1.00  0.00     0.157 HD
HETATM    4  C1  UNL     1      49.717  18.642 -18.273  1.00  0.00     0.131 A 
HETATM    5  N2  UNL     1      49.424  17.842 -19.312  1.00  0.00    -0.337 N 
ATOM      6  H2  UNL     1      49.947  17.977 -20.177  1.00  0.00     0.168 HD
HETATM    7  C2  UNL     1      48.489  16.875 -19.295  1.00  0.00     0.183 A 
HETATM    8  N3  UNL     1      47.793  16.688 -18.160  1.00  0.00    -0.336 N 
ATOM      9  H3  UNL     1      47.079  15.961 -18.121  1.00  0.00     0.168 HD
HETATM   10  C3  UNL     1      48.027  17.446 -17.075  1.00  0.00     0.140 A 
HETATM   11  C4  UNL     1      48.992  18.434 -17.116  1.00  0.00     0.122 A 
HETATM   12  N4  UNL     1      48.977  18.993 -15.907  1.00  0.00    -0.346 N 
ATOM     13  H4  UNL     1      49.577  19.761 -15.605  1.00  0.00     0.167 HD
HETATM   14  C5  UNL     1      48.056  18.391 -15.151  1.00  0.00     0.185 A 
HETATM   15  N5  UNL     1      47.443  17.422 -15.842  1.00  0.00    -0.326 N 
ENDROOT
BRANCH  15  16
HETATM   16  C6  UNL     1      46.392  16.537 -15.396  1.00  0.00     0.149 C 
BRANCH  16  17
HETATM   17  C7  UNL     1      46.751  15.834 -14.111  1.00  0.00     0.154 C 
BRANCH  17  18
HETATM   18  N6  UNL     1      46.540  14.398 -14.355  1.00  0.00    -0.147 NA
BRANCH  18  19
HETATM   19  N7  UNL     1      46.632  13.694 -13.137  1.00  0.00    -0.348 N 
ATOM     20  H72 UNL     1      46.276  14.037 -12.245  1.00  0.00     0.172 HD
ATOM     21  H71 UNL     1      47.105  12.803 -13.292  1.00  0.00     0.172 HD
ENDBRANCH  18  19
ENDBRANCH  17  18
ENDBRANCH  16  17
ENDBRANCH  15  16
TORSDOF 4
ENDMDL
MODEL 5
REMARK VINA RESULT: -4.771811480      2.244      5.524
REMARK  4 active torsions:
REMARK  status: ('A' for Active; 'I' for Inactive)
REMARK    1  A    between atoms: N5_15  and  C6_16 
REMARK    2  A    between atoms: C6_16  and  C7_17 
REMARK    3  A    between atoms: C7_17  and  N6_18 
REMARK    4  A    between atoms: N6_18  and  N7_19 
ROOT
HETATM    1  N1  UNL     1      46.246  13.522 -13.700  1.00  0.00    -0.383 N 
ATOM      2  H11 UNL     1      45.843  13.334 -14.618  1.00  0.00     0.157 HD
ATOM      3  H12 UNL     1      46.201  12.761 -13.022  1.00  0.00     0.157 HD
HETATM    4  C1  UNL     1      46.789  14.655 -13.390  1.00  0.00     0.131 A 
HETATM    5  N2  UNL     1      47.320  14.904 -12.181  1.00  0.00    -0.337 N 
ATOM      6  H2  UNL     1      47.288  14.158 -11.487  1.00  0.00     0.168 HD
HETATM    7  C2  UNL     1      47.892  16.066 -11.819  1.00  0.00     0.183 A 
HETATM    8  N3  UNL     1      47.942  17.057 -12.726  1.00  0.00    -0.336 N 
ATOM      9  H3  UNL     1      48.370  17.948 -12.476  1.00  0.00     0.168 HD
HETATM   10  C3  UNL     1      47.433  16.888 -13.958  1.00  0.00     0.140 A 
HETATM   11  C4  UNL     1      46.850  15.685 -14.308  1.00  0.00     0.122 A 
HETATM   12  N4  UNL     1      46.453  15.839 -15.571  1.00  0.00    -0.346 N 
ATOM     13  H4  UNL     1      45.981  15.128 -16.130  1.00  0.00     0.167 HD
HETATM   14  C5  UNL     1      46.767  17.067 -15.989  1.00  0.00     0.185 A 
HETATM   15  N5  UNL     1      47.380  17.751 -15.014  1.00  0.00    -0.326 N 
ENDROOT
BRANCH  15  16
HETATM   16  C6  UNL     1      47.880  19.106 -15.055  1.00  0.00     0.149 C 
BRANCH  16  17
HETATM   17  C7  UNL     1      48.550  19.423 -16.368  1.00  0.00     0.154 C 
BRANCH  17  18
HETATM   18  N6  UNL     1      49.878  18.793 -16.317  1.00  0.00    -0.147 NA
BRANCH  18  19
HETATM   19  N7  UNL     1      50.233  18.333 -17.602  1.00  0.00    -0.348 N 
ATOM     20  H72 UNL     1      49.670  18.475 -18.440  1.00  0.00     0.172 HD
ATOM     21  H71 UNL     1      51.128  17.846 -17.555  1.00  0.00     0.172 HD
ENDBRANCH  18  19
ENDBRANCH  17  18
ENDBRANCH  16  17
ENDBRANCH  15  16
TORSDOF 4
ENDMDL
