MODEL 1
REMARK VINA RESULT: -5.696359028      0.000      0.000
REMARK  6 active torsions:
REMARK  status: ('A' for Active; 'I' for Inactive)
REMARK    1  A    between atoms: C2_2  and  C3_3 
REMARK    2  A    between atoms: C3_3  and  C5_5 
REMARK    3  A    between atoms: C6_6  and  C7_7 
REMARK    4  A    between atoms: C6_6  and  C9_11 
REMARK    5  A    between atoms: C7_7  and  C8_8 
REMARK    6  A    between atoms: C8_8  and  O1_9 
ROOT
HETATM    1  C5  UNL     1       6.777 -23.525  -2.270  1.00  0.00    -0.015 C 
HETATM    2  C6  UNL     1       7.265 -23.140  -0.978  1.00  0.00    -0.059 C 
ENDROOT
BRANCH   2   3
HETATM    3  C7  UNL     1       6.976 -23.756   0.311  1.00  0.00     0.006 C 
BRANCH   3   4
HETATM    4  C8  UNL     1       6.763 -23.016   1.564  1.00  0.00     0.192 C 
BRANCH   4   5
HETATM    5  O1  UNL     1       7.771 -23.069   2.454  1.00  0.00    -0.397 OA
ATOM      6  H1  UNL     1       8.011 -22.243   2.855  1.00  0.00     0.209 HD
ENDBRANCH   4   5
ENDBRANCH   3   4
ENDBRANCH   2   3
BRANCH   2   7
HETATM    7  C9  UNL     1       7.174 -21.603  -0.765  1.00  0.00     0.018 A 
HETATM    8  C10 UNL     1       8.356 -20.766  -0.898  1.00  0.00     0.010 A 
HETATM    9  C11 UNL     1       7.254 -20.681  -1.903  1.00  0.00     0.010 A 
ENDBRANCH   2   7
BRANCH   1  10
HETATM   10  C3  UNL     1       7.039 -24.835  -2.907  1.00  0.00     0.004 C 
HETATM   11  C4  UNL     1       8.469 -25.268  -2.869  1.00  0.00     0.014 C 
BRANCH  10  12
HETATM   12  C2  UNL     1       6.630 -24.724  -4.425  1.00  0.00     0.003 C 
HETATM   13  C1  UNL     1       6.602 -23.282  -4.829  1.00  0.00     0.006 C 
ENDBRANCH  10  12
ENDBRANCH   1  10
TORSDOF 6
ENDMDL
MODEL 2
REMARK VINA RESULT: -5.630313620      1.909      2.400
REMARK  6 active torsions:
REMARK  status: ('A' for Active; 'I' for Inactive)
REMARK    1  A    between atoms: C2_2  and  C3_3 
REMARK    2  A    between atoms: C3_3  and  C5_5 
REMARK    3  A    between atoms: C6_6  and  C7_7 
REMARK    4  A    between atoms: C6_6  and  C9_11 
REMARK    5  A    between atoms: C7_7  and  C8_8 
REMARK    6  A    between atoms: C8_8  and  O1_9 
ROOT
HETATM    1  C5  UNL     1       7.090 -22.137  -1.513  1.00  0.00    -0.015 C 
HETATM    2  C6  UNL     1       6.833 -21.544  -0.234  1.00  0.00    -0.059 C 
ENDROOT
BRANCH   2   3
HETATM    3  C7  UNL     1       5.563 -21.059   0.292  1.00  0.00     0.006 C 
BRANCH   3   4
HETATM    4  C8  UNL     1       4.769 -21.740   1.325  1.00  0.00     0.192 C 
BRANCH   4   5
HETATM    5  O1  UNL     1       3.664 -21.092   1.737  1.00  0.00    -0.397 OA
ATOM      6  H1  UNL     1       3.536 -21.051   2.677  1.00  0.00     0.209 HD
ENDBRANCH   4   5
ENDBRANCH   3   4
ENDBRANCH   2   3
BRANCH   2   7
HETATM    7  C9  UNL     1       7.898 -20.471   0.124  1.00  0.00     0.018 A 
HETATM    8  C10 UNL     1       8.796 -20.668   1.253  1.00  0.00     0.010 A 
HETATM    9  C11 UNL     1       9.321 -20.705  -0.146  1.00  0.00     0.010 A 
ENDBRANCH   2   7
BRANCH   1  10
HETATM   10  C3  UNL     1       6.483 -23.402  -1.986  1.00  0.00     0.004 C 
HETATM   11  C4  UNL     1       7.210 -24.636  -1.559  1.00  0.00     0.014 C 
BRANCH  10  12
HETATM   12  C2  UNL     1       6.491 -23.383  -3.562  1.00  0.00     0.003 C 
HETATM   13  C1  UNL     1       6.784 -24.759  -4.075  1.00  0.00     0.006 C 
ENDBRANCH  10  12
ENDBRANCH   1  10
TORSDOF 6
ENDMDL
MODEL 3
REMARK VINA RESULT: -5.524878381      0.905      1.252
REMARK  6 active torsions:
REMARK  status: ('A' for Active; 'I' for Inactive)
REMARK    1  A    between atoms: C2_2  and  C3_3 
REMARK    2  A    between atoms: C3_3  and  C5_5 
REMARK    3  A    between atoms: C6_6  and  C7_7 
REMARK    4  A    between atoms: C6_6  and  C9_11 
REMARK    5  A    between atoms: C7_7  and  C8_8 
REMARK    6  A    between atoms: C8_8  and  O1_9 
ROOT
HETATM    1  C5  UNL     1       6.942 -22.770  -2.095  1.00  0.00    -0.015 C 
HETATM    2  C6  UNL     1       7.361 -22.325  -0.799  1.00  0.00    -0.059 C 
ENDROOT
BRANCH   2   3
HETATM    3  C7  UNL     1       6.588 -22.303   0.436  1.00  0.00     0.006 C 
BRANCH   3   4
HETATM    4  C8  UNL     1       6.748 -23.258   1.542  1.00  0.00     0.192 C 
BRANCH   4   5
HETATM    5  O1  UNL     1       7.754 -22.999   2.398  1.00  0.00    -0.397 OA
ATOM      6  H1  UNL     1       7.541 -22.428   3.126  1.00  0.00     0.209 HD
ENDBRANCH   4   5
ENDBRANCH   3   4
ENDBRANCH   2   3
BRANCH   2   7
HETATM    7  C9  UNL     1       8.113 -20.967  -0.874  1.00  0.00     0.018 A 
HETATM    8  C10 UNL     1       7.917 -19.954   0.152  1.00  0.00     0.010 A 
HETATM    9  C11 UNL     1       9.223 -20.670   0.038  1.00  0.00     0.010 A 
ENDBRANCH   2   7
BRANCH   1  10
HETATM   10  C3  UNL     1       6.520 -24.153  -2.409  1.00  0.00     0.004 C 
HETATM   11  C4  UNL     1       7.282 -25.214  -1.684  1.00  0.00     0.014 C 
BRANCH  10  12
HETATM   12  C2  UNL     1       6.749 -24.390  -3.950  1.00  0.00     0.003 C 
HETATM   13  C1  UNL     1       6.410 -23.140  -4.702  1.00  0.00     0.006 C 
ENDBRANCH  10  12
ENDBRANCH   1  10
TORSDOF 6
ENDMDL
MODEL 4
REMARK VINA RESULT: -5.460106918      1.447      2.885
REMARK  6 active torsions:
REMARK  status: ('A' for Active; 'I' for Inactive)
REMARK    1  A    between atoms: C2_2  and  C3_3 
REMARK    2  A    between atoms: C3_3  and  C5_5 
REMARK    3  A    between atoms: C6_6  and  C7_7 
REMARK    4  A    between atoms: C6_6  and  C9_11 
REMARK    5  A    between atoms: C7_7  and  C8_8 
REMARK    6  A    between atoms: C8_8  and  O1_9 
ROOT
HETATM    1  C5  UNL     1       7.442 -23.206  -1.045  1.00  0.00    -0.015 C 
HETATM    2  C6  UNL     1       7.394 -21.900  -0.456  1.00  0.00    -0.059 C 
ENDROOT
BRANCH   2   3
HETATM    3  C7  UNL     1       8.443 -20.889  -0.431  1.00  0.00     0.006 C 
BRANCH   3   4
HETATM    4  C8  UNL     1       8.764 -20.043   0.729  1.00  0.00     0.192 C 
BRANCH   4   5
HETATM    5  O1  UNL     1       9.913 -20.335   1.365  1.00  0.00    -0.397 OA
ATOM      6  H1  UNL     1       9.871 -21.055   1.983  1.00  0.00     0.209 HD
ENDBRANCH   4   5
ENDBRANCH   3   4
ENDBRANCH   2   3
BRANCH   2   7
HETATM    7  C9  UNL     1       6.780 -21.937   0.971  1.00  0.00     0.018 A 
HETATM    8  C10 UNL     1       5.352 -22.151   1.156  1.00  0.00     0.010 A 
HETATM    9  C11 UNL     1       6.333 -23.202   1.564  1.00  0.00     0.010 A 
ENDBRANCH   2   7
BRANCH   1  10
HETATM   10  C3  UNL     1       7.641 -23.467  -2.488  1.00  0.00     0.004 C 
HETATM   11  C4  UNL     1       6.628 -22.826  -3.380  1.00  0.00     0.014 C 
BRANCH  10  12
HETATM   12  C2  UNL     1       7.541 -25.023  -2.717  1.00  0.00     0.003 C 
HETATM   13  C1  UNL     1       6.839 -25.291  -4.013  1.00  0.00     0.006 C 
ENDBRANCH  10  12
ENDBRANCH   1  10
TORSDOF 6
ENDMDL
MODEL 5
REMARK VINA RESULT: -5.458506473      2.152      3.547
REMARK  6 active torsions:
REMARK  status: ('A' for Active; 'I' for Inactive)
REMARK    1  A    between atoms: C2_2  and  C3_3 
REMARK    2  A    between atoms: C3_3  and  C5_5 
REMARK    3  A    between atoms: C6_6  and  C7_7 
REMARK    4  A    between atoms: C6_6  and  C9_11 
REMARK    5  A    between atoms: C7_7  and  C8_8 
REMARK    6  A    between atoms: C8_8  and  O1_9 
ROOT
HETATM    1  C5  UNL     1       6.166 -21.085   0.086  1.00  0.00    -0.015 C 
HETATM    2  C6  UNL     1       7.263 -20.226  -0.252  1.00  0.00    -0.059 C 
ENDROOT
BRANCH   2   3
HETATM    3  C7  UNL     1       8.559 -20.124   0.408  1.00  0.00     0.006 C 
BRANCH   3   4
HETATM    4  C8  UNL     1       8.806 -20.436   1.823  1.00  0.00     0.192 C 
BRANCH   4   5
HETATM    5  O1  UNL     1       9.624 -19.589   2.475  1.00  0.00    -0.397 OA
ATOM      6  H1  UNL     1      10.484 -19.930   2.690  1.00  0.00     0.209 HD
ENDBRANCH   4   5
ENDBRANCH   3   4
ENDBRANCH   2   3
BRANCH   2   7
HETATM    7  C9  UNL     1       6.789 -18.772  -0.524  1.00  0.00     0.018 A 
HETATM    8  C10 UNL     1       7.632 -17.640  -0.167  1.00  0.00     0.010 A 
HETATM    9  C11 UNL     1       7.386 -17.976  -1.602  1.00  0.00     0.010 A 
ENDBRANCH   2   7
BRANCH   1  10
HETATM   10  C3  UNL     1       6.224 -22.564   0.064  1.00  0.00     0.004 C 
HETATM   11  C4  UNL     1       6.651 -23.188   1.353  1.00  0.00     0.014 C 
BRANCH  10  12
HETATM   12  C2  UNL     1       7.278 -22.990  -1.028  1.00  0.00     0.003 C 
HETATM   13  C1  UNL     1       6.565 -23.339  -2.298  1.00  0.00     0.006 C 
ENDBRANCH  10  12
ENDBRANCH   1  10
TORSDOF 6
ENDMDL
