MODEL 1
REMARK VINA RESULT: -5.340912923      0.000      0.000
REMARK  6 active torsions:
REMARK  status: ('A' for Active; 'I' for Inactive)
REMARK    1  A    between atoms: C2_2  and  C3_3 
REMARK    2  A    between atoms: C3_3  and  C4_4 
REMARK    3  A    between atoms: C4_4  and  C5_5 
REMARK    4  A    between atoms: C5_5  and  N1_7 
REMARK    5  A    between atoms: N1_7  and  C7_9 
REMARK    6  A    between atoms: C7_9  and  C8_10 
ROOT
HETATM    1  N1  UNL     1       7.793 -22.519  -0.408  1.00  0.00    -0.409 N 
ATOM      2  H1  UNL     1       8.699 -22.953  -0.232  1.00  0.00     0.154 HD
ENDROOT
BRANCH   1   3
HETATM    3  C5  UNL     1       7.495 -22.437  -1.739  1.00  0.00     0.073 C 
HETATM    4  C6  UNL     1       7.203 -21.122  -2.350  1.00  0.00     0.032 C 
BRANCH   3   5
HETATM    5  C4  UNL     1       6.435 -23.419  -2.131  1.00  0.00     0.028 C 
BRANCH   5   6
HETATM    6  C3  UNL     1       6.845 -24.765  -2.579  1.00  0.00     0.028 C 
BRANCH   6   7
HETATM    7  C2  UNL     1       6.844 -25.082  -4.008  1.00  0.00    -0.037 C 
HETATM    8  C1  UNL     1       6.597 -24.120  -4.889  1.00  0.00     0.007 C 
ENDBRANCH   6   7
ENDBRANCH   5   6
ENDBRANCH   3   5
ENDBRANCH   1   3
BRANCH   1   9
HETATM    9  C7  UNL     1       7.159 -22.155   0.727  1.00  0.00     0.025 A 
HETATM   10  C10 UNL     1       6.499 -23.273   1.555  1.00  0.00     0.033 A 
HETATM   11  C11 UNL     1       5.775 -22.001   1.111  1.00  0.00     0.033 A 
BRANCH   9  12
HETATM   12  C8  UNL     1       8.125 -21.283   1.586  1.00  0.00     0.026 C 
HETATM   13  C9  UNL     1       8.568 -20.049   0.878  1.00  0.00     0.007 C 
ENDBRANCH   9  12
ENDBRANCH   1   9
TORSDOF 6
ENDMDL
MODEL 2
REMARK VINA RESULT: -5.290620478      1.082      2.358
REMARK  6 active torsions:
REMARK  status: ('A' for Active; 'I' for Inactive)
REMARK    1  A    between atoms: C2_2  and  C3_3 
REMARK    2  A    between atoms: C3_3  and  C4_4 
REMARK    3  A    between atoms: C4_4  and  C5_5 
REMARK    4  A    between atoms: C5_5  and  N1_7 
REMARK    5  A    between atoms: N1_7  and  C7_9 
REMARK    6  A    between atoms: C7_9  and  C8_10 
ROOT
HETATM    1  N1  UNL     1       7.538 -22.502  -0.817  1.00  0.00    -0.409 N 
ATOM      2  H1  UNL     1       8.461 -22.253  -1.173  1.00  0.00     0.154 HD
ENDROOT
BRANCH   1   3
HETATM    3  C5  UNL     1       6.859 -23.344  -1.652  1.00  0.00     0.073 C 
HETATM    4  C6  UNL     1       7.128 -24.798  -1.613  1.00  0.00     0.032 C 
BRANCH   3   5
HETATM    5  C4  UNL     1       6.895 -22.865  -3.070  1.00  0.00     0.028 C 
BRANCH   5   6
HETATM    6  C3  UNL     1       6.563 -23.817  -4.149  1.00  0.00     0.028 C 
BRANCH   6   7
HETATM    7  C2  UNL     1       6.588 -23.367  -5.542  1.00  0.00    -0.037 C 
HETATM    8  C1  UNL     1       5.941 -22.259  -5.880  1.00  0.00     0.007 C 
ENDBRANCH   6   7
ENDBRANCH   5   6
ENDBRANCH   3   5
ENDBRANCH   1   3
BRANCH   1   9
HETATM    9  C7  UNL     1       7.263 -21.925   0.372  1.00  0.00     0.025 A 
HETATM   10  C10 UNL     1       8.367 -21.061   1.008  1.00  0.00     0.033 A 
HETATM   11  C11 UNL     1       7.643 -22.192   1.740  1.00  0.00     0.033 A 
BRANCH   9  12
HETATM   12  C8  UNL     1       5.910 -21.158   0.260  1.00  0.00     0.026 C 
HETATM   13  C9  UNL     1       4.856 -21.718   1.152  1.00  0.00     0.007 C 
ENDBRANCH   9  12
ENDBRANCH   1   9
TORSDOF 6
ENDMDL
MODEL 3
REMARK VINA RESULT: -5.207194504      1.366      2.638
REMARK  6 active torsions:
REMARK  status: ('A' for Active; 'I' for Inactive)
REMARK    1  A    between atoms: C2_2  and  C3_3 
REMARK    2  A    between atoms: C3_3  and  C4_4 
REMARK    3  A    between atoms: C4_4  and  C5_5 
REMARK    4  A    between atoms: C5_5  and  N1_7 
REMARK    5  A    between atoms: N1_7  and  C7_9 
REMARK    6  A    between atoms: C7_9  and  C8_10 
ROOT
HETATM    1  N1  UNL     1       6.218 -22.775  -1.402  1.00  0.00    -0.409 N 
ATOM      2  H1  UNL     1       5.253 -22.451  -1.477  1.00  0.00     0.154 HD
ENDROOT
BRANCH   1   3
HETATM    3  C5  UNL     1       6.487 -23.833  -2.222  1.00  0.00     0.073 C 
HETATM    4  C6  UNL     1       7.235 -24.999  -1.701  1.00  0.00     0.032 C 
BRANCH   3   5
HETATM    5  C4  UNL     1       7.088 -23.391  -3.520  1.00  0.00     0.028 C 
BRANCH   5   6
HETATM    6  C3  UNL     1       6.724 -24.116  -4.753  1.00  0.00     0.028 C 
BRANCH   6   7
HETATM    7  C2  UNL     1       6.412 -23.362  -5.969  1.00  0.00    -0.037 C 
HETATM    8  C1  UNL     1       5.919 -22.134  -5.865  1.00  0.00     0.007 C 
ENDBRANCH   6   7
ENDBRANCH   5   6
ENDBRANCH   3   5
ENDBRANCH   1   3
BRANCH   1   9
HETATM    9  C7  UNL     1       6.940 -22.059  -0.514  1.00  0.00     0.025 A 
HETATM   10  C10 UNL     1       7.158 -20.566  -0.822  1.00  0.00     0.033 A 
HETATM   11  C11 UNL     1       8.288 -21.540  -0.486  1.00  0.00     0.033 A 
BRANCH   9  12
HETATM   12  C8  UNL     1       6.350 -22.282   0.912  1.00  0.00     0.026 C 
HETATM   13  C9  UNL     1       7.168 -23.219   1.733  1.00  0.00     0.007 C 
ENDBRANCH   9  12
ENDBRANCH   1   9
TORSDOF 6
ENDMDL
MODEL 4
REMARK VINA RESULT: -5.197507347      0.888      1.819
REMARK  6 active torsions:
REMARK  status: ('A' for Active; 'I' for Inactive)
REMARK    1  A    between atoms: C2_2  and  C3_3 
REMARK    2  A    between atoms: C3_3  and  C4_4 
REMARK    3  A    between atoms: C4_4  and  C5_5 
REMARK    4  A    between atoms: C5_5  and  N1_7 
REMARK    5  A    between atoms: N1_7  and  C7_9 
REMARK    6  A    between atoms: C7_9  and  C8_10 
ROOT
HETATM    1  N1  UNL     1       7.832 -21.625  -0.702  1.00  0.00    -0.409 N 
ATOM      2  H1  UNL     1       8.568 -20.922  -0.777  1.00  0.00     0.154 HD
ENDROOT
BRANCH   1   3
HETATM    3  C5  UNL     1       7.615 -22.291  -1.874  1.00  0.00     0.073 C 
HETATM    4  C6  UNL     1       7.179 -21.547  -3.077  1.00  0.00     0.032 C 
BRANCH   3   5
HETATM    5  C4  UNL     1       6.735 -23.487  -1.678  1.00  0.00     0.028 C 
BRANCH   5   6
HETATM    6  C3  UNL     1       7.324 -24.833  -1.821  1.00  0.00     0.028 C 
BRANCH   6   7
HETATM    7  C2  UNL     1       7.750 -25.298  -3.142  1.00  0.00    -0.037 C 
HETATM    8  C1  UNL     1       6.922 -25.180  -4.172  1.00  0.00     0.007 C 
ENDBRANCH   6   7
ENDBRANCH   5   6
ENDBRANCH   3   5
ENDBRANCH   1   3
BRANCH   1   9
HETATM    9  C7  UNL     1       7.293 -21.685   0.535  1.00  0.00     0.025 A 
HETATM   10  C10 UNL     1       8.183 -21.252   1.714  1.00  0.00     0.033 A 
HETATM   11  C11 UNL     1       7.430 -22.583   1.658  1.00  0.00     0.033 A 
BRANCH   9  12
HETATM   12  C8  UNL     1       5.926 -20.933   0.526  1.00  0.00     0.026 C 
HETATM   13  C9  UNL     1       4.826 -21.734   1.133  1.00  0.00     0.007 C 
ENDBRANCH   9  12
ENDBRANCH   1   9
TORSDOF 6
ENDMDL
MODEL 5
REMARK VINA RESULT: -5.174618375      1.328      4.590
REMARK  6 active torsions:
REMARK  status: ('A' for Active; 'I' for Inactive)
REMARK    1  A    between atoms: C2_2  and  C3_3 
REMARK    2  A    between atoms: C3_3  and  C4_4 
REMARK    3  A    between atoms: C4_4  and  C5_5 
REMARK    4  A    between atoms: C5_5  and  N1_7 
REMARK    5  A    between atoms: N1_7  and  C7_9 
REMARK    6  A    between atoms: C7_9  and  C8_10 
ROOT
HETATM    1  N1  UNL     1       7.765 -22.708  -1.827  1.00  0.00    -0.409 N 
ATOM      2  H1  UNL     1       8.611 -22.763  -1.259  1.00  0.00     0.154 HD
ENDROOT
BRANCH   1   3
HETATM    3  C5  UNL     1       7.152 -21.490  -1.746  1.00  0.00     0.073 C 
HETATM    4  C6  UNL     1       7.748 -20.316  -2.422  1.00  0.00     0.032 C 
BRANCH   3   5
HETATM    5  C4  UNL     1       6.809 -21.135  -0.333  1.00  0.00     0.028 C 
BRANCH   5   6
HETATM    6  C3  UNL     1       5.745 -21.895   0.352  1.00  0.00     0.028 C 
BRANCH   6   7
HETATM    7  C2  UNL     1       6.104 -22.874   1.380  1.00  0.00    -0.037 C 
HETATM    8  C1  UNL     1       7.368 -22.976   1.769  1.00  0.00     0.007 C 
ENDBRANCH   6   7
ENDBRANCH   5   6
ENDBRANCH   3   5
ENDBRANCH   1   3
BRANCH   1   9
HETATM    9  C7  UNL     1       7.506 -23.856  -2.489  1.00  0.00     0.025 A 
HETATM   10  C10 UNL     1       7.186 -25.101  -1.643  1.00  0.00     0.033 A 
HETATM   11  C11 UNL     1       8.247 -25.069  -2.744  1.00  0.00     0.033 A 
BRANCH   9  12
HETATM   12  C8  UNL     1       6.409 -23.581  -3.564  1.00  0.00     0.026 C 
HETATM   13  C9  UNL     1       6.955 -23.564  -4.951  1.00  0.00     0.007 C 
ENDBRANCH   9  12
ENDBRANCH   1   9
TORSDOF 6
ENDMDL
