MODEL 1
REMARK VINA RESULT: -5.706709305      0.000      0.000
REMARK  7 active torsions:
REMARK  status: ('A' for Active; 'I' for Inactive)
REMARK    1  A    between atoms: C2_2  and  C3_3 
REMARK    2  A    between atoms: C3_3  and  N1_4 
REMARK    3  A    between atoms: N1_4  and  C4_7 
REMARK    4  A    between atoms: C4_7  and  C5_8 
REMARK    5  A    between atoms: C5_8  and  C6_9 
REMARK    6  A    between atoms: C6_9  and  C7_10 
REMARK    7  A    between atoms: C7_10  and  C8_11 
ROOT
HETATM    1  C5  UNL     1       6.812 -23.288   1.426  1.00  0.00     0.027 C 
ENDROOT
BRANCH   1   2
HETATM    2  C4  UNL     1       7.020 -21.823   1.667  1.00  0.00     0.232 C 
BRANCH   2   3
HETATM    3  N1  UNL     1       8.382 -21.513   2.038  1.00  0.00    -0.072 N 
ATOM      4  H12 UNL     1       8.991 -22.321   1.901  1.00  0.00     0.277 HD
ATOM      5  H11 UNL     1       8.472 -21.408   3.049  1.00  0.00     0.277 HD
BRANCH   3   6
HETATM    6  C3  UNL     1       8.895 -20.361   1.353  1.00  0.00     0.259 C 
BRANCH   6   7
HETATM    7  C2  UNL     1       9.356 -20.658  -0.020  1.00  0.00    -0.010 C 
HETATM    8  C1  UNL     1       8.896 -19.943  -1.025  1.00  0.00     0.008 C 
ENDBRANCH   6   7
ENDBRANCH   3   6
ENDBRANCH   2   3
ENDBRANCH   1   2
BRANCH   1   9
HETATM    9  C6  UNL     1       7.187 -23.721   0.027  1.00  0.00     0.002 C 
BRANCH   9  10
HETATM   10  C7  UNL     1       6.517 -22.856  -1.011  1.00  0.00     0.005 C 
BRANCH  10  11
HETATM   11  C8  UNL     1       6.323 -23.572  -2.317  1.00  0.00    -0.014 C 
HETATM   12  C9  UNL     1       6.865 -22.819  -3.495  1.00  0.00     0.004 C 
HETATM   13  C10 UNL     1       6.793 -23.864  -4.589  1.00  0.00     0.000 C 
HETATM   14  C11 UNL     1       6.817 -25.214  -3.902  1.00  0.00     0.000 C 
HETATM   15  C12 UNL     1       7.025 -24.885  -2.416  1.00  0.00     0.004 C 
ENDBRANCH  10  11
ENDBRANCH   9  10
ENDBRANCH   1   9
TORSDOF 7
ENDMDL
MODEL 2
REMARK VINA RESULT: -5.454861194      2.443      5.118
REMARK  7 active torsions:
REMARK  status: ('A' for Active; 'I' for Inactive)
REMARK    1  A    between atoms: C2_2  and  C3_3 
REMARK    2  A    between atoms: C3_3  and  N1_4 
REMARK    3  A    between atoms: N1_4  and  C4_7 
REMARK    4  A    between atoms: C4_7  and  C5_8 
REMARK    5  A    between atoms: C5_8  and  C6_9 
REMARK    6  A    between atoms: C6_9  and  C7_10 
REMARK    7  A    between atoms: C7_10  and  C8_11 
ROOT
HETATM    1  C5  UNL     1       8.067 -24.645  -3.242  1.00  0.00     0.027 C 
ENDROOT
BRANCH   1   2
HETATM    2  C4  UNL     1       7.355 -23.978  -4.380  1.00  0.00     0.232 C 
BRANCH   2   3
HETATM    3  N1  UNL     1       8.135 -22.914  -4.970  1.00  0.00    -0.072 N 
ATOM      4  H12 UNL     1       8.904 -23.289  -5.527  1.00  0.00     0.277 HD
ATOM      5  H11 UNL     1       8.673 -22.417  -4.259  1.00  0.00     0.277 HD
BRANCH   3   6
HETATM    6  C3  UNL     1       7.338 -22.004  -5.742  1.00  0.00     0.259 C 
BRANCH   6   7
HETATM    7  C2  UNL     1       6.630 -21.005  -4.912  1.00  0.00    -0.010 C 
HETATM    8  C1  UNL     1       7.300 -20.329  -4.002  1.00  0.00     0.008 C 
ENDBRANCH   6   7
ENDBRANCH   3   6
ENDBRANCH   2   3
ENDBRANCH   1   2
BRANCH   1   9
HETATM    9  C6  UNL     1       7.312 -24.559  -1.934  1.00  0.00     0.002 C 
BRANCH   9  10
HETATM   10  C7  UNL     1       6.537 -23.269  -1.835  1.00  0.00     0.005 C 
BRANCH  10  11
HETATM   11  C8  UNL     1       6.753 -22.568  -0.524  1.00  0.00    -0.014 C 
HETATM   12  C9  UNL     1       6.917 -23.507   0.633  1.00  0.00     0.004 C 
HETATM   13  C10 UNL     1       7.389 -22.570   1.726  1.00  0.00     0.000 C 
HETATM   14  C11 UNL     1       8.022 -21.381   1.034  1.00  0.00     0.000 C 
HETATM   15  C12 UNL     1       7.996 -21.745  -0.458  1.00  0.00     0.004 C 
ENDBRANCH  10  11
ENDBRANCH   9  10
ENDBRANCH   1   9
TORSDOF 7
ENDMDL
MODEL 3
REMARK VINA RESULT: -5.416060267      2.692      5.352
REMARK  7 active torsions:
REMARK  status: ('A' for Active; 'I' for Inactive)
REMARK    1  A    between atoms: C2_2  and  C3_3 
REMARK    2  A    between atoms: C3_3  and  N1_4 
REMARK    3  A    between atoms: N1_4  and  C4_7 
REMARK    4  A    between atoms: C4_7  and  C5_8 
REMARK    5  A    between atoms: C5_8  and  C6_9 
REMARK    6  A    between atoms: C6_9  and  C7_10 
REMARK    7  A    between atoms: C7_10  and  C8_11 
ROOT
HETATM    1  C5  UNL     1       7.339 -24.042  -3.565  1.00  0.00     0.027 C 
ENDROOT
BRANCH   1   2
HETATM    2  C4  UNL     1       7.040 -23.498  -4.930  1.00  0.00     0.232 C 
BRANCH   2   3
HETATM    3  N1  UNL     1       8.062 -22.590  -5.398  1.00  0.00    -0.072 N 
ATOM      4  H12 UNL     1       8.765 -23.083  -5.950  1.00  0.00     0.277 HD
ATOM      5  H11 UNL     1       8.651 -22.274  -4.627  1.00  0.00     0.277 HD
BRANCH   3   6
HETATM    6  C3  UNL     1       7.525 -21.477  -6.126  1.00  0.00     0.259 C 
BRANCH   6   7
HETATM    7  C2  UNL     1       6.360 -20.855  -5.459  1.00  0.00    -0.010 C 
HETATM    8  C1  UNL     1       6.502 -19.686  -4.870  1.00  0.00     0.008 C 
ENDBRANCH   6   7
ENDBRANCH   3   6
ENDBRANCH   2   3
ENDBRANCH   1   2
BRANCH   1   9
HETATM    9  C6  UNL     1       6.548 -23.365  -2.468  1.00  0.00     0.002 C 
BRANCH   9  10
HETATM   10  C7  UNL     1       7.289 -22.173  -1.916  1.00  0.00     0.005 C 
BRANCH  10  11
HETATM   11  C8  UNL     1       7.657 -22.344  -0.470  1.00  0.00    -0.014 C 
HETATM   12  C9  UNL     1       7.496 -21.091   0.338  1.00  0.00     0.004 C 
HETATM   13  C10 UNL     1       7.653 -21.613   1.751  1.00  0.00     0.000 C 
HETATM   14  C11 UNL     1       7.289 -23.083   1.714  1.00  0.00     0.000 C 
HETATM   15  C12 UNL     1       6.812 -23.325   0.274  1.00  0.00     0.004 C 
ENDBRANCH  10  11
ENDBRANCH   9  10
ENDBRANCH   1   9
TORSDOF 7
ENDMDL
MODEL 4
REMARK VINA RESULT: -5.403770684      2.847      5.448
REMARK  7 active torsions:
REMARK  status: ('A' for Active; 'I' for Inactive)
REMARK    1  A    between atoms: C2_2  and  C3_3 
REMARK    2  A    between atoms: C3_3  and  N1_4 
REMARK    3  A    between atoms: N1_4  and  C4_7 
REMARK    4  A    between atoms: C4_7  and  C5_8 
REMARK    5  A    between atoms: C5_8  and  C6_9 
REMARK    6  A    between atoms: C6_9  and  C7_10 
REMARK    7  A    between atoms: C7_10  and  C8_11 
ROOT
HETATM    1  C5  UNL     1       6.596 -23.843  -3.941  1.00  0.00     0.027 C 
ENDROOT
BRANCH   1   2
HETATM    2  C4  UNL     1       7.725 -23.116  -4.608  1.00  0.00     0.232 C 
BRANCH   2   3
HETATM    3  N1  UNL     1       7.351 -22.581  -5.898  1.00  0.00    -0.072 N 
ATOM      4  H12 UNL     1       7.081 -23.328  -6.539  1.00  0.00     0.277 HD
ATOM      5  H11 UNL     1       8.166 -22.222  -6.396  1.00  0.00     0.277 HD
BRANCH   3   6
HETATM    6  C3  UNL     1       6.322 -21.585  -5.808  1.00  0.00     0.259 C 
BRANCH   6   7
HETATM    7  C2  UNL     1       6.754 -20.368  -5.086  1.00  0.00    -0.010 C 
HETATM    8  C1  UNL     1       6.223 -19.206  -5.404  1.00  0.00     0.008 C 
ENDBRANCH   6   7
ENDBRANCH   3   6
ENDBRANCH   2   3
ENDBRANCH   1   2
BRANCH   1   9
HETATM    9  C6  UNL     1       6.649 -23.769  -2.432  1.00  0.00     0.002 C 
BRANCH   9  10
HETATM   10  C7  UNL     1       7.029 -22.386  -1.966  1.00  0.00     0.005 C 
BRANCH  10  11
HETATM   11  C8  UNL     1       6.935 -22.236  -0.474  1.00  0.00    -0.014 C 
HETATM   12  C9  UNL     1       6.966 -23.544   0.259  1.00  0.00     0.004 C 
HETATM   13  C10 UNL     1       7.140 -23.090   1.693  1.00  0.00     0.000 C 
HETATM   14  C11 UNL     1       7.781 -21.719   1.639  1.00  0.00     0.000 C 
HETATM   15  C12 UNL     1       8.064 -21.485   0.147  1.00  0.00     0.004 C 
ENDBRANCH  10  11
ENDBRANCH   9  10
ENDBRANCH   1   9
TORSDOF 7
ENDMDL
MODEL 5
REMARK VINA RESULT: -5.351672413      1.114      1.834
REMARK  7 active torsions:
REMARK  status: ('A' for Active; 'I' for Inactive)
REMARK    1  A    between atoms: C2_2  and  C3_3 
REMARK    2  A    between atoms: C3_3  and  N1_4 
REMARK    3  A    between atoms: N1_4  and  C4_7 
REMARK    4  A    between atoms: C4_7  and  C5_8 
REMARK    5  A    between atoms: C5_8  and  C6_9 
REMARK    6  A    between atoms: C6_9  and  C7_10 
REMARK    7  A    between atoms: C7_10  and  C8_11 
ROOT
HETATM    1  C5  UNL     1       7.289 -21.581   1.509  1.00  0.00     0.027 C 
ENDROOT
BRANCH   1   2
HETATM    2  C4  UNL     1       8.676 -21.016   1.427  1.00  0.00     0.232 C 
BRANCH   2   3
HETATM    3  N1  UNL     1       8.679 -19.608   1.102  1.00  0.00    -0.072 N 
ATOM      4  H12 UNL     1       9.625 -19.225   1.142  1.00  0.00     0.277 HD
ATOM      5  H11 UNL     1       8.248 -19.060   1.846  1.00  0.00     0.277 HD
BRANCH   3   6
HETATM    6  C3  UNL     1       8.065 -19.330  -0.165  1.00  0.00     0.259 C 
BRANCH   6   7
HETATM    7  C2  UNL     1       8.908 -19.716  -1.317  1.00  0.00    -0.010 C 
HETATM    8  C1  UNL     1       8.369 -19.790  -2.516  1.00  0.00     0.008 C 
ENDBRANCH   6   7
ENDBRANCH   3   6
ENDBRANCH   2   3
ENDBRANCH   1   2
BRANCH   1   9
HETATM    9  C6  UNL     1       7.145 -22.911   0.805  1.00  0.00     0.002 C 
BRANCH   9  10
HETATM   10  C7  UNL     1       6.532 -22.743  -0.563  1.00  0.00     0.005 C 
BRANCH  10  11
HETATM   11  C8  UNL     1       7.359 -23.377  -1.645  1.00  0.00    -0.014 C 
HETATM   12  C9  UNL     1       7.365 -24.876  -1.589  1.00  0.00     0.004 C 
HETATM   13  C10 UNL     1       8.011 -25.231  -2.912  1.00  0.00     0.000 C 
HETATM   14  C11 UNL     1       7.776 -24.057  -3.839  1.00  0.00     0.000 C 
HETATM   15  C12 UNL     1       6.883 -23.102  -3.032  1.00  0.00     0.004 C 
ENDBRANCH  10  11
ENDBRANCH   9  10
ENDBRANCH   1   9
TORSDOF 7
ENDMDL
