MODEL 1
REMARK VINA RESULT: -5.380307675      0.000      0.000
REMARK  6 active torsions:
REMARK  status: ('A' for Active; 'I' for Inactive)
REMARK    1  A    between atoms: C3_3  and  C4_4 
REMARK    2  A    between atoms: C4_4  and  C5_5 
REMARK    3  A    between atoms: C5_5  and  N1_6 
REMARK    4  A    between atoms: N1_6  and  C6_9 
REMARK    5  A    between atoms: C6_9  and  C7_10 
REMARK    6  A    between atoms: C7_10  and  C8_11 
ROOT
HETATM    1  C1  UNL     1       7.690 -24.275  -2.172  1.00  0.00     0.012 C 
HETATM    2  C2  UNL     1       7.103 -23.670  -1.308  1.00  0.00    -0.117 C 
HETATM    3  C3  UNL     1       6.365 -22.943  -0.286  1.00  0.00     0.095 C 
ENDROOT
BRANCH   3   4
HETATM    4  C4  UNL     1       7.029 -23.176   1.149  1.00  0.00     0.039 C 
BRANCH   4   5
HETATM    5  C5  UNL     1       7.149 -21.822   1.746  1.00  0.00     0.233 C 
BRANCH   5   6
HETATM    6  N1  UNL     1       8.536 -21.571   2.047  1.00  0.00    -0.075 N 
ATOM      7  H12 UNL     1       8.747 -21.571   3.045  1.00  0.00     0.277 HD
ATOM      8  H11 UNL     1       9.157 -22.339   1.793  1.00  0.00     0.277 HD
BRANCH   6   9
HETATM    9  C6  UNL     1       8.865 -20.266   1.354  1.00  0.00     0.232 C 
BRANCH   9  10
HETATM   10  C7  UNL     1       9.272 -20.588  -0.046  1.00  0.00     0.032 C 
BRANCH  10  11
HETATM   11  C8  UNL     1       8.742 -19.552  -1.034  1.00  0.00    -0.013 C 
HETATM   12  C9  UNL     1       8.120 -20.318  -2.229  1.00  0.00     0.005 C 
HETATM   13  C10 UNL     1       6.925 -19.453  -2.544  1.00  0.00     0.000 C 
HETATM   14  C11 UNL     1       6.331 -19.242  -1.192  1.00  0.00     0.000 C 
HETATM   15  C12 UNL     1       7.549 -18.882  -0.337  1.00  0.00     0.005 C 
ENDBRANCH  10  11
ENDBRANCH   9  10
ENDBRANCH   6   9
ENDBRANCH   5   6
ENDBRANCH   4   5
ENDBRANCH   3   4
TORSDOF 6
ENDMDL
MODEL 2
REMARK VINA RESULT: -5.343745792      2.473      4.451
REMARK  6 active torsions:
REMARK  status: ('A' for Active; 'I' for Inactive)
REMARK    1  A    between atoms: C3_3  and  C4_4 
REMARK    2  A    between atoms: C4_4  and  C5_5 
REMARK    3  A    between atoms: C5_5  and  N1_6 
REMARK    4  A    between atoms: N1_6  and  C6_9 
REMARK    5  A    between atoms: C6_9  and  C7_10 
REMARK    6  A    between atoms: C7_10  and  C8_11 
ROOT
HETATM    1  C1  UNL     1       8.624 -25.578  -2.774  1.00  0.00     0.012 C 
HETATM    2  C2  UNL     1       7.690 -25.240  -3.462  1.00  0.00    -0.117 C 
HETATM    3  C3  UNL     1       6.542 -24.846  -4.263  1.00  0.00     0.095 C 
ENDROOT
BRANCH   3   4
HETATM    4  C4  UNL     1       6.921 -23.610  -5.204  1.00  0.00     0.039 C 
BRANCH   4   5
HETATM    5  C5  UNL     1       6.461 -22.406  -4.467  1.00  0.00     0.233 C 
BRANCH   5   6
HETATM    6  N1  UNL     1       7.613 -21.624  -4.094  1.00  0.00    -0.075 N 
ATOM      7  H12 UNL     1       8.488 -22.149  -4.108  1.00  0.00     0.277 HD
ATOM      8  H11 UNL     1       7.880 -20.929  -4.790  1.00  0.00     0.277 HD
BRANCH   6   9
HETATM    9  C6  UNL     1       7.276 -21.036  -2.741  1.00  0.00     0.232 C 
BRANCH   9  10
HETATM   10  C7  UNL     1       7.737 -22.003  -1.700  1.00  0.00     0.032 C 
BRANCH  10  11
HETATM   11  C8  UNL     1       6.679 -22.205  -0.619  1.00  0.00    -0.013 C 
HETATM   12  C9  UNL     1       6.973 -23.558   0.077  1.00  0.00     0.005 C 
HETATM   13  C10 UNL     1       6.635 -23.232   1.510  1.00  0.00     0.000 C 
HETATM   14  C11 UNL     1       7.347 -21.935   1.708  1.00  0.00     0.000 C 
HETATM   15  C12 UNL     1       6.969 -21.144   0.453  1.00  0.00     0.005 C 
ENDBRANCH  10  11
ENDBRANCH   9  10
ENDBRANCH   6   9
ENDBRANCH   5   6
ENDBRANCH   4   5
ENDBRANCH   3   4
TORSDOF 6
ENDMDL
MODEL 3
REMARK VINA RESULT: -5.329452303      2.716      4.994
REMARK  6 active torsions:
REMARK  status: ('A' for Active; 'I' for Inactive)
REMARK    1  A    between atoms: C3_3  and  C4_4 
REMARK    2  A    between atoms: C4_4  and  C5_5 
REMARK    3  A    between atoms: C5_5  and  N1_6 
REMARK    4  A    between atoms: N1_6  and  C6_9 
REMARK    5  A    between atoms: C6_9  and  C7_10 
REMARK    6  A    between atoms: C7_10  and  C8_11 
ROOT
HETATM    1  C1  UNL     1       6.548 -20.481  -5.186  1.00  0.00     0.012 C 
HETATM    2  C2  UNL     1       6.509 -21.611  -5.611  1.00  0.00    -0.117 C 
HETATM    3  C3  UNL     1       6.476 -22.960  -6.156  1.00  0.00     0.095 C 
ENDROOT
BRANCH   3   4
HETATM    4  C4  UNL     1       6.601 -24.035  -4.979  1.00  0.00     0.039 C 
BRANCH   4   5
HETATM    5  C5  UNL     1       7.861 -23.693  -4.272  1.00  0.00     0.233 C 
BRANCH   5   6
HETATM    6  N1  UNL     1       7.831 -24.287  -2.960  1.00  0.00    -0.075 N 
ATOM      7  H12 UNL     1       7.893 -25.306  -2.968  1.00  0.00     0.277 HD
ATOM      8  H11 UNL     1       8.675 -24.120  -2.414  1.00  0.00     0.277 HD
BRANCH   6   9
HETATM    9  C6  UNL     1       6.569 -23.760  -2.311  1.00  0.00     0.232 C 
BRANCH   9  10
HETATM   10  C7  UNL     1       6.896 -22.437  -1.698  1.00  0.00     0.032 C 
BRANCH  10  11
HETATM   11  C8  UNL     1       6.367 -22.339  -0.270  1.00  0.00    -0.013 C 
HETATM   12  C9  UNL     1       6.880 -23.578   0.507  1.00  0.00     0.005 C 
HETATM   13  C10 UNL     1       7.168 -22.979   1.860  1.00  0.00     0.000 C 
HETATM   14  C11 UNL     1       7.936 -21.751   1.499  1.00  0.00     0.000 C 
HETATM   15  C12 UNL     1       7.101 -21.149   0.366  1.00  0.00     0.005 C 
ENDBRANCH  10  11
ENDBRANCH   9  10
ENDBRANCH   6   9
ENDBRANCH   5   6
ENDBRANCH   4   5
ENDBRANCH   3   4
TORSDOF 6
ENDMDL
MODEL 4
REMARK VINA RESULT: -5.313129456      1.594      4.019
REMARK  6 active torsions:
REMARK  status: ('A' for Active; 'I' for Inactive)
REMARK    1  A    between atoms: C3_3  and  C4_4 
REMARK    2  A    between atoms: C4_4  and  C5_5 
REMARK    3  A    between atoms: C5_5  and  N1_6 
REMARK    4  A    between atoms: N1_6  and  C6_9 
REMARK    5  A    between atoms: C6_9  and  C7_10 
REMARK    6  A    between atoms: C7_10  and  C8_11 
ROOT
HETATM    1  C1  UNL     1       5.037 -21.860   1.093  1.00  0.00     0.012 C 
HETATM    2  C2  UNL     1       6.210 -21.974   1.360  1.00  0.00    -0.117 C 
HETATM    3  C3  UNL     1       7.620 -22.149   1.673  1.00  0.00     0.095 C 
ENDROOT
BRANCH   3   4
HETATM    4  C4  UNL     1       8.423 -20.797   1.383  1.00  0.00     0.039 C 
BRANCH   4   5
HETATM    5  C5  UNL     1       8.724 -20.827  -0.071  1.00  0.00     0.233 C 
BRANCH   5   6
HETATM    6  N1  UNL     1       8.018 -19.746  -0.711  1.00  0.00    -0.075 N 
ATOM      7  H12 UNL     1       7.513 -19.143  -0.062  1.00  0.00     0.277 HD
ATOM      8  H11 UNL     1       8.631 -19.025  -1.092  1.00  0.00     0.277 HD
BRANCH   6   9
HETATM    9  C6  UNL     1       7.132 -20.405  -1.746  1.00  0.00     0.232 C 
BRANCH   9  10
HETATM   10  C7  UNL     1       7.804 -21.667  -2.179  1.00  0.00     0.032 C 
BRANCH  10  11
HETATM   11  C8  UNL     1       6.791 -22.781  -2.429  1.00  0.00    -0.013 C 
HETATM   12  C9  UNL     1       6.939 -23.226  -3.906  1.00  0.00     0.005 C 
HETATM   13  C10 UNL     1       6.729 -24.715  -3.788  1.00  0.00     0.000 C 
HETATM   14  C11 UNL     1       7.618 -25.062  -2.640  1.00  0.00     0.000 C 
HETATM   15  C12 UNL     1       7.280 -23.983  -1.609  1.00  0.00     0.005 C 
ENDBRANCH  10  11
ENDBRANCH   9  10
ENDBRANCH   6   9
ENDBRANCH   5   6
ENDBRANCH   4   5
ENDBRANCH   3   4
TORSDOF 6
ENDMDL
MODEL 5
REMARK VINA RESULT: -5.235693635      2.026      3.755
REMARK  6 active torsions:
REMARK  status: ('A' for Active; 'I' for Inactive)
REMARK    1  A    between atoms: C3_3  and  C4_4 
REMARK    2  A    between atoms: C4_4  and  C5_5 
REMARK    3  A    between atoms: C5_5  and  N1_6 
REMARK    4  A    between atoms: N1_6  and  C6_9 
REMARK    5  A    between atoms: C6_9  and  C7_10 
REMARK    6  A    between atoms: C7_10  and  C8_11 
ROOT
HETATM    1  C1  UNL     1       7.267 -24.521  -1.701  1.00  0.00     0.012 C 
HETATM    2  C2  UNL     1       6.909 -23.842  -2.633  1.00  0.00    -0.117 C 
HETATM    3  C3  UNL     1       6.440 -23.029  -3.745  1.00  0.00     0.095 C 
ENDROOT
BRANCH   3   4
HETATM    4  C4  UNL     1       7.535 -21.929  -4.126  1.00  0.00     0.039 C 
BRANCH   4   5
HETATM    5  C5  UNL     1       7.221 -20.755  -3.271  1.00  0.00     0.233 C 
BRANCH   5   6
HETATM    6  N1  UNL     1       8.457 -20.155  -2.837  1.00  0.00    -0.075 N 
ATOM      7  H12 UNL     1       9.276 -20.745  -2.989  1.00  0.00     0.277 HD
ATOM      8  H11 UNL     1       8.762 -19.376  -3.420  1.00  0.00     0.277 HD
BRANCH   6   9
HETATM    9  C6  UNL     1       8.233 -19.783  -1.387  1.00  0.00     0.232 C 
BRANCH   9  10
HETATM   10  C7  UNL     1       8.270 -21.043  -0.586  1.00  0.00     0.032 C 
BRANCH  10  11
HETATM   11  C8  UNL     1       7.322 -20.974   0.607  1.00  0.00    -0.013 C 
HETATM   12  C9  UNL     1       5.892 -21.265   0.088  1.00  0.00     0.005 C 
HETATM   13  C10 UNL     1       5.324 -22.076   1.225  1.00  0.00     0.000 C 
HETATM   14  C11 UNL     1       6.416 -23.061   1.479  1.00  0.00     0.000 C 
HETATM   15  C12 UNL     1       7.670 -22.183   1.488  1.00  0.00     0.005 C 
ENDBRANCH  10  11
ENDBRANCH   9  10
ENDBRANCH   6   9
ENDBRANCH   5   6
ENDBRANCH   4   5
ENDBRANCH   3   4
TORSDOF 6
ENDMDL
