MODEL 1
REMARK VINA RESULT: -9.451206726      0.000      0.000
REMARK  4 active torsions:
REMARK  status: ('A' for Active; 'I' for Inactive)
REMARK    1  A    between atoms: C9_12  and  N3_13 
REMARK    2  A    between atoms: N3_13  and  C10_15 
REMARK    3  A    between atoms: C15_20  and  O1_21 
REMARK    4  A    between atoms: O1_21  and  C16_22 
ROOT
HETATM    1  N3  UNL     1      -7.825  18.901  14.024  1.00  0.00    -0.361 N 
ATOM      2  H3  UNL     1      -7.842  19.062  15.031  1.00  0.00     0.162 HD
ENDROOT
BRANCH   1   3
HETATM    3  C9  UNL     1      -8.297  17.635  13.631  1.00  0.00     0.241 A 
HETATM    4  C3  UNL     1      -8.075  16.506  14.542  1.00  0.00     0.050 A 
HETATM    5  C2  UNL     1      -7.009  16.190  15.233  1.00  0.00    -0.002 C 
HETATM    6  N1  UNL     1      -9.300  15.756  14.548  1.00  0.00    -0.343 N 
HETATM    7  C1  UNL     1      -5.799  17.022  15.161  1.00  0.00     0.038 C 
HETATM    8  C4  UNL     1     -10.238  16.446  13.728  1.00  0.00     0.110 A 
ATOM      9  H1  UNL     1      -9.468  14.885  15.050  1.00  0.00     0.167 HD
HETATM   10  C5  UNL     1     -11.543  16.374  13.301  1.00  0.00     0.051 A 
HETATM   11  N2  UNL     1      -9.685  17.554  13.219  1.00  0.00    -0.310 N 
HETATM   12  C6  UNL     1     -11.768  17.483  12.513  1.00  0.00     0.028 A 
HETATM   13  C7  UNL     1     -10.605  18.186  12.484  1.00  0.00     0.012 A 
HETATM   14  C8  UNL     1     -10.459  19.475  11.715  1.00  0.00     0.068 C 
ENDBRANCH   1   3
BRANCH   1  15
HETATM   15  C10 UNL     1      -7.337  19.979  13.273  1.00  0.00     0.064 A 
HETATM   16  C11 UNL     1      -6.739  19.793  12.049  1.00  0.00     0.032 A 
HETATM   17  C12 UNL     1      -6.287  20.914  11.371  1.00  0.00     0.002 A 
HETATM   18  C13 UNL     1      -6.396  22.200  11.838  1.00  0.00     0.003 A 
HETATM   19  C14 UNL     1      -6.999  22.356  13.066  1.00  0.00     0.039 A 
HETATM   20  C15 UNL     1      -7.462  21.275  13.773  1.00  0.00     0.102 A 
BRANCH  20  21
HETATM   21  O1  UNL     1      -8.057  21.522  15.002  1.00  0.00    -0.309 OA
BRANCH  21  22
HETATM   22  C16 UNL     1      -7.337  21.875  16.129  1.00  0.00     0.076 A 
HETATM   23  C17 UNL     1      -7.700  23.006  16.841  1.00  0.00     0.037 A 
HETATM   24  C18 UNL     1      -7.008  23.401  17.979  1.00  0.00     0.003 A 
HETATM   25  C19 UNL     1      -5.932  22.661  18.427  1.00  0.00     0.000 A 
HETATM   26  C20 UNL     1      -5.555  21.544  17.745  1.00  0.00     0.003 A 
HETATM   27  C21 UNL     1      -6.257  21.160  16.604  1.00  0.00     0.037 A 
ENDBRANCH  21  22
ENDBRANCH  20  21
ENDBRANCH   1  15
TORSDOF 4
ENDMDL
MODEL 2
REMARK VINA RESULT: -9.330854392      1.776      3.667
REMARK  4 active torsions:
REMARK  status: ('A' for Active; 'I' for Inactive)
REMARK    1  A    between atoms: C9_12  and  N3_13 
REMARK    2  A    between atoms: N3_13  and  C10_15 
REMARK    3  A    between atoms: C15_20  and  O1_21 
REMARK    4  A    between atoms: O1_21  and  C16_22 
ROOT
HETATM    1  N3  UNL     1      -7.551  20.441  13.586  1.00  0.00    -0.361 N 
ATOM      2  H3  UNL     1      -7.416  21.292  14.131  1.00  0.00     0.162 HD
ENDROOT
BRANCH   1   3
HETATM    3  C9  UNL     1      -8.309  20.616  12.413  1.00  0.00     0.241 A 
HETATM    4  C3  UNL     1      -7.597  20.983  11.184  1.00  0.00     0.050 A 
HETATM    5  C2  UNL     1      -6.631  21.849  11.008  1.00  0.00    -0.002 C 
HETATM    6  N1  UNL     1      -8.175  20.187  10.138  1.00  0.00    -0.343 N 
HETATM    7  C1  UNL     1      -6.103  22.620  12.143  1.00  0.00     0.038 C 
HETATM    8  C4  UNL     1      -9.146  19.329  10.730  1.00  0.00     0.110 A 
ATOM      9  H1  UNL     1      -7.934  20.228   9.148  1.00  0.00     0.167 HD
HETATM   10  C5  UNL     1     -10.028  18.326  10.404  1.00  0.00     0.051 A 
HETATM   11  N2  UNL     1      -9.210  19.539  12.051  1.00  0.00    -0.310 N 
HETATM   12  C6  UNL     1     -10.633  17.929  11.579  1.00  0.00     0.028 A 
HETATM   13  C7  UNL     1     -10.107  18.695  12.571  1.00  0.00     0.012 A 
HETATM   14  C8  UNL     1     -10.525  18.551  14.012  1.00  0.00     0.068 C 
ENDBRANCH   1   3
BRANCH   1  15
HETATM   15  C10 UNL     1      -6.950  19.300  14.136  1.00  0.00     0.064 A 
HETATM   16  C11 UNL     1      -6.168  18.462  13.378  1.00  0.00     0.032 A 
HETATM   17  C12 UNL     1      -5.609  17.357  14.002  1.00  0.00     0.002 A 
HETATM   18  C13 UNL     1      -5.782  17.043  15.327  1.00  0.00     0.003 A 
HETATM   19  C14 UNL     1      -6.570  17.901  16.060  1.00  0.00     0.039 A 
HETATM   20  C15 UNL     1      -7.145  19.006  15.485  1.00  0.00     0.102 A 
BRANCH  20  21
HETATM   21  O1  UNL     1      -7.924  19.817  16.298  1.00  0.00    -0.309 OA
BRANCH  21  22
HETATM   22  C16 UNL     1      -7.403  20.861  17.041  1.00  0.00     0.076 A 
HETATM   23  C17 UNL     1      -8.263  21.714  17.711  1.00  0.00     0.037 A 
HETATM   24  C18 UNL     1      -7.787  22.776  18.470  1.00  0.00     0.003 A 
HETATM   25  C19 UNL     1      -6.428  23.002  18.571  1.00  0.00     0.000 A 
HETATM   26  C20 UNL     1      -5.561  22.177  17.922  1.00  0.00     0.003 A 
HETATM   27  C21 UNL     1      -6.052  21.115  17.163  1.00  0.00     0.037 A 
ENDBRANCH  21  22
ENDBRANCH  20  21
ENDBRANCH   1  15
TORSDOF 4
ENDMDL
MODEL 3
REMARK VINA RESULT: -9.197516895      0.819      1.250
REMARK  4 active torsions:
REMARK  status: ('A' for Active; 'I' for Inactive)
REMARK    1  A    between atoms: C9_12  and  N3_13 
REMARK    2  A    between atoms: N3_13  and  C10_15 
REMARK    3  A    between atoms: C15_20  and  O1_21 
REMARK    4  A    between atoms: O1_21  and  C16_22 
ROOT
HETATM    1  N3  UNL     1      -7.897  19.175  13.530  1.00  0.00    -0.361 N 
ATOM      2  H3  UNL     1      -8.355  19.314  14.431  1.00  0.00     0.162 HD
ENDROOT
BRANCH   1   3
HETATM    3  C9  UNL     1      -7.943  17.852  13.052  1.00  0.00     0.241 A 
HETATM    4  C3  UNL     1      -7.681  16.768  14.007  1.00  0.00     0.050 A 
HETATM    5  C2  UNL     1      -6.768  16.683  14.940  1.00  0.00    -0.002 C 
HETATM    6  N1  UNL     1      -8.655  15.751  13.726  1.00  0.00    -0.343 N 
HETATM    7  C1  UNL     1      -5.812  17.780  15.153  1.00  0.00     0.038 C 
HETATM    8  C4  UNL     1      -9.507  16.235  12.692  1.00  0.00     0.110 A 
ATOM      9  H1  UNL     1      -8.724  14.842  14.185  1.00  0.00     0.167 HD
HETATM   10  C5  UNL     1     -10.615  15.875  11.962  1.00  0.00     0.051 A 
HETATM   11  N2  UNL     1      -9.130  17.464  12.317  1.00  0.00    -0.310 N 
HETATM   12  C6  UNL     1     -10.903  16.934  11.127  1.00  0.00     0.028 A 
HETATM   13  C7  UNL     1      -9.971  17.893  11.371  1.00  0.00     0.012 A 
HETATM   14  C8  UNL     1      -9.959  19.213  10.642  1.00  0.00     0.068 C 
ENDBRANCH   1   3
BRANCH   1  15
HETATM   15  C10 UNL     1      -7.331  20.336  12.984  1.00  0.00     0.064 A 
HETATM   16  C11 UNL     1      -6.702  20.324  11.762  1.00  0.00     0.032 A 
HETATM   17  C12 UNL     1      -6.173  21.517  11.294  1.00  0.00     0.002 A 
HETATM   18  C13 UNL     1      -6.235  22.711  11.967  1.00  0.00     0.003 A 
HETATM   19  C14 UNL     1      -6.871  22.692  13.188  1.00  0.00     0.039 A 
HETATM   20  C15 UNL     1      -7.410  21.535  13.691  1.00  0.00     0.102 A 
BRANCH  20  21
HETATM   21  O1  UNL     1      -8.034  21.605  14.929  1.00  0.00    -0.309 OA
BRANCH  21  22
HETATM   22  C16 UNL     1      -7.370  21.970  16.086  1.00  0.00     0.076 A 
HETATM   23  C17 UNL     1      -6.292  21.216  16.518  1.00  0.00     0.037 A 
HETATM   24  C18 UNL     1      -5.595  21.542  17.674  1.00  0.00     0.003 A 
HETATM   25  C19 UNL     1      -5.969  22.641  18.423  1.00  0.00     0.000 A 
HETATM   26  C20 UNL     1      -7.026  23.399  18.020  1.00  0.00     0.003 A 
HETATM   27  C21 UNL     1      -7.718  23.060  16.858  1.00  0.00     0.037 A 
ENDBRANCH  21  22
ENDBRANCH  20  21
ENDBRANCH   1  15
TORSDOF 4
ENDMDL
MODEL 4
REMARK VINA RESULT: -8.988557805      2.680      5.408
REMARK  4 active torsions:
REMARK  status: ('A' for Active; 'I' for Inactive)
REMARK    1  A    between atoms: C9_12  and  N3_13 
REMARK    2  A    between atoms: N3_13  and  C10_15 
REMARK    3  A    between atoms: C15_20  and  O1_21 
REMARK    4  A    between atoms: O1_21  and  C16_22 
ROOT
HETATM    1  N3  UNL     1      -6.853  21.539  15.672  1.00  0.00    -0.361 N 
ATOM      2  H3  UNL     1      -5.983  21.125  15.338  1.00  0.00     0.162 HD
ENDROOT
BRANCH   1   3
HETATM    3  C9  UNL     1      -7.438  20.863  16.759  1.00  0.00     0.241 A 
HETATM    4  C3  UNL     1      -7.370  21.499  18.080  1.00  0.00     0.050 A 
HETATM    5  C2  UNL     1      -6.370  22.115  18.657  1.00  0.00    -0.002 C 
HETATM    6  N1  UNL     1      -8.665  21.318  18.674  1.00  0.00    -0.343 N 
HETATM    7  C1  UNL     1      -5.078  22.250  17.968  1.00  0.00     0.038 C 
HETATM    8  C4  UNL     1      -9.495  20.662  17.720  1.00  0.00     0.110 A 
ATOM      9  H1  UNL     1      -8.942  21.608  19.611  1.00  0.00     0.167 HD
HETATM   10  C5  UNL     1     -10.783  20.212  17.551  1.00  0.00     0.051 A 
HETATM   11  N2  UNL     1      -8.810  20.425  16.593  1.00  0.00    -0.310 N 
HETATM   12  C6  UNL     1     -10.860  19.691  16.276  1.00  0.00     0.028 A 
HETATM   13  C7  UNL     1      -9.630  19.838  15.716  1.00  0.00     0.012 A 
HETATM   14  C8  UNL     1      -9.322  19.383  14.312  1.00  0.00     0.068 C 
ENDBRANCH   1   3
BRANCH   1  15
HETATM   15  C10 UNL     1      -7.258  22.683  14.969  1.00  0.00     0.064 A 
HETATM   16  C11 UNL     1      -7.912  23.718  15.593  1.00  0.00     0.032 A 
HETATM   17  C12 UNL     1      -8.274  24.813  14.825  1.00  0.00     0.002 A 
HETATM   18  C13 UNL     1      -8.022  24.936  13.481  1.00  0.00     0.003 A 
HETATM   19  C14 UNL     1      -7.365  23.884  12.883  1.00  0.00     0.039 A 
HETATM   20  C15 UNL     1      -6.988  22.780  13.605  1.00  0.00     0.102 A 
BRANCH  20  21
HETATM   21  O1  UNL     1      -6.330  21.766  12.924  1.00  0.00    -0.309 OA
BRANCH  21  22
HETATM   22  C16 UNL     1      -6.974  20.894  12.065  1.00  0.00     0.076 A 
HETATM   23  C17 UNL     1      -6.396  19.668  11.780  1.00  0.00     0.037 A 
HETATM   24  C18 UNL     1      -7.005  18.760  10.924  1.00  0.00     0.003 A 
HETATM   25  C19 UNL     1      -8.216  19.066  10.336  1.00  0.00     0.000 A 
HETATM   26  C20 UNL     1      -8.807  20.264  10.601  1.00  0.00     0.003 A 
HETATM   27  C21 UNL     1      -8.184  21.168  11.461  1.00  0.00     0.037 A 
ENDBRANCH  21  22
ENDBRANCH  20  21
ENDBRANCH   1  15
TORSDOF 4
ENDMDL
MODEL 5
REMARK VINA RESULT: -8.866400541      1.840      3.774
REMARK  4 active torsions:
REMARK  status: ('A' for Active; 'I' for Inactive)
REMARK    1  A    between atoms: C9_12  and  N3_13 
REMARK    2  A    between atoms: N3_13  and  C10_15 
REMARK    3  A    between atoms: C15_20  and  O1_21 
REMARK    4  A    between atoms: O1_21  and  C16_22 
ROOT
HETATM    1  N3  UNL     1      -9.133  18.525  13.145  1.00  0.00    -0.361 N 
ATOM      2  H3  UNL     1      -8.707  19.019  12.361  1.00  0.00     0.162 HD
ENDROOT
BRANCH   1   3
HETATM    3  C9  UNL     1      -9.570  17.221  12.842  1.00  0.00     0.241 A 
HETATM    4  C3  UNL     1      -8.926  16.102  13.540  1.00  0.00     0.050 A 
HETATM    5  C2  UNL     1      -7.660  15.904  13.805  1.00  0.00    -0.002 C 
HETATM    6  N1  UNL     1      -9.984  15.202  13.903  1.00  0.00    -0.343 N 
HETATM    7  C1  UNL     1      -6.647  16.886  13.391  1.00  0.00     0.038 C 
HETATM    8  C4  UNL     1     -11.217  15.791  13.501  1.00  0.00     0.110 A 
ATOM      9  H1  UNL     1      -9.873  14.300  14.368  1.00  0.00     0.167 HD
HETATM   10  C5  UNL     1     -12.573  15.566  13.535  1.00  0.00     0.051 A 
HETATM   11  N2  UNL     1     -10.997  16.977  12.918  1.00  0.00    -0.310 N 
HETATM   12  C6  UNL     1     -13.174  16.661  12.952  1.00  0.00     0.028 A 
HETATM   13  C7  UNL     1     -12.177  17.509  12.584  1.00  0.00     0.012 A 
HETATM   14  C8  UNL     1     -12.446  18.829  11.908  1.00  0.00     0.068 C 
ENDBRANCH   1   3
BRANCH   1  15
HETATM   15  C10 UNL     1      -9.183  19.262  14.337  1.00  0.00     0.064 A 
HETATM   16  C11 UNL     1     -10.244  19.160  15.204  1.00  0.00     0.032 A 
HETATM   17  C12 UNL     1     -10.211  19.922  16.361  1.00  0.00     0.002 A 
HETATM   18  C13 UNL     1      -9.189  20.772  16.702  1.00  0.00     0.003 A 
HETATM   19  C14 UNL     1      -8.139  20.853  15.815  1.00  0.00     0.039 A 
HETATM   20  C15 UNL     1      -8.129  20.118  14.657  1.00  0.00     0.102 A 
BRANCH  20  21
HETATM   21  O1  UNL     1      -7.032  20.260  13.819  1.00  0.00    -0.309 OA
BRANCH  21  22
HETATM   22  C16 UNL     1      -6.910  21.292  12.907  1.00  0.00     0.076 A 
HETATM   23  C17 UNL     1      -6.749  20.997  11.563  1.00  0.00     0.037 A 
HETATM   24  C18 UNL     1      -6.623  21.998  10.610  1.00  0.00     0.003 A 
HETATM   25  C19 UNL     1      -6.657  23.325  10.990  1.00  0.00     0.000 A 
HETATM   26  C20 UNL     1      -6.814  23.643  12.304  1.00  0.00     0.003 A 
HETATM   27  C21 UNL     1      -6.939  22.627  13.252  1.00  0.00     0.037 A 
ENDBRANCH  21  22
ENDBRANCH  20  21
ENDBRANCH   1  15
TORSDOF 4
ENDMDL
