MODEL 1
REMARK VINA RESULT: -10.025205840      0.000      0.000
REMARK  3 active torsions:
REMARK  status: ('A' for Active; 'I' for Inactive)
REMARK    1  A    between atoms: C10_10  and  C11_11 
REMARK    2  A    between atoms: C13_13  and  O1_14 
REMARK    3  A    between atoms: O1_14  and  C14_15 
ROOT
HETATM    1  C1  UNL     1      -8.060  25.643  13.424  1.00  0.00     0.038 C 
HETATM    2  C2  UNL     1      -7.793  25.468  14.856  1.00  0.00    -0.002 C 
HETATM    3  C3  UNL     1      -7.613  24.272  15.423  1.00  0.00     0.029 A 
HETATM    4  C4  UNL     1      -7.351  24.157  16.851  1.00  0.00     0.037 A 
HETATM    5  C5  UNL     1      -7.168  22.989  17.448  1.00  0.00    -0.046 A 
HETATM    6  C6  UNL     1      -6.912  22.945  18.869  1.00  0.00     0.049 C 
HETATM    7  C7  UNL     1      -7.230  21.774  16.657  1.00  0.00     0.014 A 
HETATM    8  C8  UNL     1      -7.040  20.574  17.283  1.00  0.00     0.018 A 
HETATM    9  C9  UNL     1      -7.101  19.426  16.519  1.00  0.00     0.033 A 
HETATM   10  C10 UNL     1      -7.345  19.458  15.165  1.00  0.00     0.060 A 
HETATM   11  N2  UNL     1      -7.529  20.648  14.572  1.00  0.00    -0.340 N 
ATOM     12  H2  UNL     1      -7.711  20.693  13.569  1.00  0.00     0.167 HD
HETATM   13  C21 UNL     1      -7.473  21.781  15.295  1.00  0.00     0.117 A 
HETATM   14  N3  UNL     1      -7.668  23.067  14.674  1.00  0.00    -0.342 N 
ATOM     15  H3  UNL     1      -7.850  23.112  13.671  1.00  0.00     0.167 HD
ENDROOT
BRANCH  10  16
HETATM   16  C11 UNL     1      -7.392  18.199  14.442  1.00  0.00     0.061 A 
HETATM   17  C12 UNL     1      -8.406  17.270  14.611  1.00  0.00     0.069 A 
HETATM   18  C13 UNL     1      -8.469  16.077  13.942  1.00  0.00     0.079 A 
HETATM   19  C19 UNL     1      -7.442  15.799  13.039  1.00  0.00     0.054 A 
HETATM   20  C20 UNL     1      -6.444  16.726  12.881  1.00  0.00     0.091 A 
HETATM   21  N1  UNL     1      -6.432  17.877  13.563  1.00  0.00    -0.364 N 
ATOM     22  H1  UNL     1      -5.666  18.533  13.409  1.00  0.00     0.165 HD
BRANCH  18  23
HETATM   23  O1  UNL     1      -9.516  15.210  14.171  1.00  0.00    -0.311 OA
BRANCH  23  24
HETATM   24  C14 UNL     1     -10.660  15.176  13.415  1.00  0.00     0.072 A 
HETATM   25  C15 UNL     1     -11.729  15.927  13.671  1.00  0.00     0.014 A 
HETATM   26  C16 UNL     1     -12.792  15.672  12.690  1.00  0.00     0.057 A 
HETATM   27  C17 UNL     1     -12.197  14.649  11.801  1.00  0.00    -0.020 A 
HETATM   28  C18 UNL     1     -10.987  14.388  12.235  1.00  0.00     0.033 A 
ENDBRANCH  23  24
ENDBRANCH  18  23
ENDBRANCH  10  16
TORSDOF 3
ENDMDL
MODEL 2
REMARK VINA RESULT: -9.668899051      2.465      8.099
REMARK  3 active torsions:
REMARK  status: ('A' for Active; 'I' for Inactive)
REMARK    1  A    between atoms: C10_10  and  C11_11 
REMARK    2  A    between atoms: C13_13  and  O1_14 
REMARK    3  A    between atoms: O1_14  and  C14_15 
ROOT
HETATM    1  C1  UNL     1     -13.537  16.178  13.344  1.00  0.00     0.038 C 
HETATM    2  C2  UNL     1     -12.255  15.622  12.898  1.00  0.00    -0.002 C 
HETATM    3  C3  UNL     1     -11.075  16.135  13.252  1.00  0.00     0.029 A 
HETATM    4  C4  UNL     1      -9.832  15.541  12.779  1.00  0.00     0.037 A 
HETATM    5  C5  UNL     1      -8.643  16.022  13.109  1.00  0.00    -0.046 A 
HETATM    6  C6  UNL     1      -7.448  15.385  12.604  1.00  0.00     0.049 C 
HETATM    7  C7  UNL     1      -8.567  17.185  13.974  1.00  0.00     0.014 A 
HETATM    8  C8  UNL     1      -7.335  17.673  14.308  1.00  0.00     0.018 A 
HETATM    9  C9  UNL     1      -7.277  18.780  15.132  1.00  0.00     0.033 A 
HETATM   10  C10 UNL     1      -8.409  19.393  15.617  1.00  0.00     0.060 A 
HETATM   11  N2  UNL     1      -9.608  18.896  15.275  1.00  0.00    -0.340 N 
ATOM     12  H2  UNL     1     -10.459  19.337  15.625  1.00  0.00     0.167 HD
HETATM   13  C21 UNL     1      -9.691  17.819  14.474  1.00  0.00     0.117 A 
HETATM   14  N3  UNL     1     -10.969  17.272  14.097  1.00  0.00    -0.342 N 
ATOM     15  H3  UNL     1     -11.821  17.713  14.446  1.00  0.00     0.167 HD
ENDROOT
BRANCH  10  16
HETATM   16  C11 UNL     1      -8.250  20.553  16.478  1.00  0.00     0.061 A 
HETATM   17  C12 UNL     1      -7.672  21.736  16.049  1.00  0.00     0.069 A 
HETATM   18  C13 UNL     1      -7.511  22.841  16.843  1.00  0.00     0.079 A 
HETATM   19  C19 UNL     1      -7.965  22.749  18.159  1.00  0.00     0.054 A 
HETATM   20  C20 UNL     1      -8.535  21.571  18.572  1.00  0.00     0.091 A 
HETATM   21  N1  UNL     1      -8.666  20.523  17.752  1.00  0.00    -0.364 N 
ATOM     22  H1  UNL     1      -9.098  19.670  18.108  1.00  0.00     0.165 HD
BRANCH  18  23
HETATM   23  O1  UNL     1      -6.924  23.979  16.334  1.00  0.00    -0.311 OA
BRANCH  23  24
HETATM   24  C14 UNL     1      -7.300  24.571  15.155  1.00  0.00     0.072 A 
HETATM   25  C15 UNL     1      -8.376  25.345  15.036  1.00  0.00     0.014 A 
HETATM   26  C16 UNL     1      -8.518  25.832  13.657  1.00  0.00     0.057 A 
HETATM   27  C17 UNL     1      -7.357  25.230  12.963  1.00  0.00    -0.020 A 
HETATM   28  C18 UNL     1      -6.684  24.521  13.837  1.00  0.00     0.033 A 
ENDBRANCH  23  24
ENDBRANCH  18  23
ENDBRANCH  10  16
TORSDOF 3
ENDMDL
MODEL 3
REMARK VINA RESULT: -9.530928547      1.076      1.316
REMARK  3 active torsions:
REMARK  status: ('A' for Active; 'I' for Inactive)
REMARK    1  A    between atoms: C10_10  and  C11_11 
REMARK    2  A    between atoms: C13_13  and  O1_14 
REMARK    3  A    between atoms: O1_14  and  C14_15 
ROOT
HETATM    1  C1  UNL     1      -6.936  25.251  12.817  1.00  0.00     0.038 C 
HETATM    2  C2  UNL     1      -7.027  25.296  14.280  1.00  0.00    -0.002 C 
HETATM    3  C3  UNL     1      -7.187  24.206  15.034  1.00  0.00     0.029 A 
HETATM    4  C4  UNL     1      -7.272  24.310  16.484  1.00  0.00     0.037 A 
HETATM    5  C5  UNL     1      -7.430  23.251  17.265  1.00  0.00    -0.046 A 
HETATM    6  C6  UNL     1      -7.507  23.424  18.697  1.00  0.00     0.049 C 
HETATM    7  C7  UNL     1      -7.525  21.936  16.660  1.00  0.00     0.014 A 
HETATM    8  C8  UNL     1      -7.688  20.850  17.474  1.00  0.00     0.018 A 
HETATM    9  C9  UNL     1      -7.776  19.605  16.886  1.00  0.00     0.033 A 
HETATM   10  C10 UNL     1      -7.704  19.430  15.523  1.00  0.00     0.060 A 
HETATM   11  N2  UNL     1      -7.543  20.510  14.743  1.00  0.00    -0.340 N 
ATOM     12  H2  UNL     1      -7.488  20.402  13.730  1.00  0.00     0.167 HD
HETATM   13  C21 UNL     1      -7.455  21.736  15.292  1.00  0.00     0.117 A 
HETATM   14  N3  UNL     1      -7.282  22.906  14.470  1.00  0.00    -0.342 N 
ATOM     15  H3  UNL     1      -7.227  22.798  13.457  1.00  0.00     0.167 HD
ENDROOT
BRANCH  10  16
HETATM   16  C11 UNL     1      -7.806  18.081  14.994  1.00  0.00     0.061 A 
HETATM   17  C12 UNL     1      -8.696  17.730  13.993  1.00  0.00     0.069 A 
HETATM   18  C13 UNL     1      -8.810  16.465  13.479  1.00  0.00     0.079 A 
HETATM   19  C19 UNL     1      -7.969  15.486  14.010  1.00  0.00     0.054 A 
HETATM   20  C20 UNL     1      -7.092  15.847  15.001  1.00  0.00     0.091 A 
HETATM   21  N1  UNL     1      -7.024  17.100  15.465  1.00  0.00    -0.364 N 
ATOM     22  H1  UNL     1      -6.354  17.316  16.203  1.00  0.00     0.165 HD
BRANCH  18  23
HETATM   23  O1  UNL     1      -9.725  16.203  12.482  1.00  0.00    -0.311 OA
BRANCH  23  24
HETATM   24  C14 UNL     1     -11.084  16.219  12.669  1.00  0.00     0.072 A 
HETATM   25  C15 UNL     1     -11.789  15.142  13.008  1.00  0.00     0.014 A 
HETATM   26  C16 UNL     1     -13.215  15.471  13.135  1.00  0.00     0.057 A 
HETATM   27  C17 UNL     1     -13.259  16.916  12.820  1.00  0.00    -0.020 A 
HETATM   28  C18 UNL     1     -12.037  17.314  12.560  1.00  0.00     0.033 A 
ENDBRANCH  23  24
ENDBRANCH  18  23
ENDBRANCH  10  16
TORSDOF 3
ENDMDL
MODEL 4
REMARK VINA RESULT: -9.451700421      1.951      3.155
REMARK  3 active torsions:
REMARK  status: ('A' for Active; 'I' for Inactive)
REMARK    1  A    between atoms: C10_10  and  C11_11 
REMARK    2  A    between atoms: C13_13  and  O1_14 
REMARK    3  A    between atoms: O1_14  and  C14_15 
ROOT
HETATM    1  C1  UNL     1      -7.686  25.188  15.839  1.00  0.00     0.038 C 
HETATM    2  C2  UNL     1      -7.363  25.133  14.409  1.00  0.00    -0.002 C 
HETATM    3  C3  UNL     1      -7.180  23.989  13.746  1.00  0.00     0.029 A 
HETATM    4  C4  UNL     1      -6.860  23.995  12.325  1.00  0.00     0.037 A 
HETATM    5  C5  UNL     1      -6.671  22.881  11.634  1.00  0.00    -0.046 A 
HETATM    6  C6  UNL     1      -6.356  22.957  10.226  1.00  0.00     0.049 C 
HETATM    7  C7  UNL     1      -6.783  21.602  12.312  1.00  0.00     0.014 A 
HETATM    8  C8  UNL     1      -6.587  20.459  11.590  1.00  0.00     0.018 A 
HETATM    9  C9  UNL     1      -6.697  19.250  12.247  1.00  0.00     0.033 A 
HETATM   10  C10 UNL     1      -6.995  19.167  13.587  1.00  0.00     0.060 A 
HETATM   11  N2  UNL     1      -7.185  20.303  14.276  1.00  0.00    -0.340 N 
ATOM     12  H2  UNL     1      -7.407  20.263  15.271  1.00  0.00     0.167 HD
HETATM   13  C21 UNL     1      -7.083  21.494  13.658  1.00  0.00     0.117 A 
HETATM   14  N3  UNL     1      -7.284  22.724  14.383  1.00  0.00    -0.342 N 
ATOM     15  H3  UNL     1      -7.506  22.684  15.378  1.00  0.00     0.167 HD
ENDROOT
BRANCH  10  16
HETATM   16  C11 UNL     1      -7.091  17.850  14.193  1.00  0.00     0.061 A 
HETATM   17  C12 UNL     1      -8.209  17.042  14.065  1.00  0.00     0.069 A 
HETATM   18  C13 UNL     1      -8.321  15.797  14.628  1.00  0.00     0.079 A 
HETATM   19  C19 UNL     1      -7.233  15.335  15.369  1.00  0.00     0.054 A 
HETATM   20  C20 UNL     1      -6.132  16.145  15.488  1.00  0.00     0.091 A 
HETATM   21  N1  UNL     1      -6.078  17.353  14.916  1.00  0.00    -0.364 N 
ATOM     22  H1  UNL     1      -5.236  17.917  15.036  1.00  0.00     0.165 HD
BRANCH  18  23
HETATM   23  O1  UNL     1      -9.472  15.059  14.450  1.00  0.00    -0.311 OA
BRANCH  23  24
HETATM   24  C14 UNL     1     -10.421  15.342  13.502  1.00  0.00     0.072 A 
HETATM   25  C15 UNL     1     -10.354  14.905  12.246  1.00  0.00     0.014 A 
HETATM   26  C16 UNL     1     -11.512  15.369  11.470  1.00  0.00     0.057 A 
HETATM   27  C17 UNL     1     -12.289  16.154  12.456  1.00  0.00    -0.020 A 
HETATM   28  C18 UNL     1     -11.648  16.120  13.599  1.00  0.00     0.033 A 
ENDBRANCH  23  24
ENDBRANCH  18  23
ENDBRANCH  10  16
TORSDOF 3
ENDMDL
MODEL 5
REMARK VINA RESULT: -9.317579702      2.892      8.299
REMARK  3 active torsions:
REMARK  status: ('A' for Active; 'I' for Inactive)
REMARK    1  A    between atoms: C10_10  and  C11_11 
REMARK    2  A    between atoms: C13_13  and  O1_14 
REMARK    3  A    between atoms: O1_14  and  C14_15 
ROOT
HETATM    1  C1  UNL     1     -13.669  15.306  14.061  1.00  0.00     0.038 C 
HETATM    2  C2  UNL     1     -12.907  15.592  12.841  1.00  0.00    -0.002 C 
HETATM    3  C3  UNL     1     -11.920  16.490  12.792  1.00  0.00     0.029 A 
HETATM    4  C4  UNL     1     -11.197  16.734  11.551  1.00  0.00     0.037 A 
HETATM    5  C5  UNL     1     -10.212  17.616  11.464  1.00  0.00    -0.046 A 
HETATM    6  C6  UNL     1      -9.536  17.810  10.202  1.00  0.00     0.049 C 
HETATM    7  C7  UNL     1      -9.836  18.373  12.643  1.00  0.00     0.014 A 
HETATM    8  C8  UNL     1      -8.819  19.280  12.542  1.00  0.00     0.018 A 
HETATM    9  C9  UNL     1      -8.470  19.992  13.672  1.00  0.00     0.033 A 
HETATM   10  C10 UNL     1      -9.109  19.815  14.878  1.00  0.00     0.060 A 
HETATM   11  N2  UNL     1     -10.104  18.918  14.953  1.00  0.00    -0.340 N 
ATOM     12  H2  UNL     1     -10.590  18.772  15.838  1.00  0.00     0.167 HD
HETATM   13  C21 UNL     1     -10.463  18.211  13.866  1.00  0.00     0.117 A 
HETATM   14  N3  UNL     1     -11.529  17.244  13.930  1.00  0.00    -0.342 N 
ATOM     15  H3  UNL     1     -12.016  17.098  14.815  1.00  0.00     0.167 HD
ENDROOT
BRANCH  10  16
HETATM   16  C11 UNL     1      -8.673  20.610  16.013  1.00  0.00     0.061 A 
HETATM   17  C12 UNL     1      -8.263  21.928  15.896  1.00  0.00     0.069 A 
HETATM   18  C13 UNL     1      -7.847  22.696  16.952  1.00  0.00     0.079 A 
HETATM   19  C19 UNL     1      -7.845  22.096  18.212  1.00  0.00     0.054 A 
HETATM   20  C20 UNL     1      -8.253  20.790  18.314  1.00  0.00     0.091 A 
HETATM   21  N1  UNL     1      -8.649  20.087  17.247  1.00  0.00    -0.364 N 
ATOM     22  H1  UNL     1      -8.943  19.119  17.377  1.00  0.00     0.165 HD
BRANCH  18  23
HETATM   23  O1  UNL     1      -7.455  24.001  16.746  1.00  0.00    -0.311 OA
BRANCH  23  24
HETATM   24  C14 UNL     1      -7.551  24.646  15.539  1.00  0.00     0.072 A 
HETATM   25  C15 UNL     1      -6.563  24.679  14.648  1.00  0.00     0.014 A 
HETATM   26  C16 UNL     1      -6.961  25.442  13.457  1.00  0.00     0.057 A 
HETATM   27  C17 UNL     1      -8.345  25.862  13.770  1.00  0.00    -0.020 A 
HETATM   28  C18 UNL     1      -8.653  25.396  14.956  1.00  0.00     0.033 A 
ENDBRANCH  23  24
ENDBRANCH  18  23
ENDBRANCH  10  16
TORSDOF 3
ENDMDL
