MODEL 1
REMARK VINA RESULT: -10.012680839      0.000      0.000
REMARK  4 active torsions:
REMARK  status: ('A' for Active; 'I' for Inactive)
REMARK    1  A    between atoms: C3_7  and  C4_8 
REMARK    2  A    between atoms: C4_8  and  O1_9 
REMARK    3  A    between atoms: N3_11  and  C5_13 
REMARK    4  A    between atoms: C5_13  and  C6_14 
ROOT
HETATM    1  C5  UNL     1      -7.811  20.319  12.363  1.00  0.00     0.161 C 
ENDROOT
BRANCH   1   2
HETATM    2  N3  UNL     1      -9.130  19.770  12.141  1.00  0.00    -0.365 N 
HETATM    3  C4  UNL     1      -9.375  18.484  11.949  1.00  0.00     0.165 C 
ATOM      4  H3  UNL     1      -9.921  20.413  12.133  1.00  0.00     0.162 HD
BRANCH   3   5
HETATM    5  C3  UNL     1     -10.049  17.276  11.769  1.00  0.00     0.106 A 
HETATM    6  N2  UNL     1     -10.895  17.082  10.667  1.00  0.00    -0.296 N 
HETATM    7  N1  UNL     1     -11.430  15.898  10.716  1.00  0.00    -0.304 N 
ATOM      8  H2  UNL     1     -11.066  17.771   9.934  1.00  0.00     0.187 HD
HETATM    9  C2  UNL     1     -11.005  15.240  11.807  1.00  0.00     0.030 A 
ATOM     10  H1  UNL     1     -12.080  15.522  10.024  1.00  0.00     0.186 HD
HETATM   11  C1  UNL     1     -11.407  13.871  12.227  1.00  0.00     0.070 C 
HETATM   12  C20 UNL     1     -10.146  16.099  12.461  1.00  0.00    -0.006 A 
HETATM   13  C21 UNL     1      -9.406  15.797  13.716  1.00  0.00     0.053 C 
ENDBRANCH   3   5
BRANCH   3  14
HETATM   14  O1  UNL     1      -7.915  17.989  11.910  1.00  0.00    -0.345 OA
ATOM     15  H1  UNL     1      -7.482  18.770  11.586  1.00  0.00     0.219 HD
ENDBRANCH   3  14
ENDBRANCH   1   2
BRANCH   1  16
HETATM   16  C6  UNL     1      -7.823  21.610  13.041  1.00  0.00    -0.029 A 
HETATM   17  C7  UNL     1      -7.810  22.853  12.431  1.00  0.00     0.010 A 
HETATM   18  C8  UNL     1      -7.572  23.995  13.141  1.00  0.00     0.008 A 
HETATM   19  C9  UNL     1      -7.330  23.991  14.523  1.00  0.00    -0.050 A 
HETATM   20  C10 UNL     1      -6.993  25.225  15.227  1.00  0.00     0.049 C 
HETATM   21  C11 UNL     1      -7.355  22.747  15.152  1.00  0.00    -0.009 A 
HETATM   22  C12 UNL     1      -7.327  22.703  16.557  1.00  0.00    -0.018 A 
HETATM   23  C16 UNL     1      -7.587  21.609  14.421  1.00  0.00    -0.017 A 
HETATM   24  C13 UNL     1      -7.541  21.439  17.122  1.00  0.00    -0.044 A 
HETATM   25  C19 UNL     1      -7.144  23.658  17.572  1.00  0.00     0.009 A 
HETATM   26  C14 UNL     1      -7.755  20.308  16.414  1.00  0.00     0.009 A 
HETATM   27  C17 UNL     1      -7.507  21.642  18.598  1.00  0.00     0.066 A 
HETATM   28  C15 UNL     1      -7.783  20.370  15.048  1.00  0.00     0.013 A 
HETATM   29  C18 UNL     1      -7.220  23.116  18.772  1.00  0.00    -0.021 A 
ENDBRANCH   1  16
TORSDOF 4
ENDMDL
MODEL 2
REMARK VINA RESULT: -9.980749591      1.574      2.254
REMARK  4 active torsions:
REMARK  status: ('A' for Active; 'I' for Inactive)
REMARK    1  A    between atoms: C3_7  and  C4_8 
REMARK    2  A    between atoms: C4_8  and  O1_9 
REMARK    3  A    between atoms: N3_11  and  C5_13 
REMARK    4  A    between atoms: C5_13  and  C6_14 
ROOT
HETATM    1  C5  UNL     1      -7.019  19.186  11.962  1.00  0.00     0.161 C 
ENDROOT
BRANCH   1   2
HETATM    2  N3  UNL     1      -8.191  18.514  11.445  1.00  0.00    -0.365 N 
HETATM    3  C4  UNL     1      -8.954  17.702  12.158  1.00  0.00     0.165 C 
ATOM      4  H3  UNL     1      -8.445  18.677  10.471  1.00  0.00     0.162 HD
BRANCH   3   5
HETATM    5  C3  UNL     1     -10.003  16.865  12.540  1.00  0.00     0.106 A 
HETATM    6  N2  UNL     1      -9.777  15.508  12.811  1.00  0.00    -0.296 N 
HETATM    7  N1  UNL     1     -10.895  14.921  13.126  1.00  0.00    -0.304 N 
ATOM      8  H2  UNL     1      -8.868  15.048  12.768  1.00  0.00     0.187 HD
HETATM    9  C2  UNL     1     -11.909  15.802  13.086  1.00  0.00     0.030 A 
ATOM     10  H1  UNL     1     -10.989  13.934  13.367  1.00  0.00     0.186 HD
HETATM   11  C1  UNL     1     -13.342  15.513  13.358  1.00  0.00     0.070 C 
HETATM   12  C20 UNL     1     -11.352  17.010  12.721  1.00  0.00    -0.006 A 
HETATM   13  C21 UNL     1     -12.089  18.295  12.571  1.00  0.00     0.053 C 
ENDBRANCH   3   5
BRANCH   3  14
HETATM   14  O1  UNL     1      -8.105  17.680  13.444  1.00  0.00    -0.345 OA
ATOM     15  H1  UNL     1      -8.195  16.766  13.689  1.00  0.00     0.219 HD
ENDBRANCH   3  14
ENDBRANCH   1   2
BRANCH   1  16
HETATM   16  C6  UNL     1      -7.105  20.640  11.900  1.00  0.00    -0.029 A 
HETATM   17  C7  UNL     1      -6.976  21.417  10.761  1.00  0.00     0.010 A 
HETATM   18  C8  UNL     1      -6.821  22.772  10.834  1.00  0.00     0.008 A 
HETATM   19  C9  UNL     1      -6.787  23.466  12.053  1.00  0.00    -0.050 A 
HETATM   20  C10 UNL     1      -6.532  24.903  12.090  1.00  0.00     0.049 C 
HETATM   21  C11 UNL     1      -6.931  22.696  13.208  1.00  0.00    -0.009 A 
HETATM   22  C12 UNL     1      -7.112  23.354  14.436  1.00  0.00    -0.018 A 
HETATM   23  C16 UNL     1      -7.076  21.335  13.115  1.00  0.00    -0.017 A 
HETATM   24  C13 UNL     1      -7.433  22.525  15.520  1.00  0.00    -0.044 A 
HETATM   25  C19 UNL     1      -7.062  24.694  14.856  1.00  0.00     0.009 A 
HETATM   26  C14 UNL     1      -7.564  21.182  15.445  1.00  0.00     0.009 A 
HETATM   27  C17 UNL     1      -7.614  23.433  16.687  1.00  0.00     0.066 A 
HETATM   28  C15 UNL     1      -7.388  20.559  14.241  1.00  0.00     0.013 A 
HETATM   29  C18 UNL     1      -7.326  24.813  16.144  1.00  0.00    -0.021 A 
ENDBRANCH   1  16
TORSDOF 4
ENDMDL
MODEL 3
REMARK VINA RESULT: -9.909503951      1.432      1.566
REMARK  4 active torsions:
REMARK  status: ('A' for Active; 'I' for Inactive)
REMARK    1  A    between atoms: C3_7  and  C4_8 
REMARK    2  A    between atoms: C4_8  and  O1_9 
REMARK    3  A    between atoms: N3_11  and  C5_13 
REMARK    4  A    between atoms: C5_13  and  C6_14 
ROOT
HETATM    1  C5  UNL     1      -7.377  19.928  12.711  1.00  0.00     0.161 C 
ENDROOT
BRANCH   1   2
HETATM    2  N3  UNL     1      -8.612  19.362  12.215  1.00  0.00    -0.365 N 
HETATM    3  C4  UNL     1      -9.228  18.329  12.767  1.00  0.00     0.165 C 
ATOM      4  H3  UNL     1      -9.035  19.785  11.389  1.00  0.00     0.162 HD
BRANCH   3   5
HETATM    5  C3  UNL     1     -10.182  17.351  13.047  1.00  0.00     0.106 A 
HETATM    6  N2  UNL     1      -9.803  16.103  13.561  1.00  0.00    -0.296 N 
HETATM    7  N1  UNL     1     -10.849  15.347  13.723  1.00  0.00    -0.304 N 
ATOM      8  H2  UNL     1      -8.844  15.827  13.777  1.00  0.00     0.187 HD
HETATM    9  C2  UNL     1     -11.958  16.002  13.343  1.00  0.00     0.030 A 
ATOM     10  H1  UNL     1     -10.830  14.394  14.087  1.00  0.00     0.186 HD
HETATM   11  C1  UNL     1     -13.347  15.470  13.354  1.00  0.00     0.070 C 
HETATM   12  C20 UNL     1     -11.542  17.248  12.922  1.00  0.00    -0.006 A 
HETATM   13  C21 UNL     1     -12.427  18.339  12.431  1.00  0.00     0.053 C 
ENDBRANCH   3   5
BRANCH   3  14
HETATM   14  O1  UNL     1      -8.167  17.988  13.832  1.00  0.00    -0.345 OA
ATOM     15  H1  UNL     1      -8.326  18.685  14.457  1.00  0.00     0.219 HD
ENDBRANCH   3  14
ENDBRANCH   1   2
BRANCH   1  16
HETATM   16  C6  UNL     1      -7.532  21.265  13.270  1.00  0.00    -0.029 A 
HETATM   17  C7  UNL     1      -7.655  22.442  12.551  1.00  0.00     0.010 A 
HETATM   18  C8  UNL     1      -7.544  23.663  13.153  1.00  0.00     0.008 A 
HETATM   19  C9  UNL     1      -7.305  23.810  14.527  1.00  0.00    -0.050 A 
HETATM   20  C10 UNL     1      -7.106  25.132  15.115  1.00  0.00     0.049 C 
HETATM   21  C11 UNL     1      -7.194  22.633  15.266  1.00  0.00    -0.009 A 
HETATM   22  C12 UNL     1      -7.163  22.720  16.669  1.00  0.00    -0.018 A 
HETATM   23  C16 UNL     1      -7.298  21.415  14.643  1.00  0.00    -0.017 A 
HETATM   24  C13 UNL     1      -7.236  21.496  17.348  1.00  0.00    -0.044 A 
HETATM   25  C19 UNL     1      -7.087  23.776  17.592  1.00  0.00     0.009 A 
HETATM   26  C14 UNL     1      -7.324  20.288  16.746  1.00  0.00     0.009 A 
HETATM   27  C17 UNL     1      -7.227  21.834  18.799  1.00  0.00     0.066 A 
HETATM   28  C15 UNL     1      -7.358  20.224  15.381  1.00  0.00     0.013 A 
HETATM   29  C18 UNL     1      -7.104  23.340  18.837  1.00  0.00    -0.021 A 
ENDBRANCH   1  16
TORSDOF 4
ENDMDL
MODEL 4
REMARK VINA RESULT: -9.684758110      1.842      3.675
REMARK  4 active torsions:
REMARK  status: ('A' for Active; 'I' for Inactive)
REMARK    1  A    between atoms: C3_7  and  C4_8 
REMARK    2  A    between atoms: C4_8  and  O1_9 
REMARK    3  A    between atoms: N3_11  and  C5_13 
REMARK    4  A    between atoms: C5_13  and  C6_14 
ROOT
HETATM    1  C5  UNL     1      -7.859  19.513  16.097  1.00  0.00     0.161 C 
ENDROOT
BRANCH   1   2
HETATM    2  N3  UNL     1      -9.154  19.194  15.538  1.00  0.00    -0.365 N 
HETATM    3  C4  UNL     1      -9.422  18.080  14.877  1.00  0.00     0.165 C 
ATOM      4  H3  UNL     1      -9.909  19.869  15.662  1.00  0.00     0.162 HD
BRANCH   3   5
HETATM    5  C3  UNL     1     -10.112  17.073  14.203  1.00  0.00     0.106 A 
HETATM    6  N2  UNL     1      -9.786  15.723  14.397  1.00  0.00    -0.296 N 
HETATM    7  N1  UNL     1     -10.541  14.967  13.654  1.00  0.00    -0.304 N 
ATOM      8  H2  UNL     1      -9.061  15.382  15.029  1.00  0.00     0.187 HD
HETATM    9  C2  UNL     1     -11.389  15.722  12.936  1.00  0.00     0.030 A 
ATOM     10  H1  UNL     1     -10.495  13.949  13.621  1.00  0.00     0.186 HD
HETATM   11  C1  UNL     1     -12.393  15.232  11.953  1.00  0.00     0.070 C 
HETATM   12  C20 UNL     1     -11.121  17.031  13.278  1.00  0.00    -0.006 A 
HETATM   13  C21 UNL     1     -11.832  18.228  12.752  1.00  0.00     0.053 C 
ENDBRANCH   3   5
BRANCH   3  14
HETATM   14  O1  UNL     1      -7.993  17.500  14.843  1.00  0.00    -0.345 OA
ATOM     15  H1  UNL     1      -7.823  17.529  13.909  1.00  0.00     0.219 HD
ENDBRANCH   3  14
ENDBRANCH   1   2
BRANCH   1  16
HETATM   16  C6  UNL     1      -7.558  20.940  16.090  1.00  0.00    -0.029 A 
HETATM   17  C7  UNL     1      -7.618  21.792  17.179  1.00  0.00     0.010 A 
HETATM   18  C8  UNL     1      -7.564  23.148  17.030  1.00  0.00     0.008 A 
HETATM   19  C9  UNL     1      -7.440  23.768  15.777  1.00  0.00    -0.050 A 
HETATM   20  C10 UNL     1      -7.473  25.222  15.654  1.00  0.00     0.049 C 
HETATM   21  C11 UNL     1      -7.363  22.920  14.672  1.00  0.00    -0.009 A 
HETATM   22  C12 UNL     1      -7.031  23.472  13.423  1.00  0.00    -0.018 A 
HETATM   23  C16 UNL     1      -7.429  21.560  14.841  1.00  0.00    -0.017 A 
HETATM   24  C13 UNL     1      -6.792  22.543  12.401  1.00  0.00    -0.044 A 
HETATM   25  C19 UNL     1      -6.861  24.778  12.933  1.00  0.00     0.009 A 
HETATM   26  C14 UNL     1      -6.868  21.201  12.550  1.00  0.00     0.009 A 
HETATM   27  C17 UNL     1      -6.425  23.345  11.200  1.00  0.00     0.066 A 
HETATM   28  C15 UNL     1      -7.188  20.683  13.774  1.00  0.00     0.013 A 
HETATM   29  C18 UNL     1      -6.526  24.781  11.657  1.00  0.00    -0.021 A 
ENDBRANCH   1  16
TORSDOF 4
ENDMDL
MODEL 5
REMARK VINA RESULT: -9.648940312      1.677      3.267
REMARK  4 active torsions:
REMARK  status: ('A' for Active; 'I' for Inactive)
REMARK    1  A    between atoms: C3_7  and  C4_8 
REMARK    2  A    between atoms: C4_8  and  O1_9 
REMARK    3  A    between atoms: N3_11  and  C5_13 
REMARK    4  A    between atoms: C5_13  and  C6_14 
ROOT
HETATM    1  C5  UNL     1      -6.712  19.037  14.773  1.00  0.00     0.161 C 
ENDROOT
BRANCH   1   2
HETATM    2  N3  UNL     1      -7.721  18.103  15.223  1.00  0.00    -0.365 N 
HETATM    3  C4  UNL     1      -8.673  17.610  14.448  1.00  0.00     0.165 C 
ATOM      4  H3  UNL     1      -7.697  17.806  16.198  1.00  0.00     0.162 HD
BRANCH   3   5
HETATM    5  C3  UNL     1      -9.750  16.850  13.994  1.00  0.00     0.106 A 
HETATM    6  N2  UNL     1     -11.054  17.109  14.443  1.00  0.00    -0.296 N 
HETATM    7  N1  UNL     1     -11.889  16.267  13.907  1.00  0.00    -0.304 N 
ATOM      8  H2  UNL     1     -11.309  17.851  15.095  1.00  0.00     0.187 HD
HETATM    9  C2  UNL     1     -11.235  15.417  13.098  1.00  0.00     0.030 A 
ATOM     10  H1  UNL     1     -12.895  16.255  14.077  1.00  0.00     0.186 HD
HETATM   11  C1  UNL     1     -11.835  14.296  12.325  1.00  0.00     0.070 C 
HETATM   12  C20 UNL     1      -9.906  15.779  13.154  1.00  0.00    -0.006 A 
HETATM   13  C21 UNL     1      -8.798  15.135  12.398  1.00  0.00     0.053 C 
ENDBRANCH   3   5
BRANCH   3  14
HETATM   14  O1  UNL     1      -8.373  18.440  13.183  1.00  0.00    -0.345 OA
ATOM     15  H1  UNL     1      -8.650  19.300  13.476  1.00  0.00     0.219 HD
ENDBRANCH   3  14
ENDBRANCH   1   2
BRANCH   1  16
HETATM   16  C6  UNL     1      -6.596  20.220  15.616  1.00  0.00    -0.029 A 
HETATM   17  C7  UNL     1      -6.251  20.236  16.957  1.00  0.00     0.010 A 
HETATM   18  C8  UNL     1      -6.410  21.355  17.723  1.00  0.00     0.008 A 
HETATM   19  C9  UNL     1      -6.926  22.556  17.212  1.00  0.00    -0.050 A 
HETATM   20  C10 UNL     1      -7.162  23.702  18.085  1.00  0.00     0.049 C 
HETATM   21  C11 UNL     1      -7.263  22.557  15.859  1.00  0.00    -0.009 A 
HETATM   22  C12 UNL     1      -7.585  23.782  15.248  1.00  0.00    -0.018 A 
HETATM   23  C16 UNL     1      -7.105  21.421  15.107  1.00  0.00    -0.017 A 
HETATM   24  C13 UNL     1      -7.733  23.737  13.855  1.00  0.00    -0.044 A 
HETATM   25  C19 UNL     1      -7.789  25.093  15.709  1.00  0.00     0.009 A 
HETATM   26  C14 UNL     1      -7.594  22.621  13.104  1.00  0.00     0.009 A 
HETATM   27  C17 UNL     1      -8.028  25.135  13.432  1.00  0.00     0.066 A 
HETATM   28  C15 UNL     1      -7.277  21.440  13.715  1.00  0.00     0.013 A 
HETATM   29  C18 UNL     1      -8.062  25.923  14.720  1.00  0.00    -0.021 A 
ENDBRANCH   1  16
TORSDOF 4
ENDMDL
