MODEL 1
REMARK VINA RESULT: -4.964206661      0.000      0.000
REMARK  4 active torsions:
REMARK  status: ('A' for Active; 'I' for Inactive)
REMARK    1  A    between atoms: C1_2  and  C2_4 
REMARK    2  A    between atoms: C2_4  and  O2_5 
REMARK    3  A    between atoms: C3_7  and  C4_8 
REMARK    4  A    between atoms: C5_9  and  O3_11 
ROOT
HETATM    1  C2  UNL     1      -8.574  21.263  18.253  1.00  0.00     0.131 C 
HETATM    2  C3  UNL     1      -8.996  21.200  17.016  1.00  0.00     0.045 C 
ENDROOT
BRANCH   1   3
HETATM    3  C1  UNL     1      -7.592  22.250  18.675  1.00  0.00     0.287 C 
HETATM    4  N1  UNL     1      -6.203  22.034  18.443  1.00  0.00    -0.055 NA
HETATM    5  O1  UNL     1      -8.000  23.291  19.248  1.00  0.00    -0.269 OA
ENDBRANCH   1   3
BRANCH   1   6
HETATM    6  O2  UNL     1      -9.098  20.345  19.162  1.00  0.00    -0.356 OA
ATOM      7  H2  UNL     1      -9.374  19.482  18.876  1.00  0.00     0.218 HD
ENDBRANCH   1   6
BRANCH   2   8
HETATM    8  C4  UNL     1      -9.977  20.213  16.592  1.00  0.00     0.055 C 
HETATM    9  C5  UNL     1      -9.729  19.514  15.503  1.00  0.00     0.149 C 
HETATM   10  N2  UNL     1      -8.539  19.716  14.762  1.00  0.00    -0.075 NA
BRANCH   9  11
HETATM   11  O3  UNL     1     -10.660  18.573  15.093  1.00  0.00    -0.348 OA
ATOM     12  H3  UNL     1     -10.587  18.213  14.217  1.00  0.00     0.219 HD
ENDBRANCH   9  11
ENDBRANCH   2   8
TORSDOF 4
ENDMDL
MODEL 2
REMARK VINA RESULT: -4.952754501      2.903      4.652
REMARK  4 active torsions:
REMARK  status: ('A' for Active; 'I' for Inactive)
REMARK    1  A    between atoms: C1_2  and  C2_4 
REMARK    2  A    between atoms: C2_4  and  O2_5 
REMARK    3  A    between atoms: C3_7  and  C4_8 
REMARK    4  A    between atoms: C5_9  and  O3_11 
ROOT
HETATM    1  C2  UNL     1      -6.705  19.248  16.425  1.00  0.00     0.131 C 
HETATM    2  C3  UNL     1      -7.836  19.868  16.646  1.00  0.00     0.045 C 
ENDROOT
BRANCH   1   3
HETATM    3  C1  UNL     1      -6.665  17.921  15.831  1.00  0.00     0.287 C 
HETATM    4  N1  UNL     1      -5.519  17.090  15.994  1.00  0.00    -0.055 NA
HETATM    5  O1  UNL     1      -7.663  17.529  15.175  1.00  0.00    -0.269 OA
ENDBRANCH   1   3
BRANCH   1   6
HETATM    6  O2  UNL     1      -5.528  19.906  16.779  1.00  0.00    -0.356 OA
ATOM      7  H2  UNL     1      -4.693  19.636  16.415  1.00  0.00     0.218 HD
ENDBRANCH   1   6
BRANCH   2   8
HETATM    8  C4  UNL     1      -7.878  21.195  17.239  1.00  0.00     0.055 C 
HETATM    9  C5  UNL     1      -8.412  21.328  18.437  1.00  0.00     0.149 C 
HETATM   10  N2  UNL     1      -8.933  20.208  19.131  1.00  0.00    -0.075 NA
BRANCH   9  11
HETATM   11  O3  UNL     1      -8.456  22.589  19.007  1.00  0.00    -0.348 OA
ATOM     12  H3  UNL     1      -8.321  22.670  19.944  1.00  0.00     0.219 HD
ENDBRANCH   9  11
ENDBRANCH   2   8
TORSDOF 4
ENDMDL
MODEL 3
REMARK VINA RESULT: -4.930272407      1.959      4.150
REMARK  4 active torsions:
REMARK  status: ('A' for Active; 'I' for Inactive)
REMARK    1  A    between atoms: C1_2  and  C2_4 
REMARK    2  A    between atoms: C2_4  and  O2_5 
REMARK    3  A    between atoms: C3_7  and  C4_8 
REMARK    4  A    between atoms: C5_9  and  O3_11 
ROOT
HETATM    1  C2  UNL     1      -9.213  20.711  17.686  1.00  0.00     0.131 C 
HETATM    2  C3  UNL     1      -8.270  21.324  17.018  1.00  0.00     0.045 C 
ENDROOT
BRANCH   1   3
HETATM    3  C1  UNL     1     -10.345  20.090  17.014  1.00  0.00     0.287 C 
HETATM    4  N1  UNL     1     -10.192  19.524  15.716  1.00  0.00    -0.055 NA
HETATM    5  O1  UNL     1     -11.452  20.067  17.607  1.00  0.00    -0.269 OA
ENDBRANCH   1   3
BRANCH   1   6
HETATM    6  O2  UNL     1      -9.101  20.673  19.075  1.00  0.00    -0.356 OA
ATOM      7  H2  UNL     1      -8.803  19.886  19.516  1.00  0.00     0.218 HD
ENDBRANCH   1   6
BRANCH   2   8
HETATM    8  C4  UNL     1      -7.139  21.946  17.687  1.00  0.00     0.055 C 
HETATM    9  C5  UNL     1      -5.948  21.400  17.541  1.00  0.00     0.149 C 
HETATM   10  N2  UNL     1      -5.772  20.236  16.754  1.00  0.00    -0.075 NA
BRANCH   9  11
HETATM   11  O3  UNL     1      -4.867  21.988  18.177  1.00  0.00    -0.348 OA
ATOM     12  H3  UNL     1      -4.035  21.529  18.176  1.00  0.00     0.219 HD
ENDBRANCH   9  11
ENDBRANCH   2   8
TORSDOF 4
ENDMDL
MODEL 4
REMARK VINA RESULT: -4.896169860      3.105      3.367
REMARK  4 active torsions:
REMARK  status: ('A' for Active; 'I' for Inactive)
REMARK    1  A    between atoms: C1_2  and  C2_4 
REMARK    2  A    between atoms: C2_4  and  O2_5 
REMARK    3  A    between atoms: C3_7  and  C4_8 
REMARK    4  A    between atoms: C5_9  and  O3_11 
ROOT
HETATM    1  C2  UNL     1      -7.183  21.050  17.403  1.00  0.00     0.131 C 
HETATM    2  C3  UNL     1      -7.286  19.890  16.808  1.00  0.00     0.045 C 
ENDROOT
BRANCH   1   3
HETATM    3  C1  UNL     1      -8.057  21.424  18.504  1.00  0.00     0.287 C 
HETATM    4  N1  UNL     1      -8.119  22.775  18.951  1.00  0.00    -0.055 NA
HETATM    5  O1  UNL     1      -8.751  20.528  19.047  1.00  0.00    -0.269 OA
ENDBRANCH   1   3
BRANCH   1   6
HETATM    6  O2  UNL     1      -6.201  21.927  16.944  1.00  0.00    -0.356 OA
ATOM      7  H2  UNL     1      -5.330  21.921  17.323  1.00  0.00     0.218 HD
ENDBRANCH   1   6
BRANCH   2   8
HETATM    8  C4  UNL     1      -6.413  19.514  15.707  1.00  0.00     0.055 C 
HETATM    9  C5  UNL     1      -5.913  18.295  15.693  1.00  0.00     0.149 C 
HETATM   10  N2  UNL     1      -6.217  17.371  16.723  1.00  0.00    -0.075 NA
BRANCH   9  11
HETATM   11  O3  UNL     1      -5.081  17.931  14.647  1.00  0.00    -0.348 OA
ATOM     12  H3  UNL     1      -4.407  17.281  14.807  1.00  0.00     0.219 HD
ENDBRANCH   9  11
ENDBRANCH   2   8
TORSDOF 4
ENDMDL
MODEL 5
REMARK VINA RESULT: -4.836615369      4.222      6.081
REMARK  4 active torsions:
REMARK  status: ('A' for Active; 'I' for Inactive)
REMARK    1  A    between atoms: C1_2  and  C2_4 
REMARK    2  A    between atoms: C2_4  and  O2_5 
REMARK    3  A    between atoms: C3_7  and  C4_8 
REMARK    4  A    between atoms: C5_9  and  O3_11 
ROOT
HETATM    1  C2  UNL     1      -6.618  16.520  15.642  1.00  0.00     0.131 C 
HETATM    2  C3  UNL     1      -7.120  17.728  15.634  1.00  0.00     0.045 C 
ENDROOT
BRANCH   1   3
HETATM    3  C1  UNL     1      -7.459  15.343  15.492  1.00  0.00     0.287 C 
HETATM    4  N1  UNL     1      -8.698  15.424  14.794  1.00  0.00    -0.055 NA
HETATM    5  O1  UNL     1      -7.066  14.260  15.992  1.00  0.00    -0.269 OA
ENDBRANCH   1   3
BRANCH   1   6
HETATM    6  O2  UNL     1      -5.239  16.395  15.801  1.00  0.00    -0.356 OA
ATOM      7  H2  UNL     1      -4.721  15.902  15.175  1.00  0.00     0.218 HD
ENDBRANCH   1   6
BRANCH   2   8
HETATM    8  C4  UNL     1      -6.280  18.907  15.785  1.00  0.00     0.055 C 
HETATM    9  C5  UNL     1      -6.724  19.899  16.530  1.00  0.00     0.149 C 
HETATM   10  N2  UNL     1      -7.986  19.822  17.170  1.00  0.00    -0.075 NA
BRANCH   9  11
HETATM   11  O3  UNL     1      -5.929  21.024  16.677  1.00  0.00    -0.348 OA
ATOM     12  H3  UNL     1      -5.900  21.655  15.967  1.00  0.00     0.219 HD
ENDBRANCH   9  11
ENDBRANCH   2   8
TORSDOF 4
ENDMDL
