MODEL 1
REMARK VINA RESULT: -7.587891479      0.000      0.000
REMARK  3 active torsions:
REMARK  status: ('A' for Active; 'I' for Inactive)
REMARK    1  A    between atoms: C9_9  and  N1_10 
REMARK       I    between atoms: N1_10  and  C10_12 
REMARK    2  A    between atoms: C10_12  and  C11_14 
REMARK    3  A    between atoms: C12_15  and  C13_16 
ROOT
HETATM    1  C1  UNL     1      -7.043  15.037  15.494  1.00  0.00     0.068 C 
HETATM    2  C2  UNL     1      -7.014  16.538  15.440  1.00  0.00     0.006 A 
HETATM    3  C3  UNL     1      -6.656  17.407  16.451  1.00  0.00     0.038 A 
HETATM    4  C4  UNL     1      -6.759  18.713  16.016  1.00  0.00    -0.007 A 
HETATM    5  C5  UNL     1      -6.545  19.964  16.550  1.00  0.00     0.026 A 
HETATM    6  C6  UNL     1      -6.740  21.127  15.846  1.00  0.00    -0.025 A 
HETATM    7  C7  UNL     1      -6.526  22.386  16.379  1.00  0.00     0.014 A 
HETATM    8  C8  UNL     1      -6.737  23.502  15.629  1.00  0.00     0.030 A 
HETATM    9  C9  UNL     1      -7.175  23.425  14.300  1.00  0.00     0.035 A 
HETATM   10  C18 UNL     1      -7.379  22.166  13.796  1.00  0.00     0.042 A 
HETATM   11  C19 UNL     1      -7.170  21.022  14.543  1.00  0.00    -0.022 A 
HETATM   12  C20 UNL     1      -7.398  19.769  13.966  1.00  0.00     0.042 A 
HETATM   13  C21 UNL     1      -7.190  18.624  14.708  1.00  0.00     0.043 A 
HETATM   14  N3  UNL     1      -7.335  17.313  14.389  1.00  0.00    -0.359 N 
ATOM     15  H3  UNL     1      -7.644  16.965  13.482  1.00  0.00     0.166 HD
ENDROOT
BRANCH   9  16
HETATM   16  N1  UNL     1      -7.376  24.636  13.633  1.00  0.00    -0.324 N 
HETATM   17  C10 UNL     1      -8.407  25.552  13.914  1.00  0.00     0.245 C 
HETATM   18  O1  UNL     1      -9.251  25.362  14.794  1.00  0.00    -0.268 OA
ATOM     19  H1  UNL     1      -6.725  24.875  12.884  1.00  0.00     0.169 HD
BRANCH  17  20
HETATM   20  C11 UNL     1      -8.518  26.808  13.145  1.00  0.00     0.075 C 
HETATM   21  C12 UNL     1      -9.546  27.585  13.336  1.00  0.00     0.017 C 
BRANCH  21  22
HETATM   22  C13 UNL     1      -9.724  28.833  12.619  1.00  0.00    -0.034 A 
HETATM   23  C14 UNL     1     -10.626  29.810  12.941  1.00  0.00     0.028 A 
HETATM   24  C15 UNL     1     -10.753  30.980  12.221  1.00  0.00     0.088 A 
HETATM   25  N2  UNL     1      -9.960  31.173  11.158  1.00  0.00    -0.375 N 
HETATM   26  C16 UNL     1      -9.066  30.244  10.810  1.00  0.00     0.088 A 
ATOM     27  H2  UNL     1     -10.040  32.031  10.613  1.00  0.00     0.164 HD
HETATM   28  C17 UNL     1      -8.915  29.070  11.504  1.00  0.00     0.028 A 
ENDBRANCH  21  22
ENDBRANCH  17  20
ENDBRANCH   9  16
TORSDOF 3
ENDMDL
MODEL 2
REMARK VINA RESULT: -7.204437994      0.997      1.338
REMARK  3 active torsions:
REMARK  status: ('A' for Active; 'I' for Inactive)
REMARK    1  A    between atoms: C9_9  and  N1_10 
REMARK       I    between atoms: N1_10  and  C10_12 
REMARK    2  A    between atoms: C10_12  and  C11_14 
REMARK    3  A    between atoms: C12_15  and  C13_16 
ROOT
HETATM    1  C1  UNL     1      -6.925  15.370  15.430  1.00  0.00     0.068 C 
HETATM    2  C2  UNL     1      -6.984  16.870  15.497  1.00  0.00     0.006 A 
HETATM    3  C3  UNL     1      -6.497  17.685  16.499  1.00  0.00     0.038 A 
HETATM    4  C4  UNL     1      -6.743  19.009  16.199  1.00  0.00    -0.007 A 
HETATM    5  C5  UNL     1      -6.502  20.228  16.791  1.00  0.00     0.026 A 
HETATM    6  C6  UNL     1      -6.878  21.425  16.231  1.00  0.00    -0.025 A 
HETATM    7  C7  UNL     1      -6.638  22.653  16.822  1.00  0.00     0.014 A 
HETATM    8  C8  UNL     1      -7.036  23.805  16.215  1.00  0.00     0.030 A 
HETATM    9  C9  UNL     1      -7.698  23.796  14.981  1.00  0.00     0.035 A 
HETATM   10  C18 UNL     1      -7.924  22.567  14.416  1.00  0.00     0.042 A 
HETATM   11  C19 UNL     1      -7.526  21.388  15.018  1.00  0.00    -0.022 A 
HETATM   12  C20 UNL     1      -7.789  20.168  14.386  1.00  0.00     0.042 A 
HETATM   13  C21 UNL     1      -7.394  18.988  14.983  1.00  0.00     0.043 A 
HETATM   14  N3  UNL     1      -7.526  17.697  14.586  1.00  0.00    -0.359 N 
ATOM     15  H3  UNL     1      -7.972  17.396  13.720  1.00  0.00     0.166 HD
ENDROOT
BRANCH   9  16
HETATM   16  N1  UNL     1      -8.076  25.037  14.461  1.00  0.00    -0.324 N 
HETATM   17  C10 UNL     1      -7.661  25.553  13.219  1.00  0.00     0.245 C 
HETATM   18  O1  UNL     1      -6.903  24.945  12.460  1.00  0.00    -0.268 OA
ATOM     19  H1  UNL     1      -8.701  25.613  15.025  1.00  0.00     0.169 HD
BRANCH  17  20
HETATM   20  C11 UNL     1      -8.133  26.879  12.768  1.00  0.00     0.075 C 
HETATM   21  C12 UNL     1      -9.219  27.379  13.285  1.00  0.00     0.017 C 
BRANCH  21  22
HETATM   22  C13 UNL     1      -9.744  28.673  12.893  1.00  0.00    -0.034 A 
HETATM   23  C14 UNL     1      -9.366  29.378  11.783  1.00  0.00     0.028 A 
HETATM   24  C15 UNL     1      -9.900  30.609  11.459  1.00  0.00     0.088 A 
HETATM   25  N2  UNL     1     -10.830  31.141  12.263  1.00  0.00    -0.375 N 
HETATM   26  C16 UNL     1     -11.227  30.485  13.355  1.00  0.00     0.088 A 
ATOM     27  H2  UNL     1     -11.235  32.050  12.040  1.00  0.00     0.164 HD
HETATM   28  C17 UNL     1     -10.716  29.261  13.707  1.00  0.00     0.028 A 
ENDBRANCH  21  22
ENDBRANCH  17  20
ENDBRANCH   9  16
TORSDOF 3
ENDMDL
MODEL 3
REMARK VINA RESULT: -7.000119122      1.529      2.216
REMARK  3 active torsions:
REMARK  status: ('A' for Active; 'I' for Inactive)
REMARK    1  A    between atoms: C9_9  and  N1_10 
REMARK       I    between atoms: N1_10  and  C10_12 
REMARK    2  A    between atoms: C10_12  and  C11_14 
REMARK    3  A    between atoms: C12_15  and  C13_16 
ROOT
HETATM    1  C1  UNL     1      -7.317  15.092  15.495  1.00  0.00     0.068 C 
HETATM    2  C2  UNL     1      -7.219  16.419  14.797  1.00  0.00     0.006 A 
HETATM    3  C3  UNL     1      -6.608  16.689  13.590  1.00  0.00     0.038 A 
HETATM    4  C4  UNL     1      -6.729  18.029  13.283  1.00  0.00    -0.007 A 
HETATM    5  C5  UNL     1      -6.339  18.857  12.255  1.00  0.00     0.026 A 
HETATM    6  C6  UNL     1      -6.616  20.202  12.225  1.00  0.00    -0.025 A 
HETATM    7  C7  UNL     1      -6.226  21.038  11.193  1.00  0.00     0.014 A 
HETATM    8  C8  UNL     1      -6.532  22.365  11.222  1.00  0.00     0.030 A 
HETATM    9  C9  UNL     1      -7.247  22.933  12.285  1.00  0.00     0.035 A 
HETATM   10  C18 UNL     1      -7.621  22.083  13.294  1.00  0.00     0.042 A 
HETATM   11  C19 UNL     1      -7.319  20.734  13.281  1.00  0.00    -0.022 A 
HETATM   12  C20 UNL     1      -7.732  19.925  14.343  1.00  0.00     0.042 A 
HETATM   13  C21 UNL     1      -7.433  18.577  14.335  1.00  0.00     0.043 A 
HETATM   14  N3  UNL     1      -7.714  17.593  15.227  1.00  0.00    -0.359 N 
ATOM     15  H3  UNL     1      -8.226  17.725  16.098  1.00  0.00     0.166 HD
ENDROOT
BRANCH   9  16
HETATM   16  N1  UNL     1      -7.487  24.308  12.217  1.00  0.00    -0.324 N 
HETATM   17  C10 UNL     1      -7.844  25.120  13.310  1.00  0.00     0.245 C 
HETATM   18  O1  UNL     1      -7.986  24.681  14.454  1.00  0.00    -0.268 OA
ATOM     19  H1  UNL     1      -7.397  24.757  11.306  1.00  0.00     0.169 HD
BRANCH  17  20
HETATM   20  C11 UNL     1      -8.067  26.568  13.120  1.00  0.00     0.075 C 
HETATM   21  C12 UNL     1      -9.252  27.065  13.335  1.00  0.00     0.017 C 
BRANCH  21  22
HETATM   22  C13 UNL     1      -9.548  28.475  13.170  1.00  0.00    -0.034 A 
HETATM   23  C14 UNL     1     -10.328  29.224  14.007  1.00  0.00     0.028 A 
HETATM   24  C15 UNL     1     -10.577  30.566  13.800  1.00  0.00     0.088 A 
HETATM   25  N2  UNL     1     -10.033  31.166  12.733  1.00  0.00    -0.375 N 
HETATM   26  C16 UNL     1      -9.265  30.470  11.891  1.00  0.00     0.088 A 
ATOM     27  H2  UNL     1     -10.206  32.157  12.563  1.00  0.00     0.164 HD
HETATM   28  C17 UNL     1      -8.998  29.136  12.068  1.00  0.00     0.028 A 
ENDBRANCH  21  22
ENDBRANCH  17  20
ENDBRANCH   9  16
TORSDOF 3
ENDMDL
MODEL 4
REMARK VINA RESULT: -6.032539074      2.227      2.852
REMARK  3 active torsions:
REMARK  status: ('A' for Active; 'I' for Inactive)
REMARK    1  A    between atoms: C9_9  and  N1_10 
REMARK       I    between atoms: N1_10  and  C10_12 
REMARK    2  A    between atoms: C10_12  and  C11_14 
REMARK    3  A    between atoms: C12_15  and  C13_16 
ROOT
HETATM    1  C1  UNL     1     -10.677  14.530  12.029  1.00  0.00     0.068 C 
HETATM    2  C2  UNL     1     -10.088  15.892  12.266  1.00  0.00     0.006 A 
HETATM    3  C3  UNL     1      -9.027  16.217  13.086  1.00  0.00     0.038 A 
HETATM    4  C4  UNL     1      -8.785  17.575  13.037  1.00  0.00    -0.007 A 
HETATM    5  C5  UNL     1      -7.894  18.452  13.614  1.00  0.00     0.026 A 
HETATM    6  C6  UNL     1      -7.896  19.802  13.363  1.00  0.00    -0.025 A 
HETATM    7  C7  UNL     1      -7.002  20.687  13.941  1.00  0.00     0.014 A 
HETATM    8  C8  UNL     1      -7.056  22.016  13.649  1.00  0.00     0.030 A 
HETATM    9  C9  UNL     1      -8.006  22.538  12.763  1.00  0.00     0.035 A 
HETATM   10  C18 UNL     1      -8.880  21.640  12.205  1.00  0.00     0.042 A 
HETATM   11  C19 UNL     1      -8.840  20.288  12.488  1.00  0.00    -0.022 A 
HETATM   12  C20 UNL     1      -9.761  19.429  11.882  1.00  0.00     0.042 A 
HETATM   13  C21 UNL     1      -9.726  18.078  12.163  1.00  0.00     0.043 A 
HETATM   14  N3  UNL     1     -10.492  17.051  11.716  1.00  0.00    -0.359 N 
ATOM     15  H3  UNL     1     -11.265  17.144  11.058  1.00  0.00     0.166 HD
ENDROOT
BRANCH   9  16
HETATM   16  N1  UNL     1      -7.980  23.919  12.554  1.00  0.00    -0.324 N 
HETATM   17  C10 UNL     1      -8.267  24.890  13.533  1.00  0.00     0.245 C 
HETATM   18  O1  UNL     1      -8.582  24.603  14.690  1.00  0.00    -0.268 OA
ATOM     19  H1  UNL     1      -7.732  24.250  11.622  1.00  0.00     0.169 HD
BRANCH  17  20
HETATM   20  C11 UNL     1      -8.199  26.328  13.199  1.00  0.00     0.075 C 
HETATM   21  C12 UNL     1      -9.298  27.025  13.157  1.00  0.00     0.017 C 
BRANCH  21  22
HETATM   22  C13 UNL     1      -9.312  28.440  12.836  1.00  0.00    -0.034 A 
HETATM   23  C14 UNL     1      -8.597  29.031  11.831  1.00  0.00     0.028 A 
HETATM   24  C15 UNL     1      -8.647  30.385  11.571  1.00  0.00     0.088 A 
HETATM   25  N2  UNL     1      -9.430  31.160  12.333  1.00  0.00    -0.375 N 
HETATM   26  C16 UNL     1     -10.145  30.622  13.324  1.00  0.00     0.088 A 
ATOM     27  H2  UNL     1      -9.480  32.163  12.156  1.00  0.00     0.164 HD
HETATM   28  C17 UNL     1     -10.117  29.281  13.610  1.00  0.00     0.028 A 
ENDBRANCH  21  22
ENDBRANCH  17  20
ENDBRANCH   9  16
TORSDOF 3
ENDMDL
MODEL 5
REMARK VINA RESULT: -5.923721876      1.259      1.402
REMARK  3 active torsions:
REMARK  status: ('A' for Active; 'I' for Inactive)
REMARK    1  A    between atoms: C9_9  and  N1_10 
REMARK       I    between atoms: N1_10  and  C10_12 
REMARK    2  A    between atoms: C10_12  and  C11_14 
REMARK    3  A    between atoms: C12_15  and  C13_16 
ROOT
HETATM    1  C1  UNL     1      -6.948  14.981  12.758  1.00  0.00     0.068 C 
HETATM    2  C2  UNL     1      -7.011  16.361  13.349  1.00  0.00     0.006 A 
HETATM    3  C3  UNL     1      -6.557  16.765  14.588  1.00  0.00     0.038 A 
HETATM    4  C4  UNL     1      -6.795  18.113  14.767  1.00  0.00    -0.007 A 
HETATM    5  C5  UNL     1      -6.575  19.043  15.758  1.00  0.00     0.026 A 
HETATM    6  C6  UNL     1      -6.935  20.363  15.646  1.00  0.00    -0.025 A 
HETATM    7  C7  UNL     1      -6.715  21.301  16.639  1.00  0.00     0.014 A 
HETATM    8  C8  UNL     1      -7.097  22.597  16.466  1.00  0.00     0.030 A 
HETATM    9  C9  UNL     1      -7.720  23.031  15.289  1.00  0.00     0.035 A 
HETATM   10  C18 UNL     1      -7.927  22.081  14.321  1.00  0.00     0.042 A 
HETATM   11  C19 UNL     1      -7.546  20.762  14.479  1.00  0.00    -0.022 A 
HETATM   12  C20 UNL     1      -7.787  19.847  13.450  1.00  0.00     0.042 A 
HETATM   13  C21 UNL     1      -7.409  18.528  13.603  1.00  0.00     0.043 A 
HETATM   14  N3  UNL     1      -7.526  17.462  12.773  1.00  0.00    -0.359 N 
ATOM     15  H3  UNL     1      -7.945  17.490  11.844  1.00  0.00     0.166 HD
ENDROOT
BRANCH   9  16
HETATM   16  N1  UNL     1      -8.084  24.378  15.231  1.00  0.00    -0.324 N 
HETATM   17  C10 UNL     1      -8.350  25.092  14.047  1.00  0.00     0.245 C 
HETATM   18  O1  UNL     1      -8.278  24.583  12.926  1.00  0.00    -0.268 OA
ATOM     19  H1  UNL     1      -8.165  24.884  16.113  1.00  0.00     0.169 HD
BRANCH  17  20
HETATM   20  C11 UNL     1      -8.735  26.518  14.107  1.00  0.00     0.075 C 
HETATM   21  C12 UNL     1      -9.190  27.101  13.035  1.00  0.00     0.017 C 
BRANCH  21  22
HETATM   22  C13 UNL     1      -9.587  28.496  13.016  1.00  0.00    -0.034 A 
HETATM   23  C14 UNL     1     -10.354  29.114  13.966  1.00  0.00     0.028 A 
HETATM   24  C15 UNL     1     -10.704  30.447  13.897  1.00  0.00     0.088 A 
HETATM   25  N2  UNL     1     -10.275  31.173  12.855  1.00  0.00    -0.375 N 
HETATM   26  C16 UNL     1      -9.524  30.609  11.907  1.00  0.00     0.088 A 
ATOM     27  H2  UNL     1     -10.524  32.160  12.786  1.00  0.00     0.164 HD
HETATM   28  C17 UNL     1      -9.160  29.286  11.945  1.00  0.00     0.028 A 
ENDBRANCH  21  22
ENDBRANCH  17  20
ENDBRANCH   9  16
TORSDOF 3
ENDMDL
