MODEL 1
REMARK VINA RESULT: -6.304749980      0.000      0.000
REMARK  10 active torsions:
REMARK  status: ('A' for Active; 'I' for Inactive)
REMARK    1  A    between atoms: C2_2  and  C3_3 
REMARK    2  A    between atoms: C3_3  and  C4_4 
REMARK    3  A    between atoms: C4_4  and  C5_5 
REMARK    4  A    between atoms: C5_5  and  C6_6 
REMARK    5  A    between atoms: C6_6  and  N1_7 
REMARK    6  A    between atoms: N1_7  and  C7_9 
REMARK    7  A    between atoms: C7_9  and  C8_10 
REMARK    8  A    between atoms: C8_10  and  C9_11 
REMARK    9  A    between atoms: C9_11  and  C10_12 
REMARK   10  A    between atoms: C10_12  and  C11_13 
ROOT
HETATM    1  C8  UNL     1      -7.101 -24.963   3.251  1.00  0.00     0.044 C 
ENDROOT
BRANCH   1   2
HETATM    2  C7  UNL     1      -8.038 -24.008   3.847  1.00  0.00     0.060 C 
BRANCH   2   3
HETATM    3  N1  UNL     1      -7.795 -23.228   4.974  1.00  0.00    -0.382 N 
ATOM      4  H1  UNL     1      -8.532 -22.614   5.323  1.00  0.00     0.163 HD
BRANCH   3   5
HETATM    5  C6  UNL     1      -6.575 -23.265   5.636  1.00  0.00     0.060 C 
BRANCH   5   6
HETATM    6  C5  UNL     1      -5.853 -21.920   5.721  1.00  0.00     0.044 C 
BRANCH   6   7
HETATM    7  C4  UNL     1      -6.504 -20.813   4.984  1.00  0.00     0.005 C 
BRANCH   7   8
HETATM    8  C3  UNL     1      -6.946 -19.772   6.005  1.00  0.00     0.000 C 
BRANCH   8   9
HETATM    9  C2  UNL     1      -6.468 -18.391   5.713  1.00  0.00    -0.005 C 
HETATM   10  C1  UNL     1      -6.060 -18.344   4.234  1.00  0.00     0.005 C 
ENDBRANCH   8   9
ENDBRANCH   7   8
ENDBRANCH   6   7
ENDBRANCH   5   6
ENDBRANCH   3   5
ENDBRANCH   2   3
ENDBRANCH   1   2
BRANCH   1  11
HETATM   11  C9  UNL     1      -6.527 -24.660   1.907  1.00  0.00     0.010 C 
BRANCH  11  12
HETATM   12  C10 UNL     1      -6.394 -23.144   1.663  1.00  0.00     0.039 C 
BRANCH  12  13
HETATM   13  C11 UNL     1      -7.099 -22.739   0.446  1.00  0.00    -0.056 A 
HETATM   14  C12 UNL     1      -8.072 -21.758   0.483  1.00  0.00     0.024 A 
HETATM   15  C13 UNL     1      -8.742 -21.340  -0.660  1.00  0.00     0.088 A 
HETATM   16  N2  UNL     1      -8.442 -21.905  -1.852  1.00  0.00    -0.375 N 
HETATM   17  C14 UNL     1      -7.499 -22.859  -1.897  1.00  0.00     0.088 A 
ATOM     18  H2  UNL     1      -8.924 -21.610  -2.701  1.00  0.00     0.164 HD
HETATM   19  C15 UNL     1      -6.825 -23.287  -0.785  1.00  0.00     0.024 A 
ENDBRANCH  12  13
ENDBRANCH  11  12
ENDBRANCH   1  11
TORSDOF 10
ENDMDL
MODEL 2
REMARK VINA RESULT: -6.262761314      1.617      6.323
REMARK  10 active torsions:
REMARK  status: ('A' for Active; 'I' for Inactive)
REMARK    1  A    between atoms: C2_2  and  C3_3 
REMARK    2  A    between atoms: C3_3  and  C4_4 
REMARK    3  A    between atoms: C4_4  and  C5_5 
REMARK    4  A    between atoms: C5_5  and  C6_6 
REMARK    5  A    between atoms: C6_6  and  N1_7 
REMARK    6  A    between atoms: N1_7  and  C7_9 
REMARK    7  A    between atoms: C7_9  and  C8_10 
REMARK    8  A    between atoms: C8_10  and  C9_11 
REMARK    9  A    between atoms: C9_11  and  C10_12 
REMARK   10  A    between atoms: C10_12  and  C11_13 
ROOT
HETATM    1  C8  UNL     1      -8.101 -20.001  -0.188  1.00  0.00     0.044 C 
ENDROOT
BRANCH   1   2
HETATM    2  C7  UNL     1      -8.798 -20.791  -1.206  1.00  0.00     0.060 C 
BRANCH   2   3
HETATM    3  N1  UNL     1      -8.194 -21.641  -2.129  1.00  0.00    -0.382 N 
ATOM      4  H1  UNL     1      -8.067 -21.324  -3.090  1.00  0.00     0.163 HD
BRANCH   3   5
HETATM    5  C6  UNL     1      -7.760 -22.912  -1.772  1.00  0.00     0.060 C 
BRANCH   5   6
HETATM    6  C5  UNL     1      -6.332 -22.969  -1.229  1.00  0.00     0.044 C 
BRANCH   6   7
HETATM    7  C4  UNL     1      -6.226 -23.191   0.231  1.00  0.00     0.005 C 
BRANCH   7   8
HETATM    8  C3  UNL     1      -7.516 -23.855   0.695  1.00  0.00     0.000 C 
BRANCH   8   9
HETATM    9  C2  UNL     1      -7.307 -25.042   1.573  1.00  0.00    -0.005 C 
HETATM   10  C1  UNL     1      -8.498 -25.121   2.538  1.00  0.00     0.005 C 
ENDBRANCH   8   9
ENDBRANCH   7   8
ENDBRANCH   6   7
ENDBRANCH   5   6
ENDBRANCH   3   5
ENDBRANCH   2   3
ENDBRANCH   1   2
BRANCH   1  11
HETATM   11  C9  UNL     1      -8.431 -20.234   1.248  1.00  0.00     0.010 C 
BRANCH  11  12
HETATM   12  C10 UNL     1      -7.168 -20.307   2.128  1.00  0.00     0.039 C 
BRANCH  12  13
HETATM   13  C11 UNL     1      -7.472 -20.857   3.449  1.00  0.00    -0.056 A 
HETATM   14  C12 UNL     1      -6.894 -22.037   3.877  1.00  0.00     0.024 A 
HETATM   15  C13 UNL     1      -7.150 -22.572   5.133  1.00  0.00     0.088 A 
HETATM   16  N2  UNL     1      -7.990 -21.927   5.973  1.00  0.00    -0.375 N 
HETATM   17  C14 UNL     1      -8.558 -20.780   5.566  1.00  0.00     0.088 A 
ATOM     18  H2  UNL     1      -8.190 -22.305   6.899  1.00  0.00     0.164 HD
HETATM   19  C15 UNL     1      -8.321 -20.234   4.334  1.00  0.00     0.024 A 
ENDBRANCH  12  13
ENDBRANCH  11  12
ENDBRANCH   1  11
TORSDOF 10
ENDMDL
MODEL 3
REMARK VINA RESULT: -6.248900090      1.700      5.331
REMARK  10 active torsions:
REMARK  status: ('A' for Active; 'I' for Inactive)
REMARK    1  A    between atoms: C2_2  and  C3_3 
REMARK    2  A    between atoms: C3_3  and  C4_4 
REMARK    3  A    between atoms: C4_4  and  C5_5 
REMARK    4  A    between atoms: C5_5  and  C6_6 
REMARK    5  A    between atoms: C6_6  and  N1_7 
REMARK    6  A    between atoms: N1_7  and  C7_9 
REMARK    7  A    between atoms: C7_9  and  C8_10 
REMARK    8  A    between atoms: C8_10  and  C9_11 
REMARK    9  A    between atoms: C9_11  and  C10_12 
REMARK   10  A    between atoms: C10_12  and  C11_13 
ROOT
HETATM    1  C8  UNL     1      -6.670 -23.289  -0.578  1.00  0.00     0.044 C 
ENDROOT
BRANCH   1   2
HETATM    2  C7  UNL     1      -7.272 -22.908  -1.858  1.00  0.00     0.060 C 
BRANCH   2   3
HETATM    3  N1  UNL     1      -8.384 -22.087  -2.020  1.00  0.00    -0.382 N 
ATOM      4  H1  UNL     1      -9.226 -22.468  -2.450  1.00  0.00     0.163 HD
BRANCH   3   5
HETATM    5  C6  UNL     1      -8.374 -20.759  -1.612  1.00  0.00     0.060 C 
BRANCH   5   6
HETATM    6  C5  UNL     1      -9.222 -20.466  -0.374  1.00  0.00     0.044 C 
BRANCH   6   7
HETATM    7  C4  UNL     1      -8.479 -19.906   0.777  1.00  0.00     0.005 C 
BRANCH   7   8
HETATM    8  C3  UNL     1      -7.024 -19.744   0.355  1.00  0.00     0.000 C 
BRANCH   8   9
HETATM    9  C2  UNL     1      -6.213 -18.901   1.280  1.00  0.00    -0.005 C 
HETATM   10  C1  UNL     1      -6.417 -17.436   0.872  1.00  0.00     0.005 C 
ENDBRANCH   8   9
ENDBRANCH   7   8
ENDBRANCH   6   7
ENDBRANCH   5   6
ENDBRANCH   3   5
ENDBRANCH   2   3
ENDBRANCH   1   2
BRANCH   1  11
HETATM   11  C9  UNL     1      -7.568 -23.650   0.557  1.00  0.00     0.010 C 
BRANCH  11  12
HETATM   12  C10 UNL     1      -6.842 -24.492   1.625  1.00  0.00     0.039 C 
BRANCH  12  13
HETATM   13  C11 UNL     1      -6.795 -23.793   2.910  1.00  0.00    -0.056 A 
HETATM   14  C12 UNL     1      -6.946 -22.421   2.976  1.00  0.00     0.024 A 
HETATM   15  C13 UNL     1      -6.925 -21.734   4.184  1.00  0.00     0.088 A 
HETATM   16  N2  UNL     1      -6.750 -22.419   5.336  1.00  0.00    -0.375 N 
HETATM   17  C14 UNL     1      -6.601 -23.751   5.282  1.00  0.00     0.088 A 
ATOM     18  H2  UNL     1      -6.732 -21.931   6.232  1.00  0.00     0.164 HD
HETATM   19  C15 UNL     1      -6.618 -24.450   4.105  1.00  0.00     0.024 A 
ENDBRANCH  12  13
ENDBRANCH  11  12
ENDBRANCH   1  11
TORSDOF 10
ENDMDL
MODEL 4
REMARK VINA RESULT: -6.247936235      1.047      1.707
REMARK  10 active torsions:
REMARK  status: ('A' for Active; 'I' for Inactive)
REMARK    1  A    between atoms: C2_2  and  C3_3 
REMARK    2  A    between atoms: C3_3  and  C4_4 
REMARK    3  A    between atoms: C4_4  and  C5_5 
REMARK    4  A    between atoms: C5_5  and  C6_6 
REMARK    5  A    between atoms: C6_6  and  N1_7 
REMARK    6  A    between atoms: N1_7  and  C7_9 
REMARK    7  A    between atoms: C7_9  and  C8_10 
REMARK    8  A    between atoms: C8_10  and  C9_11 
REMARK    9  A    between atoms: C9_11  and  C10_12 
REMARK   10  A    between atoms: C10_12  and  C11_13 
ROOT
HETATM    1  C8  UNL     1      -6.595 -23.706   4.097  1.00  0.00     0.044 C 
ENDROOT
BRANCH   1   2
HETATM    2  C7  UNL     1      -6.808 -23.178   5.446  1.00  0.00     0.060 C 
BRANCH   2   3
HETATM    3  N1  UNL     1      -7.723 -22.188   5.796  1.00  0.00    -0.382 N 
ATOM      4  H1  UNL     1      -8.721 -22.374   5.697  1.00  0.00     0.163 HD
BRANCH   3   5
HETATM    5  C6  UNL     1      -7.308 -20.951   6.275  1.00  0.00     0.060 C 
BRANCH   5   6
HETATM    6  C5  UNL     1      -6.254 -20.254   5.415  1.00  0.00     0.044 C 
BRANCH   6   7
HETATM    7  C4  UNL     1      -6.314 -18.775   5.427  1.00  0.00     0.005 C 
BRANCH   7   8
HETATM    8  C3  UNL     1      -6.114 -18.290   3.996  1.00  0.00     0.000 C 
BRANCH   8   9
HETATM    9  C2  UNL     1      -6.729 -19.172   2.964  1.00  0.00    -0.005 C 
HETATM   10  C1  UNL     1      -6.123 -18.792   1.607  1.00  0.00     0.005 C 
ENDBRANCH   8   9
ENDBRANCH   7   8
ENDBRANCH   6   7
ENDBRANCH   5   6
ENDBRANCH   3   5
ENDBRANCH   2   3
ENDBRANCH   1   2
BRANCH   1  11
HETATM   11  C9  UNL     1      -7.078 -22.910   2.932  1.00  0.00     0.010 C 
BRANCH  11  12
HETATM   12  C10 UNL     1      -6.343 -23.285   1.630  1.00  0.00     0.039 C 
BRANCH  12  13
HETATM   13  C11 UNL     1      -7.076 -22.816   0.453  1.00  0.00    -0.056 A 
HETATM   14  C12 UNL     1      -8.058 -21.851   0.567  1.00  0.00     0.024 A 
HETATM   15  C13 UNL     1      -8.756 -21.374  -0.536  1.00  0.00     0.088 A 
HETATM   16  N2  UNL     1      -8.474 -21.863  -1.764  1.00  0.00    -0.375 N 
HETATM   17  C14 UNL     1      -7.522 -22.801  -1.885  1.00  0.00     0.088 A 
ATOM     18  H2  UNL     1      -8.976 -21.524  -2.586  1.00  0.00     0.164 HD
HETATM   19  C15 UNL     1      -6.821 -23.287  -0.814  1.00  0.00     0.024 A 
ENDBRANCH  12  13
ENDBRANCH  11  12
ENDBRANCH   1  11
TORSDOF 10
ENDMDL
MODEL 5
REMARK VINA RESULT: -6.238066835      0.915      1.095
REMARK  10 active torsions:
REMARK  status: ('A' for Active; 'I' for Inactive)
REMARK    1  A    between atoms: C2_2  and  C3_3 
REMARK    2  A    between atoms: C3_3  and  C4_4 
REMARK    3  A    between atoms: C4_4  and  C5_5 
REMARK    4  A    between atoms: C5_5  and  C6_6 
REMARK    5  A    between atoms: C6_6  and  N1_7 
REMARK    6  A    between atoms: N1_7  and  C7_9 
REMARK    7  A    between atoms: C7_9  and  C8_10 
REMARK    8  A    between atoms: C8_10  and  C9_11 
REMARK    9  A    between atoms: C9_11  and  C10_12 
REMARK   10  A    between atoms: C10_12  and  C11_13 
ROOT
HETATM    1  C8  UNL     1      -7.985 -25.175   3.130  1.00  0.00     0.044 C 
ENDROOT
BRANCH   1   2
HETATM    2  C7  UNL     1      -6.953 -24.844   4.115  1.00  0.00     0.060 C 
BRANCH   2   3
HETATM    3  N1  UNL     1      -6.984 -23.763   4.992  1.00  0.00    -0.382 N 
ATOM      4  H1  UNL     1      -6.426 -23.798   5.845  1.00  0.00     0.163 HD
BRANCH   3   5
HETATM    5  C6  UNL     1      -7.757 -22.638   4.734  1.00  0.00     0.060 C 
BRANCH   5   6
HETATM    6  C5  UNL     1      -6.961 -21.394   4.339  1.00  0.00     0.044 C 
BRANCH   6   7
HETATM    7  C4  UNL     1      -6.273 -20.709   5.456  1.00  0.00     0.005 C 
BRANCH   7   8
HETATM    8  C3  UNL     1      -6.246 -19.219   5.141  1.00  0.00     0.000 C 
BRANCH   8   9
HETATM    9  C2  UNL     1      -6.520 -18.894   3.712  1.00  0.00    -0.005 C 
HETATM   10  C1  UNL     1      -5.562 -17.769   3.299  1.00  0.00     0.005 C 
ENDBRANCH   8   9
ENDBRANCH   7   8
ENDBRANCH   6   7
ENDBRANCH   5   6
ENDBRANCH   3   5
ENDBRANCH   2   3
ENDBRANCH   1   2
BRANCH   1  11
HETATM   11  C9  UNL     1      -7.638 -25.108   1.680  1.00  0.00     0.010 C 
BRANCH  11  12
HETATM   12  C10 UNL     1      -6.781 -23.871   1.347  1.00  0.00     0.039 C 
BRANCH  12  13
HETATM   13  C11 UNL     1      -7.353 -23.113   0.233  1.00  0.00    -0.056 A 
HETATM   14  C12 UNL     1      -8.338 -22.168   0.450  1.00  0.00     0.024 A 
HETATM   15  C13 UNL     1      -8.885 -21.421  -0.586  1.00  0.00     0.088 A 
HETATM   16  N2  UNL     1      -8.449 -21.618  -1.850  1.00  0.00    -0.375 N 
HETATM   17  C14 UNL     1      -7.494 -22.534  -2.071  1.00  0.00     0.088 A 
ATOM     18  H2  UNL     1      -8.839 -21.078  -2.623  1.00  0.00     0.164 HD
HETATM   19  C15 UNL     1      -6.940 -23.282  -1.068  1.00  0.00     0.024 A 
ENDBRANCH  12  13
ENDBRANCH  11  12
ENDBRANCH   1  11
TORSDOF 10
ENDMDL
