MODEL 1
REMARK VINA RESULT: -5.517818583      0.000      0.000
REMARK  11 active torsions:
REMARK  status: ('A' for Active; 'I' for Inactive)
REMARK    1  A    between atoms: C3_3  and  C4_4 
REMARK    2  A    between atoms: C4_4  and  C5_5 
REMARK    3  A    between atoms: C5_5  and  C6_6 
REMARK    4  A    between atoms: C6_6  and  O1_7 
REMARK    5  A    between atoms: O1_7  and  C7_8 
REMARK    6  A    between atoms: C7_8  and  C8_9 
REMARK    7  A    between atoms: C8_9  and  C9_10 
REMARK    8  A    between atoms: C9_10  and  C10_11 
REMARK    9  A    between atoms: C10_11  and  C11_12 
REMARK   10  A    between atoms: C11_12  and  C12_13 
REMARK   11  A    between atoms: C11_12  and  C14_15 
ROOT
HETATM    1  C1  UNL     1      -6.516 -18.753   0.685  1.00  0.00     0.012 C 
HETATM    2  C2  UNL     1      -6.680 -19.214   1.790  1.00  0.00    -0.117 C 
HETATM    3  C3  UNL     1      -6.888 -19.756   3.125  1.00  0.00     0.093 C 
ENDROOT
BRANCH   3   4
HETATM    4  C4  UNL     1      -7.637 -21.087   3.036  1.00  0.00     0.014 C 
BRANCH   4   5
HETATM    5  C5  UNL     1      -6.773 -22.103   3.785  1.00  0.00     0.027 C 
BRANCH   5   6
HETATM    6  C6  UNL     1      -7.630 -22.975   4.657  1.00  0.00     0.167 C 
BRANCH   6   7
HETATM    7  O1  UNL     1      -8.371 -23.866   3.949  1.00  0.00    -0.391 OA
BRANCH   7   8
HETATM    8  C7  UNL     1      -7.657 -24.861   3.375  1.00  0.00     0.167 C 
BRANCH   8   9
HETATM    9  C8  UNL     1      -7.939 -25.191   1.958  1.00  0.00     0.026 C 
BRANCH   9  10
HETATM   10  C9  UNL     1      -7.108 -24.503   0.912  1.00  0.00     0.002 C 
BRANCH  10  11
HETATM   11  C10 UNL     1      -7.801 -23.339   0.342  1.00  0.00     0.005 C 
BRANCH  11  12
HETATM   12  C11 UNL     1      -7.057 -22.636  -0.811  1.00  0.00    -0.015 C 
BRANCH  12  13
HETATM   13  C12 UNL     1      -7.955 -21.635  -1.411  1.00  0.00    -0.000 C 
HETATM   14  C13 UNL     1      -9.085 -21.117  -0.596  1.00  0.00     0.005 C 
ENDBRANCH  12  13
BRANCH  12  15
HETATM   15  C14 UNL     1      -5.735 -22.192  -0.303  1.00  0.00    -0.000 C 
HETATM   16  C15 UNL     1      -4.744 -21.689  -1.296  1.00  0.00     0.005 C 
ENDBRANCH  12  15
ENDBRANCH  11  12
ENDBRANCH  10  11
ENDBRANCH   9  10
ENDBRANCH   8   9
ENDBRANCH   7   8
ENDBRANCH   6   7
ENDBRANCH   5   6
ENDBRANCH   4   5
ENDBRANCH   3   4
TORSDOF 11
ENDMDL
MODEL 2
REMARK VINA RESULT: -5.515332400      1.672      1.960
REMARK  11 active torsions:
REMARK  status: ('A' for Active; 'I' for Inactive)
REMARK    1  A    between atoms: C3_3  and  C4_4 
REMARK    2  A    between atoms: C4_4  and  C5_5 
REMARK    3  A    between atoms: C5_5  and  C6_6 
REMARK    4  A    between atoms: C6_6  and  O1_7 
REMARK    5  A    between atoms: O1_7  and  C7_8 
REMARK    6  A    between atoms: C7_8  and  C8_9 
REMARK    7  A    between atoms: C8_9  and  C9_10 
REMARK    8  A    between atoms: C9_10  and  C10_11 
REMARK    9  A    between atoms: C10_11  and  C11_12 
REMARK   10  A    between atoms: C11_12  and  C12_13 
REMARK   11  A    between atoms: C11_12  and  C14_15 
ROOT
HETATM    1  C1  UNL     1      -6.148 -18.406   4.889  1.00  0.00     0.012 C 
HETATM    2  C2  UNL     1      -6.480 -19.455   5.388  1.00  0.00    -0.117 C 
HETATM    3  C3  UNL     1      -6.894 -20.719   5.979  1.00  0.00     0.093 C 
ENDROOT
BRANCH   3   4
HETATM    4  C4  UNL     1      -5.842 -21.794   5.699  1.00  0.00     0.014 C 
BRANCH   4   5
HETATM    5  C5  UNL     1      -6.394 -22.625   4.539  1.00  0.00     0.027 C 
BRANCH   5   6
HETATM    6  C6  UNL     1      -6.572 -24.056   4.960  1.00  0.00     0.167 C 
BRANCH   6   7
HETATM    7  O1  UNL     1      -6.744 -24.899   3.910  1.00  0.00    -0.391 OA
BRANCH   7   8
HETATM    8  C7  UNL     1      -7.945 -24.795   3.296  1.00  0.00     0.167 C 
BRANCH   8   9
HETATM    9  C8  UNL     1      -8.008 -25.070   1.841  1.00  0.00     0.026 C 
BRANCH   9  10
HETATM   10  C9  UNL     1      -7.068 -24.303   0.954  1.00  0.00     0.002 C 
BRANCH  10  11
HETATM   11  C10 UNL     1      -7.688 -23.080   0.427  1.00  0.00     0.005 C 
BRANCH  11  12
HETATM   12  C11 UNL     1      -7.583 -22.900  -1.101  1.00  0.00    -0.015 C 
BRANCH  12  13
HETATM   13  C12 UNL     1      -8.256 -21.644  -1.475  1.00  0.00    -0.000 C 
HETATM   14  C13 UNL     1      -9.184 -21.018  -0.498  1.00  0.00     0.005 C 
ENDBRANCH  12  13
BRANCH  12  15
HETATM   15  C14 UNL     1      -6.165 -23.092  -1.491  1.00  0.00    -0.000 C 
HETATM   16  C15 UNL     1      -5.254 -21.916  -1.396  1.00  0.00     0.005 C 
ENDBRANCH  12  15
ENDBRANCH  11  12
ENDBRANCH  10  11
ENDBRANCH   9  10
ENDBRANCH   8   9
ENDBRANCH   7   8
ENDBRANCH   6   7
ENDBRANCH   5   6
ENDBRANCH   4   5
ENDBRANCH   3   4
TORSDOF 11
ENDMDL
MODEL 3
REMARK VINA RESULT: -5.388961832      1.324      2.314
REMARK  11 active torsions:
REMARK  status: ('A' for Active; 'I' for Inactive)
REMARK    1  A    between atoms: C3_3  and  C4_4 
REMARK    2  A    between atoms: C4_4  and  C5_5 
REMARK    3  A    between atoms: C5_5  and  C6_6 
REMARK    4  A    between atoms: C6_6  and  O1_7 
REMARK    5  A    between atoms: O1_7  and  C7_8 
REMARK    6  A    between atoms: C7_8  and  C8_9 
REMARK    7  A    between atoms: C8_9  and  C9_10 
REMARK    8  A    between atoms: C9_10  and  C10_11 
REMARK    9  A    between atoms: C10_11  and  C11_12 
REMARK   10  A    between atoms: C11_12  and  C12_13 
REMARK   11  A    between atoms: C11_12  and  C14_15 
ROOT
HETATM    1  C1  UNL     1      -6.434 -18.790   4.960  1.00  0.00     0.012 C 
HETATM    2  C2  UNL     1      -6.285 -19.941   5.297  1.00  0.00    -0.117 C 
HETATM    3  C3  UNL     1      -6.117 -21.325   5.714  1.00  0.00     0.093 C 
ENDROOT
BRANCH   3   4
HETATM    4  C4  UNL     1      -6.525 -22.265   4.577  1.00  0.00     0.014 C 
BRANCH   4   5
HETATM    5  C5  UNL     1      -6.552 -23.668   5.186  1.00  0.00     0.027 C 
BRANCH   5   6
HETATM    6  C6  UNL     1      -6.985 -24.675   4.158  1.00  0.00     0.167 C 
BRANCH   6   7
HETATM    7  O1  UNL     1      -8.238 -24.444   3.687  1.00  0.00    -0.391 OA
BRANCH   7   8
HETATM    8  C7  UNL     1      -8.499 -25.005   2.485  1.00  0.00     0.167 C 
BRANCH   8   9
HETATM    9  C8  UNL     1      -7.405 -25.048   1.486  1.00  0.00     0.026 C 
BRANCH   9  10
HETATM   10  C9  UNL     1      -7.325 -23.915   0.502  1.00  0.00     0.002 C 
BRANCH  10  11
HETATM   11  C10 UNL     1      -6.349 -22.898   0.917  1.00  0.00     0.005 C 
BRANCH  11  12
HETATM   12  C11 UNL     1      -6.443 -21.556   0.164  1.00  0.00    -0.015 C 
BRANCH  12  13
HETATM   13  C12 UNL     1      -7.108 -21.787  -1.129  1.00  0.00    -0.000 C 
HETATM   14  C13 UNL     1      -8.230 -20.896  -1.521  1.00  0.00     0.005 C 
ENDBRANCH  12  13
BRANCH  12  15
HETATM   15  C14 UNL     1      -7.018 -20.548   1.090  1.00  0.00    -0.000 C 
HETATM   16  C15 UNL     1      -6.319 -19.237   1.208  1.00  0.00     0.005 C 
ENDBRANCH  12  15
ENDBRANCH  11  12
ENDBRANCH  10  11
ENDBRANCH   9  10
ENDBRANCH   8   9
ENDBRANCH   7   8
ENDBRANCH   6   7
ENDBRANCH   5   6
ENDBRANCH   4   5
ENDBRANCH   3   4
TORSDOF 11
ENDMDL
MODEL 4
REMARK VINA RESULT: -5.370480480      1.623      2.756
REMARK  11 active torsions:
REMARK  status: ('A' for Active; 'I' for Inactive)
REMARK    1  A    between atoms: C3_3  and  C4_4 
REMARK    2  A    between atoms: C4_4  and  C5_5 
REMARK    3  A    between atoms: C5_5  and  C6_6 
REMARK    4  A    between atoms: C6_6  and  O1_7 
REMARK    5  A    between atoms: O1_7  and  C7_8 
REMARK    6  A    between atoms: C7_8  and  C8_9 
REMARK    7  A    between atoms: C8_9  and  C9_10 
REMARK    8  A    between atoms: C9_10  and  C10_11 
REMARK    9  A    between atoms: C10_11  and  C11_12 
REMARK   10  A    between atoms: C11_12  and  C12_13 
REMARK   11  A    between atoms: C11_12  and  C14_15 
ROOT
HETATM    1  C1  UNL     1      -6.164 -18.924   5.068  1.00  0.00     0.012 C 
HETATM    2  C2  UNL     1      -6.563 -20.005   5.433  1.00  0.00    -0.117 C 
HETATM    3  C3  UNL     1      -7.055 -21.306   5.858  1.00  0.00     0.093 C 
ENDROOT
BRANCH   3   4
HETATM    4  C4  UNL     1      -5.937 -22.346   5.753  1.00  0.00     0.014 C 
BRANCH   4   5
HETATM    5  C5  UNL     1      -6.617 -23.646   5.318  1.00  0.00     0.027 C 
BRANCH   5   6
HETATM    6  C6  UNL     1      -7.473 -23.408   4.107  1.00  0.00     0.167 C 
BRANCH   6   7
HETATM    7  O1  UNL     1      -8.309 -24.444   3.837  1.00  0.00    -0.391 OA
BRANCH   7   8
HETATM    8  C7  UNL     1      -8.312 -24.841   2.544  1.00  0.00     0.167 C 
BRANCH   8   9
HETATM    9  C8  UNL     1      -7.058 -24.695   1.768  1.00  0.00     0.026 C 
BRANCH   9  10
HETATM   10  C9  UNL     1      -7.159 -24.064   0.408  1.00  0.00     0.002 C 
BRANCH  10  11
HETATM   11  C10 UNL     1      -7.700 -22.700   0.477  1.00  0.00     0.005 C 
BRANCH  11  12
HETATM   12  C11 UNL     1      -7.181 -21.736  -0.609  1.00  0.00    -0.015 C 
BRANCH  12  13
HETATM   13  C12 UNL     1      -6.078 -22.391  -1.333  1.00  0.00    -0.000 C 
HETATM   14  C13 UNL     1      -4.748 -21.729  -1.352  1.00  0.00     0.005 C 
ENDBRANCH  12  13
BRANCH  12  15
HETATM   15  C14 UNL     1      -8.347 -21.243  -1.383  1.00  0.00    -0.000 C 
HETATM   16  C15 UNL     1      -9.526 -20.745  -0.619  1.00  0.00     0.005 C 
ENDBRANCH  12  15
ENDBRANCH  11  12
ENDBRANCH  10  11
ENDBRANCH   9  10
ENDBRANCH   8   9
ENDBRANCH   7   8
ENDBRANCH   6   7
ENDBRANCH   5   6
ENDBRANCH   4   5
ENDBRANCH   3   4
TORSDOF 11
ENDMDL
MODEL 5
REMARK VINA RESULT: -5.320209057      2.396      4.567
REMARK  11 active torsions:
REMARK  status: ('A' for Active; 'I' for Inactive)
REMARK    1  A    between atoms: C3_3  and  C4_4 
REMARK    2  A    between atoms: C4_4  and  C5_5 
REMARK    3  A    between atoms: C5_5  and  C6_6 
REMARK    4  A    between atoms: C6_6  and  O1_7 
REMARK    5  A    between atoms: O1_7  and  C7_8 
REMARK    6  A    between atoms: C7_8  and  C8_9 
REMARK    7  A    between atoms: C8_9  and  C9_10 
REMARK    8  A    between atoms: C9_10  and  C10_11 
REMARK    9  A    between atoms: C10_11  and  C11_12 
REMARK   10  A    between atoms: C11_12  and  C12_13 
REMARK   11  A    between atoms: C11_12  and  C14_15 
ROOT
HETATM    1  C1  UNL     1      -5.812 -22.129   5.942  1.00  0.00     0.012 C 
HETATM    2  C2  UNL     1      -6.302 -21.187   5.364  1.00  0.00    -0.117 C 
HETATM    3  C3  UNL     1      -6.904 -20.054   4.679  1.00  0.00     0.093 C 
ENDROOT
BRANCH   3   4
HETATM    4  C4  UNL     1      -6.018 -18.816   4.838  1.00  0.00     0.014 C 
BRANCH   4   5
HETATM    5  C5  UNL     1      -6.482 -17.830   3.765  1.00  0.00     0.027 C 
BRANCH   5   6
HETATM    6  C6  UNL     1      -5.315 -17.375   2.935  1.00  0.00     0.167 C 
BRANCH   6   7
HETATM    7  O1  UNL     1      -5.177 -18.082   1.784  1.00  0.00    -0.391 OA
BRANCH   7   8
HETATM    8  C7  UNL     1      -6.299 -18.154   1.031  1.00  0.00     0.167 C 
BRANCH   8   9
HETATM    9  C8  UNL     1      -6.662 -19.467   0.449  1.00  0.00     0.026 C 
BRANCH   9  10
HETATM   10  C9  UNL     1      -7.726 -20.262   1.151  1.00  0.00     0.002 C 
BRANCH  10  11
HETATM   11  C10 UNL     1      -8.262 -21.333   0.299  1.00  0.00     0.005 C 
BRANCH  11  12
HETATM   12  C11 UNL     1      -7.795 -22.755   0.667  1.00  0.00    -0.015 C 
BRANCH  12  13
HETATM   13  C12 UNL     1      -6.982 -23.285  -0.441  1.00  0.00    -0.000 C 
HETATM   14  C13 UNL     1      -7.346 -22.910  -1.832  1.00  0.00     0.005 C 
ENDBRANCH  12  13
BRANCH  12  15
HETATM   15  C14 UNL     1      -7.203 -22.709   2.026  1.00  0.00    -0.000 C 
HETATM   16  C15 UNL     1      -6.528 -23.938   2.531  1.00  0.00     0.005 C 
ENDBRANCH  12  15
ENDBRANCH  11  12
ENDBRANCH  10  11
ENDBRANCH   9  10
ENDBRANCH   8   9
ENDBRANCH   7   8
ENDBRANCH   6   7
ENDBRANCH   5   6
ENDBRANCH   4   5
ENDBRANCH   3   4
TORSDOF 11
ENDMDL
