MODEL 1
REMARK VINA RESULT: -6.108630188      0.000      0.000
REMARK  10 active torsions:
REMARK  status: ('A' for Active; 'I' for Inactive)
REMARK    1  A    between atoms: C2_2  and  C3_3 
REMARK    2  A    between atoms: C3_3  and  C4_4 
REMARK    3  A    between atoms: C3_3  and  C12_12 
REMARK    4  A    between atoms: C4_4  and  C5_5 
REMARK    5  A    between atoms: C5_5  and  C6_6 
REMARK    6  A    between atoms: C6_6  and  C7_7 
REMARK    7  A    between atoms: C7_7  and  C8_8 
REMARK    8  A    between atoms: C8_8  and  C9_9 
REMARK    9  A    between atoms: C12_12  and  N1_13 
REMARK   10  A    between atoms: N1_13  and  C13_16 
ROOT
HETATM    1  C3  UNL     1      -6.260 -22.766   0.221  1.00  0.00     0.011 C 
ENDROOT
BRANCH   1   2
HETATM    2  C2  UNL     1      -5.806 -22.651  -1.223  1.00  0.00     0.002 C 
HETATM    3  C1  UNL     1      -4.696 -21.633  -1.380  1.00  0.00     0.005 C 
ENDBRANCH   1   2
BRANCH   1   4
HETATM    4  C4  UNL     1      -7.362 -23.758   0.390  1.00  0.00     0.006 C 
BRANCH   4   5
HETATM    5  C5  UNL     1      -6.944 -24.879   1.302  1.00  0.00     0.000 C 
BRANCH   5   6
HETATM    6  C6  UNL     1      -8.148 -25.230   2.166  1.00  0.00     0.000 C 
BRANCH   6   7
HETATM    7  C7  UNL     1      -8.079 -24.519   3.500  1.00  0.00     0.000 C 
BRANCH   7   8
HETATM    8  C8  UNL     1      -6.700 -24.581   4.106  1.00  0.00     0.004 C 
BRANCH   8   9
HETATM    9  C9  UNL     1      -6.374 -23.216   4.670  1.00  0.00    -0.023 C 
HETATM   10  C10 UNL     1      -7.505 -22.257   4.318  1.00  0.00     0.009 C 
HETATM   11  C11 UNL     1      -6.244 -23.264   6.156  1.00  0.00     0.009 C 
ENDBRANCH   8   9
ENDBRANCH   7   8
ENDBRANCH   6   7
ENDBRANCH   5   6
ENDBRANCH   4   5
ENDBRANCH   1   4
BRANCH   1  12
HETATM   12  C12 UNL     1      -6.756 -21.400   0.620  1.00  0.00     0.237 C 
BRANCH  12  13
HETATM   13  N1  UNL     1      -8.175 -21.463   0.971  1.00  0.00    -0.071 N 
ATOM     14  H12 UNL     1      -8.599 -22.377   0.812  1.00  0.00     0.277 HD
ATOM     15  H11 UNL     1      -8.353 -21.424   1.975  1.00  0.00     0.277 HD
BRANCH  13  16
HETATM   16  C13 UNL     1      -8.800 -20.384   0.220  1.00  0.00     0.186 A 
HETATM   17  C14 UNL     1     -10.152 -20.522  -0.356  1.00  0.00     0.035 A 
HETATM   18  C15 UNL     1      -8.918 -20.599  -1.243  1.00  0.00     0.035 A 
ENDBRANCH  13  16
ENDBRANCH  12  13
ENDBRANCH   1  12
TORSDOF 10
ENDMDL
MODEL 2
REMARK VINA RESULT: -6.058542621      1.236      5.454
REMARK  10 active torsions:
REMARK  status: ('A' for Active; 'I' for Inactive)
REMARK    1  A    between atoms: C2_2  and  C3_3 
REMARK    2  A    between atoms: C3_3  and  C4_4 
REMARK    3  A    between atoms: C3_3  and  C12_12 
REMARK    4  A    between atoms: C4_4  and  C5_5 
REMARK    5  A    between atoms: C5_5  and  C6_6 
REMARK    6  A    between atoms: C6_6  and  C7_7 
REMARK    7  A    between atoms: C7_7  and  C8_8 
REMARK    8  A    between atoms: C8_8  and  C9_9 
REMARK    9  A    between atoms: C12_12  and  N1_13 
REMARK   10  A    between atoms: N1_13  and  C13_16 
ROOT
HETATM    1  C3  UNL     1      -7.477 -23.736   1.446  1.00  0.00     0.011 C 
ENDROOT
BRANCH   1   2
HETATM    2  C2  UNL     1      -7.359 -25.146   1.996  1.00  0.00     0.002 C 
HETATM    3  C1  UNL     1      -8.541 -25.504   2.872  1.00  0.00     0.005 C 
ENDBRANCH   1   2
BRANCH   1   4
HETATM    4  C4  UNL     1      -7.104 -23.659   0.004  1.00  0.00     0.006 C 
BRANCH   4   5
HETATM    5  C5  UNL     1      -6.083 -22.579  -0.233  1.00  0.00     0.000 C 
BRANCH   5   6
HETATM    6  C6  UNL     1      -6.465 -21.873  -1.527  1.00  0.00     0.000 C 
BRANCH   6   7
HETATM    7  C7  UNL     1      -7.955 -21.966  -1.772  1.00  0.00     0.000 C 
BRANCH   7   8
HETATM    8  C8  UNL     1      -8.661 -20.667  -1.479  1.00  0.00     0.004 C 
BRANCH   8   9
HETATM    9  C9  UNL     1      -9.451 -20.842  -0.201  1.00  0.00    -0.023 C 
HETATM   10  C10 UNL     1      -8.766 -20.058   0.912  1.00  0.00     0.009 C 
HETATM   11  C11 UNL     1     -10.843 -20.324  -0.352  1.00  0.00     0.009 C 
ENDBRANCH   8   9
ENDBRANCH   7   8
ENDBRANCH   6   7
ENDBRANCH   5   6
ENDBRANCH   4   5
ENDBRANCH   1   4
BRANCH   1  12
HETATM   12  C12 UNL     1      -6.528 -22.886   2.251  1.00  0.00     0.237 C 
BRANCH  12  13
HETATM   13  N1  UNL     1      -7.227 -22.294   3.392  1.00  0.00    -0.071 N 
ATOM     14  H12 UNL     1      -7.496 -21.321   3.252  1.00  0.00     0.277 HD
ATOM     15  H11 UNL     1      -8.170 -22.657   3.532  1.00  0.00     0.277 HD
BRANCH  13  16
HETATM   16  C13 UNL     1      -6.342 -22.503   4.529  1.00  0.00     0.186 A 
HETATM   17  C14 UNL     1      -6.539 -23.621   5.471  1.00  0.00     0.035 A 
HETATM   18  C15 UNL     1      -6.918 -22.201   5.862  1.00  0.00     0.035 A 
ENDBRANCH  13  16
ENDBRANCH  12  13
ENDBRANCH   1  12
TORSDOF 10
ENDMDL
MODEL 3
REMARK VINA RESULT: -5.998525224      1.510      5.563
REMARK  10 active torsions:
REMARK  status: ('A' for Active; 'I' for Inactive)
REMARK    1  A    between atoms: C2_2  and  C3_3 
REMARK    2  A    between atoms: C3_3  and  C4_4 
REMARK    3  A    between atoms: C3_3  and  C12_12 
REMARK    4  A    between atoms: C4_4  and  C5_5 
REMARK    5  A    between atoms: C5_5  and  C6_6 
REMARK    6  A    between atoms: C6_6  and  C7_7 
REMARK    7  A    between atoms: C7_7  and  C8_8 
REMARK    8  A    between atoms: C8_8  and  C9_9 
REMARK    9  A    between atoms: C12_12  and  N1_13 
REMARK   10  A    between atoms: N1_13  and  C13_16 
ROOT
HETATM    1  C3  UNL     1      -7.381 -23.273   2.435  1.00  0.00     0.011 C 
ENDROOT
BRANCH   1   2
HETATM    2  C2  UNL     1      -7.265 -24.660   3.041  1.00  0.00     0.002 C 
HETATM    3  C1  UNL     1      -8.523 -25.473   2.820  1.00  0.00     0.005 C 
ENDBRANCH   1   2
BRANCH   1   4
HETATM    4  C4  UNL     1      -6.420 -23.064   1.314  1.00  0.00     0.006 C 
BRANCH   4   5
HETATM    5  C5  UNL     1      -6.915 -23.712   0.049  1.00  0.00     0.000 C 
BRANCH   5   6
HETATM    6  C6  UNL     1      -6.720 -22.707  -1.079  1.00  0.00     0.000 C 
BRANCH   6   7
HETATM    7  C7  UNL     1      -8.047 -22.332  -1.700  1.00  0.00     0.000 C 
BRANCH   7   8
HETATM    8  C8  UNL     1      -8.443 -20.912  -1.382  1.00  0.00     0.004 C 
BRANCH   8   9
HETATM    9  C9  UNL     1      -9.238 -20.926  -0.095  1.00  0.00    -0.023 C 
HETATM   10  C10 UNL     1      -8.569 -19.991   0.906  1.00  0.00     0.009 C 
HETATM   11  C11 UNL     1     -10.635 -20.450  -0.320  1.00  0.00     0.009 C 
ENDBRANCH   8   9
ENDBRANCH   7   8
ENDBRANCH   6   7
ENDBRANCH   5   6
ENDBRANCH   4   5
ENDBRANCH   1   4
BRANCH   1  12
HETATM   12  C12 UNL     1      -7.072 -22.299   3.543  1.00  0.00     0.237 C 
BRANCH  12  13
HETATM   13  N1  UNL     1      -7.981 -22.513   4.670  1.00  0.00    -0.071 N 
ATOM     14  H12 UNL     1      -8.850 -21.985   4.604  1.00  0.00     0.277 HD
ATOM     15  H11 UNL     1      -8.407 -23.440   4.685  1.00  0.00     0.277 HD
BRANCH  13  16
HETATM   16  C13 UNL     1      -7.194 -22.208   5.856  1.00  0.00     0.186 A 
HETATM   17  C14 UNL     1      -5.752 -21.907   5.773  1.00  0.00     0.035 A 
HETATM   18  C15 UNL     1      -6.235 -23.256   6.284  1.00  0.00     0.035 A 
ENDBRANCH  13  16
ENDBRANCH  12  13
ENDBRANCH   1  12
TORSDOF 10
ENDMDL
MODEL 4
REMARK VINA RESULT: -5.996509367      1.834      5.648
REMARK  10 active torsions:
REMARK  status: ('A' for Active; 'I' for Inactive)
REMARK    1  A    between atoms: C2_2  and  C3_3 
REMARK    2  A    between atoms: C3_3  and  C4_4 
REMARK    3  A    between atoms: C3_3  and  C12_12 
REMARK    4  A    between atoms: C4_4  and  C5_5 
REMARK    5  A    between atoms: C5_5  and  C6_6 
REMARK    6  A    between atoms: C6_6  and  C7_7 
REMARK    7  A    between atoms: C7_7  and  C8_8 
REMARK    8  A    between atoms: C8_8  and  C9_9 
REMARK    9  A    between atoms: C12_12  and  N1_13 
REMARK   10  A    between atoms: N1_13  and  C13_16 
ROOT
HETATM    1  C3  UNL     1      -7.648 -23.525   3.177  1.00  0.00     0.011 C 
ENDROOT
BRANCH   1   2
HETATM    2  C2  UNL     1      -7.389 -24.959   2.751  1.00  0.00     0.002 C 
HETATM    3  C1  UNL     1      -7.255 -25.080   1.248  1.00  0.00     0.005 C 
ENDBRANCH   1   2
BRANCH   1   4
HETATM    4  C4  UNL     1      -6.863 -22.545   2.370  1.00  0.00     0.006 C 
BRANCH   4   5
HETATM    5  C5  UNL     1      -7.722 -21.386   1.943  1.00  0.00     0.000 C 
BRANCH   5   6
HETATM    6  C6  UNL     1      -6.788 -20.228   1.620  1.00  0.00     0.000 C 
BRANCH   6   7
HETATM    7  C7  UNL     1      -6.265 -20.337   0.205  1.00  0.00     0.000 C 
BRANCH   7   8
HETATM    8  C8  UNL     1      -7.343 -20.736  -0.771  1.00  0.00     0.004 C 
BRANCH   8   9
HETATM    9  C9  UNL     1      -6.771 -21.787  -1.695  1.00  0.00    -0.023 C 
HETATM   10  C10 UNL     1      -5.390 -22.188  -1.190  1.00  0.00     0.009 C 
HETATM   11  C11 UNL     1      -7.632 -23.006  -1.724  1.00  0.00     0.009 C 
ENDBRANCH   8   9
ENDBRANCH   7   8
ENDBRANCH   6   7
ENDBRANCH   5   6
ENDBRANCH   4   5
ENDBRANCH   1   4
BRANCH   1  12
HETATM   12  C12 UNL     1      -7.228 -23.429   4.621  1.00  0.00     0.237 C 
BRANCH  12  13
HETATM   13  N1  UNL     1      -8.093 -22.489   5.335  1.00  0.00    -0.071 N 
ATOM     14  H12 UNL     1      -8.710 -21.953   4.726  1.00  0.00     0.277 HD
ATOM     15  H11 UNL     1      -8.827 -22.938   5.882  1.00  0.00     0.277 HD
BRANCH  13  16
HETATM   16  C13 UNL     1      -7.188 -21.667   6.126  1.00  0.00     0.186 A 
HETATM   17  C14 UNL     1      -6.359 -20.613   5.512  1.00  0.00     0.035 A 
HETATM   18  C15 UNL     1      -5.741 -21.935   5.941  1.00  0.00     0.035 A 
ENDBRANCH  13  16
ENDBRANCH  12  13
ENDBRANCH   1  12
TORSDOF 10
ENDMDL
MODEL 5
REMARK VINA RESULT: -5.918082278      1.256      1.734
REMARK  10 active torsions:
REMARK  status: ('A' for Active; 'I' for Inactive)
REMARK    1  A    between atoms: C2_2  and  C3_3 
REMARK    2  A    between atoms: C3_3  and  C4_4 
REMARK    3  A    between atoms: C3_3  and  C12_12 
REMARK    4  A    between atoms: C4_4  and  C5_5 
REMARK    5  A    between atoms: C5_5  and  C6_6 
REMARK    6  A    between atoms: C6_6  and  C7_7 
REMARK    7  A    between atoms: C7_7  and  C8_8 
REMARK    8  A    between atoms: C8_8  and  C9_9 
REMARK    9  A    between atoms: C12_12  and  N1_13 
REMARK   10  A    between atoms: N1_13  and  C13_16 
ROOT
HETATM    1  C3  UNL     1      -6.341 -22.800   0.212  1.00  0.00     0.011 C 
ENDROOT
BRANCH   1   2
HETATM    2  C2  UNL     1      -6.190 -22.937  -1.292  1.00  0.00     0.002 C 
HETATM    3  C1  UNL     1      -7.534 -22.957  -1.989  1.00  0.00     0.005 C 
ENDBRANCH   1   2
BRANCH   1   4
HETATM    4  C4  UNL     1      -7.569 -23.478   0.721  1.00  0.00     0.006 C 
BRANCH   4   5
HETATM    5  C5  UNL     1      -7.246 -24.843   1.264  1.00  0.00     0.000 C 
BRANCH   5   6
HETATM    6  C6  UNL     1      -8.288 -25.164   2.328  1.00  0.00     0.000 C 
BRANCH   6   7
HETATM    7  C7  UNL     1      -8.068 -24.325   3.567  1.00  0.00     0.000 C 
BRANCH   7   8
HETATM    8  C8  UNL     1      -6.696 -24.529   4.156  1.00  0.00     0.004 C 
BRANCH   8   9
HETATM    9  C9  UNL     1      -6.227 -23.207   4.722  1.00  0.00    -0.023 C 
HETATM   10  C10 UNL     1      -7.134 -22.100   4.198  1.00  0.00     0.009 C 
HETATM   11  C11 UNL     1      -6.296 -23.204   6.213  1.00  0.00     0.009 C 
ENDBRANCH   8   9
ENDBRANCH   7   8
ENDBRANCH   6   7
ENDBRANCH   5   6
ENDBRANCH   4   5
ENDBRANCH   1   4
BRANCH   1  12
HETATM   12  C12 UNL     1      -6.436 -21.322   0.495  1.00  0.00     0.237 C 
BRANCH  12  13
HETATM   13  N1  UNL     1      -7.804 -20.972   0.882  1.00  0.00    -0.071 N 
ATOM     14  H12 UNL     1      -8.505 -21.213   0.183  1.00  0.00     0.277 HD
ATOM     15  H11 UNL     1      -8.181 -21.550   1.633  1.00  0.00     0.277 HD
BRANCH  13  16
HETATM   16  C13 UNL     1      -7.755 -19.552   1.201  1.00  0.00     0.186 A 
HETATM   17  C14 UNL     1      -6.792 -18.643   0.551  1.00  0.00     0.035 A 
HETATM   18  C15 UNL     1      -6.577 -19.105   1.985  1.00  0.00     0.035 A 
ENDBRANCH  13  16
ENDBRANCH  12  13
ENDBRANCH   1  12
TORSDOF 10
ENDMDL
