MODEL 1
REMARK VINA RESULT: -5.693391001      0.000      0.000
REMARK  11 active torsions:
REMARK  status: ('A' for Active; 'I' for Inactive)
REMARK    1  A    between atoms: C2_2  and  C3_3 
REMARK    2  A    between atoms: C3_3  and  C4_4 
REMARK    3  A    between atoms: C4_4  and  C5_5 
REMARK    4  A    between atoms: C5_5  and  C6_6 
REMARK    5  A    between atoms: C6_6  and  C7_7 
REMARK    6  A    between atoms: C7_7  and  C8_8 
REMARK    7  A    between atoms: C7_7  and  C9_13 
REMARK    8  A    between atoms: C8_8  and  N1_9 
REMARK    9  A    between atoms: C9_13  and  C10_14 
REMARK   10  A    between atoms: C10_14  and  C11_15 
REMARK   11  A    between atoms: C11_15  and  C12_16 
ROOT
HETATM    1  C7  UNL     1      -8.171 -21.116   0.526  1.00  0.00     0.011 C 
ENDROOT
BRANCH   1   2
HETATM    2  C6  UNL     1      -7.957 -22.588   0.470  1.00  0.00     0.006 C 
BRANCH   2   3
HETATM    3  C5  UNL     1      -6.559 -23.034   0.724  1.00  0.00     0.000 C 
BRANCH   3   4
HETATM    4  C4  UNL     1      -6.591 -24.242   1.631  1.00  0.00     0.000 C 
BRANCH   4   5
HETATM    5  C3  UNL     1      -7.919 -24.911   1.732  1.00  0.00    -0.000 C 
BRANCH   5   6
HETATM    6  C2  UNL     1      -8.164 -25.204   3.207  1.00  0.00    -0.005 C 
HETATM    7  C1  UNL     1      -6.869 -25.296   3.970  1.00  0.00     0.005 C 
ENDBRANCH   5   6
ENDBRANCH   4   5
ENDBRANCH   3   4
ENDBRANCH   2   3
ENDBRANCH   1   2
BRANCH   1   8
HETATM    8  C8  UNL     1      -8.296 -20.474  -0.839  1.00  0.00     0.234 C 
BRANCH   8   9
HETATM    9  N1  UNL     1      -8.645 -21.479  -1.828  1.00  0.00    -0.079 N 
ATOM     10  H13 UNL     1      -9.378 -22.105  -1.495  1.00  0.00     0.274 HD
ATOM     11  H12 UNL     1      -9.143 -21.078  -2.622  1.00  0.00     0.274 HD
ATOM     12  H11 UNL     1      -7.809 -21.987  -2.117  1.00  0.00     0.274 HD
ENDBRANCH   8   9
ENDBRANCH   1   8
BRANCH   1  13
HETATM   13  C9  UNL     1      -7.175 -20.360   1.366  1.00  0.00     0.006 C 
BRANCH  13  14
HETATM   14  C10 UNL     1      -7.786 -19.853   2.640  1.00  0.00     0.001 C 
BRANCH  14  15
HETATM   15  C11 UNL     1      -6.875 -20.148   3.834  1.00  0.00     0.005 C 
BRANCH  15  16
HETATM   16  C12 UNL     1      -6.918 -21.615   4.189  1.00  0.00    -0.014 C 
HETATM   17  C13 UNL     1      -8.112 -21.931   5.062  1.00  0.00     0.004 C 
HETATM   18  C14 UNL     1      -7.191 -21.785   6.265  1.00  0.00     0.001 C 
HETATM   19  C15 UNL     1      -5.993 -21.940   5.342  1.00  0.00     0.004 C 
ENDBRANCH  15  16
ENDBRANCH  14  15
ENDBRANCH  13  14
ENDBRANCH   1  13
TORSDOF 11
ENDMDL
MODEL 2
REMARK VINA RESULT: -5.640360358      1.851      3.572
REMARK  11 active torsions:
REMARK  status: ('A' for Active; 'I' for Inactive)
REMARK    1  A    between atoms: C2_2  and  C3_3 
REMARK    2  A    between atoms: C3_3  and  C4_4 
REMARK    3  A    between atoms: C4_4  and  C5_5 
REMARK    4  A    between atoms: C5_5  and  C6_6 
REMARK    5  A    between atoms: C6_6  and  C7_7 
REMARK    6  A    between atoms: C7_7  and  C8_8 
REMARK    7  A    between atoms: C7_7  and  C9_13 
REMARK    8  A    between atoms: C8_8  and  N1_9 
REMARK    9  A    between atoms: C9_13  and  C10_14 
REMARK   10  A    between atoms: C10_14  and  C11_15 
REMARK   11  A    between atoms: C11_15  and  C12_16 
ROOT
HETATM    1  C7  UNL     1      -6.493 -22.866  -1.222  1.00  0.00     0.011 C 
ENDROOT
BRANCH   1   2
HETATM    2  C6  UNL     1      -6.260 -23.289   0.185  1.00  0.00     0.006 C 
BRANCH   2   3
HETATM    3  C5  UNL     1      -7.229 -24.288   0.715  1.00  0.00     0.000 C 
BRANCH   3   4
HETATM    4  C4  UNL     1      -7.637 -23.877   2.110  1.00  0.00     0.000 C 
BRANCH   4   5
HETATM    5  C3  UNL     1      -6.505 -23.521   3.013  1.00  0.00    -0.000 C 
BRANCH   5   6
HETATM    6  C2  UNL     1      -6.687 -24.316   4.298  1.00  0.00    -0.005 C 
HETATM    7  C1  UNL     1      -6.468 -23.454   5.513  1.00  0.00     0.005 C 
ENDBRANCH   5   6
ENDBRANCH   4   5
ENDBRANCH   3   4
ENDBRANCH   2   3
ENDBRANCH   1   2
BRANCH   1   8
HETATM    8  C8  UNL     1      -5.658 -21.673  -1.638  1.00  0.00     0.234 C 
BRANCH   8   9
HETATM    9  N1  UNL     1      -4.267 -21.898  -1.288  1.00  0.00    -0.079 N 
ATOM     10  H13 UNL     1      -4.053 -21.579  -0.343  1.00  0.00     0.274 HD
ATOM     11  H12 UNL     1      -4.059 -22.888  -1.161  1.00  0.00     0.274 HD
ATOM     12  H11 UNL     1      -3.660 -21.465  -1.985  1.00  0.00     0.274 HD
ENDBRANCH   8   9
ENDBRANCH   1   8
BRANCH   1  13
HETATM   13  C9  UNL     1      -7.937 -22.642  -1.587  1.00  0.00     0.006 C 
BRANCH  13  14
HETATM   14  C10 UNL     1      -8.369 -21.228  -1.327  1.00  0.00     0.001 C 
BRANCH  14  15
HETATM   15  C11 UNL     1      -9.127 -21.127  -0.001  1.00  0.00     0.005 C 
BRANCH  15  16
HETATM   16  C12 UNL     1      -8.782 -19.842   0.713  1.00  0.00    -0.014 C 
HETATM   17  C13 UNL     1      -7.371 -19.400   0.392  1.00  0.00     0.004 C 
HETATM   18  C14 UNL     1      -6.930 -20.095   1.672  1.00  0.00     0.001 C 
HETATM   19  C15 UNL     1      -8.374 -20.090   2.148  1.00  0.00     0.004 C 
ENDBRANCH  15  16
ENDBRANCH  14  15
ENDBRANCH  13  14
ENDBRANCH   1  13
TORSDOF 11
ENDMDL
MODEL 3
REMARK VINA RESULT: -5.640011058      2.045      3.947
REMARK  11 active torsions:
REMARK  status: ('A' for Active; 'I' for Inactive)
REMARK    1  A    between atoms: C2_2  and  C3_3 
REMARK    2  A    between atoms: C3_3  and  C4_4 
REMARK    3  A    between atoms: C4_4  and  C5_5 
REMARK    4  A    between atoms: C5_5  and  C6_6 
REMARK    5  A    between atoms: C6_6  and  C7_7 
REMARK    6  A    between atoms: C7_7  and  C8_8 
REMARK    7  A    between atoms: C7_7  and  C9_13 
REMARK    8  A    between atoms: C8_8  and  N1_9 
REMARK    9  A    between atoms: C9_13  and  C10_14 
REMARK   10  A    between atoms: C10_14  and  C11_15 
REMARK   11  A    between atoms: C11_15  and  C12_16 
ROOT
HETATM    1  C7  UNL     1      -8.130 -20.107   1.191  1.00  0.00     0.011 C 
ENDROOT
BRANCH   1   2
HETATM    2  C6  UNL     1      -8.772 -21.034   0.220  1.00  0.00     0.006 C 
BRANCH   2   3
HETATM    3  C5  UNL     1      -8.756 -20.578  -1.197  1.00  0.00     0.000 C 
BRANCH   3   4
HETATM    4  C4  UNL     1      -7.721 -21.377  -1.955  1.00  0.00     0.000 C 
BRANCH   4   5
HETATM    5  C3  UNL     1      -7.654 -22.819  -1.586  1.00  0.00    -0.000 C 
BRANCH   5   6
HETATM    6  C2  UNL     1      -6.180 -23.190  -1.486  1.00  0.00    -0.005 C 
HETATM    7  C1  UNL     1      -5.312 -21.963  -1.376  1.00  0.00     0.005 C 
ENDBRANCH   5   6
ENDBRANCH   4   5
ENDBRANCH   3   4
ENDBRANCH   2   3
ENDBRANCH   1   2
BRANCH   1   8
HETATM    8  C8  UNL     1      -7.215 -19.092   0.540  1.00  0.00     0.234 C 
BRANCH   8   9
HETATM    9  N1  UNL     1      -6.358 -18.484   1.542  1.00  0.00    -0.079 N 
ATOM     10  H13 UNL     1      -6.876 -17.862   2.162  1.00  0.00     0.274 HD
ATOM     11  H12 UNL     1      -6.045 -19.160   2.239  1.00  0.00     0.274 HD
ATOM     12  H11 UNL     1      -5.576 -18.011   1.090  1.00  0.00     0.274 HD
ENDBRANCH   8   9
ENDBRANCH   1   8
BRANCH   1  13
HETATM   13  C9  UNL     1      -7.426 -20.779   2.341  1.00  0.00     0.006 C 
BRANCH  13  14
HETATM   14  C10 UNL     1      -6.815 -22.089   1.937  1.00  0.00     0.001 C 
BRANCH  14  15
HETATM   15  C11 UNL     1      -6.680 -23.021   3.143  1.00  0.00     0.005 C 
BRANCH  15  16
HETATM   16  C12 UNL     1      -6.588 -24.460   2.697  1.00  0.00    -0.014 C 
HETATM   17  C13 UNL     1      -7.625 -24.772   1.641  1.00  0.00     0.004 C 
HETATM   18  C14 UNL     1      -8.515 -25.295   2.760  1.00  0.00     0.001 C 
HETATM   19  C15 UNL     1      -7.294 -25.391   3.660  1.00  0.00     0.004 C 
ENDBRANCH  15  16
ENDBRANCH  14  15
ENDBRANCH  13  14
ENDBRANCH   1  13
TORSDOF 11
ENDMDL
MODEL 4
REMARK VINA RESULT: -5.624407215      2.237      4.582
REMARK  11 active torsions:
REMARK  status: ('A' for Active; 'I' for Inactive)
REMARK    1  A    between atoms: C2_2  and  C3_3 
REMARK    2  A    between atoms: C3_3  and  C4_4 
REMARK    3  A    between atoms: C4_4  and  C5_5 
REMARK    4  A    between atoms: C5_5  and  C6_6 
REMARK    5  A    between atoms: C6_6  and  C7_7 
REMARK    6  A    between atoms: C7_7  and  C8_8 
REMARK    7  A    between atoms: C7_7  and  C9_13 
REMARK    8  A    between atoms: C8_8  and  N1_9 
REMARK    9  A    between atoms: C9_13  and  C10_14 
REMARK   10  A    between atoms: C10_14  and  C11_15 
REMARK   11  A    between atoms: C11_15  and  C12_16 
ROOT
HETATM    1  C7  UNL     1      -7.634 -21.169   3.828  1.00  0.00     0.011 C 
ENDROOT
BRANCH   1   2
HETATM    2  C6  UNL     1      -7.184 -20.646   2.510  1.00  0.00     0.006 C 
BRANCH   2   3
HETATM    3  C5  UNL     1      -8.145 -20.841   1.390  1.00  0.00     0.000 C 
BRANCH   3   4
HETATM    4  C4  UNL     1      -7.377 -21.256   0.157  1.00  0.00     0.000 C 
BRANCH   4   5
HETATM    5  C3  UNL     1      -8.223 -21.575  -1.029  1.00  0.00    -0.000 C 
BRANCH   5   6
HETATM    6  C2  UNL     1      -7.658 -22.842  -1.657  1.00  0.00    -0.005 C 
HETATM    7  C1  UNL     1      -6.184 -22.981  -1.381  1.00  0.00     0.005 C 
ENDBRANCH   5   6
ENDBRANCH   4   5
ENDBRANCH   3   4
ENDBRANCH   2   3
ENDBRANCH   1   2
BRANCH   1   8
HETATM    8  C8  UNL     1      -8.614 -20.258   4.535  1.00  0.00     0.234 C 
BRANCH   8   9
HETATM    9  N1  UNL     1      -9.205 -20.951   5.667  1.00  0.00    -0.079 N 
ATOM     10  H13 UNL     1      -8.876 -21.913   5.740  1.00  0.00     0.274 HD
ATOM     11  H12 UNL     1      -8.849 -20.604   6.557  1.00  0.00     0.274 HD
ATOM     12  H11 UNL     1     -10.222 -20.898   5.614  1.00  0.00     0.274 HD
ENDBRANCH   8   9
ENDBRANCH   1   8
BRANCH   1  13
HETATM   13  C9  UNL     1      -6.524 -21.565   4.767  1.00  0.00     0.006 C 
BRANCH  13  14
HETATM   14  C10 UNL     1      -6.169 -23.017   4.636  1.00  0.00     0.001 C 
BRANCH  14  15
HETATM   15  C11 UNL     1      -7.429 -23.872   4.481  1.00  0.00     0.005 C 
BRANCH  15  16
HETATM   16  C12 UNL     1      -7.173 -25.035   3.552  1.00  0.00    -0.014 C 
HETATM   17  C13 UNL     1      -6.558 -24.569   2.250  1.00  0.00     0.004 C 
HETATM   18  C14 UNL     1      -7.963 -24.559   1.664  1.00  0.00     0.001 C 
HETATM   19  C15 UNL     1      -8.426 -25.446   2.809  1.00  0.00     0.004 C 
ENDBRANCH  15  16
ENDBRANCH  14  15
ENDBRANCH  13  14
ENDBRANCH   1  13
TORSDOF 11
ENDMDL
MODEL 5
REMARK VINA RESULT: -5.618664306      1.378      3.819
REMARK  11 active torsions:
REMARK  status: ('A' for Active; 'I' for Inactive)
REMARK    1  A    between atoms: C2_2  and  C3_3 
REMARK    2  A    between atoms: C3_3  and  C4_4 
REMARK    3  A    between atoms: C4_4  and  C5_5 
REMARK    4  A    between atoms: C5_5  and  C6_6 
REMARK    5  A    between atoms: C6_6  and  C7_7 
REMARK    6  A    between atoms: C7_7  and  C8_8 
REMARK    7  A    between atoms: C7_7  and  C9_13 
REMARK    8  A    between atoms: C8_8  and  N1_9 
REMARK    9  A    between atoms: C9_13  and  C10_14 
REMARK   10  A    between atoms: C10_14  and  C11_15 
REMARK   11  A    between atoms: C11_15  and  C12_16 
ROOT
HETATM    1  C7  UNL     1      -7.417 -21.467  -1.206  1.00  0.00     0.011 C 
ENDROOT
BRANCH   1   2
HETATM    2  C6  UNL     1      -6.416 -20.909  -0.256  1.00  0.00     0.006 C 
BRANCH   2   3
HETATM    3  C5  UNL     1      -6.852 -19.691   0.480  1.00  0.00     0.000 C 
BRANCH   3   4
HETATM    4  C4  UNL     1      -6.889 -20.004   1.958  1.00  0.00     0.000 C 
BRANCH   4   5
HETATM    5  C3  UNL     1      -8.254 -20.049   2.553  1.00  0.00    -0.000 C 
BRANCH   5   6
HETATM    6  C2  UNL     1      -8.091 -20.386   4.029  1.00  0.00    -0.005 C 
HETATM    7  C1  UNL     1      -6.671 -20.180   4.485  1.00  0.00     0.005 C 
ENDBRANCH   5   6
ENDBRANCH   4   5
ENDBRANCH   3   4
ENDBRANCH   2   3
ENDBRANCH   1   2
BRANCH   1   8
HETATM    8  C8  UNL     1      -8.773 -20.801  -1.111  1.00  0.00     0.234 C 
BRANCH   8   9
HETATM    9  N1  UNL     1      -9.129 -20.220  -2.394  1.00  0.00    -0.079 N 
ATOM     10  H13 UNL     1     -10.021 -20.573  -2.739  1.00  0.00     0.274 HD
ATOM     11  H12 UNL     1      -9.381 -19.235  -2.312  1.00  0.00     0.274 HD
ATOM     12  H11 UNL     1      -8.374 -20.368  -3.064  1.00  0.00     0.274 HD
ENDBRANCH   8   9
ENDBRANCH   1   8
BRANCH   1  13
HETATM   13  C9  UNL     1      -7.570 -22.965  -1.160  1.00  0.00     0.006 C 
BRANCH  13  14
HETATM   14  C10 UNL     1      -6.626 -23.596  -0.180  1.00  0.00     0.001 C 
BRANCH  14  15
HETATM   15  C11 UNL     1      -7.384 -24.481   0.812  1.00  0.00     0.005 C 
BRANCH  15  16
HETATM   16  C12 UNL     1      -7.646 -23.736   2.099  1.00  0.00    -0.014 C 
HETATM   17  C13 UNL     1      -6.367 -23.526   2.879  1.00  0.00     0.004 C 
HETATM   18  C14 UNL     1      -6.717 -24.780   3.669  1.00  0.00     0.001 C 
HETATM   19  C15 UNL     1      -8.154 -24.658   3.187  1.00  0.00     0.004 C 
ENDBRANCH  15  16
ENDBRANCH  14  15
ENDBRANCH  13  14
ENDBRANCH   1  13
TORSDOF 11
ENDMDL
