MODEL 1
REMARK VINA RESULT: -6.125643528      0.000      0.000
REMARK  5 active torsions:
REMARK  status: ('A' for Active; 'I' for Inactive)
REMARK    1  A    between atoms: C2_2  and  S1_3 
REMARK    2  A    between atoms: S1_3  and  C3_4 
REMARK    3  A    between atoms: C4_7  and  C5_8 
REMARK    4  A    between atoms: C7_11  and  O1_12 
REMARK    5  A    between atoms: C8_14  and  O2_15 
ROOT
HETATM    1  C3  UNL     1       9.829 -17.336  -2.749  1.00  0.00     0.160 A 
HETATM    2  N1  UNL     1       8.803 -17.997  -2.177  1.00  0.00    -0.320 N 
ATOM      3  H1  UNL     1       7.815 -17.762  -2.273  1.00  0.00     0.169 HD
HETATM    4  C4  UNL     1       9.295 -19.003  -1.467  1.00  0.00     0.142 A 
HETATM    5  N2  UNL     1      10.638 -18.949  -1.612  1.00  0.00    -0.282 N 
ATOM      6  H2  UNL     1      11.297 -19.597  -1.183  1.00  0.00     0.188 HD
HETATM    7  N3  UNL     1      10.973 -17.939  -2.390  1.00  0.00    -0.278 N 
ATOM      8  H3  UNL     1      11.917 -17.669  -2.664  1.00  0.00     0.189 HD
ENDROOT
BRANCH   4   9
HETATM    9  C5  UNL     1       8.622 -20.035  -0.647  1.00  0.00     0.086 A 
HETATM   10  S2  UNL     1       7.040 -20.680  -0.914  1.00  0.00    -0.092 SA
HETATM   11  C6  UNL     1       6.972 -21.774   0.381  1.00  0.00     0.090 A 
HETATM   12  C7  UNL     1       8.175 -21.614   0.990  1.00  0.00     0.106 A 
HETATM   13  C8  UNL     1       9.035 -20.711   0.457  1.00  0.00     0.120 A 
BRANCH  12  14
HETATM   14  O1  UNL     1       8.510 -22.372   2.142  1.00  0.00    -0.357 OA
ATOM     15  H1  UNL     1       9.286 -22.164   2.649  1.00  0.00     0.217 HD
ENDBRANCH  12  14
BRANCH  13  16
HETATM   16  O2  UNL     1      10.324 -20.465   1.018  1.00  0.00    -0.357 OA
ATOM     17  H2  UNL     1      11.106 -20.808   0.600  1.00  0.00     0.218 HD
ENDBRANCH  13  16
ENDBRANCH   4   9
BRANCH   1  18
HETATM   18  S1  UNL     1       9.706 -15.910  -3.800  1.00  0.00    -0.093 SA
BRANCH  18  19
HETATM   19  C2  UNL     1      11.260 -15.678  -4.685  1.00  0.00     0.078 C 
HETATM   20  C1  UNL     1      11.678 -14.220  -4.724  1.00  0.00     0.016 C 
ENDBRANCH  18  19
ENDBRANCH   1  18
TORSDOF 5
ENDMDL
MODEL 2
REMARK VINA RESULT: -6.025343835      1.664      1.908
REMARK  5 active torsions:
REMARK  status: ('A' for Active; 'I' for Inactive)
REMARK    1  A    between atoms: C2_2  and  S1_3 
REMARK    2  A    between atoms: S1_3  and  C3_4 
REMARK    3  A    between atoms: C4_7  and  C5_8 
REMARK    4  A    between atoms: C7_11  and  O1_12 
REMARK    5  A    between atoms: C8_14  and  O2_15 
ROOT
HETATM    1  C3  UNL     1       9.545 -17.761  -2.427  1.00  0.00     0.160 A 
HETATM    2  N1  UNL     1       8.580 -18.603  -2.004  1.00  0.00    -0.320 N 
ATOM      3  H1  UNL     1       7.585 -18.519  -2.208  1.00  0.00     0.169 HD
HETATM    4  C4  UNL     1       9.145 -19.559  -1.279  1.00  0.00     0.142 A 
HETATM    5  N2  UNL     1      10.470 -19.290  -1.263  1.00  0.00    -0.282 N 
ATOM      6  H2  UNL     1      11.172 -19.852  -0.782  1.00  0.00     0.188 HD
HETATM    7  N3  UNL     1      10.723 -18.199  -1.957  1.00  0.00    -0.278 N 
ATOM      8  H3  UNL     1      11.637 -17.772  -2.107  1.00  0.00     0.189 HD
ENDROOT
BRANCH   4   9
HETATM    9  C5  UNL     1       8.559 -20.727  -0.584  1.00  0.00     0.086 A 
HETATM   10  S2  UNL     1       7.453 -21.870  -1.262  1.00  0.00    -0.092 SA
HETATM   11  C6  UNL     1       7.245 -22.878   0.087  1.00  0.00     0.090 A 
HETATM   12  C7  UNL     1       8.036 -22.306   1.030  1.00  0.00     0.106 A 
HETATM   13  C8  UNL     1       8.721 -21.187   0.684  1.00  0.00     0.120 A 
BRANCH  12  14
HETATM   14  O1  UNL     1       8.136 -22.868   2.329  1.00  0.00    -0.357 OA
ATOM     15  H1  UNL     1       8.386 -22.330   3.071  1.00  0.00     0.217 HD
ENDBRANCH  12  14
BRANCH  13  16
HETATM   16  O2  UNL     1       9.579 -20.507   1.599  1.00  0.00    -0.357 OA
ATOM     17  H2  UNL     1       9.503 -20.655   2.534  1.00  0.00     0.218 HD
ENDBRANCH  13  16
ENDBRANCH   4   9
BRANCH   1  18
HETATM   18  S1  UNL     1       9.314 -16.315  -3.430  1.00  0.00    -0.093 SA
BRANCH  18  19
HETATM   19  C2  UNL     1       7.580 -15.820  -3.384  1.00  0.00     0.078 C 
HETATM   20  C1  UNL     1       6.705 -16.741  -4.213  1.00  0.00     0.016 C 
ENDBRANCH  18  19
ENDBRANCH   1  18
TORSDOF 5
ENDMDL
MODEL 3
REMARK VINA RESULT: -5.940832352      0.829      1.059
REMARK  5 active torsions:
REMARK  status: ('A' for Active; 'I' for Inactive)
REMARK    1  A    between atoms: C2_2  and  S1_3 
REMARK    2  A    between atoms: S1_3  and  C3_4 
REMARK    3  A    between atoms: C4_7  and  C5_8 
REMARK    4  A    between atoms: C7_11  and  O1_12 
REMARK    5  A    between atoms: C8_14  and  O2_15 
ROOT
HETATM    1  C3  UNL     1       9.625 -17.723  -2.518  1.00  0.00     0.160 A 
HETATM    2  N1  UNL     1       8.629 -18.518  -2.078  1.00  0.00    -0.320 N 
ATOM      3  H1  UNL     1       7.637 -18.395  -2.278  1.00  0.00     0.169 HD
HETATM    4  C4  UNL     1       9.158 -19.487  -1.343  1.00  0.00     0.142 A 
HETATM    5  N2  UNL     1      10.493 -19.274  -1.338  1.00  0.00    -0.282 N 
ATOM      6  H2  UNL     1      11.174 -19.858  -0.854  1.00  0.00     0.188 HD
HETATM    7  N3  UNL     1      10.787 -18.204  -2.048  1.00  0.00    -0.278 N 
ATOM      8  H3  UNL     1      11.717 -17.817  -2.210  1.00  0.00     0.189 HD
ENDROOT
BRANCH   4   9
HETATM    9  C5  UNL     1       8.528 -20.619  -0.629  1.00  0.00     0.086 A 
HETATM   10  S2  UNL     1       7.295 -21.661  -1.251  1.00  0.00    -0.092 SA
HETATM   11  C6  UNL     1       7.095 -22.676   0.094  1.00  0.00     0.090 A 
HETATM   12  C7  UNL     1       7.987 -22.185   0.992  1.00  0.00     0.106 A 
HETATM   13  C8  UNL     1       8.733 -21.116   0.619  1.00  0.00     0.120 A 
BRANCH  12  14
HETATM   14  O1  UNL     1       8.124 -22.778   2.274  1.00  0.00    -0.357 OA
ATOM     15  H1  UNL     1       8.837 -23.379   2.455  1.00  0.00     0.217 HD
ENDBRANCH  12  14
BRANCH  13  16
HETATM   16  O2  UNL     1       9.699 -20.522   1.486  1.00  0.00    -0.357 OA
ATOM     17  H2  UNL     1       9.830 -19.581   1.490  1.00  0.00     0.218 HD
ENDBRANCH  13  16
ENDBRANCH   4   9
BRANCH   1  18
HETATM   18  S1  UNL     1       9.448 -16.282  -3.540  1.00  0.00    -0.093 SA
BRANCH  18  19
HETATM   19  C2  UNL     1      10.863 -16.154  -4.652  1.00  0.00     0.078 C 
HETATM   20  C1  UNL     1      10.907 -17.300  -5.645  1.00  0.00     0.016 C 
ENDBRANCH  18  19
ENDBRANCH   1  18
TORSDOF 5
ENDMDL
MODEL 4
REMARK VINA RESULT: -5.893760455      3.281      6.887
REMARK  5 active torsions:
REMARK  status: ('A' for Active; 'I' for Inactive)
REMARK    1  A    between atoms: C2_2  and  S1_3 
REMARK    2  A    between atoms: S1_3  and  C3_4 
REMARK    3  A    between atoms: C4_7  and  C5_8 
REMARK    4  A    between atoms: C7_11  and  O1_12 
REMARK    5  A    between atoms: C8_14  and  O2_15 
ROOT
HETATM    1  C3  UNL     1       8.754 -18.915  -1.427  1.00  0.00     0.160 A 
HETATM    2  N1  UNL     1       8.798 -17.804  -2.188  1.00  0.00    -0.320 N 
ATOM      3  H1  UNL     1       8.007 -17.197  -2.402  1.00  0.00     0.169 HD
HETATM    4  C4  UNL     1      10.042 -17.635  -2.613  1.00  0.00     0.142 A 
HETATM    5  N2  UNL     1      10.761 -18.658  -2.101  1.00  0.00    -0.282 N 
ATOM      6  H2  UNL     1      11.759 -18.802  -2.252  1.00  0.00     0.188 HD
HETATM    7  N3  UNL     1       9.987 -19.443  -1.379  1.00  0.00    -0.278 N 
ATOM      8  H3  UNL     1      10.270 -20.287  -0.880  1.00  0.00     0.189 HD
ENDROOT
BRANCH   4   9
HETATM    9  C5  UNL     1      10.643 -16.587  -3.469  1.00  0.00     0.086 A 
HETATM   10  S2  UNL     1      12.287 -16.523  -4.003  1.00  0.00    -0.092 SA
HETATM   11  C6  UNL     1      12.220 -15.091  -4.911  1.00  0.00     0.090 A 
HETATM   12  C7  UNL     1      10.927 -14.696  -4.779  1.00  0.00     0.106 A 
HETATM   13  C8  UNL     1      10.106 -15.473  -4.030  1.00  0.00     0.120 A 
BRANCH  12  14
HETATM   14  O1  UNL     1      10.465 -13.512  -5.408  1.00  0.00    -0.357 OA
ATOM     15  H1  UNL     1      10.245 -12.745  -4.893  1.00  0.00     0.217 HD
ENDBRANCH  12  14
BRANCH  13  16
HETATM   16  O2  UNL     1       8.731 -15.150  -3.826  1.00  0.00    -0.357 OA
ATOM     17  H2  UNL     1       8.446 -14.244  -3.807  1.00  0.00     0.218 HD
ENDBRANCH  13  16
ENDBRANCH   4   9
BRANCH   1  18
HETATM   18  S1  UNL     1       7.320 -19.583  -0.620  1.00  0.00    -0.093 SA
BRANCH  18  19
HETATM   19  C2  UNL     1       7.774 -21.082   0.274  1.00  0.00     0.078 C 
HETATM   20  C1  UNL     1       8.468 -20.771   1.586  1.00  0.00     0.016 C 
ENDBRANCH  18  19
ENDBRANCH   1  18
TORSDOF 5
ENDMDL
MODEL 5
REMARK VINA RESULT: -5.880479260      2.665      2.979
REMARK  5 active torsions:
REMARK  status: ('A' for Active; 'I' for Inactive)
REMARK    1  A    between atoms: C2_2  and  S1_3 
REMARK    2  A    between atoms: S1_3  and  C3_4 
REMARK    3  A    between atoms: C4_7  and  C5_8 
REMARK    4  A    between atoms: C7_11  and  O1_12 
REMARK    5  A    between atoms: C8_14  and  O2_15 
ROOT
HETATM    1  C3  UNL     1       9.862 -19.104  -1.704  1.00  0.00     0.160 A 
HETATM    2  N1  UNL     1       8.603 -19.537  -1.495  1.00  0.00    -0.320 N 
ATOM      3  H1  UNL     1       7.783 -19.269  -2.039  1.00  0.00     0.169 HD
HETATM    4  C4  UNL     1       8.612 -20.371  -0.465  1.00  0.00     0.142 A 
HETATM    5  N2  UNL     1       9.894 -20.442  -0.044  1.00  0.00    -0.282 N 
ATOM      6  H2  UNL     1      10.221 -21.009   0.738  1.00  0.00     0.188 HD
HETATM    7  N3  UNL     1      10.663 -19.675  -0.791  1.00  0.00    -0.278 N 
ATOM      8  H3  UNL     1      11.669 -19.541  -0.693  1.00  0.00     0.189 HD
ENDROOT
BRANCH   4   9
HETATM    9  C5  UNL     1       7.517 -21.128   0.183  1.00  0.00     0.086 A 
HETATM   10  S2  UNL     1       7.676 -22.619   1.045  1.00  0.00    -0.092 SA
HETATM   11  C6  UNL     1       6.052 -22.853   1.480  1.00  0.00     0.090 A 
HETATM   12  C7  UNL     1       5.426 -21.773   0.947  1.00  0.00     0.106 A 
HETATM   13  C8  UNL     1       6.185 -20.874   0.273  1.00  0.00     0.120 A 
BRANCH  12  14
HETATM   14  O1  UNL     1       4.026 -21.601   1.098  1.00  0.00    -0.357 OA
ATOM     15  H1  UNL     1       3.512 -21.186   0.416  1.00  0.00     0.217 HD
ENDBRANCH  12  14
BRANCH  13  16
HETATM   16  O2  UNL     1       5.628 -19.704  -0.325  1.00  0.00    -0.357 OA
ATOM     17  H2  UNL     1       4.742 -19.713  -0.669  1.00  0.00     0.218 HD
ENDBRANCH  13  16
ENDBRANCH   4   9
BRANCH   1  18
HETATM   18  S1  UNL     1      10.389 -17.969  -2.965  1.00  0.00    -0.093 SA
BRANCH  18  19
HETATM   19  C2  UNL     1      11.074 -18.891  -4.356  1.00  0.00     0.078 C 
HETATM   20  C1  UNL     1      12.533 -18.556  -4.594  1.00  0.00     0.016 C 
ENDBRANCH  18  19
ENDBRANCH   1  18
TORSDOF 5
ENDMDL
