MODEL 1
REMARK VINA RESULT: -6.609472461      0.000      0.000
REMARK  2 active torsions:
REMARK  status: ('A' for Active; 'I' for Inactive)
REMARK       I    between atoms: C1_2  and  N1_3 
REMARK    1  A    between atoms: C1_2  and  C5_10 
REMARK    2  A    between atoms: N1_3  and  C2_5 
ROOT
HETATM    1  C5  UNL     1       8.675 -20.634  -0.496  1.00  0.00     0.116 A 
HETATM    2  C6  UNL     1       7.873 -21.720  -0.720  1.00  0.00     0.042 A 
HETATM    3  C7  UNL     1       7.556 -22.622   0.291  1.00  0.00     0.078 A 
HETATM    4  C8  UNL     1       8.089 -22.375   1.534  1.00  0.00     0.259 A 
HETATM    5  O2  UNL     1       7.837 -23.163   2.496  1.00  0.00    -0.267 OA
HETATM    6  N2  UNL     1       8.876 -21.302   1.733  1.00  0.00    -0.266 N 
ATOM      7  H2  UNL     1       9.263 -21.133   2.662  1.00  0.00     0.190 HD
HETATM    8  N3  UNL     1       9.165 -20.445   0.734  1.00  0.00    -0.293 N 
ATOM      9  H3  UNL     1       9.766 -19.641   0.918  1.00  0.00     0.187 HD
ENDROOT
BRANCH   1  10
HETATM   10  C1  UNL     1       8.986 -19.717  -1.562  1.00  0.00     0.274 C 
HETATM   11  O1  UNL     1       8.184 -19.615  -2.555  1.00  0.00    -0.266 OA
HETATM   12  N1  UNL     1      10.153 -18.901  -1.579  1.00  0.00    -0.316 N 
ATOM     13  H1  UNL     1      10.827 -18.940  -0.815  1.00  0.00     0.170 HD
BRANCH  12  14
HETATM   14  C2  UNL     1      10.364 -18.006  -2.716  1.00  0.00     0.080 C 
HETATM   15  C3  UNL     1       9.870 -16.818  -2.858  1.00  0.00     0.022 C 
HETATM   16  C4  UNL     1      10.132 -16.002  -4.017  1.00  0.00     0.116 C 
HETATM   17  S1  UNL     1      11.660 -16.560  -4.831  1.00  0.00    -0.087 SA
HETATM   18  S2  UNL     1      11.409 -18.572  -4.057  1.00  0.00    -0.040 SA
ENDBRANCH  12  14
ENDBRANCH   1  10
TORSDOF 2
ENDMDL
MODEL 2
REMARK VINA RESULT: -6.446805002      1.470      1.579
REMARK  2 active torsions:
REMARK  status: ('A' for Active; 'I' for Inactive)
REMARK       I    between atoms: C1_2  and  N1_3 
REMARK    1  A    between atoms: C1_2  and  C5_10 
REMARK    2  A    between atoms: N1_3  and  C2_5 
ROOT
HETATM    1  C5  UNL     1       9.146 -20.715  -0.129  1.00  0.00     0.116 A 
HETATM    2  C6  UNL     1       8.219 -21.593  -0.623  1.00  0.00     0.042 A 
HETATM    3  C7  UNL     1       7.510 -22.457   0.204  1.00  0.00     0.078 A 
HETATM    4  C8  UNL     1       7.781 -22.392   1.550  1.00  0.00     0.259 A 
HETATM    5  O2  UNL     1       7.166 -23.156   2.354  1.00  0.00    -0.267 OA
HETATM    6  N2  UNL     1       8.697 -21.523   2.016  1.00  0.00    -0.266 N 
ATOM      7  H2  UNL     1       8.886 -21.488   3.018  1.00  0.00     0.190 HD
HETATM    8  N3  UNL     1       9.369 -20.698   1.189  1.00  0.00    -0.293 N 
ATOM      9  H3  UNL     1      10.057 -20.051   1.575  1.00  0.00     0.187 HD
ENDROOT
BRANCH   1  10
HETATM   10  C1  UNL     1       9.866 -19.832  -1.010  1.00  0.00     0.274 C 
HETATM   11  O1  UNL     1      11.024 -19.410  -0.666  1.00  0.00    -0.266 OA
HETATM   12  N1  UNL     1       9.358 -19.392  -2.266  1.00  0.00    -0.316 N 
ATOM     13  H1  UNL     1       8.441 -19.697  -2.592  1.00  0.00     0.170 HD
BRANCH  12  14
HETATM   14  C2  UNL     1      10.179 -18.494  -3.076  1.00  0.00     0.080 C 
HETATM   15  C3  UNL     1      11.139 -18.842  -3.871  1.00  0.00     0.022 C 
HETATM   16  C4  UNL     1      11.900 -17.885  -4.636  1.00  0.00     0.116 C 
HETATM   17  S1  UNL     1      10.944 -16.350  -4.826  1.00  0.00    -0.087 SA
HETATM   18  S2  UNL     1       9.845 -16.735  -2.995  1.00  0.00    -0.040 SA
ENDBRANCH  12  14
ENDBRANCH   1  10
TORSDOF 2
ENDMDL
MODEL 3
REMARK VINA RESULT: -6.346448461      4.490      6.934
REMARK  2 active torsions:
REMARK  status: ('A' for Active; 'I' for Inactive)
REMARK       I    between atoms: C1_2  and  N1_3 
REMARK    1  A    between atoms: C1_2  and  C5_10 
REMARK    2  A    between atoms: N1_3  and  C2_5 
ROOT
HETATM    1  C5  UNL     1       7.431 -20.873  -4.243  1.00  0.00     0.116 A 
HETATM    2  C6  UNL     1       6.864 -19.677  -4.593  1.00  0.00     0.042 A 
HETATM    3  C7  UNL     1       6.979 -19.157  -5.878  1.00  0.00     0.078 A 
HETATM    4  C8  UNL     1       7.693 -19.899  -6.788  1.00  0.00     0.259 A 
HETATM    5  O2  UNL     1       7.832 -19.475  -7.976  1.00  0.00    -0.267 OA
HETATM    6  N2  UNL     1       8.243 -21.072  -6.424  1.00  0.00    -0.266 N 
ATOM      7  H2  UNL     1       8.769 -21.610  -7.112  1.00  0.00     0.190 HD
HETATM    8  N3  UNL     1       8.115 -21.551  -5.171  1.00  0.00    -0.293 N 
ATOM      9  H3  UNL     1       8.544 -22.443  -4.928  1.00  0.00     0.187 HD
ENDROOT
BRANCH   1  10
HETATM   10  C1  UNL     1       7.296 -21.387  -2.905  1.00  0.00     0.274 C 
HETATM   11  O1  UNL     1       7.413 -22.645  -2.702  1.00  0.00    -0.266 OA
HETATM   12  N1  UNL     1       7.033 -20.566  -1.772  1.00  0.00    -0.316 N 
ATOM     13  H1  UNL     1       6.930 -19.556  -1.873  1.00  0.00     0.170 HD
BRANCH  12  14
HETATM   14  C2  UNL     1       6.915 -21.200  -0.460  1.00  0.00     0.080 C 
HETATM   15  C3  UNL     1       5.823 -21.626   0.089  1.00  0.00     0.022 C 
HETATM   16  C4  UNL     1       5.798 -22.242   1.392  1.00  0.00     0.116 C 
HETATM   17  S1  UNL     1       7.448 -22.891   1.798  1.00  0.00    -0.087 SA
HETATM   18  S2  UNL     1       8.406 -21.435   0.506  1.00  0.00    -0.040 SA
ENDBRANCH  12  14
ENDBRANCH   1  10
TORSDOF 2
ENDMDL
MODEL 4
REMARK VINA RESULT: -6.319856537      2.840      3.011
REMARK  2 active torsions:
REMARK  status: ('A' for Active; 'I' for Inactive)
REMARK       I    between atoms: C1_2  and  N1_3 
REMARK    1  A    between atoms: C1_2  and  C5_10 
REMARK    2  A    between atoms: N1_3  and  C2_5 
ROOT
HETATM    1  C5  UNL     1       7.869 -21.374  -1.059  1.00  0.00     0.116 A 
HETATM    2  C6  UNL     1       7.384 -22.646  -0.923  1.00  0.00     0.042 A 
HETATM    3  C7  UNL     1       7.374 -23.302   0.303  1.00  0.00     0.078 A 
HETATM    4  C8  UNL     1       7.875 -22.613   1.382  1.00  0.00     0.259 A 
HETATM    5  O2  UNL     1       7.892 -23.159   2.526  1.00  0.00    -0.267 OA
HETATM    6  N2  UNL     1       8.347 -21.362   1.227  1.00  0.00    -0.266 N 
ATOM      7  H2  UNL     1       8.715 -20.865   2.038  1.00  0.00     0.190 HD
HETATM    8  N3  UNL     1       8.344 -20.752   0.025  1.00  0.00    -0.293 N 
ATOM      9  H3  UNL     1       8.710 -19.804  -0.058  1.00  0.00     0.187 HD
ENDROOT
BRANCH   1  10
HETATM   10  C1  UNL     1       7.867 -20.719  -2.342  1.00  0.00     0.274 C 
HETATM   11  O1  UNL     1       8.739 -19.815  -2.587  1.00  0.00    -0.266 OA
HETATM   12  N1  UNL     1       6.936 -21.023  -3.376  1.00  0.00    -0.316 N 
ATOM     13  H1  UNL     1       6.218 -21.735  -3.238  1.00  0.00     0.170 HD
BRANCH  12  14
HETATM   14  C2  UNL     1       7.030 -20.292  -4.639  1.00  0.00     0.080 C 
HETATM   15  C3  UNL     1       6.478 -19.153  -4.907  1.00  0.00     0.022 C 
HETATM   16  C4  UNL     1       6.623 -18.501  -6.186  1.00  0.00     0.116 C 
HETATM   17  S1  UNL     1       8.113 -19.121  -7.026  1.00  0.00    -0.087 SA
HETATM   18  S2  UNL     1       8.001 -21.009  -5.963  1.00  0.00    -0.040 SA
ENDBRANCH  12  14
ENDBRANCH   1  10
TORSDOF 2
ENDMDL
MODEL 5
REMARK VINA RESULT: -6.286737034      3.303      6.633
REMARK  2 active torsions:
REMARK  status: ('A' for Active; 'I' for Inactive)
REMARK       I    between atoms: C1_2  and  N1_3 
REMARK    1  A    between atoms: C1_2  and  C5_10 
REMARK    2  A    between atoms: N1_3  and  C2_5 
ROOT
HETATM    1  C5  UNL     1       9.885 -17.607  -2.402  1.00  0.00     0.116 A 
HETATM    2  C6  UNL     1       8.871 -16.963  -3.056  1.00  0.00     0.042 A 
HETATM    3  C7  UNL     1       9.092 -15.812  -3.805  1.00  0.00     0.078 A 
HETATM    4  C8  UNL     1      10.383 -15.345  -3.860  1.00  0.00     0.259 A 
HETATM    5  O2  UNL     1      10.647 -14.299  -4.527  1.00  0.00    -0.267 OA
HETATM    6  N2  UNL     1      11.367 -15.993  -3.210  1.00  0.00    -0.266 N 
ATOM      7  H2  UNL     1      12.320 -15.633  -3.261  1.00  0.00     0.190 HD
HETATM    8  N3  UNL     1      11.122 -17.107  -2.492  1.00  0.00    -0.293 N 
ATOM      9  H3  UNL     1      11.890 -17.574  -2.010  1.00  0.00     0.187 HD
ENDROOT
BRANCH   1  10
HETATM   10  C1  UNL     1       9.626 -18.798  -1.634  1.00  0.00     0.274 C 
HETATM   11  O1  UNL     1      10.608 -19.524  -1.251  1.00  0.00    -0.266 OA
HETATM   12  N1  UNL     1       8.318 -19.225  -1.267  1.00  0.00    -0.316 N 
ATOM     13  H1  UNL     1       7.498 -18.686  -1.543  1.00  0.00     0.170 HD
BRANCH  12  14
HETATM   14  C2  UNL     1       8.176 -20.452  -0.485  1.00  0.00     0.080 C 
HETATM   15  C3  UNL     1       8.294 -20.559   0.800  1.00  0.00     0.022 C 
HETATM   16  C4  UNL     1       8.138 -21.815   1.492  1.00  0.00     0.116 C 
HETATM   17  S1  UNL     1       7.164 -22.963   0.470  1.00  0.00    -0.087 SA
HETATM   18  S2  UNL     1       7.794 -21.971  -1.354  1.00  0.00    -0.040 SA
ENDBRANCH  12  14
ENDBRANCH   1  10
TORSDOF 2
ENDMDL
