MODEL 1
REMARK VINA RESULT: -8.741747471      0.000      0.000
REMARK  14 active torsions:
REMARK  status: ('A' for Active; 'I' for Inactive)
REMARK    1  A    between atoms: C2_2  and  C3_3 
REMARK    2  A    between atoms: C3_3  and  N1_4 
REMARK    3  A    between atoms: N1_4  and  C4_5 
REMARK    4  A    between atoms: N1_4  and  C12_22 
REMARK    5  A    between atoms: C4_5  and  C5_6 
REMARK    6  A    between atoms: C5_6  and  N2_7 
REMARK       I    between atoms: N2_7  and  C6_9 
REMARK    7  A    between atoms: C6_9  and  C7_11 
REMARK    8  A    between atoms: C9_13  and  C10_14 
REMARK    9  A    between atoms: C12_22  and  C13_23 
REMARK   10  A    between atoms: C13_23  and  C14_24 
REMARK   11  A    between atoms: N6_27  and  C17_28 
REMARK   12  A    between atoms: C18_31  and  N8_32 
REMARK   13  A    between atoms: C19_37  and  S1_38 
REMARK   14  A    between atoms: S1_38  and  C20_39 
ROOT
HETATM    1  C12 UNL     1      47.689  16.029  -8.074  1.00  0.00     0.127 C 
ENDROOT
BRANCH   1   2
HETATM    2  N1  UNL     1      49.075  16.154  -7.754  1.00  0.00    -0.372 N 
BRANCH   2   3
HETATM    3  C3  UNL     1      49.909  15.167  -8.280  1.00  0.00     0.062 C 
BRANCH   3   4
HETATM    4  C2  UNL     1      50.187  13.928  -7.521  1.00  0.00     0.040 C 
HETATM    5  C1  UNL     1      51.094  13.002  -8.344  1.00  0.00     0.010 C 
ENDBRANCH   3   4
ENDBRANCH   2   3
BRANCH   2   6
HETATM    6  C4  UNL     1      49.537  17.267  -7.082  1.00  0.00     0.082 C 
BRANCH   6   7
HETATM    7  C5  UNL     1      50.992  17.496  -6.886  1.00  0.00     0.167 C 
BRANCH   7   8
HETATM    8  N2  UNL     1      51.265  17.728  -5.447  1.00  0.00    -0.351 N 
HETATM    9  C6  UNL     1      52.491  18.323  -5.061  1.00  0.00     0.268 C 
HETATM   10  O1  UNL     1      53.372  18.659  -5.901  1.00  0.00    -0.266 OA
ATOM     11  H2  UNL     1      50.577  17.462  -4.743  1.00  0.00     0.163 HD
BRANCH   9  12
HETATM   12  C7  UNL     1      52.732  18.552  -3.635  1.00  0.00     0.101 A 
HETATM   13  C8  UNL     1      53.908  18.925  -3.020  1.00  0.00     0.051 A 
HETATM   14  C9  UNL     1      53.719  19.042  -1.673  1.00  0.00     0.022 A 
HETATM   15  C11 UNL     1      52.395  18.734  -1.455  1.00  0.00     0.103 A 
HETATM   16  N5  UNL     1      51.814  18.442  -2.632  1.00  0.00    -0.361 N 
ATOM     17  H5  UNL     1      50.836  18.179  -2.756  1.00  0.00     0.165 HD
BRANCH  14  18
HETATM   18  C10 UNL     1      54.720  19.408  -0.664  1.00  0.00     0.121 C 
HETATM   19  N3  UNL     1      54.930  18.659   0.365  1.00  0.00    -0.387 N 
ATOM     20  H32 UNL     1      54.383  17.804   0.464  1.00  0.00     0.157 HD
ATOM     21  H31 UNL     1      55.625  18.914   1.067  1.00  0.00     0.157 HD
HETATM   22  N4  UNL     1      55.476  20.590  -0.801  1.00  0.00    -0.082 NA
ENDBRANCH  14  18
ENDBRANCH   9  12
ENDBRANCH   7   8
ENDBRANCH   6   7
ENDBRANCH   2   6
ENDBRANCH   1   2
BRANCH   1  23
HETATM   23  C13 UNL     1      47.503  15.609  -9.486  1.00  0.00     0.025 C 
BRANCH  23  24
HETATM   24  C14 UNL     1      47.356  16.789 -10.433  1.00  0.00    -0.010 C 
HETATM   25  C15 UNL     1      48.607  17.055 -11.204  1.00  0.00     0.024 C 
HETATM   26  C16 UNL     1      48.279  18.189 -12.162  1.00  0.00     0.125 C 
HETATM   27  N6  UNL     1      47.941  19.371 -11.426  1.00  0.00    -0.366 N 
HETATM   28  C24 UNL     1      47.471  19.302 -10.082  1.00  0.00     0.125 C 
HETATM   29  C25 UNL     1      46.832  18.004  -9.763  1.00  0.00     0.024 C 
BRANCH  27  30
HETATM   30  C17 UNL     1      48.100  20.657 -12.015  1.00  0.00     0.127 A 
HETATM   31  N7  UNL     1      47.055  21.244 -12.657  1.00  0.00    -0.176 N 
HETATM   32  C18 UNL     1      47.131  22.450 -13.223  1.00  0.00     0.678 A 
ATOM     33  H7  UNL     1      46.171  20.738 -12.709  1.00  0.00     0.186 HD
HETATM   34  N9  UNL     1      48.281  23.136 -13.171  1.00  0.00    -0.185 N 
HETATM   35  C19 UNL     1      49.360  22.592 -12.536  1.00  0.00     0.095 A 
ATOM     36  H9  UNL     1      48.349  24.058 -13.602  1.00  0.00     0.185 HD
HETATM   37  C22 UNL     1      49.288  21.347 -11.950  1.00  0.00     0.017 A 
HETATM   38  C23 UNL     1      50.433  20.703 -11.265  1.00  0.00     0.055 C 
BRANCH  32  39
HETATM   39  N8  UNL     1      46.120  22.997 -13.841  1.00  0.00    -0.234 N 
ATOM     40  H82 UNL     1      45.829  23.931 -13.550  1.00  0.00     0.174 HD
ATOM     41  H81 UNL     1      45.622  22.525 -14.595  1.00  0.00     0.174 HD
ENDBRANCH  32  39
BRANCH  35  42
HETATM   42  S1  UNL     1      50.891  23.513 -12.505  1.00  0.00    -0.112 SA
BRANCH  42  43
HETATM   43  C20 UNL     1      52.003  22.847 -13.752  1.00  0.00     0.076 C 
HETATM   44  C21 UNL     1      51.248  22.426 -14.966  1.00  0.00     0.016 C 
ENDBRANCH  42  43
ENDBRANCH  35  42
ENDBRANCH  27  30
ENDBRANCH  23  24
ENDBRANCH   1  23
TORSDOF 14
ENDMDL
MODEL 2
REMARK VINA RESULT: -8.480908161      4.046      7.388
REMARK  14 active torsions:
REMARK  status: ('A' for Active; 'I' for Inactive)
REMARK    1  A    between atoms: C2_2  and  C3_3 
REMARK    2  A    between atoms: C3_3  and  N1_4 
REMARK    3  A    between atoms: N1_4  and  C4_5 
REMARK    4  A    between atoms: N1_4  and  C12_22 
REMARK    5  A    between atoms: C4_5  and  C5_6 
REMARK    6  A    between atoms: C5_6  and  N2_7 
REMARK       I    between atoms: N2_7  and  C6_9 
REMARK    7  A    between atoms: C6_9  and  C7_11 
REMARK    8  A    between atoms: C9_13  and  C10_14 
REMARK    9  A    between atoms: C12_22  and  C13_23 
REMARK   10  A    between atoms: C13_23  and  C14_24 
REMARK   11  A    between atoms: N6_27  and  C17_28 
REMARK   12  A    between atoms: C18_31  and  N8_32 
REMARK   13  A    between atoms: C19_37  and  S1_38 
REMARK   14  A    between atoms: S1_38  and  C20_39 
ROOT
HETATM    1  C12 UNL     1      49.551  20.533 -14.279  1.00  0.00     0.127 C 
ENDROOT
BRANCH   1   2
HETATM    2  N1  UNL     1      50.197  21.584 -13.560  1.00  0.00    -0.372 N 
BRANCH   2   3
HETATM    3  C3  UNL     1      49.961  22.875 -14.032  1.00  0.00     0.062 C 
BRANCH   3   4
HETATM    4  C2  UNL     1      48.582  23.346 -14.288  1.00  0.00     0.040 C 
HETATM    5  C1  UNL     1      47.875  23.642 -12.958  1.00  0.00     0.010 C 
ENDBRANCH   3   4
ENDBRANCH   2   3
BRANCH   2   6
HETATM    6  C4  UNL     1      50.888  21.309 -12.397  1.00  0.00     0.082 C 
BRANCH   6   7
HETATM    7  C5  UNL     1      50.495  21.929 -11.106  1.00  0.00     0.167 C 
BRANCH   7   8
HETATM    8  N2  UNL     1      50.992  21.095  -9.986  1.00  0.00    -0.351 N 
HETATM    9  C6  UNL     1      50.158  20.084  -9.450  1.00  0.00     0.268 C 
HETATM   10  O1  UNL     1      48.994  19.868  -9.888  1.00  0.00    -0.266 OA
ATOM     11  H2  UNL     1      51.926  21.249  -9.604  1.00  0.00     0.163 HD
BRANCH   9  12
HETATM   12  C7  UNL     1      50.677  19.267  -8.351  1.00  0.00     0.101 A 
HETATM   13  C8  UNL     1      51.380  19.683  -7.240  1.00  0.00     0.051 A 
HETATM   14  C9  UNL     1      51.677  18.615  -6.444  1.00  0.00     0.022 A 
HETATM   15  C11 UNL     1      51.145  17.517  -7.080  1.00  0.00     0.103 A 
HETATM   16  N5  UNL     1      50.549  17.916  -8.218  1.00  0.00    -0.361 N 
ATOM     17  H5  UNL     1      50.075  17.302  -8.880  1.00  0.00     0.165 HD
BRANCH  14  18
HETATM   18  C10 UNL     1      52.421  18.630  -5.179  1.00  0.00     0.121 C 
HETATM   19  N3  UNL     1      51.805  18.694  -4.047  1.00  0.00    -0.387 N 
ATOM     20  H32 UNL     1      50.785  18.736  -4.050  1.00  0.00     0.157 HD
ATOM     21  H31 UNL     1      52.321  18.705  -3.167  1.00  0.00     0.157 HD
HETATM   22  N4  UNL     1      53.829  18.570  -5.174  1.00  0.00    -0.082 NA
ENDBRANCH  14  18
ENDBRANCH   9  12
ENDBRANCH   7   8
ENDBRANCH   6   7
ENDBRANCH   2   6
ENDBRANCH   1   2
BRANCH   1  23
HETATM   23  C13 UNL     1      49.270  19.374 -13.395  1.00  0.00     0.025 C 
BRANCH  23  24
HETATM   24  C14 UNL     1      47.795  19.007 -13.361  1.00  0.00    -0.010 C 
HETATM   25  C15 UNL     1      46.922  20.194 -13.117  1.00  0.00     0.024 C 
HETATM   26  C16 UNL     1      45.491  19.690 -13.201  1.00  0.00     0.125 C 
HETATM   27  N6  UNL     1      45.247  18.729 -12.165  1.00  0.00    -0.366 N 
HETATM   28  C24 UNL     1      46.314  18.005 -11.557  1.00  0.00     0.125 C 
HETATM   29  C25 UNL     1      47.503  17.886 -12.434  1.00  0.00     0.024 C 
BRANCH  27  30
HETATM   30  C17 UNL     1      43.925  18.498 -11.692  1.00  0.00     0.127 A 
HETATM   31  N7  UNL     1      43.322  19.413 -10.889  1.00  0.00    -0.176 N 
HETATM   32  C18 UNL     1      42.081  19.264 -10.416  1.00  0.00     0.678 A 
ATOM     33  H7  UNL     1      43.841  20.253 -10.634  1.00  0.00     0.186 HD
HETATM   34  N9  UNL     1      41.378  18.169 -10.735  1.00  0.00    -0.185 N 
HETATM   35  C19 UNL     1      41.938  17.220 -11.541  1.00  0.00     0.095 A 
ATOM     36  H9  UNL     1      40.431  18.046 -10.377  1.00  0.00     0.185 HD
HETATM   37  C22 UNL     1      43.218  17.368 -12.030  1.00  0.00     0.017 A 
HETATM   38  C23 UNL     1      43.879  16.362 -12.894  1.00  0.00     0.055 C 
BRANCH  32  39
HETATM   39  N8  UNL     1      41.519  20.150  -9.641  1.00  0.00    -0.234 N 
ATOM     40  H82 UNL     1      42.035  21.006  -9.438  1.00  0.00     0.174 HD
ATOM     41  H81 UNL     1      40.590  20.014  -9.243  1.00  0.00     0.174 HD
ENDBRANCH  32  39
BRANCH  35  42
HETATM   42  S1  UNL     1      40.991  15.755 -11.928  1.00  0.00    -0.112 SA
BRANCH  42  43
HETATM   43  C20 UNL     1      41.316  14.500 -10.681  1.00  0.00     0.076 C 
HETATM   44  C21 UNL     1      40.868  14.959  -9.336  1.00  0.00     0.016 C 
ENDBRANCH  42  43
ENDBRANCH  35  42
ENDBRANCH  27  30
ENDBRANCH  23  24
ENDBRANCH   1  23
TORSDOF 14
ENDMDL
MODEL 3
REMARK VINA RESULT: -8.434746304      3.283      5.251
REMARK  14 active torsions:
REMARK  status: ('A' for Active; 'I' for Inactive)
REMARK    1  A    between atoms: C2_2  and  C3_3 
REMARK    2  A    between atoms: C3_3  and  N1_4 
REMARK    3  A    between atoms: N1_4  and  C4_5 
REMARK    4  A    between atoms: N1_4  and  C12_22 
REMARK    5  A    between atoms: C4_5  and  C5_6 
REMARK    6  A    between atoms: C5_6  and  N2_7 
REMARK       I    between atoms: N2_7  and  C6_9 
REMARK    7  A    between atoms: C6_9  and  C7_11 
REMARK    8  A    between atoms: C9_13  and  C10_14 
REMARK    9  A    between atoms: C12_22  and  C13_23 
REMARK   10  A    between atoms: C13_23  and  C14_24 
REMARK   11  A    between atoms: N6_27  and  C17_28 
REMARK   12  A    between atoms: C18_31  and  N8_32 
REMARK   13  A    between atoms: C19_37  and  S1_38 
REMARK   14  A    between atoms: S1_38  and  C20_39 
ROOT
HETATM    1  C12 UNL     1      42.767  16.211 -10.091  1.00  0.00     0.127 C 
ENDROOT
BRANCH   1   2
HETATM    2  N1  UNL     1      43.048  16.531  -8.728  1.00  0.00    -0.372 N 
BRANCH   2   3
HETATM    3  C3  UNL     1      41.962  16.464  -7.854  1.00  0.00     0.062 C 
BRANCH   3   4
HETATM    4  C2  UNL     1      41.953  15.501  -6.731  1.00  0.00     0.040 C 
HETATM    5  C1  UNL     1      41.166  14.243  -7.127  1.00  0.00     0.010 C 
ENDBRANCH   3   4
ENDBRANCH   2   3
BRANCH   2   6
HETATM    6  C4  UNL     1      44.347  16.751  -8.318  1.00  0.00     0.082 C 
BRANCH   6   7
HETATM    7  C5  UNL     1      45.344  15.651  -8.307  1.00  0.00     0.167 C 
BRANCH   7   8
HETATM    8  N2  UNL     1      46.600  16.128  -7.678  1.00  0.00    -0.351 N 
HETATM    9  C6  UNL     1      47.792  16.152  -8.441  1.00  0.00     0.268 C 
HETATM   10  O1  UNL     1      47.831  15.771  -9.644  1.00  0.00    -0.266 OA
ATOM     11  H2  UNL     1      46.604  16.437  -6.706  1.00  0.00     0.163 HD
BRANCH   9  12
HETATM   12  C7  UNL     1      49.016  16.638  -7.800  1.00  0.00     0.101 A 
HETATM   13  C8  UNL     1      49.494  17.930  -7.747  1.00  0.00     0.051 A 
HETATM   14  C9  UNL     1      50.665  17.971  -7.048  1.00  0.00     0.022 A 
HETATM   15  C11 UNL     1      50.914  16.674  -6.662  1.00  0.00     0.103 A 
HETATM   16  N5  UNL     1      49.924  15.884  -7.116  1.00  0.00    -0.361 N 
ATOM     17  H5  UNL     1      49.862  14.877  -6.970  1.00  0.00     0.165 HD
BRANCH  14  18
HETATM   18  C10 UNL     1      51.495  19.150  -6.774  1.00  0.00     0.121 C 
HETATM   19  N3  UNL     1      51.661  19.580  -5.569  1.00  0.00    -0.387 N 
ATOM     20  H32 UNL     1      51.199  19.083  -4.807  1.00  0.00     0.157 HD
ATOM     21  H31 UNL     1      52.238  20.400  -5.379  1.00  0.00     0.157 HD
HETATM   22  N4  UNL     1      52.134  19.837  -7.826  1.00  0.00    -0.082 NA
ENDBRANCH  14  18
ENDBRANCH   9  12
ENDBRANCH   7   8
ENDBRANCH   6   7
ENDBRANCH   2   6
ENDBRANCH   1   2
BRANCH   1  23
HETATM   23  C13 UNL     1      41.989  17.294 -10.745  1.00  0.00     0.025 C 
BRANCH  23  24
HETATM   24  C14 UNL     1      42.867  18.249 -11.538  1.00  0.00    -0.010 C 
HETATM   25  C15 UNL     1      44.144  17.610 -11.978  1.00  0.00     0.024 C 
HETATM   26  C16 UNL     1      44.862  18.647 -12.827  1.00  0.00     0.125 C 
HETATM   27  N6  UNL     1      45.182  19.796 -12.032  1.00  0.00    -0.366 N 
HETATM   28  C24 UNL     1      44.458  20.102 -10.843  1.00  0.00     0.125 C 
HETATM   29  C25 UNL     1      43.087  19.540 -10.842  1.00  0.00     0.024 C 
BRANCH  27  30
HETATM   30  C17 UNL     1      46.261  20.648 -12.398  1.00  0.00     0.127 A 
HETATM   31  N7  UNL     1      46.029  21.745 -13.166  1.00  0.00    -0.176 N 
HETATM   32  C18 UNL     1      46.992  22.592 -13.539  1.00  0.00     0.678 A 
ATOM     33  H7  UNL     1      45.074  21.931 -13.473  1.00  0.00     0.186 HD
HETATM   34  N9  UNL     1      48.255  22.372 -13.151  1.00  0.00    -0.185 N 
HETATM   35  C19 UNL     1      48.541  21.285 -12.376  1.00  0.00     0.095 A 
ATOM     36  H9  UNL     1      48.997  23.013 -13.432  1.00  0.00     0.185 HD
HETATM   37  C22 UNL     1      47.552  20.407 -11.989  1.00  0.00     0.017 A 
HETATM   38  C23 UNL     1      47.809  19.203 -11.164  1.00  0.00     0.055 C 
BRANCH  32  39
HETATM   39  N8  UNL     1      46.753  23.638 -14.282  1.00  0.00    -0.234 N 
ATOM     40  H82 UNL     1      46.709  23.508 -15.293  1.00  0.00     0.174 HD
ATOM     41  H81 UNL     1      46.607  24.566 -13.886  1.00  0.00     0.174 HD
ENDBRANCH  32  39
BRANCH  35  42
HETATM   42  S1  UNL     1      50.238  20.996 -11.895  1.00  0.00    -0.112 SA
BRANCH  42  43
HETATM   43  C20 UNL     1      51.326  21.889 -13.015  1.00  0.00     0.076 C 
HETATM   44  C21 UNL     1      51.854  23.124 -12.371  1.00  0.00     0.016 C 
ENDBRANCH  42  43
ENDBRANCH  35  42
ENDBRANCH  27  30
ENDBRANCH  23  24
ENDBRANCH   1  23
TORSDOF 14
ENDMDL
MODEL 4
REMARK VINA RESULT: -8.319213942      4.134      7.468
REMARK  14 active torsions:
REMARK  status: ('A' for Active; 'I' for Inactive)
REMARK    1  A    between atoms: C2_2  and  C3_3 
REMARK    2  A    between atoms: C3_3  and  N1_4 
REMARK    3  A    between atoms: N1_4  and  C4_5 
REMARK    4  A    between atoms: N1_4  and  C12_22 
REMARK    5  A    between atoms: C4_5  and  C5_6 
REMARK    6  A    between atoms: C5_6  and  N2_7 
REMARK       I    between atoms: N2_7  and  C6_9 
REMARK    7  A    between atoms: C6_9  and  C7_11 
REMARK    8  A    between atoms: C9_13  and  C10_14 
REMARK    9  A    between atoms: C12_22  and  C13_23 
REMARK   10  A    between atoms: C13_23  and  C14_24 
REMARK   11  A    between atoms: N6_27  and  C17_28 
REMARK   12  A    between atoms: C18_31  and  N8_32 
REMARK   13  A    between atoms: C19_37  and  S1_38 
REMARK   14  A    between atoms: S1_38  and  C20_39 
ROOT
HETATM    1  C12 UNL     1      49.729  20.219 -13.232  1.00  0.00     0.127 C 
ENDROOT
BRANCH   1   2
HETATM    2  N1  UNL     1      50.235  21.553 -13.166  1.00  0.00    -0.372 N 
BRANCH   2   3
HETATM    3  C3  UNL     1      49.764  22.428 -14.144  1.00  0.00     0.062 C 
BRANCH   3   4
HETATM    4  C2  UNL     1      49.009  23.644 -13.770  1.00  0.00     0.040 C 
HETATM    5  C1  UNL     1      47.573  23.269 -13.377  1.00  0.00     0.010 C 
ENDBRANCH   3   4
ENDBRANCH   2   3
BRANCH   2   6
HETATM    6  C4  UNL     1      51.029  21.944 -12.108  1.00  0.00     0.082 C 
BRANCH   6   7
HETATM    7  C5  UNL     1      50.433  22.310 -10.797  1.00  0.00     0.167 C 
BRANCH   7   8
HETATM    8  N2  UNL     1      50.951  21.399  -9.748  1.00  0.00    -0.351 N 
HETATM    9  C6  UNL     1      50.137  20.336  -9.288  1.00  0.00     0.268 C 
HETATM   10  O1  UNL     1      48.973  20.136  -9.734  1.00  0.00    -0.266 OA
ATOM     11  H2  UNL     1      51.885  21.537  -9.361  1.00  0.00     0.163 HD
BRANCH   9  12
HETATM   12  C7  UNL     1      50.676  19.444  -8.259  1.00  0.00     0.101 A 
HETATM   13  C8  UNL     1      51.373  19.783  -7.119  1.00  0.00     0.051 A 
HETATM   14  C9  UNL     1      51.695  18.661  -6.413  1.00  0.00     0.022 A 
HETATM   15  C11 UNL     1      51.184  17.607  -7.135  1.00  0.00     0.103 A 
HETATM   16  N5  UNL     1      50.577  18.084  -8.236  1.00  0.00    -0.361 N 
ATOM     17  H5  UNL     1      50.114  17.515  -8.946  1.00  0.00     0.165 HD
BRANCH  14  18
HETATM   18  C10 UNL     1      52.442  18.589  -5.151  1.00  0.00     0.121 C 
HETATM   19  N3  UNL     1      51.829  18.599  -4.015  1.00  0.00    -0.387 N 
ATOM     20  H32 UNL     1      50.811  18.660  -4.012  1.00  0.00     0.157 HD
ATOM     21  H31 UNL     1      52.348  18.549  -3.138  1.00  0.00     0.157 HD
HETATM   22  N4  UNL     1      53.849  18.504  -5.154  1.00  0.00    -0.082 NA
ENDBRANCH  14  18
ENDBRANCH   9  12
ENDBRANCH   7   8
ENDBRANCH   6   7
ENDBRANCH   2   6
ENDBRANCH   1   2
BRANCH   1  23
HETATM   23  C13 UNL     1      49.430  19.830 -14.633  1.00  0.00     0.025 C 
BRANCH  23  24
HETATM   24  C14 UNL     1      48.133  19.047 -14.760  1.00  0.00    -0.010 C 
HETATM   25  C15 UNL     1      47.130  19.443 -13.726  1.00  0.00     0.024 C 
HETATM   26  C16 UNL     1      45.870  18.651 -14.036  1.00  0.00     0.125 C 
HETATM   27  N6  UNL     1      46.128  17.247 -13.903  1.00  0.00    -0.366 N 
HETATM   28  C24 UNL     1      47.448  16.720 -14.010  1.00  0.00     0.125 C 
HETATM   29  C25 UNL     1      48.348  17.581 -14.812  1.00  0.00     0.024 C 
BRANCH  27  30
HETATM   30  C17 UNL     1      45.065  16.342 -13.625  1.00  0.00     0.127 A 
HETATM   31  N7  UNL     1      44.514  15.613 -14.631  1.00  0.00    -0.176 N 
HETATM   32  C18 UNL     1      43.521  14.740 -14.441  1.00  0.00     0.678 A 
ATOM     33  H7  UNL     1      44.875  15.739 -15.577  1.00  0.00     0.186 HD
HETATM   34  N9  UNL     1      43.028  14.556 -13.210  1.00  0.00    -0.185 N 
HETATM   35  C19 UNL     1      43.548  15.262 -12.164  1.00  0.00     0.095 A 
ATOM     36  H9  UNL     1      42.268  13.892 -13.055  1.00  0.00     0.185 HD
HETATM   37  C22 UNL     1      44.571  16.165 -12.354  1.00  0.00     0.017 A 
HETATM   38  C23 UNL     1      45.160  16.970 -11.258  1.00  0.00     0.055 C 
BRANCH  32  39
HETATM   39  N8  UNL     1      43.000  14.052 -15.419  1.00  0.00    -0.234 N 
ATOM     40  H82 UNL     1      42.112  14.371 -15.810  1.00  0.00     0.174 HD
ATOM     41  H81 UNL     1      43.449  13.221 -15.802  1.00  0.00     0.174 HD
ENDBRANCH  32  39
BRANCH  35  42
HETATM   42  S1  UNL     1      42.853  15.021 -10.535  1.00  0.00    -0.112 SA
BRANCH  42  43
HETATM   43  C20 UNL     1      41.629  16.302 -10.223  1.00  0.00     0.076 C 
HETATM   44  C21 UNL     1      41.226  16.972 -11.491  1.00  0.00     0.016 C 
ENDBRANCH  42  43
ENDBRANCH  35  42
ENDBRANCH  27  30
ENDBRANCH  23  24
ENDBRANCH   1  23
TORSDOF 14
ENDMDL
MODEL 5
REMARK VINA RESULT: -8.297053686      3.395      5.360
REMARK  14 active torsions:
REMARK  status: ('A' for Active; 'I' for Inactive)
REMARK    1  A    between atoms: C2_2  and  C3_3 
REMARK    2  A    between atoms: C3_3  and  N1_4 
REMARK    3  A    between atoms: N1_4  and  C4_5 
REMARK    4  A    between atoms: N1_4  and  C12_22 
REMARK    5  A    between atoms: C4_5  and  C5_6 
REMARK    6  A    between atoms: C5_6  and  N2_7 
REMARK       I    between atoms: N2_7  and  C6_9 
REMARK    7  A    between atoms: C6_9  and  C7_11 
REMARK    8  A    between atoms: C9_13  and  C10_14 
REMARK    9  A    between atoms: C12_22  and  C13_23 
REMARK   10  A    between atoms: C13_23  and  C14_24 
REMARK   11  A    between atoms: N6_27  and  C17_28 
REMARK   12  A    between atoms: C18_31  and  N8_32 
REMARK   13  A    between atoms: C19_37  and  S1_38 
REMARK   14  A    between atoms: S1_38  and  C20_39 
ROOT
HETATM    1  C12 UNL     1      44.251  15.261 -11.734  1.00  0.00     0.127 C 
ENDROOT
BRANCH   1   2
HETATM    2  N1  UNL     1      43.649  15.118 -10.447  1.00  0.00    -0.372 N 
BRANCH   2   3
HETATM    3  C3  UNL     1      42.610  14.192 -10.364  1.00  0.00     0.062 C 
BRANCH   3   4
HETATM    4  C2  UNL     1      42.724  12.867 -11.013  1.00  0.00     0.040 C 
HETATM    5  C1  UNL     1      41.695  12.749 -12.146  1.00  0.00     0.010 C 
ENDBRANCH   3   4
ENDBRANCH   2   3
BRANCH   2   6
HETATM    6  C4  UNL     1      44.181  15.771  -9.353  1.00  0.00     0.082 C 
BRANCH   6   7
HETATM    7  C5  UNL     1      45.129  15.084  -8.438  1.00  0.00     0.167 C 
BRANCH   7   8
HETATM    8  N2  UNL     1      46.459  15.733  -8.528  1.00  0.00    -0.351 N 
HETATM    9  C6  UNL     1      47.353  15.638  -7.434  1.00  0.00     0.268 C 
HETATM   10  O1  UNL     1      47.057  15.022  -6.372  1.00  0.00    -0.266 OA
ATOM     11  H2  UNL     1      46.727  16.244  -9.369  1.00  0.00     0.163 HD
BRANCH   9  12
HETATM   12  C7  UNL     1      48.665  16.278  -7.552  1.00  0.00     0.101 A 
HETATM   13  C8  UNL     1      49.204  17.267  -6.756  1.00  0.00     0.051 A 
HETATM   14  C9  UNL     1      50.456  17.590  -7.191  1.00  0.00     0.022 A 
HETATM   15  C11 UNL     1      50.693  16.783  -8.280  1.00  0.00     0.103 A 
HETATM   16  N5  UNL     1      49.618  16.002  -8.488  1.00  0.00    -0.361 N 
ATOM     17  H5  UNL     1      49.529  15.310  -9.232  1.00  0.00     0.165 HD
BRANCH  14  18
HETATM   18  C10 UNL     1      51.360  18.599  -6.625  1.00  0.00     0.121 C 
HETATM   19  N3  UNL     1      50.898  19.668  -6.070  1.00  0.00    -0.387 N 
ATOM     20  H32 UNL     1      49.887  19.799  -6.033  1.00  0.00     0.157 HD
ATOM     21  H31 UNL     1      51.526  20.369  -5.676  1.00  0.00     0.157 HD
HETATM   22  N4  UNL     1      52.758  18.418  -6.674  1.00  0.00    -0.082 NA
ENDBRANCH  14  18
ENDBRANCH   9  12
ENDBRANCH   7   8
ENDBRANCH   6   7
ENDBRANCH   2   6
ENDBRANCH   1   2
BRANCH   1  23
HETATM   23  C13 UNL     1      43.403  16.085 -12.632  1.00  0.00     0.025 C 
BRANCH  23  24
HETATM   24  C14 UNL     1      44.106  17.346 -13.107  1.00  0.00    -0.010 C 
HETATM   25  C15 UNL     1      45.495  17.074 -13.585  1.00  0.00     0.024 C 
HETATM   26  C16 UNL     1      46.028  18.398 -14.108  1.00  0.00     0.125 C 
HETATM   27  N6  UNL     1      46.096  19.354 -13.042  1.00  0.00    -0.366 N 
HETATM   28  C24 UNL     1      45.290  19.224 -11.874  1.00  0.00     0.125 C 
HETATM   29  C25 UNL     1      44.053  18.445 -12.112  1.00  0.00     0.024 C 
BRANCH  27  30
HETATM   30  C17 UNL     1      47.003  20.449 -13.112  1.00  0.00     0.127 A 
HETATM   31  N7  UNL     1      46.591  21.640 -13.620  1.00  0.00    -0.176 N 
HETATM   32  C18 UNL     1      47.385  22.710 -13.707  1.00  0.00     0.678 A 
ATOM     33  H7  UNL     1      45.629  21.721 -13.951  1.00  0.00     0.186 HD
HETATM   34  N9  UNL     1      48.653  22.631 -13.281  1.00  0.00    -0.185 N 
HETATM   35  C19 UNL     1      49.116  21.457 -12.761  1.00  0.00     0.095 A 
ATOM     36  H9  UNL     1      49.267  23.443 -13.345  1.00  0.00     0.185 HD
HETATM   37  C22 UNL     1      48.301  20.349 -12.669  1.00  0.00     0.017 A 
HETATM   38  C23 UNL     1      48.757  19.047 -12.129  1.00  0.00     0.055 C 
BRANCH  32  39
HETATM   39  N8  UNL     1      46.975  23.845 -14.203  1.00  0.00    -0.234 N 
ATOM     40  H82 UNL     1      46.430  23.823 -15.065  1.00  0.00     0.174 HD
ATOM     41  H81 UNL     1      47.177  24.740 -13.756  1.00  0.00     0.174 HD
ENDBRANCH  32  39
BRANCH  35  42
HETATM   42  S1  UNL     1      50.819  21.368 -12.226  1.00  0.00    -0.112 SA
BRANCH  42  43
HETATM   43  C20 UNL     1      50.916  21.844 -10.494  1.00  0.00     0.076 C 
HETATM   44  C21 UNL     1      50.959  20.643  -9.614  1.00  0.00     0.016 C 
ENDBRANCH  42  43
ENDBRANCH  35  42
ENDBRANCH  27  30
ENDBRANCH  23  24
ENDBRANCH   1  23
TORSDOF 14
ENDMDL
