MODEL 1
REMARK VINA RESULT: -8.527168219      0.000      0.000
REMARK  19 active torsions:
REMARK  status: ('A' for Active; 'I' for Inactive)
REMARK    1  A    between atoms: C2_2  and  C4_4 
REMARK    2  A    between atoms: C4_4  and  C7_7 
REMARK    3  A    between atoms: C7_7  and  C8_8 
REMARK    4  A    between atoms: C8_8  and  C9_9 
REMARK    5  A    between atoms: C8_8  and  C21_22 
REMARK    6  A    between atoms: C9_9  and  S1_10 
REMARK    7  A    between atoms: S1_10  and  C10_11 
REMARK    8  A    between atoms: C10_11  and  C11_12 
REMARK    9  A    between atoms: C11_12  and  C12_13 
REMARK   10  A    between atoms: C12_13  and  C13_14 
REMARK   11  A    between atoms: C13_14  and  C14_15 
REMARK   12  A    between atoms: C14_15  and  C15_16 
REMARK   13  A    between atoms: C15_16  and  C16_17 
REMARK       I    between atoms: C21_22  and  N1_24 
REMARK   14  A    between atoms: N1_24  and  C22_26 
REMARK   15  A    between atoms: C23_27  and  O2_28 
REMARK   16  A    between atoms: C24_30  and  O3_31 
REMARK   17  A    between atoms: C25_33  and  O4_34 
REMARK   18  A    between atoms: C26_36  and  O5_37 
REMARK   19  A    between atoms: C27_39  and  O6_40 
ROOT
HETATM    1  C8  UNL     1      49.111  19.697 -12.216  1.00  0.00     0.016 C 
ENDROOT
BRANCH   1   2
HETATM    2  C7  UNL     1      50.134  20.620 -12.715  1.00  0.00    -0.004 C 
BRANCH   2   3
HETATM    3  C4  UNL     1      49.882  21.657 -13.697  1.00  0.00    -0.026 C 
HETATM    4  C5  UNL     1      48.673  22.553 -13.464  1.00  0.00     0.019 C 
HETATM    5  C6  UNL     1      49.803  21.255 -15.151  1.00  0.00     0.019 C 
BRANCH   3   6
HETATM    6  C2  UNL     1      51.072  22.636 -13.658  1.00  0.00    -0.011 C 
HETATM    7  C1  UNL     1      51.894  22.459 -12.429  1.00  0.00     0.010 C 
HETATM    8  C3  UNL     1      51.901  22.603 -14.893  1.00  0.00     0.010 C 
ENDBRANCH   3   6
ENDBRANCH   2   3
ENDBRANCH   1   2
BRANCH   1   9
HETATM    9  C9  UNL     1      48.723  18.517 -13.012  1.00  0.00     0.117 C 
BRANCH   9  10
HETATM   10  S1  UNL     1      47.216  18.813 -14.016  1.00  0.00    -0.164 SA
BRANCH  10  11
HETATM   11  C10 UNL     1      46.118  19.980 -13.172  1.00  0.00     0.074 C 
BRANCH  11  12
HETATM   12  C11 UNL     1      44.876  19.175 -12.770  1.00  0.00     0.010 C 
BRANCH  12  13
HETATM   13  C12 UNL     1      45.015  17.766 -13.315  1.00  0.00     0.001 C 
BRANCH  13  14
HETATM   14  C13 UNL     1      43.864  16.904 -12.868  1.00  0.00     0.000 C 
BRANCH  14  15
HETATM   15  C14 UNL     1      43.045  17.607 -11.815  1.00  0.00     0.000 C 
BRANCH  15  16
HETATM   16  C15 UNL     1      43.052  16.750 -10.566  1.00  0.00     0.004 C 
BRANCH  16  17
HETATM   17  C16 UNL     1      43.312  17.525  -9.312  1.00  0.00    -0.014 C 
HETATM   18  C17 UNL     1      43.349  16.657  -8.079  1.00  0.00     0.004 C 
HETATM   19  C18 UNL     1      44.760  16.096  -8.047  1.00  0.00     0.000 C 
HETATM   20  C19 UNL     1      45.613  17.176  -8.638  1.00  0.00     0.000 C 
HETATM   21  C20 UNL     1      44.717  18.093  -9.419  1.00  0.00     0.004 C 
ENDBRANCH  16  17
ENDBRANCH  15  16
ENDBRANCH  14  15
ENDBRANCH  13  14
ENDBRANCH  12  13
ENDBRANCH  11  12
ENDBRANCH  10  11
ENDBRANCH   9  10
ENDBRANCH   1   9
BRANCH   1  22
HETATM   22  C21 UNL     1      49.139  19.468 -10.729  1.00  0.00     0.248 C 
HETATM   23  O1  UNL     1      47.992  19.383 -10.177  1.00  0.00    -0.268 OA
HETATM   24  N1  UNL     1      50.285  19.344  -9.949  1.00  0.00    -0.347 N 
ATOM     25  H1  UNL     1      51.211  19.407 -10.372  1.00  0.00     0.163 HD
BRANCH  24  26
HETATM   26  C22 UNL     1      50.133  19.120  -8.504  1.00  0.00     0.147 C 
HETATM   27  C23 UNL     1      51.119  20.015  -7.796  1.00  0.00     0.174 C 
HETATM   28  C24 UNL     1      51.294  19.642  -6.359  1.00  0.00     0.180 C 
HETATM   29  C25 UNL     1      51.833  18.227  -6.314  1.00  0.00     0.180 C 
HETATM   30  C26 UNL     1      50.803  17.307  -6.886  1.00  0.00     0.180 C 
HETATM   31  C27 UNL     1      50.341  17.665  -8.258  1.00  0.00     0.174 C 
BRANCH  27  32
HETATM   32  O2  UNL     1      50.586  21.316  -7.844  1.00  0.00    -0.391 OA
ATOM     33  H2  UNL     1      51.289  21.885  -8.133  1.00  0.00     0.210 HD
ENDBRANCH  27  32
BRANCH  28  34
HETATM   34  O3  UNL     1      52.245  20.479  -5.793  1.00  0.00    -0.390 OA
ATOM     35  H3  UNL     1      52.548  20.091  -4.981  1.00  0.00     0.210 HD
ENDBRANCH  28  34
BRANCH  29  36
HETATM   36  O4  UNL     1      52.996  18.228  -7.109  1.00  0.00    -0.390 OA
ATOM     37  H4  UNL     1      53.465  17.433  -6.888  1.00  0.00     0.210 HD
ENDBRANCH  29  36
BRANCH  30  38
HETATM   38  O5  UNL     1      49.764  17.169  -5.971  1.00  0.00    -0.390 OA
ATOM     39  H5  UNL     1      49.272  17.980  -5.940  1.00  0.00     0.210 HD
ENDBRANCH  30  38
BRANCH  31  40
HETATM   40  O6  UNL     1      49.135  16.985  -8.487  1.00  0.00    -0.391 OA
ATOM     41  H6  UNL     1      48.809  16.646  -7.662  1.00  0.00     0.210 HD
ENDBRANCH  31  40
ENDBRANCH  24  26
ENDBRANCH   1  22
TORSDOF 19
ENDMDL
MODEL 2
REMARK VINA RESULT: -8.500235362      0.729      1.152
REMARK  19 active torsions:
REMARK  status: ('A' for Active; 'I' for Inactive)
REMARK    1  A    between atoms: C2_2  and  C4_4 
REMARK    2  A    between atoms: C4_4  and  C7_7 
REMARK    3  A    between atoms: C7_7  and  C8_8 
REMARK    4  A    between atoms: C8_8  and  C9_9 
REMARK    5  A    between atoms: C8_8  and  C21_22 
REMARK    6  A    between atoms: C9_9  and  S1_10 
REMARK    7  A    between atoms: S1_10  and  C10_11 
REMARK    8  A    between atoms: C10_11  and  C11_12 
REMARK    9  A    between atoms: C11_12  and  C12_13 
REMARK   10  A    between atoms: C12_13  and  C13_14 
REMARK   11  A    between atoms: C13_14  and  C14_15 
REMARK   12  A    between atoms: C14_15  and  C15_16 
REMARK   13  A    between atoms: C15_16  and  C16_17 
REMARK       I    between atoms: C21_22  and  N1_24 
REMARK   14  A    between atoms: N1_24  and  C22_26 
REMARK   15  A    between atoms: C23_27  and  O2_28 
REMARK   16  A    between atoms: C24_30  and  O3_31 
REMARK   17  A    between atoms: C25_33  and  O4_34 
REMARK   18  A    between atoms: C26_36  and  O5_37 
REMARK   19  A    between atoms: C27_39  and  O6_40 
ROOT
HETATM    1  C8  UNL     1      49.006  19.823 -12.214  1.00  0.00     0.016 C 
ENDROOT
BRANCH   1   2
HETATM    2  C7  UNL     1      50.072  20.686 -12.729  1.00  0.00    -0.004 C 
BRANCH   2   3
HETATM    3  C4  UNL     1      49.871  21.712 -13.736  1.00  0.00    -0.026 C 
HETATM    4  C5  UNL     1      48.686  22.648 -13.544  1.00  0.00     0.019 C 
HETATM    5  C6  UNL     1      49.808  21.283 -15.183  1.00  0.00     0.019 C 
BRANCH   3   6
HETATM    6  C2  UNL     1      51.091  22.654 -13.692  1.00  0.00    -0.011 C 
HETATM    7  C1  UNL     1      51.863  22.500 -12.428  1.00  0.00     0.010 C 
HETATM    8  C3  UNL     1      51.959  22.546 -14.894  1.00  0.00     0.010 C 
ENDBRANCH   3   6
ENDBRANCH   2   3
ENDBRANCH   1   2
BRANCH   1   9
HETATM    9  C9  UNL     1      48.537  18.670 -13.007  1.00  0.00     0.117 C 
BRANCH   9  10
HETATM   10  S1  UNL     1      46.993  19.032 -13.928  1.00  0.00    -0.164 SA
BRANCH  10  11
HETATM   11  C10 UNL     1      45.986  20.231 -13.017  1.00  0.00     0.074 C 
BRANCH  11  12
HETATM   12  C11 UNL     1      44.808  19.438 -12.436  1.00  0.00     0.010 C 
BRANCH  12  13
HETATM   13  C12 UNL     1      44.328  20.136 -11.178  1.00  0.00     0.001 C 
BRANCH  13  14
HETATM   14  C13 UNL     1      42.842  19.966 -11.005  1.00  0.00     0.000 C 
BRANCH  14  15
HETATM   15  C14 UNL     1      42.469  18.505 -10.991  1.00  0.00     0.000 C 
BRANCH  15  16
HETATM   16  C15 UNL     1      42.529  18.020  -9.557  1.00  0.00     0.004 C 
BRANCH  16  17
HETATM   17  C16 UNL     1      43.147  16.665  -9.411  1.00  0.00    -0.014 C 
HETATM   18  C17 UNL     1      44.414  16.506 -10.215  1.00  0.00     0.004 C 
HETATM   19  C18 UNL     1      45.500  17.116  -9.347  1.00  0.00     0.000 C 
HETATM   20  C19 UNL     1      45.066  16.834  -7.941  1.00  0.00     0.000 C 
HETATM   21  C20 UNL     1      43.596  16.530  -7.966  1.00  0.00     0.004 C 
ENDBRANCH  16  17
ENDBRANCH  15  16
ENDBRANCH  14  15
ENDBRANCH  13  14
ENDBRANCH  12  13
ENDBRANCH  11  12
ENDBRANCH  10  11
ENDBRANCH   9  10
ENDBRANCH   1   9
BRANCH   1  22
HETATM   22  C21 UNL     1      49.047  19.586 -10.729  1.00  0.00     0.248 C 
HETATM   23  O1  UNL     1      47.905  19.548 -10.160  1.00  0.00    -0.268 OA
HETATM   24  N1  UNL     1      50.197  19.410  -9.967  1.00  0.00    -0.347 N 
ATOM     25  H1  UNL     1      51.119  19.435 -10.403  1.00  0.00     0.163 HD
BRANCH  24  26
HETATM   26  C22 UNL     1      50.057  19.187  -8.520  1.00  0.00     0.147 C 
HETATM   27  C23 UNL     1      51.082  20.047  -7.823  1.00  0.00     0.174 C 
HETATM   28  C24 UNL     1      51.263  19.664  -6.390  1.00  0.00     0.180 C 
HETATM   29  C25 UNL     1      51.756  18.233  -6.355  1.00  0.00     0.180 C 
HETATM   30  C26 UNL     1      50.688  17.349  -6.916  1.00  0.00     0.180 C 
HETATM   31  C27 UNL     1      50.220  17.725  -8.281  1.00  0.00     0.174 C 
BRANCH  27  32
HETATM   32  O2  UNL     1      50.591  21.365  -7.861  1.00  0.00    -0.391 OA
ATOM     33  H2  UNL     1      50.711  21.723  -6.990  1.00  0.00     0.210 HD
ENDBRANCH  27  32
BRANCH  28  34
HETATM   34  O3  UNL     1      52.248  20.468  -5.835  1.00  0.00    -0.390 OA
ATOM     35  H3  UNL     1      51.883  21.330  -5.671  1.00  0.00     0.210 HD
ENDBRANCH  28  34
BRANCH  29  36
HETATM   36  O4  UNL     1      52.907  18.197  -7.166  1.00  0.00    -0.390 OA
ATOM     37  H4  UNL     1      53.572  18.690  -6.700  1.00  0.00     0.210 HD
ENDBRANCH  29  36
BRANCH  30  38
HETATM   38  O5  UNL     1      49.658  17.242  -5.987  1.00  0.00    -0.390 OA
ATOM     39  H5  UNL     1      49.199  18.073  -5.940  1.00  0.00     0.210 HD
ENDBRANCH  30  38
BRANCH  31  40
HETATM   40  O6  UNL     1      48.990  17.086  -8.495  1.00  0.00    -0.391 OA
ATOM     41  H6  UNL     1      48.747  17.179  -9.408  1.00  0.00     0.210 HD
ENDBRANCH  31  40
ENDBRANCH  24  26
ENDBRANCH   1  22
TORSDOF 19
ENDMDL
MODEL 3
REMARK VINA RESULT: -8.241925950      1.107      1.727
REMARK  19 active torsions:
REMARK  status: ('A' for Active; 'I' for Inactive)
REMARK    1  A    between atoms: C2_2  and  C4_4 
REMARK    2  A    between atoms: C4_4  and  C7_7 
REMARK    3  A    between atoms: C7_7  and  C8_8 
REMARK    4  A    between atoms: C8_8  and  C9_9 
REMARK    5  A    between atoms: C8_8  and  C21_22 
REMARK    6  A    between atoms: C9_9  and  S1_10 
REMARK    7  A    between atoms: S1_10  and  C10_11 
REMARK    8  A    between atoms: C10_11  and  C11_12 
REMARK    9  A    between atoms: C11_12  and  C12_13 
REMARK   10  A    between atoms: C12_13  and  C13_14 
REMARK   11  A    between atoms: C13_14  and  C14_15 
REMARK   12  A    between atoms: C14_15  and  C15_16 
REMARK   13  A    between atoms: C15_16  and  C16_17 
REMARK       I    between atoms: C21_22  and  N1_24 
REMARK   14  A    between atoms: N1_24  and  C22_26 
REMARK   15  A    between atoms: C23_27  and  O2_28 
REMARK   16  A    between atoms: C24_30  and  O3_31 
REMARK   17  A    between atoms: C25_33  and  O4_34 
REMARK   18  A    between atoms: C26_36  and  O5_37 
REMARK   19  A    between atoms: C27_39  and  O6_40 
ROOT
HETATM    1  C8  UNL     1      48.974  19.644 -12.162  1.00  0.00     0.016 C 
ENDROOT
BRANCH   1   2
HETATM    2  C7  UNL     1      50.013  20.534 -12.685  1.00  0.00    -0.004 C 
BRANCH   2   3
HETATM    3  C4  UNL     1      49.759  21.871 -13.188  1.00  0.00    -0.026 C 
HETATM    4  C5  UNL     1      48.371  22.449 -12.950  1.00  0.00     0.019 C 
HETATM    5  C6  UNL     1      50.062  22.151 -14.641  1.00  0.00     0.019 C 
BRANCH   3   6
HETATM    6  C2  UNL     1      50.691  22.840 -12.432  1.00  0.00    -0.011 C 
HETATM    7  C1  UNL     1      50.441  22.813 -10.965  1.00  0.00     0.010 C 
HETATM    8  C3  UNL     1      52.129  22.644 -12.758  1.00  0.00     0.010 C 
ENDBRANCH   3   6
ENDBRANCH   2   3
ENDBRANCH   1   2
BRANCH   1   9
HETATM    9  C9  UNL     1      48.522  18.484 -12.954  1.00  0.00     0.117 C 
BRANCH   9  10
HETATM   10  S1  UNL     1      47.236  18.931 -14.183  1.00  0.00    -0.164 SA
BRANCH  10  11
HETATM   11  C10 UNL     1      45.880  17.732 -14.137  1.00  0.00     0.074 C 
BRANCH  11  12
HETATM   12  C11 UNL     1      44.962  18.177 -12.991  1.00  0.00     0.010 C 
BRANCH  12  13
HETATM   13  C12 UNL     1      45.168  19.661 -12.754  1.00  0.00     0.001 C 
BRANCH  13  14
HETATM   14  C13 UNL     1      44.525  20.091 -11.463  1.00  0.00     0.000 C 
BRANCH  14  15
HETATM   15  C14 UNL     1      43.031  20.219 -11.626  1.00  0.00     0.000 C 
BRANCH  15  16
HETATM   16  C15 UNL     1      42.383  19.866 -10.302  1.00  0.00     0.004 C 
BRANCH  16  17
HETATM   17  C16 UNL     1      41.452  18.698 -10.388  1.00  0.00    -0.014 C 
HETATM   18  C17 UNL     1      42.126  17.440 -10.875  1.00  0.00     0.004 C 
HETATM   19  C18 UNL     1      42.781  16.851  -9.638  1.00  0.00     0.000 C 
HETATM   20  C19 UNL     1      41.869  17.224  -8.510  1.00  0.00     0.000 C 
HETATM   21  C20 UNL     1      41.013  18.369  -8.971  1.00  0.00     0.004 C 
ENDBRANCH  16  17
ENDBRANCH  15  16
ENDBRANCH  14  15
ENDBRANCH  13  14
ENDBRANCH  12  13
ENDBRANCH  11  12
ENDBRANCH  10  11
ENDBRANCH   9  10
ENDBRANCH   1   9
BRANCH   1  22
HETATM   22  C21 UNL     1      49.037  19.402 -10.678  1.00  0.00     0.248 C 
HETATM   23  O1  UNL     1      47.905  19.246 -10.111  1.00  0.00    -0.268 OA
HETATM   24  N1  UNL     1      50.199  19.337  -9.916  1.00  0.00    -0.347 N 
ATOM     25  H1  UNL     1      51.114  19.458 -10.351  1.00  0.00     0.163 HD
BRANCH  24  26
HETATM   26  C22 UNL     1      50.081  19.091  -8.471  1.00  0.00     0.147 C 
HETATM   27  C23 UNL     1      51.062  19.999  -7.771  1.00  0.00     0.174 C 
HETATM   28  C24 UNL     1      51.274  19.611  -6.343  1.00  0.00     0.180 C 
HETATM   29  C25 UNL     1      51.845  18.208  -6.328  1.00  0.00     0.180 C 
HETATM   30  C26 UNL     1      50.824  17.273  -6.892  1.00  0.00     0.180 C 
HETATM   31  C27 UNL     1      50.327  17.638  -8.249  1.00  0.00     0.174 C 
BRANCH  27  32
HETATM   32  O2  UNL     1      50.499  21.287  -7.791  1.00  0.00    -0.391 OA
ATOM     33  H2  UNL     1      50.378  21.544  -6.884  1.00  0.00     0.210 HD
ENDBRANCH  27  32
BRANCH  28  34
HETATM   34  O3  UNL     1      52.217  20.462  -5.785  1.00  0.00    -0.390 OA
ATOM     35  H3  UNL     1      52.519  21.064  -6.456  1.00  0.00     0.210 HD
ENDBRANCH  28  34
BRANCH  29  36
HETATM   36  O4  UNL     1      52.991  18.245  -7.146  1.00  0.00    -0.390 OA
ATOM     37  H4  UNL     1      52.678  18.390  -8.031  1.00  0.00     0.210 HD
ENDBRANCH  29  36
BRANCH  30  38
HETATM   38  O5  UNL     1      49.807  17.099  -5.958  1.00  0.00    -0.390 OA
ATOM     39  H5  UNL     1      49.165  17.789  -6.071  1.00  0.00     0.210 HD
ENDBRANCH  30  38
BRANCH  31  40
HETATM   40  O6  UNL     1      49.132  16.934  -8.463  1.00  0.00    -0.391 OA
ATOM     41  H6  UNL     1      48.702  16.792  -7.628  1.00  0.00     0.210 HD
ENDBRANCH  31  40
ENDBRANCH  24  26
ENDBRANCH   1  22
TORSDOF 19
ENDMDL
MODEL 4
REMARK VINA RESULT: -8.190256289      1.181      1.848
REMARK  19 active torsions:
REMARK  status: ('A' for Active; 'I' for Inactive)
REMARK    1  A    between atoms: C2_2  and  C4_4 
REMARK    2  A    between atoms: C4_4  and  C7_7 
REMARK    3  A    between atoms: C7_7  and  C8_8 
REMARK    4  A    between atoms: C8_8  and  C9_9 
REMARK    5  A    between atoms: C8_8  and  C21_22 
REMARK    6  A    between atoms: C9_9  and  S1_10 
REMARK    7  A    between atoms: S1_10  and  C10_11 
REMARK    8  A    between atoms: C10_11  and  C11_12 
REMARK    9  A    between atoms: C11_12  and  C12_13 
REMARK   10  A    between atoms: C12_13  and  C13_14 
REMARK   11  A    between atoms: C13_14  and  C14_15 
REMARK   12  A    between atoms: C14_15  and  C15_16 
REMARK   13  A    between atoms: C15_16  and  C16_17 
REMARK       I    between atoms: C21_22  and  N1_24 
REMARK   14  A    between atoms: N1_24  and  C22_26 
REMARK   15  A    between atoms: C23_27  and  O2_28 
REMARK   16  A    between atoms: C24_30  and  O3_31 
REMARK   17  A    between atoms: C25_33  and  O4_34 
REMARK   18  A    between atoms: C26_36  and  O5_37 
REMARK   19  A    between atoms: C27_39  and  O6_40 
ROOT
HETATM    1  C8  UNL     1      48.931  19.755 -12.198  1.00  0.00     0.016 C 
ENDROOT
BRANCH   1   2
HETATM    2  C7  UNL     1      50.021  20.570 -12.740  1.00  0.00    -0.004 C 
BRANCH   2   3
HETATM    3  C4  UNL     1      49.839  21.612 -13.733  1.00  0.00    -0.026 C 
HETATM    4  C5  UNL     1      48.640  22.534 -13.558  1.00  0.00     0.019 C 
HETATM    5  C6  UNL     1      49.821  21.209 -15.189  1.00  0.00     0.019 C 
BRANCH   3   6
HETATM    6  C2  UNL     1      51.048  22.565 -13.638  1.00  0.00    -0.011 C 
HETATM    7  C1  UNL     1      51.808  22.367 -12.373  1.00  0.00     0.010 C 
HETATM    8  C3  UNL     1      51.931  22.514 -14.833  1.00  0.00     0.010 C 
ENDBRANCH   3   6
ENDBRANCH   2   3
ENDBRANCH   1   2
BRANCH   1   9
HETATM    9  C9  UNL     1      48.390  18.626 -12.979  1.00  0.00     0.117 C 
BRANCH   9  10
HETATM   10  S1  UNL     1      46.851  19.065 -13.875  1.00  0.00    -0.164 SA
BRANCH  10  11
HETATM   11  C10 UNL     1      45.445  19.085 -12.733  1.00  0.00     0.074 C 
BRANCH  11  12
HETATM   12  C11 UNL     1      45.068  20.561 -12.553  1.00  0.00     0.010 C 
BRANCH  12  13
HETATM   13  C12 UNL     1      43.686  20.636 -11.931  1.00  0.00     0.001 C 
BRANCH  13  14
HETATM   14  C13 UNL     1      43.630  19.840 -10.655  1.00  0.00     0.000 C 
BRANCH  14  15
HETATM   15  C14 UNL     1      42.223  19.375 -10.375  1.00  0.00     0.000 C 
BRANCH  15  16
HETATM   16  C15 UNL     1      41.913  18.228 -11.315  1.00  0.00     0.004 C 
BRANCH  16  17
HETATM   17  C16 UNL     1      42.799  17.038 -11.116  1.00  0.00    -0.014 C 
HETATM   18  C17 UNL     1      42.177  15.981 -10.237  1.00  0.00     0.004 C 
HETATM   19  C18 UNL     1      41.283  15.183 -11.171  1.00  0.00     0.000 C 
HETATM   20  C19 UNL     1      41.986  15.217 -12.493  1.00  0.00     0.000 C 
HETATM   21  C20 UNL     1      42.956  16.364 -12.468  1.00  0.00     0.004 C 
ENDBRANCH  16  17
ENDBRANCH  15  16
ENDBRANCH  14  15
ENDBRANCH  13  14
ENDBRANCH  12  13
ENDBRANCH  11  12
ENDBRANCH  10  11
ENDBRANCH   9  10
ENDBRANCH   1   9
BRANCH   1  22
HETATM   22  C21 UNL     1      48.999  19.514 -10.715  1.00  0.00     0.248 C 
HETATM   23  O1  UNL     1      47.868  19.412 -10.134  1.00  0.00    -0.268 OA
HETATM   24  N1  UNL     1      50.165  19.397  -9.965  1.00  0.00    -0.347 N 
ATOM     25  H1  UNL     1      51.080  19.474 -10.410  1.00  0.00     0.163 HD
BRANCH  24  26
HETATM   26  C22 UNL     1      50.052  19.160  -8.518  1.00  0.00     0.147 C 
HETATM   27  C23 UNL     1      51.063  20.044  -7.829  1.00  0.00     0.174 C 
HETATM   28  C24 UNL     1      51.275  19.656  -6.401  1.00  0.00     0.180 C 
HETATM   29  C25 UNL     1      51.808  18.239  -6.384  1.00  0.00     0.180 C 
HETATM   30  C26 UNL     1      50.758  17.329  -6.936  1.00  0.00     0.180 C 
HETATM   31  C27 UNL     1      50.260  17.702  -8.291  1.00  0.00     0.174 C 
BRANCH  27  32
HETATM   32  O2  UNL     1      50.535  21.347  -7.851  1.00  0.00    -0.391 OA
ATOM     33  H2  UNL     1      50.599  21.680  -6.963  1.00  0.00     0.210 HD
ENDBRANCH  27  32
BRANCH  28  34
HETATM   34  O3  UNL     1      52.245  20.484  -5.855  1.00  0.00    -0.390 OA
ATOM     35  H3  UNL     1      51.927  21.379  -5.870  1.00  0.00     0.210 HD
ENDBRANCH  28  34
BRANCH  29  36
HETATM   36  O4  UNL     1      52.948  18.241  -7.211  1.00  0.00    -0.390 OA
ATOM     37  H4  UNL     1      53.652  17.875  -6.690  1.00  0.00     0.210 HD
ENDBRANCH  29  36
BRANCH  30  38
HETATM   38  O5  UNL     1      49.744  17.187  -5.993  1.00  0.00    -0.390 OA
ATOM     39  H5  UNL     1      49.088  17.858  -6.144  1.00  0.00     0.210 HD
ENDBRANCH  30  38
BRANCH  31  40
HETATM   40  O6  UNL     1      49.044  17.030  -8.493  1.00  0.00    -0.391 OA
ATOM     41  H6  UNL     1      49.130  16.452  -9.241  1.00  0.00     0.210 HD
ENDBRANCH  31  40
ENDBRANCH  24  26
ENDBRANCH   1  22
TORSDOF 19
ENDMDL
MODEL 5
REMARK VINA RESULT: -8.161846093      1.039      1.609
REMARK  19 active torsions:
REMARK  status: ('A' for Active; 'I' for Inactive)
REMARK    1  A    between atoms: C2_2  and  C4_4 
REMARK    2  A    between atoms: C4_4  and  C7_7 
REMARK    3  A    between atoms: C7_7  and  C8_8 
REMARK    4  A    between atoms: C8_8  and  C9_9 
REMARK    5  A    between atoms: C8_8  and  C21_22 
REMARK    6  A    between atoms: C9_9  and  S1_10 
REMARK    7  A    between atoms: S1_10  and  C10_11 
REMARK    8  A    between atoms: C10_11  and  C11_12 
REMARK    9  A    between atoms: C11_12  and  C12_13 
REMARK   10  A    between atoms: C12_13  and  C13_14 
REMARK   11  A    between atoms: C13_14  and  C14_15 
REMARK   12  A    between atoms: C14_15  and  C15_16 
REMARK   13  A    between atoms: C15_16  and  C16_17 
REMARK       I    between atoms: C21_22  and  N1_24 
REMARK   14  A    between atoms: N1_24  and  C22_26 
REMARK   15  A    between atoms: C23_27  and  O2_28 
REMARK   16  A    between atoms: C24_30  and  O3_31 
REMARK   17  A    between atoms: C25_33  and  O4_34 
REMARK   18  A    between atoms: C26_36  and  O5_37 
REMARK   19  A    between atoms: C27_39  and  O6_40 
ROOT
HETATM    1  C8  UNL     1      49.089  19.946 -12.147  1.00  0.00     0.016 C 
ENDROOT
BRANCH   1   2
HETATM    2  C7  UNL     1      50.261  20.658 -12.664  1.00  0.00    -0.004 C 
BRANCH   2   3
HETATM    3  C4  UNL     1      50.192  21.748 -13.619  1.00  0.00    -0.026 C 
HETATM    4  C5  UNL     1      49.339  22.950 -13.238  1.00  0.00     0.019 C 
HETATM    5  C6  UNL     1      49.804  21.421 -15.042  1.00  0.00     0.019 C 
BRANCH   3   6
HETATM    6  C2  UNL     1      51.610  22.337 -13.758  1.00  0.00    -0.011 C 
HETATM    7  C1  UNL     1      51.852  22.878 -15.124  1.00  0.00     0.010 C 
HETATM    8  C3  UNL     1      51.940  23.328 -12.698  1.00  0.00     0.010 C 
ENDBRANCH   3   6
ENDBRANCH   2   3
ENDBRANCH   1   2
BRANCH   1   9
HETATM    9  C9  UNL     1      48.444  18.893 -12.955  1.00  0.00     0.117 C 
BRANCH   9  10
HETATM   10  S1  UNL     1      46.773  19.378 -13.536  1.00  0.00    -0.164 SA
BRANCH  10  11
HETATM   11  C10 UNL     1      45.961  17.979 -14.351  1.00  0.00     0.074 C 
BRANCH  11  12
HETATM   12  C11 UNL     1      44.760  17.615 -13.468  1.00  0.00     0.010 C 
BRANCH  12  13
HETATM   13  C12 UNL     1      44.504  16.125 -13.589  1.00  0.00     0.001 C 
BRANCH  13  14
HETATM   14  C13 UNL     1      43.130  15.776 -13.081  1.00  0.00     0.000 C 
BRANCH  14  15
HETATM   15  C14 UNL     1      43.083  15.844 -11.576  1.00  0.00     0.000 C 
BRANCH  15  16
HETATM   16  C15 UNL     1      41.992  16.822 -11.186  1.00  0.00     0.004 C 
BRANCH  16  17
HETATM   17  C16 UNL     1      42.275  17.551  -9.910  1.00  0.00    -0.014 C 
HETATM   18  C17 UNL     1      43.698  18.043  -9.814  1.00  0.00     0.004 C 
HETATM   19  C18 UNL     1      43.705  19.351 -10.586  1.00  0.00     0.000 C 
HETATM   20  C19 UNL     1      42.342  19.930 -10.367  1.00  0.00     0.000 C 
HETATM   21  C20 UNL     1      41.436  18.818  -9.923  1.00  0.00     0.004 C 
ENDBRANCH  16  17
ENDBRANCH  15  16
ENDBRANCH  14  15
ENDBRANCH  13  14
ENDBRANCH  12  13
ENDBRANCH  11  12
ENDBRANCH  10  11
ENDBRANCH   9  10
ENDBRANCH   1   9
BRANCH   1  22
HETATM   22  C21 UNL     1      49.119  19.671 -10.668  1.00  0.00     0.248 C 
HETATM   23  O1  UNL     1      47.977  19.664 -10.100  1.00  0.00    -0.268 OA
HETATM   24  N1  UNL     1      50.261  19.430  -9.912  1.00  0.00    -0.347 N 
ATOM     25  H1  UNL     1      51.183  19.429 -10.347  1.00  0.00     0.163 HD
BRANCH  24  26
HETATM   26  C22 UNL     1      50.111  19.176  -8.471  1.00  0.00     0.147 C 
HETATM   27  C23 UNL     1      51.118  20.035  -7.747  1.00  0.00     0.174 C 
HETATM   28  C24 UNL     1      51.292  19.626  -6.320  1.00  0.00     0.180 C 
HETATM   29  C25 UNL     1      51.804  18.201  -6.310  1.00  0.00     0.180 C 
HETATM   30  C26 UNL     1      50.753  17.314  -6.898  1.00  0.00     0.180 C 
HETATM   31  C27 UNL     1      50.292  17.712  -8.259  1.00  0.00     0.174 C 
BRANCH  27  32
HETATM   32  O2  UNL     1      50.611  21.347  -7.764  1.00  0.00    -0.391 OA
ATOM     33  H2  UNL     1      51.151  21.839  -8.370  1.00  0.00     0.210 HD
ENDBRANCH  27  32
BRANCH  28  34
HETATM   34  O3  UNL     1      52.262  20.432  -5.741  1.00  0.00    -0.390 OA
ATOM     35  H3  UNL     1      53.092  19.971  -5.760  1.00  0.00     0.210 HD
ENDBRANCH  28  34
BRANCH  29  36
HETATM   36  O4  UNL     1      52.962  18.197  -7.111  1.00  0.00    -0.390 OA
ATOM     37  H4  UNL     1      52.899  18.962  -7.669  1.00  0.00     0.210 HD
ENDBRANCH  29  36
BRANCH  30  38
HETATM   38  O5  UNL     1      49.716  17.175  -5.980  1.00  0.00    -0.390 OA
ATOM     39  H5  UNL     1      48.911  17.485  -6.378  1.00  0.00     0.210 HD
ENDBRANCH  30  38
BRANCH  31  40
HETATM   40  O6  UNL     1      49.072  17.060  -8.497  1.00  0.00    -0.391 OA
ATOM     41  H6  UNL     1      49.033  16.272  -7.969  1.00  0.00     0.210 HD
ENDBRANCH  31  40
ENDBRANCH  24  26
ENDBRANCH   1  22
TORSDOF 19
ENDMDL
