MODEL 1
REMARK VINA RESULT: -8.638756395      0.000      0.000
REMARK  14 active torsions:
REMARK  status: ('A' for Active; 'I' for Inactive)
REMARK    1  A    between atoms: C5_12  and  C6_13 
REMARK    2  A    between atoms: C6_13  and  C7_14 
REMARK    3  A    between atoms: C10_17  and  O2_18 
REMARK    4  A    between atoms: O2_18  and  C11_19 
REMARK    5  A    between atoms: C11_19  and  C12_20 
REMARK    6  A    between atoms: C12_20  and  C13_21 
REMARK    7  A    between atoms: C13_21  and  C14_22 
REMARK    8  A    between atoms: C14_22  and  C15_23 
REMARK    9  A    between atoms: C15_23  and  C16_24 
REMARK   10  A    between atoms: C16_24  and  C17_25 
REMARK   11  A    between atoms: C17_25  and  C18_26 
REMARK   12  A    between atoms: C18_26  and  C19_27 
REMARK   13  A    between atoms: C24_37  and  N6_38 
REMARK   14  A    between atoms: N6_38  and  C25_40 
ROOT
HETATM    1  C7  UNL     1      48.233  19.808 -12.211  1.00  0.00    -0.026 A 
HETATM    2  C8  UNL     1      47.314  20.637 -12.852  1.00  0.00     0.012 A 
HETATM    3  C9  UNL     1      46.047  20.894 -12.395  1.00  0.00     0.037 A 
HETATM    4  C10 UNL     1      45.688  20.275 -11.225  1.00  0.00     0.070 A 
HETATM    5  C23 UNL     1      46.615  19.432 -10.558  1.00  0.00     0.067 A 
HETATM    6  C24 UNL     1      47.878  19.200 -11.048  1.00  0.00     0.058 A 
ENDROOT
BRANCH   4   7
HETATM    7  O2  UNL     1      44.453  20.423 -10.644  1.00  0.00    -0.351 OA
BRANCH   7   8
HETATM    8  C11 UNL     1      43.234  20.328 -11.271  1.00  0.00     0.175 C 
BRANCH   8   9
HETATM    9  C12 UNL     1      42.220  19.638 -10.392  1.00  0.00     0.027 C 
BRANCH   9  10
HETATM   10  C13 UNL     1      41.803  18.357 -11.055  1.00  0.00     0.002 C 
BRANCH  10  11
HETATM   11  C14 UNL     1      42.840  17.285 -11.105  1.00  0.00     0.000 C 
BRANCH  11  12
HETATM   12  C15 UNL     1      42.519  16.334 -12.232  1.00  0.00     0.000 C 
BRANCH  12  13
HETATM   13  C16 UNL     1      43.624  16.272 -13.254  1.00  0.00     0.000 C 
BRANCH  13  14
HETATM   14  C17 UNL     1      44.784  17.174 -12.881  1.00  0.00     0.002 C 
BRANCH  14  15
HETATM   15  C18 UNL     1      45.526  17.501 -14.131  1.00  0.00     0.035 C 
BRANCH  15  16
HETATM   16  C19 UNL     1      46.982  17.119 -14.122  1.00  0.00     0.203 C 
HETATM   17  C20 UNL     1      47.171  15.662 -13.920  1.00  0.00     0.146 C 
HETATM   18  N4  UNL     1      47.683  14.906 -15.006  1.00  0.00    -0.418 N 
HETATM   19  C21 UNL     1      48.844  15.455 -15.641  1.00  0.00     0.141 C 
ATOM     20  H4  UNL     1      47.254  14.033 -15.313  1.00  0.00     0.153 HD
HETATM   21  C22 UNL     1      48.987  16.940 -15.431  1.00  0.00     0.252 C 
HETATM   22  N5  UNL     1      47.722  17.602 -15.262  1.00  0.00    -0.068 N 
ATOM     23  H52 UNL     1      47.162  17.540 -16.113  1.00  0.00     0.277 HD
ATOM     24  H51 UNL     1      47.844  18.614 -15.216  1.00  0.00     0.277 HD
ENDBRANCH  15  16
ENDBRANCH  14  15
ENDBRANCH  13  14
ENDBRANCH  12  13
ENDBRANCH  11  12
ENDBRANCH  10  11
ENDBRANCH   9  10
ENDBRANCH   8   9
ENDBRANCH   7   8
ENDBRANCH   4   7
BRANCH   6  25
HETATM   25  N6  UNL     1      48.786  18.377 -10.345  1.00  0.00    -0.192 N 
ATOM     26  H6  UNL     1      49.069  17.517 -10.814  1.00  0.00     0.184 HD
BRANCH  25  27
HETATM   27  C25 UNL     1      49.343  18.602  -9.082  1.00  0.00     0.674 C 
HETATM   28  N7  UNL     1      49.350  17.583  -8.209  1.00  0.00    -0.226 N 
HETATM   29  C26 UNL     1      49.931  17.816  -6.878  1.00  0.00     0.139 C 
ATOM     30  H7  UNL     1      48.963  16.673  -8.461  1.00  0.00     0.177 HD
HETATM   31  C27 UNL     1      51.265  18.516  -7.031  1.00  0.00     0.040 C 
HETATM   32  C28 UNL     1      51.060  19.812  -7.732  1.00  0.00     0.139 C 
HETATM   33  N8  UNL     1      49.888  19.792  -8.561  1.00  0.00    -0.226 N 
ATOM     34  H8  UNL     1      49.431  20.677  -8.782  1.00  0.00     0.177 HD
ENDBRANCH  25  27
ENDBRANCH   6  25
BRANCH   1  35
HETATM   35  C6  UNL     1      49.522  19.668 -12.922  1.00  0.00     0.084 C 
BRANCH  35  36
HETATM   36  C5  UNL     1      50.390  20.834 -12.923  1.00  0.00     0.006 A 
HETATM   37  C2  UNL     1      50.621  21.654 -13.971  1.00  0.00     0.116 A 
HETATM   38  N1  UNL     1      50.345  21.508 -15.165  1.00  0.00    -0.362 N 
HETATM   39  N2  UNL     1      51.362  22.801 -13.718  1.00  0.00    -0.294 N 
HETATM   40  C1  UNL     1      49.737  20.753 -16.129  1.00  0.00     0.120 C 
ATOM     41  H1  UNL     1      50.752  22.308 -15.649  1.00  0.00     0.165 HD
HETATM   42  C3  UNL     1      51.849  23.129 -12.534  1.00  0.00     0.325 A 
ATOM     43  H2  UNL     1      51.542  23.432 -14.499  1.00  0.00     0.172 HD
HETATM   44  O1  UNL     1      52.527  24.207 -12.367  1.00  0.00    -0.247 OA
HETATM   45  N3  UNL     1      51.620  22.311 -11.503  1.00  0.00    -0.318 N 
HETATM   46  C4  UNL     1      50.907  21.178 -11.662  1.00  0.00     0.104 A 
ATOM     47  H3  UNL     1      51.990  22.546 -10.582  1.00  0.00     0.170 HD
ENDBRANCH  35  36
ENDBRANCH   1  35
TORSDOF 14
ENDMDL
MODEL 2
REMARK VINA RESULT: -8.453001992      2.071      4.419
REMARK  14 active torsions:
REMARK  status: ('A' for Active; 'I' for Inactive)
REMARK    1  A    between atoms: C5_12  and  C6_13 
REMARK    2  A    between atoms: C6_13  and  C7_14 
REMARK    3  A    between atoms: C10_17  and  O2_18 
REMARK    4  A    between atoms: O2_18  and  C11_19 
REMARK    5  A    between atoms: C11_19  and  C12_20 
REMARK    6  A    between atoms: C12_20  and  C13_21 
REMARK    7  A    between atoms: C13_21  and  C14_22 
REMARK    8  A    between atoms: C14_22  and  C15_23 
REMARK    9  A    between atoms: C15_23  and  C16_24 
REMARK   10  A    between atoms: C16_24  and  C17_25 
REMARK   11  A    between atoms: C17_25  and  C18_26 
REMARK   12  A    between atoms: C18_26  and  C19_27 
REMARK   13  A    between atoms: C24_37  and  N6_38 
REMARK   14  A    between atoms: N6_38  and  C25_40 
ROOT
HETATM    1  C7  UNL     1      47.563  18.535 -10.645  1.00  0.00    -0.026 A 
HETATM    2  C8  UNL     1      46.852  17.872  -9.646  1.00  0.00     0.012 A 
HETATM    3  C9  UNL     1      45.508  18.026  -9.415  1.00  0.00     0.037 A 
HETATM    4  C10 UNL     1      44.848  18.901 -10.239  1.00  0.00     0.070 A 
HETATM    5  C23 UNL     1      45.559  19.580 -11.264  1.00  0.00     0.067 A 
HETATM    6  C24 UNL     1      46.906  19.398 -11.464  1.00  0.00     0.058 A 
ENDROOT
BRANCH   4   7
HETATM    7  O2  UNL     1      43.507  19.172 -10.129  1.00  0.00    -0.351 OA
BRANCH   7   8
HETATM    8  C11 UNL     1      42.513  18.281  -9.798  1.00  0.00     0.175 C 
BRANCH   8   9
HETATM    9  C12 UNL     1      41.502  18.154 -10.911  1.00  0.00     0.027 C 
BRANCH   9  10
HETATM   10  C13 UNL     1      41.844  16.945 -11.733  1.00  0.00     0.002 C 
BRANCH  10  11
HETATM   11  C14 UNL     1      42.773  15.967 -11.096  1.00  0.00     0.000 C 
BRANCH  11  12
HETATM   12  C15 UNL     1      43.954  15.736 -12.005  1.00  0.00     0.000 C 
BRANCH  12  13
HETATM   13  C16 UNL     1      43.736  16.316 -13.377  1.00  0.00     0.000 C 
BRANCH  13  14
HETATM   14  C17 UNL     1      44.937  17.116 -13.846  1.00  0.00     0.002 C 
BRANCH  14  15
HETATM   15  C18 UNL     1      46.139  16.244 -13.721  1.00  0.00     0.035 C 
BRANCH  15  16
HETATM   16  C19 UNL     1      47.452  16.935 -13.975  1.00  0.00     0.203 C 
HETATM   17  C20 UNL     1      48.606  16.033 -13.741  1.00  0.00     0.146 C 
HETATM   18  N4  UNL     1      49.375  15.641 -14.866  1.00  0.00    -0.418 N 
HETATM   19  C21 UNL     1      49.770  16.707 -15.739  1.00  0.00     0.141 C 
ATOM     20  H4  UNL     1      49.629  14.669 -15.042  1.00  0.00     0.153 HD
HETATM   21  C22 UNL     1      48.881  17.918 -15.635  1.00  0.00     0.252 C 
HETATM   22  N5  UNL     1      47.534  17.588 -15.258  1.00  0.00    -0.068 N 
ATOM     23  H52 UNL     1      47.080  17.029 -15.981  1.00  0.00     0.277 HD
ATOM     24  H51 UNL     1      46.935  18.414 -15.286  1.00  0.00     0.277 HD
ENDBRANCH  15  16
ENDBRANCH  14  15
ENDBRANCH  13  14
ENDBRANCH  12  13
ENDBRANCH  11  12
ENDBRANCH  10  11
ENDBRANCH   9  10
ENDBRANCH   8   9
ENDBRANCH   7   8
ENDBRANCH   4   7
BRANCH   6  25
HETATM   25  N6  UNL     1      47.577  20.068 -12.512  1.00  0.00    -0.192 N 
ATOM     26  H6  UNL     1      47.698  19.541 -13.378  1.00  0.00     0.184 HD
BRANCH  25  27
HETATM   27  C25 UNL     1      48.096  21.366 -12.503  1.00  0.00     0.674 C 
HETATM   28  N7  UNL     1      49.414  21.514 -12.292  1.00  0.00    -0.226 N 
HETATM   29  C26 UNL     1      49.963  22.879 -12.279  1.00  0.00     0.139 C 
ATOM     30  H7  UNL     1      50.016  20.704 -12.145  1.00  0.00     0.177 HD
HETATM   31  C27 UNL     1      49.433  23.642 -13.473  1.00  0.00     0.040 C 
HETATM   32  C28 UNL     1      47.947  23.691 -13.404  1.00  0.00     0.139 C 
HETATM   33  N8  UNL     1      47.411  22.588 -12.657  1.00  0.00    -0.226 N 
ATOM     34  H8  UNL     1      46.495  22.693 -12.220  1.00  0.00     0.177 HD
ENDBRANCH  25  27
ENDBRANCH   6  25
BRANCH   1  35
HETATM   35  C6  UNL     1      49.008  18.222 -10.669  1.00  0.00     0.084 C 
BRANCH  35  36
HETATM   36  C5  UNL     1      49.762  18.561  -9.473  1.00  0.00     0.006 A 
HETATM   37  C2  UNL     1      50.400  17.690  -8.662  1.00  0.00     0.116 A 
HETATM   38  N1  UNL     1      50.329  16.459  -8.610  1.00  0.00    -0.362 N 
HETATM   39  N2  UNL     1      51.192  18.234  -7.659  1.00  0.00    -0.294 N 
HETATM   40  C1  UNL     1      49.826  15.305  -9.143  1.00  0.00     0.120 C 
ATOM     41  H1  UNL     1      50.901  16.176  -7.815  1.00  0.00     0.165 HD
HETATM   42  C3  UNL     1      51.353  19.529  -7.454  1.00  0.00     0.325 A 
ATOM     43  H2  UNL     1      51.684  17.589  -7.039  1.00  0.00     0.172 HD
HETATM   44  O1  UNL     1      52.102  19.967  -6.507  1.00  0.00    -0.247 OA
HETATM   45  N3  UNL     1      50.715  20.384  -8.259  1.00  0.00    -0.318 N 
HETATM   46  C4  UNL     1      49.928  19.940  -9.258  1.00  0.00     0.104 A 
ATOM     47  H3  UNL     1      50.825  21.388  -8.114  1.00  0.00     0.170 HD
ENDBRANCH  35  36
ENDBRANCH   1  35
TORSDOF 14
ENDMDL
MODEL 3
REMARK VINA RESULT: -8.441330033      1.744      4.929
REMARK  14 active torsions:
REMARK  status: ('A' for Active; 'I' for Inactive)
REMARK    1  A    between atoms: C5_12  and  C6_13 
REMARK    2  A    between atoms: C6_13  and  C7_14 
REMARK    3  A    between atoms: C10_17  and  O2_18 
REMARK    4  A    between atoms: O2_18  and  C11_19 
REMARK    5  A    between atoms: C11_19  and  C12_20 
REMARK    6  A    between atoms: C12_20  and  C13_21 
REMARK    7  A    between atoms: C13_21  and  C14_22 
REMARK    8  A    between atoms: C14_22  and  C15_23 
REMARK    9  A    between atoms: C15_23  and  C16_24 
REMARK   10  A    between atoms: C16_24  and  C17_25 
REMARK   11  A    between atoms: C17_25  and  C18_26 
REMARK   12  A    between atoms: C18_26  and  C19_27 
REMARK   13  A    between atoms: C24_37  and  N6_38 
REMARK   14  A    between atoms: N6_38  and  C25_40 
ROOT
HETATM    1  C7  UNL     1      47.785  19.649 -12.090  1.00  0.00    -0.026 A 
HETATM    2  C8  UNL     1      47.252  19.769 -10.807  1.00  0.00     0.012 A 
HETATM    3  C9  UNL     1      45.934  20.036 -10.534  1.00  0.00     0.037 A 
HETATM    4  C10 UNL     1      45.110  20.191 -11.620  1.00  0.00     0.070 A 
HETATM    5  C23 UNL     1      45.638  20.067 -12.932  1.00  0.00     0.067 A 
HETATM    6  C24 UNL     1      46.966  19.798 -13.164  1.00  0.00     0.058 A 
ENDROOT
BRANCH   4   7
HETATM    7  O2  UNL     1      43.770  20.471 -11.513  1.00  0.00    -0.351 OA
BRANCH   7   8
HETATM    8  C11 UNL     1      42.748  19.561 -11.389  1.00  0.00     0.175 C 
BRANCH   8   9
HETATM    9  C12 UNL     1      41.892  19.861 -10.183  1.00  0.00     0.027 C 
BRANCH   9  10
HETATM   10  C13 UNL     1      41.629  18.577  -9.450  1.00  0.00     0.002 C 
BRANCH  10  11
HETATM   11  C14 UNL     1      42.748  17.589  -9.449  1.00  0.00     0.000 C 
BRANCH  11  12
HETATM   12  C15 UNL     1      42.627  16.702  -8.235  1.00  0.00     0.000 C 
BRANCH  12  13
HETATM   13  C16 UNL     1      43.962  16.163  -7.791  1.00  0.00     0.000 C 
BRANCH  13  14
HETATM   14  C17 UNL     1      45.110  16.996  -8.329  1.00  0.00     0.002 C 
BRANCH  14  15
HETATM   15  C18 UNL     1      46.328  16.651  -7.544  1.00  0.00     0.035 C 
BRANCH  15  16
HETATM   16  C19 UNL     1      47.630  17.047  -8.188  1.00  0.00     0.203 C 
HETATM   17  C20 UNL     1      48.765  16.965  -7.236  1.00  0.00     0.146 C 
HETATM   18  N4  UNL     1      49.744  15.965  -7.463  1.00  0.00    -0.418 N 
HETATM   19  C21 UNL     1      50.240  15.885  -8.806  1.00  0.00     0.141 C 
ATOM     20  H4  UNL     1      50.074  15.345  -6.723  1.00  0.00     0.153 HD
HETATM   21  C22 UNL     1      49.288  16.460  -9.822  1.00  0.00     0.252 C 
HETATM   22  N5  UNL     1      47.912  16.352  -9.420  1.00  0.00    -0.068 N 
ATOM     23  H52 UNL     1      47.625  15.375  -9.360  1.00  0.00     0.277 HD
ATOM     24  H51 UNL     1      47.289  16.663 -10.165  1.00  0.00     0.277 HD
ENDBRANCH  15  16
ENDBRANCH  14  15
ENDBRANCH  13  14
ENDBRANCH  12  13
ENDBRANCH  11  12
ENDBRANCH  10  11
ENDBRANCH   9  10
ENDBRANCH   8   9
ENDBRANCH   7   8
ENDBRANCH   4   7
BRANCH   6  25
HETATM   25  N6  UNL     1      47.453  19.653 -14.482  1.00  0.00    -0.192 N 
ATOM     26  H6  UNL     1      47.387  20.477 -15.080  1.00  0.00     0.184 HD
BRANCH  25  27
HETATM   27  C25 UNL     1      48.015  18.513 -15.065  1.00  0.00     0.674 C 
HETATM   28  N7  UNL     1      49.170  18.655 -15.735  1.00  0.00    -0.226 N 
HETATM   29  C26 UNL     1      49.763  17.459 -16.353  1.00  0.00     0.139 C 
ATOM     30  H7  UNL     1      49.623  19.566 -15.813  1.00  0.00     0.177 HD
HETATM   31  C27 UNL     1      49.759  16.325 -15.351  1.00  0.00     0.040 C 
HETATM   32  C28 UNL     1      48.358  16.042 -14.936  1.00  0.00     0.139 C 
HETATM   33  N8  UNL     1      47.515  17.196 -15.082  1.00  0.00    -0.226 N 
ATOM     34  H8  UNL     1      46.511  17.056 -15.201  1.00  0.00     0.177 HD
ENDBRANCH  25  27
ENDBRANCH   6  25
BRANCH   1  35
HETATM   35  C6  UNL     1      49.240  19.392 -12.118  1.00  0.00     0.084 C 
BRANCH  35  36
HETATM   36  C5  UNL     1      50.104  20.561 -12.102  1.00  0.00     0.006 A 
HETATM   37  C2  UNL     1      50.841  20.991 -11.056  1.00  0.00     0.116 A 
HETATM   38  N1  UNL     1      50.805  20.651  -9.869  1.00  0.00    -0.362 N 
HETATM   39  N2  UNL     1      51.718  22.041 -11.296  1.00  0.00    -0.294 N 
HETATM   40  C1  UNL     1      50.278  19.823  -8.918  1.00  0.00     0.120 C 
ATOM     41  H1  UNL     1      51.461  21.259  -9.381  1.00  0.00     0.165 HD
HETATM   42  C3  UNL     1      51.868  22.635 -12.467  1.00  0.00     0.325 A 
ATOM     43  H2  UNL     1      52.286  22.375 -10.516  1.00  0.00     0.172 HD
HETATM   44  O1  UNL     1      52.699  23.602 -12.622  1.00  0.00    -0.247 OA
HETATM   45  N3  UNL     1      51.132  22.207 -13.496  1.00  0.00    -0.318 N 
HETATM   46  C4  UNL     1      50.258  21.191 -13.349  1.00  0.00     0.104 A 
ATOM     47  H3  UNL     1      51.232  22.655 -14.407  1.00  0.00     0.170 HD
ENDBRANCH  35  36
ENDBRANCH   1  35
TORSDOF 14
ENDMDL
MODEL 4
REMARK VINA RESULT: -8.398441128      2.326      5.058
REMARK  14 active torsions:
REMARK  status: ('A' for Active; 'I' for Inactive)
REMARK    1  A    between atoms: C5_12  and  C6_13 
REMARK    2  A    between atoms: C6_13  and  C7_14 
REMARK    3  A    between atoms: C10_17  and  O2_18 
REMARK    4  A    between atoms: O2_18  and  C11_19 
REMARK    5  A    between atoms: C11_19  and  C12_20 
REMARK    6  A    between atoms: C12_20  and  C13_21 
REMARK    7  A    between atoms: C13_21  and  C14_22 
REMARK    8  A    between atoms: C14_22  and  C15_23 
REMARK    9  A    between atoms: C15_23  and  C16_24 
REMARK   10  A    between atoms: C16_24  and  C17_25 
REMARK   11  A    between atoms: C17_25  and  C18_26 
REMARK   12  A    between atoms: C18_26  and  C19_27 
REMARK   13  A    between atoms: C24_37  and  N6_38 
REMARK   14  A    between atoms: N6_38  and  C25_40 
ROOT
HETATM    1  C7  UNL     1      48.767  18.402  -9.466  1.00  0.00    -0.026 A 
HETATM    2  C8  UNL     1      47.836  17.402  -9.192  1.00  0.00     0.012 A 
HETATM    3  C9  UNL     1      46.479  17.540  -9.341  1.00  0.00     0.037 A 
HETATM    4  C10 UNL     1      46.040  18.759  -9.791  1.00  0.00     0.070 A 
HETATM    5  C23 UNL     1      46.977  19.786 -10.078  1.00  0.00     0.067 A 
HETATM    6  C24 UNL     1      48.330  19.608  -9.917  1.00  0.00     0.058 A 
ENDROOT
BRANCH   4   7
HETATM    7  O2  UNL     1      44.713  19.056  -9.981  1.00  0.00    -0.351 OA
BRANCH   7   8
HETATM    8  C11 UNL     1      44.200  20.035 -10.798  1.00  0.00     0.175 C 
BRANCH   8   9
HETATM    9  C12 UNL     1      42.795  19.700 -11.234  1.00  0.00     0.027 C 
BRANCH   9  10
HETATM   10  C13 UNL     1      42.420  18.364 -10.663  1.00  0.00     0.002 C 
BRANCH  10  11
HETATM   11  C14 UNL     1      42.185  17.275 -11.656  1.00  0.00     0.000 C 
BRANCH  11  12
HETATM   12  C15 UNL     1      43.489  16.574 -11.945  1.00  0.00     0.000 C 
BRANCH  12  13
HETATM   13  C16 UNL     1      43.599  16.151 -13.386  1.00  0.00     0.000 C 
BRANCH  13  14
HETATM   14  C17 UNL     1      44.924  16.569 -13.994  1.00  0.00     0.002 C 
BRANCH  14  15
HETATM   15  C18 UNL     1      45.197  17.970 -13.567  1.00  0.00     0.035 C 
BRANCH  15  16
HETATM   16  C19 UNL     1      46.524  18.522 -14.014  1.00  0.00     0.203 C 
HETATM   17  C20 UNL     1      47.653  17.929 -13.256  1.00  0.00     0.146 C 
HETATM   18  N4  UNL     1      48.542  17.076 -13.958  1.00  0.00    -0.418 N 
HETATM   19  C21 UNL     1      49.022  17.586 -15.209  1.00  0.00     0.141 C 
ATOM     20  H4  UNL     1      48.821  16.162 -13.599  1.00  0.00     0.153 HD
HETATM   21  C22 UNL     1      48.118  18.632 -15.807  1.00  0.00     0.252 C 
HETATM   22  N5  UNL     1      46.740  18.452 -15.438  1.00  0.00    -0.068 N 
ATOM     23  H52 UNL     1      46.371  17.581 -15.820  1.00  0.00     0.277 HD
ATOM     24  H51 UNL     1      46.142  19.116 -15.931  1.00  0.00     0.277 HD
ENDBRANCH  15  16
ENDBRANCH  14  15
ENDBRANCH  13  14
ENDBRANCH  12  13
ENDBRANCH  11  12
ENDBRANCH  10  11
ENDBRANCH   9  10
ENDBRANCH   8   9
ENDBRANCH   7   8
ENDBRANCH   4   7
BRANCH   6  25
HETATM   25  N6  UNL     1      49.238  20.642 -10.239  1.00  0.00    -0.192 N 
ATOM     26  H6  UNL     1      49.804  21.000  -9.469  1.00  0.00     0.184 HD
BRANCH  25  27
HETATM   27  C25 UNL     1      49.453  21.232 -11.488  1.00  0.00     0.674 C 
HETATM   28  N7  UNL     1      49.982  20.471 -12.459  1.00  0.00    -0.226 N 
HETATM   29  C26 UNL     1      50.214  21.090 -13.774  1.00  0.00     0.139 C 
ATOM     30  H7  UNL     1      50.218  19.493 -12.290  1.00  0.00     0.177 HD
HETATM   31  C27 UNL     1      48.978  21.859 -14.189  1.00  0.00     0.040 C 
HETATM   32  C28 UNL     1      48.692  22.910 -13.175  1.00  0.00     0.139 C 
HETATM   33  N8  UNL     1      49.217  22.564 -11.884  1.00  0.00    -0.226 N 
ATOM     34  H8  UNL     1      49.428  23.314 -11.225  1.00  0.00     0.177 HD
ENDBRANCH  25  27
ENDBRANCH   6  25
BRANCH   1  35
HETATM   35  C6  UNL     1      50.168  18.017  -9.194  1.00  0.00     0.084 C 
BRANCH  35  36
HETATM   36  C5  UNL     1      50.597  18.077  -7.806  1.00  0.00     0.006 A 
HETATM   37  C2  UNL     1      50.868  17.020  -7.010  1.00  0.00     0.116 A 
HETATM   38  N1  UNL     1      50.629  15.821  -7.180  1.00  0.00    -0.362 N 
HETATM   39  N2  UNL     1      51.412  17.298  -5.763  1.00  0.00    -0.294 N 
HETATM   40  C1  UNL     1      50.152  14.841  -8.004  1.00  0.00     0.120 C 
ATOM     41  H1  UNL     1      50.917  15.351  -6.321  1.00  0.00     0.165 HD
HETATM   42  C3  UNL     1      51.672  18.514  -5.316  1.00  0.00     0.325 A 
ATOM     43  H2  UNL     1      51.626  16.510  -5.151  1.00  0.00     0.172 HD
HETATM   44  O1  UNL     1      52.178  18.702  -4.151  1.00  0.00    -0.247 OA
HETATM   45  N3  UNL     1      51.398  19.555  -6.108  1.00  0.00    -0.318 N 
HETATM   46  C4  UNL     1      50.870  19.373  -7.335  1.00  0.00     0.104 A 
ATOM     47  H3  UNL     1      51.589  20.501  -5.779  1.00  0.00     0.170 HD
ENDBRANCH  35  36
ENDBRANCH   1  35
TORSDOF 14
ENDMDL
MODEL 5
REMARK VINA RESULT: -8.342740556      2.105      5.475
REMARK  14 active torsions:
REMARK  status: ('A' for Active; 'I' for Inactive)
REMARK    1  A    between atoms: C5_12  and  C6_13 
REMARK    2  A    between atoms: C6_13  and  C7_14 
REMARK    3  A    between atoms: C10_17  and  O2_18 
REMARK    4  A    between atoms: O2_18  and  C11_19 
REMARK    5  A    between atoms: C11_19  and  C12_20 
REMARK    6  A    between atoms: C12_20  and  C13_21 
REMARK    7  A    between atoms: C13_21  and  C14_22 
REMARK    8  A    between atoms: C14_22  and  C15_23 
REMARK    9  A    between atoms: C15_23  and  C16_24 
REMARK   10  A    between atoms: C16_24  and  C17_25 
REMARK   11  A    between atoms: C17_25  and  C18_26 
REMARK   12  A    between atoms: C18_26  and  C19_27 
REMARK   13  A    between atoms: C24_37  and  N6_38 
REMARK   14  A    between atoms: N6_38  and  C25_40 
ROOT
HETATM    1  C7  UNL     1      47.359  19.107 -12.693  1.00  0.00    -0.026 A 
HETATM    2  C8  UNL     1      46.250  18.457 -13.233  1.00  0.00     0.012 A 
HETATM    3  C9  UNL     1      44.947  18.785 -12.961  1.00  0.00     0.037 A 
HETATM    4  C10 UNL     1      44.754  19.828 -12.091  1.00  0.00     0.070 A 
HETATM    5  C23 UNL     1      45.873  20.502 -11.536  1.00  0.00     0.067 A 
HETATM    6  C24 UNL     1      47.166  20.143 -11.835  1.00  0.00     0.058 A 
ENDROOT
BRANCH   4   7
HETATM    7  O2  UNL     1      43.511  20.269 -11.711  1.00  0.00    -0.351 OA
BRANCH   7   8
HETATM    8  C11 UNL     1      42.837  19.936 -10.561  1.00  0.00     0.175 C 
BRANCH   8   9
HETATM    9  C12 UNL     1      42.487  18.468 -10.538  1.00  0.00     0.027 C 
BRANCH   9  10
HETATM   10  C13 UNL     1      43.180  17.828  -9.371  1.00  0.00     0.002 C 
BRANCH  10  11
HETATM   11  C14 UNL     1      44.396  17.026  -9.697  1.00  0.00     0.000 C 
BRANCH  11  12
HETATM   12  C15 UNL     1      45.612  17.709  -9.123  1.00  0.00     0.000 C 
BRANCH  12  13
HETATM   13  C16 UNL     1      46.730  16.739  -8.844  1.00  0.00     0.000 C 
BRANCH  13  14
HETATM   14  C17 UNL     1      48.010  17.139  -9.551  1.00  0.00     0.002 C 
BRANCH  14  15
HETATM   15  C18 UNL     1      48.517  18.381  -8.902  1.00  0.00     0.035 C 
BRANCH  15  16
HETATM   16  C19 UNL     1      49.948  18.314  -8.438  1.00  0.00     0.203 C 
HETATM   17  C20 UNL     1      50.594  19.649  -8.444  1.00  0.00     0.146 C 
HETATM   18  N4  UNL     1      50.930  20.225  -7.192  1.00  0.00    -0.418 N 
HETATM   19  C21 UNL     1      51.629  19.360  -6.287  1.00  0.00     0.141 C 
ATOM     20  H4  UNL     1      50.691  21.187  -6.951  1.00  0.00     0.153 HD
HETATM   21  C22 UNL     1      51.405  17.898  -6.575  1.00  0.00     0.252 C 
HETATM   22  N5  UNL     1      50.124  17.639  -7.176  1.00  0.00    -0.068 N 
ATOM     23  H52 UNL     1      49.367  17.867  -6.531  1.00  0.00     0.277 HD
ATOM     24  H51 UNL     1      49.964  16.637  -7.273  1.00  0.00     0.277 HD
ENDBRANCH  15  16
ENDBRANCH  14  15
ENDBRANCH  13  14
ENDBRANCH  12  13
ENDBRANCH  11  12
ENDBRANCH  10  11
ENDBRANCH   9  10
ENDBRANCH   8   9
ENDBRANCH   7   8
ENDBRANCH   4   7
BRANCH   6  25
HETATM   25  N6  UNL     1      48.257  20.854 -11.287  1.00  0.00    -0.192 N 
ATOM     26  H6  UNL     1      48.592  20.532 -10.379  1.00  0.00     0.184 HD
BRANCH  25  27
HETATM   27  C25 UNL     1      48.933  21.945 -11.843  1.00  0.00     0.674 C 
HETATM   28  N7  UNL     1      50.273  21.954 -11.773  1.00  0.00    -0.226 N 
HETATM   29  C26 UNL     1      50.988  23.102 -12.353  1.00  0.00     0.139 C 
ATOM     30  H7  UNL     1      50.782  21.188 -11.330  1.00  0.00     0.177 HD
HETATM   31  C27 UNL     1      50.433  23.391 -13.731  1.00  0.00     0.040 C 
HETATM   32  C28 UNL     1      48.982  23.698 -13.620  1.00  0.00     0.139 C 
HETATM   33  N8  UNL     1      48.394  23.091 -12.459  1.00  0.00    -0.226 N 
ATOM     34  H8  UNL     1      47.551  23.508 -12.063  1.00  0.00     0.177 HD
ENDBRANCH  25  27
ENDBRANCH   6  25
BRANCH   1  35
HETATM   35  C6  UNL     1      48.658  18.543 -13.118  1.00  0.00     0.084 C 
BRANCH  35  36
HETATM   36  C5  UNL     1      49.047  18.786 -14.497  1.00  0.00     0.006 A 
HETATM   37  C2  UNL     1      49.074  17.871 -15.489  1.00  0.00     0.116 A 
HETATM   38  N1  UNL     1      48.989  16.640 -15.433  1.00  0.00    -0.362 N 
HETATM   39  N2  UNL     1      49.327  18.342 -16.771  1.00  0.00    -0.294 N 
HETATM   40  C1  UNL     1      48.791  15.528 -14.665  1.00  0.00     0.120 C 
ATOM     41  H1  UNL     1      49.130  16.303 -16.385  1.00  0.00     0.165 HD
HETATM   42  C3  UNL     1      49.544  19.611 -17.070  1.00  0.00     0.325 A 
ATOM     43  H2  UNL     1      49.347  17.663 -17.533  1.00  0.00     0.172 HD
HETATM   44  O1  UNL     1      49.772  19.982 -18.278  1.00  0.00    -0.247 OA
HETATM   45  N3  UNL     1      49.520  20.510 -16.082  1.00  0.00    -0.318 N 
HETATM   46  C4  UNL     1      49.279  20.137 -14.810  1.00  0.00     0.104 A 
ATOM     47  H3  UNL     1      49.687  21.494 -16.294  1.00  0.00     0.170 HD
ENDBRANCH  35  36
ENDBRANCH   1  35
TORSDOF 14
ENDMDL
