MODEL 1
REMARK VINA RESULT: -6.192754931      0.000      0.000
REMARK  9 active torsions:
REMARK  status: ('A' for Active; 'I' for Inactive)
REMARK    1  A    between atoms: O1_2  and  C2_3 
REMARK    2  A    between atoms: C4_5  and  C5_6 
REMARK    3  A    between atoms: C6_8  and  C7_9 
REMARK    4  A    between atoms: C8_10  and  O2_11 
REMARK    5  A    between atoms: C12_17  and  O3_18 
REMARK    6  A    between atoms: C14_20  and  O4_21 
REMARK    7  A    between atoms: C18_25  and  O5_26 
REMARK    8  A    between atoms: C20_29  and  O6_30 
REMARK    9  A    between atoms: C22_32  and  O7_33 
ROOT
HETATM    1  C7  UNL     1      -4.303   2.898  -0.663  1.00  0.00     0.034 A 
HETATM    2  C8  UNL     1      -2.918   2.850  -0.872  1.00  0.00     0.079 A 
HETATM    3  C9  UNL     1      -2.032   2.472   0.104  1.00  0.00     0.053 A 
HETATM    4  C10 UNL     1      -2.490   2.126   1.333  1.00  0.00     0.021 A 
HETATM    5  C11 UNL     1      -1.579   1.742   2.327  1.00  0.00     0.163 A 
HETATM    6  F2  UNL     1      -0.249   1.708   2.088  1.00  0.00    -0.202 F 
HETATM    7  C12 UNL     1      -2.024   1.389   3.572  1.00  0.00     0.141 A 
HETATM    8  C14 UNL     1      -3.392   1.425   3.812  1.00  0.00     0.105 A 
HETATM    9  C16 UNL     1      -4.289   1.801   2.840  1.00  0.00     0.055 A 
HETATM   10  C17 UNL     1      -3.836   2.158   1.578  1.00  0.00     0.014 A 
HETATM   11  C18 UNL     1      -4.749   2.540   0.591  1.00  0.00     0.090 A 
ENDROOT
BRANCH   1  12
HETATM   12  C6  UNL     1      -5.185   3.294  -1.756  1.00  0.00     0.060 C 
HETATM   13  C5  UNL     1      -5.822   2.474  -2.554  1.00  0.00     0.127 C 
HETATM   14  F1  UNL     1      -5.697   1.123  -2.316  1.00  0.00    -0.205 F 
BRANCH  13  15
HETATM   15  C4  UNL     1      -6.691   2.891  -3.639  1.00  0.00     0.008 A 
HETATM   16  C3  UNL     1      -6.318   3.849  -4.552  1.00  0.00     0.054 A 
HETATM   17  C2  UNL     1      -7.190   4.217  -5.585  1.00  0.00     0.105 A 
HETATM   18  C22 UNL     1      -8.403   3.609  -5.664  1.00  0.00     0.135 A 
HETATM   19  C20 UNL     1      -8.829   2.638  -4.770  1.00  0.00     0.105 A 
HETATM   20  C19 UNL     1      -7.942   2.309  -3.773  1.00  0.00     0.054 A 
BRANCH  17  21
HETATM   21  O1  UNL     1      -6.811   5.179  -6.500  1.00  0.00    -0.353 OA
HETATM   22  C1  UNL     1      -5.611   5.882  -6.262  1.00  0.00     0.210 C 
ENDBRANCH  17  21
BRANCH  18  23
HETATM   23  O7  UNL     1      -9.271   3.963  -6.679  1.00  0.00    -0.351 OA
HETATM   24  C23 UNL     1     -10.160   5.054  -6.401  1.00  0.00     0.210 C 
ENDBRANCH  18  23
BRANCH  19  25
HETATM   25  O6  UNL     1     -10.078   2.055  -4.903  1.00  0.00    -0.353 OA
HETATM   26  C21 UNL     1     -10.154   0.802  -5.554  1.00  0.00     0.210 C 
ENDBRANCH  19  25
ENDBRANCH  13  15
ENDBRANCH   1  12
BRANCH   2  27
HETATM   27  O2  UNL     1      -2.445   3.206  -2.136  1.00  0.00    -0.360 OA
ATOM     28  H2  UNL     1      -2.112   4.089  -2.245  1.00  0.00     0.217 HD
ENDBRANCH   2  27
BRANCH  11  29
HETATM   29  O5  UNL     1      -6.097   2.536   0.911  1.00  0.00    -0.359 OA
ATOM     30  H5  UNL     1      -6.488   3.227   1.432  1.00  0.00     0.217 HD
ENDBRANCH  11  29
BRANCH   8  31
HETATM   31  O4  UNL     1      -3.841   1.068   5.074  1.00  0.00    -0.353 OA
HETATM   32  C15 UNL     1      -4.862   0.130   5.219  1.00  0.00     0.210 C 
ENDBRANCH   8  31
BRANCH   7  33
HETATM   33  O3  UNL     1      -1.136   1.004   4.575  1.00  0.00    -0.350 OA
HETATM   34  C13 UNL     1      -0.534   2.015   5.351  1.00  0.00     0.210 C 
ENDBRANCH   7  33
TORSDOF 9
ENDMDL
MODEL 2
REMARK VINA RESULT: -6.112777253      0.103      2.257
REMARK  9 active torsions:
REMARK  status: ('A' for Active; 'I' for Inactive)
REMARK    1  A    between atoms: O1_2  and  C2_3 
REMARK    2  A    between atoms: C4_5  and  C5_6 
REMARK    3  A    between atoms: C6_8  and  C7_9 
REMARK    4  A    between atoms: C8_10  and  O2_11 
REMARK    5  A    between atoms: C12_17  and  O3_18 
REMARK    6  A    between atoms: C14_20  and  O4_21 
REMARK    7  A    between atoms: C18_25  and  O5_26 
REMARK    8  A    between atoms: C20_29  and  O6_30 
REMARK    9  A    between atoms: C22_32  and  O7_33 
ROOT
HETATM    1  C7  UNL     1      -4.369   2.883  -0.661  1.00  0.00     0.034 A 
HETATM    2  C8  UNL     1      -2.987   2.854  -0.889  1.00  0.00     0.079 A 
HETATM    3  C9  UNL     1      -2.081   2.491   0.074  1.00  0.00     0.053 A 
HETATM    4  C10 UNL     1      -2.517   2.139   1.310  1.00  0.00     0.021 A 
HETATM    5  C11 UNL     1      -1.586   1.770   2.291  1.00  0.00     0.163 A 
HETATM    6  F2  UNL     1      -0.259   1.755   2.034  1.00  0.00    -0.202 F 
HETATM    7  C12 UNL     1      -2.008   1.411   3.543  1.00  0.00     0.141 A 
HETATM    8  C14 UNL     1      -3.372   1.427   3.803  1.00  0.00     0.105 A 
HETATM    9  C16 UNL     1      -4.288   1.789   2.843  1.00  0.00     0.055 A 
HETATM   10  C17 UNL     1      -3.859   2.151   1.574  1.00  0.00     0.014 A 
HETATM   11  C18 UNL     1      -4.792   2.519   0.600  1.00  0.00     0.090 A 
ENDROOT
BRANCH   1  12
HETATM   12  C6  UNL     1      -5.272   3.264  -1.741  1.00  0.00     0.060 C 
HETATM   13  C5  UNL     1      -5.909   2.434  -2.528  1.00  0.00     0.127 C 
HETATM   14  F1  UNL     1      -5.762   1.085  -2.291  1.00  0.00    -0.205 F 
BRANCH  13  15
HETATM   15  C4  UNL     1      -6.800   2.837  -3.601  1.00  0.00     0.008 A 
HETATM   16  C3  UNL     1      -8.069   2.327  -3.733  1.00  0.00     0.054 A 
HETATM   17  C2  UNL     1      -8.895   2.749  -4.783  1.00  0.00     0.105 A 
HETATM   18  C22 UNL     1      -8.416   3.669  -5.662  1.00  0.00     0.135 A 
HETATM   19  C20 UNL     1      -7.144   4.215  -5.576  1.00  0.00     0.105 A 
HETATM   20  C19 UNL     1      -6.369   3.771  -4.531  1.00  0.00     0.054 A 
BRANCH  17  21
HETATM   21  O1  UNL     1     -10.169   2.234  -4.911  1.00  0.00    -0.353 OA
HETATM   22  C1  UNL     1     -10.322   1.006  -5.590  1.00  0.00     0.210 C 
ENDBRANCH  17  21
BRANCH  18  23
HETATM   23  O7  UNL     1      -9.221   4.094  -6.701  1.00  0.00    -0.351 OA
HETATM   24  C23 UNL     1     -10.063   5.223  -6.430  1.00  0.00     0.210 C 
ENDBRANCH  18  23
BRANCH  19  25
HETATM   25  O6  UNL     1      -6.712   5.149  -6.502  1.00  0.00    -0.353 OA
HETATM   26  C21 UNL     1      -5.536   5.877  -6.205  1.00  0.00     0.210 C 
ENDBRANCH  19  25
ENDBRANCH  13  15
ENDBRANCH   1  12
BRANCH   2  27
HETATM   27  O2  UNL     1      -2.537   3.217  -2.160  1.00  0.00    -0.360 OA
ATOM     28  H2  UNL     1      -2.760   4.086  -2.472  1.00  0.00     0.217 HD
ENDBRANCH   2  27
BRANCH  11  29
HETATM   29  O5  UNL     1      -6.134   2.495   0.939  1.00  0.00    -0.359 OA
ATOM     30  H5  UNL     1      -6.420   2.447   1.844  1.00  0.00     0.217 HD
ENDBRANCH  11  29
BRANCH   8  31
HETATM   31  O4  UNL     1      -3.798   1.065   5.071  1.00  0.00    -0.353 OA
HETATM   32  C15 UNL     1      -4.862   0.179   5.230  1.00  0.00     0.210 C 
ENDBRANCH   8  31
BRANCH   7  33
HETATM   33  O3  UNL     1      -1.100   1.040   4.534  1.00  0.00    -0.350 OA
HETATM   34  C13 UNL     1      -0.501   2.061   5.299  1.00  0.00     0.210 C 
ENDBRANCH   7  33
TORSDOF 9
ENDMDL
MODEL 3
REMARK VINA RESULT: -5.955698215      1.645      2.198
REMARK  9 active torsions:
REMARK  status: ('A' for Active; 'I' for Inactive)
REMARK    1  A    between atoms: O1_2  and  C2_3 
REMARK    2  A    between atoms: C4_5  and  C5_6 
REMARK    3  A    between atoms: C6_8  and  C7_9 
REMARK    4  A    between atoms: C8_10  and  O2_11 
REMARK    5  A    between atoms: C12_17  and  O3_18 
REMARK    6  A    between atoms: C14_20  and  O4_21 
REMARK    7  A    between atoms: C18_25  and  O5_26 
REMARK    8  A    between atoms: C20_29  and  O6_30 
REMARK    9  A    between atoms: C22_32  and  O7_33 
ROOT
HETATM    1  C7  UNL     1      -4.360   2.999  -0.997  1.00  0.00     0.034 A 
HETATM    2  C8  UNL     1      -3.086   3.238  -1.529  1.00  0.00     0.079 A 
HETATM    3  C9  UNL     1      -1.931   3.024  -0.821  1.00  0.00     0.053 A 
HETATM    4  C10 UNL     1      -1.999   2.560   0.452  1.00  0.00     0.021 A 
HETATM    5  C11 UNL     1      -0.815   2.345   1.172  1.00  0.00     0.163 A 
HETATM    6  F2  UNL     1       0.397   2.588   0.625  1.00  0.00    -0.202 F 
HETATM    7  C12 UNL     1      -0.864   1.878   2.457  1.00  0.00     0.141 A 
HETATM    8  C14 UNL     1      -2.112   1.629   3.016  1.00  0.00     0.105 A 
HETATM    9  C16 UNL     1      -3.275   1.838   2.313  1.00  0.00     0.055 A 
HETATM   10  C17 UNL     1      -3.223   2.312   1.010  1.00  0.00     0.014 A 
HETATM   11  C18 UNL     1      -4.407   2.525   0.297  1.00  0.00     0.090 A 
ENDROOT
BRANCH   1  12
HETATM   12  C6  UNL     1      -5.542   3.234  -1.819  1.00  0.00     0.060 C 
HETATM   13  C5  UNL     1      -6.073   2.374  -2.651  1.00  0.00     0.127 C 
HETATM   14  F1  UNL     1      -5.506   1.121  -2.726  1.00  0.00    -0.205 F 
BRANCH  13  15
HETATM   15  C4  UNL     1      -7.248   2.633  -3.463  1.00  0.00     0.008 A 
HETATM   16  C3  UNL     1      -8.371   3.243  -2.956  1.00  0.00     0.054 A 
HETATM   17  C2  UNL     1      -9.480   3.475  -3.779  1.00  0.00     0.105 A 
HETATM   18  C22 UNL     1      -9.422   3.088  -5.081  1.00  0.00     0.135 A 
HETATM   19  C20 UNL     1      -8.315   2.469  -5.642  1.00  0.00     0.105 A 
HETATM   20  C19 UNL     1      -7.251   2.260  -4.798  1.00  0.00     0.054 A 
BRANCH  17  21
HETATM   21  O1  UNL     1     -10.606   4.089  -3.266  1.00  0.00    -0.353 OA
HETATM   22  C1  UNL     1     -10.452   4.911  -2.129  1.00  0.00     0.210 C 
ENDBRANCH  17  21
BRANCH  18  23
HETATM   23  O7  UNL     1     -10.510   3.313  -5.902  1.00  0.00    -0.351 OA
HETATM   24  C23 UNL     1     -11.573   2.353  -5.823  1.00  0.00     0.210 C 
ENDBRANCH  18  23
BRANCH  19  25
HETATM   25  O6  UNL     1      -8.315   2.096  -6.976  1.00  0.00    -0.353 OA
HETATM   26  C21 UNL     1      -8.316   0.713  -7.274  1.00  0.00     0.210 C 
ENDBRANCH  19  25
ENDBRANCH  13  15
ENDBRANCH   1  12
BRANCH   2  27
HETATM   27  O2  UNL     1      -3.015   3.715  -2.839  1.00  0.00    -0.360 OA
ATOM     28  H2  UNL     1      -3.835   3.900  -3.282  1.00  0.00     0.217 HD
ENDBRANCH   2  27
BRANCH  11  29
HETATM   29  O5  UNL     1      -5.608   2.239   0.925  1.00  0.00    -0.359 OA
ATOM     30  H5  UNL     1      -5.654   1.652   1.670  1.00  0.00     0.217 HD
ENDBRANCH  11  29
BRANCH   8  31
HETATM   31  O4  UNL     1      -2.160   1.156   4.318  1.00  0.00    -0.353 OA
HETATM   32  C15 UNL     1      -2.425   2.026   5.374  1.00  0.00     0.210 C 
ENDBRANCH   8  31
BRANCH   7  33
HETATM   33  O3  UNL     1       0.300   1.656   3.192  1.00  0.00    -0.350 OA
HETATM   34  C13 UNL     1       0.918   2.765   3.803  1.00  0.00     0.210 C 
ENDBRANCH   7  33
TORSDOF 9
ENDMDL
MODEL 4
REMARK VINA RESULT: -5.874557662      1.068      1.211
REMARK  9 active torsions:
REMARK  status: ('A' for Active; 'I' for Inactive)
REMARK    1  A    between atoms: O1_2  and  C2_3 
REMARK    2  A    between atoms: C4_5  and  C5_6 
REMARK    3  A    between atoms: C6_8  and  C7_9 
REMARK    4  A    between atoms: C8_10  and  O2_11 
REMARK    5  A    between atoms: C12_17  and  O3_18 
REMARK    6  A    between atoms: C14_20  and  O4_21 
REMARK    7  A    between atoms: C18_25  and  O5_26 
REMARK    8  A    between atoms: C20_29  and  O6_30 
REMARK    9  A    between atoms: C22_32  and  O7_33 
ROOT
HETATM    1  C7  UNL     1      -4.424   2.966  -0.752  1.00  0.00     0.034 A 
HETATM    2  C8  UNL     1      -3.064   3.004  -1.088  1.00  0.00     0.079 A 
HETATM    3  C9  UNL     1      -2.071   2.634  -0.217  1.00  0.00     0.053 A 
HETATM    4  C10 UNL     1      -2.394   2.211   1.031  1.00  0.00     0.021 A 
HETATM    5  C11 UNL     1      -1.375   1.837   1.919  1.00  0.00     0.163 A 
HETATM    6  F2  UNL     1      -0.074   1.887   1.558  1.00  0.00    -0.202 F 
HETATM    7  C12 UNL     1      -1.683   1.408   3.181  1.00  0.00     0.141 A 
HETATM    8  C14 UNL     1      -3.022   1.358   3.547  1.00  0.00     0.105 A 
HETATM    9  C16 UNL     1      -4.024   1.724   2.680  1.00  0.00     0.055 A 
HETATM   10  C17 UNL     1      -3.711   2.159   1.400  1.00  0.00     0.014 A 
HETATM   11  C18 UNL     1      -4.731   2.531   0.520  1.00  0.00     0.090 A 
ENDROOT
BRANCH   1  12
HETATM   12  C6  UNL     1      -5.424   3.358  -1.739  1.00  0.00     0.060 C 
HETATM   13  C5  UNL     1      -6.076   2.541  -2.526  1.00  0.00     0.127 C 
HETATM   14  F1  UNL     1      -5.845   1.190  -2.381  1.00  0.00    -0.205 F 
BRANCH  13  15
HETATM   15  C4  UNL     1      -7.064   2.955  -3.506  1.00  0.00     0.008 A 
HETATM   16  C3  UNL     1      -7.478   4.260  -3.625  1.00  0.00     0.054 A 
HETATM   17  C2  UNL     1      -8.431   4.613  -4.588  1.00  0.00     0.105 A 
HETATM   18  C22 UNL     1      -8.934   3.643  -5.397  1.00  0.00     0.135 A 
HETATM   19  C20 UNL     1      -8.552   2.313  -5.319  1.00  0.00     0.105 A 
HETATM   20  C19 UNL     1      -7.615   2.012  -4.359  1.00  0.00     0.054 A 
BRANCH  17  21
HETATM   21  O1  UNL     1      -8.843   5.926  -4.705  1.00  0.00    -0.353 OA
HETATM   22  C1  UNL     1      -9.547   6.497  -3.623  1.00  0.00     0.210 C 
ENDBRANCH  17  21
BRANCH  18  23
HETATM   23  O7  UNL     1      -9.874   3.980  -6.352  1.00  0.00    -0.351 OA
HETATM   24  C23 UNL     1     -11.242   3.995  -5.917  1.00  0.00     0.210 C 
ENDBRANCH  18  23
BRANCH  19  25
HETATM   25  O6  UNL     1      -9.101   1.369  -6.171  1.00  0.00    -0.353 OA
HETATM   26  C21 UNL     1     -10.004   0.430  -5.620  1.00  0.00     0.210 C 
ENDBRANCH  19  25
ENDBRANCH  13  15
ENDBRANCH   1  12
BRANCH   2  27
HETATM   27  O2  UNL     1      -2.730   3.439  -2.371  1.00  0.00    -0.360 OA
ATOM     28  H2  UNL     1      -1.979   3.035  -2.789  1.00  0.00     0.217 HD
ENDBRANCH   2  27
BRANCH  11  29
HETATM   29  O5  UNL     1      -6.040   2.439   0.961  1.00  0.00    -0.359 OA
ATOM     30  H5  UNL     1      -6.385   3.022   1.627  1.00  0.00     0.217 HD
ENDBRANCH  11  29
BRANCH   8  31
HETATM   31  O4  UNL     1      -3.332   0.923   4.826  1.00  0.00    -0.353 OA
HETATM   32  C15 UNL     1      -4.484   0.173   5.056  1.00  0.00     0.210 C 
ENDBRANCH   8  31
BRANCH   7  33
HETATM   33  O3  UNL     1      -0.686   1.030   4.080  1.00  0.00    -0.350 OA
HETATM   34  C13 UNL     1      -0.045   2.042   4.821  1.00  0.00     0.210 C 
ENDBRANCH   7  33
TORSDOF 9
ENDMDL
MODEL 5
REMARK VINA RESULT: -5.872173114      3.988      9.063
REMARK  9 active torsions:
REMARK  status: ('A' for Active; 'I' for Inactive)
REMARK    1  A    between atoms: O1_2  and  C2_3 
REMARK    2  A    between atoms: C4_5  and  C5_6 
REMARK    3  A    between atoms: C6_8  and  C7_9 
REMARK    4  A    between atoms: C8_10  and  O2_11 
REMARK    5  A    between atoms: C12_17  and  O3_18 
REMARK    6  A    between atoms: C14_20  and  O4_21 
REMARK    7  A    between atoms: C18_25  and  O5_26 
REMARK    8  A    between atoms: C20_29  and  O6_30 
REMARK    9  A    between atoms: C22_32  and  O7_33 
ROOT
HETATM    1  C7  UNL     1      -3.284   1.869   2.157  1.00  0.00     0.034 A 
HETATM    2  C8  UNL     1      -1.929   1.563   2.344  1.00  0.00     0.079 A 
HETATM    3  C9  UNL     1      -0.961   1.878   1.425  1.00  0.00     0.053 A 
HETATM    4  C10 UNL     1      -1.305   2.512   0.276  1.00  0.00     0.021 A 
HETATM    5  C11 UNL     1      -0.311   2.830  -0.661  1.00  0.00     0.163 A 
HETATM    6  F2  UNL     1       0.986   2.519  -0.446  1.00  0.00    -0.202 F 
HETATM    7  C12 UNL     1      -0.640   3.470  -1.825  1.00  0.00     0.141 A 
HETATM    8  C14 UNL     1      -1.975   3.788  -2.043  1.00  0.00     0.105 A 
HETATM    9  C16 UNL     1      -2.952   3.479  -1.126  1.00  0.00     0.055 A 
HETATM   10  C17 UNL     1      -2.618   2.830   0.054  1.00  0.00     0.014 A 
HETATM   11  C18 UNL     1      -3.612   2.516   0.984  1.00  0.00     0.090 A 
ENDROOT
BRANCH   1  12
HETATM   12  C6  UNL     1      -4.254   1.517   3.188  1.00  0.00     0.060 C 
HETATM   13  C5  UNL     1      -4.715   2.329   4.106  1.00  0.00     0.127 C 
HETATM   14  F1  UNL     1      -4.296   3.641   4.070  1.00  0.00    -0.205 F 
BRANCH  13  15
HETATM   15  C4  UNL     1      -5.677   1.955   5.127  1.00  0.00     0.008 A 
HETATM   16  C3  UNL     1      -6.856   1.317   4.826  1.00  0.00     0.054 A 
HETATM   17  C2  UNL     1      -7.752   0.972   5.846  1.00  0.00     0.105 A 
HETATM   18  C22 UNL     1      -7.431   1.279   7.131  1.00  0.00     0.135 A 
HETATM   19  C20 UNL     1      -6.255   1.922   7.489  1.00  0.00     0.105 A 
HETATM   20  C19 UNL     1      -5.407   2.242   6.457  1.00  0.00     0.054 A 
BRANCH  17  21
HETATM   21  O1  UNL     1      -8.936   0.331   5.540  1.00  0.00    -0.353 OA
HETATM   22  C1  UNL     1      -9.376   0.358   4.199  1.00  0.00     0.210 C 
ENDBRANCH  17  21
BRANCH  18  23
HETATM   23  O7  UNL     1      -8.306   0.943   8.145  1.00  0.00    -0.351 OA
HETATM   24  C23 UNL     1      -9.210   1.974   8.570  1.00  0.00     0.210 C 
ENDBRANCH  18  23
BRANCH  19  25
HETATM   25  O6  UNL     1      -5.984   2.209   8.816  1.00  0.00    -0.353 OA
HETATM   26  C21 UNL     1      -5.736   3.559   9.161  1.00  0.00     0.210 C 
ENDBRANCH  19  25
ENDBRANCH  13  15
ENDBRANCH   1  12
BRANCH   2  27
HETATM   27  O2  UNL     1      -1.574   0.911   3.525  1.00  0.00    -0.360 OA
ATOM     28  H2  UNL     1      -0.734   0.468   3.545  1.00  0.00     0.217 HD
ENDBRANCH   2  27
BRANCH  11  29
HETATM   29  O5  UNL     1      -4.916   2.881   0.694  1.00  0.00    -0.359 OA
ATOM     30  H5  UNL     1      -5.642   2.621   1.249  1.00  0.00     0.217 HD
ENDBRANCH  11  29
BRANCH   8  31
HETATM   31  O4  UNL     1      -2.306   4.436  -3.223  1.00  0.00    -0.353 OA
HETATM   32  C15 UNL     1      -3.643   4.628  -3.570  1.00  0.00     0.210 C 
ENDBRANCH   8  31
BRANCH   7  33
HETATM   33  O3  UNL     1       0.331   3.796  -2.771  1.00  0.00    -0.350 OA
HETATM   34  C13 UNL     1       1.110   4.949  -2.550  1.00  0.00     0.210 C 
ENDBRANCH   7  33
TORSDOF 9
ENDMDL
