MODEL 1
REMARK VINA RESULT: -5.827724664      0.000      0.000
REMARK  11 active torsions:
REMARK  status: ('A' for Active; 'I' for Inactive)
REMARK    1  A    between atoms: C2_2  and  C3_3 
REMARK    2  A    between atoms: C4_4  and  C5_5 
REMARK    3  A    between atoms: C7_7  and  O1_8 
REMARK    4  A    between atoms: C9_10  and  O2_11 
REMARK    5  A    between atoms: C11_13  and  O3_14 
REMARK    6  A    between atoms: N1_19  and  O4_20 
REMARK    7  A    between atoms: C15_22  and  N2_23 
REMARK    8  A    between atoms: N2_23  and  C16_25 
REMARK    9  A    between atoms: C16_25  and  O5_26 
REMARK   10  A    between atoms: C16_25  and  O6_28 
REMARK   11  A    between atoms: O6_28  and  C17_29 
ROOT
HETATM    1  C3  UNL     1      -2.822   2.217   0.732  1.00  0.00     0.022 A 
HETATM    2  C4  UNL     1      -4.025   2.725   0.218  1.00  0.00     0.009 A 
HETATM    3  C14 UNL     1      -4.950   2.649   1.201  1.00  0.00     0.138 A 
HETATM    4  N1  UNL     1      -4.407   2.123   2.312  1.00  0.00    -0.217 N 
HETATM    5  C15 UNL     1      -3.111   1.851   2.055  1.00  0.00     0.147 A 
ENDROOT
BRANCH   2   6
HETATM    6  C5  UNL     1      -4.196   3.226  -1.129  1.00  0.00     0.021 A 
HETATM    7  C6  UNL     1      -4.736   2.410  -2.091  1.00  0.00     0.055 A 
HETATM    8  C7  UNL     1      -4.916   2.861  -3.406  1.00  0.00     0.105 A 
HETATM    9  C9  UNL     1      -4.535   4.161  -3.714  1.00  0.00     0.138 A 
HETATM   10  C11 UNL     1      -3.991   4.992  -2.759  1.00  0.00     0.144 A 
HETATM   11  C13 UNL     1      -3.825   4.508  -1.456  1.00  0.00     0.163 A 
HETATM   12  F1  UNL     1      -3.297   5.287  -0.482  1.00  0.00    -0.202 F 
BRANCH   8  13
HETATM   13  O1  UNL     1      -5.460   2.052  -4.391  1.00  0.00    -0.353 OA
HETATM   14  C8  UNL     1      -5.657   0.684  -4.084  1.00  0.00     0.210 C 
ENDBRANCH   8  13
BRANCH   9  15
HETATM   15  O2  UNL     1      -4.704   4.629  -5.010  1.00  0.00    -0.351 OA
HETATM   16  C10 UNL     1      -5.921   5.247  -5.425  1.00  0.00     0.210 C 
ENDBRANCH   9  15
BRANCH  10  17
HETATM   17  O3  UNL     1      -3.612   6.287  -3.066  1.00  0.00    -0.350 OA
HETATM   18  C12 UNL     1      -4.494   7.346  -2.725  1.00  0.00     0.210 C 
ENDBRANCH  10  17
ENDBRANCH   2   6
BRANCH   1  19
HETATM   19  C2  UNL     1      -1.581   2.141  -0.028  1.00  0.00     0.006 C 
HETATM   20  C1  UNL     1      -0.558   2.950   0.057  1.00  0.00     0.012 C 
ENDBRANCH   1  19
BRANCH   5  21
HETATM   21  N2  UNL     1      -2.134   1.360   2.934  1.00  0.00    -0.300 N 
ATOM     22  H2  UNL     1      -1.482   0.697   2.514  1.00  0.00     0.171 HD
BRANCH  21  23
HETATM   23  C16 UNL     1      -1.901   1.621   4.279  1.00  0.00     0.264 C 
BRANCH  23  24
HETATM   24  O5  UNL     1      -2.728   1.133   5.157  1.00  0.00    -0.327 OA
ATOM     25  H5  UNL     1      -3.244   1.738   5.677  1.00  0.00     0.221 HD
ENDBRANCH  23  24
BRANCH  23  26
HETATM   26  O6  UNL     1      -0.896   2.344   4.818  1.00  0.00    -0.311 OA
BRANCH  26  27
HETATM   27  C17 UNL     1       0.461   2.133   4.508  1.00  0.00     0.132 C 
HETATM   28  C18 UNL     1       0.994   3.090   3.481  1.00  0.00     0.032 C 
HETATM   29  C19 UNL     1       2.139   3.923   3.916  1.00  0.00     0.002 C 
HETATM   30  C20 UNL     1       3.158   3.276   4.768  1.00  0.00     0.000 C 
HETATM   31  C21 UNL     1       2.750   1.917   5.292  1.00  0.00     0.002 C 
HETATM   32  C22 UNL     1       1.308   2.085   5.761  1.00  0.00     0.032 C 
ENDBRANCH  26  27
ENDBRANCH  23  26
ENDBRANCH  21  23
ENDBRANCH   5  21
BRANCH   4  33
HETATM   33  O4  UNL     1      -5.114   1.927   3.504  1.00  0.00    -0.281 OA
ATOM     34  H4  UNL     1      -4.704   1.687   4.326  1.00  0.00     0.245 HD
ENDBRANCH   4  33
TORSDOF 11
ENDMDL
MODEL 2
REMARK VINA RESULT: -5.797881029      1.078      1.453
REMARK  11 active torsions:
REMARK  status: ('A' for Active; 'I' for Inactive)
REMARK    1  A    between atoms: C2_2  and  C3_3 
REMARK    2  A    between atoms: C4_4  and  C5_5 
REMARK    3  A    between atoms: C7_7  and  O1_8 
REMARK    4  A    between atoms: C9_10  and  O2_11 
REMARK    5  A    between atoms: C11_13  and  O3_14 
REMARK    6  A    between atoms: N1_19  and  O4_20 
REMARK    7  A    between atoms: C15_22  and  N2_23 
REMARK    8  A    between atoms: N2_23  and  C16_25 
REMARK    9  A    between atoms: C16_25  and  O5_26 
REMARK   10  A    between atoms: C16_25  and  O6_28 
REMARK   11  A    between atoms: O6_28  and  C17_29 
ROOT
HETATM    1  C3  UNL     1      -3.028   2.176   1.269  1.00  0.00     0.022 A 
HETATM    2  C4  UNL     1      -4.128   2.723   0.590  1.00  0.00     0.009 A 
HETATM    3  C14 UNL     1      -5.191   2.659   1.424  1.00  0.00     0.138 A 
HETATM    4  N1  UNL     1      -4.833   2.104   2.594  1.00  0.00    -0.217 N 
HETATM    5  C15 UNL     1      -3.520   1.800   2.528  1.00  0.00     0.147 A 
ENDROOT
BRANCH   2   6
HETATM    6  C5  UNL     1      -4.084   3.246  -0.758  1.00  0.00     0.021 A 
HETATM    7  C6  UNL     1      -4.654   2.530  -1.781  1.00  0.00     0.055 A 
HETATM    8  C7  UNL     1      -4.630   3.005  -3.100  1.00  0.00     0.105 A 
HETATM    9  C9  UNL     1      -4.014   4.224  -3.349  1.00  0.00     0.138 A 
HETATM   10  C11 UNL     1      -3.438   4.955  -2.333  1.00  0.00     0.144 A 
HETATM   11  C13 UNL     1      -3.479   4.451  -1.028  1.00  0.00     0.163 A 
HETATM   12  F1  UNL     1      -2.929   5.132   0.005  1.00  0.00    -0.202 F 
BRANCH   8  13
HETATM   13  O1  UNL     1      -5.201   2.296  -4.145  1.00  0.00    -0.353 OA
HETATM   14  C8  UNL     1      -5.670   0.988  -3.874  1.00  0.00     0.210 C 
ENDBRANCH   8  13
BRANCH   9  15
HETATM   15  O2  UNL     1      -3.979   4.715  -4.647  1.00  0.00    -0.351 OA
HETATM   16  C10 UNL     1      -5.025   5.539  -5.160  1.00  0.00     0.210 C 
ENDBRANCH   9  15
BRANCH  10  17
HETATM   17  O3  UNL     1      -2.825   6.171  -2.581  1.00  0.00    -0.350 OA
HETATM   18  C12 UNL     1      -1.417   6.192  -2.759  1.00  0.00     0.210 C 
ENDBRANCH  10  17
ENDBRANCH   2   6
BRANCH   1  19
HETATM   19  C2  UNL     1      -1.689   2.077   0.701  1.00  0.00     0.006 C 
HETATM   20  C1  UNL     1      -0.610   2.677   1.128  1.00  0.00     0.012 C 
ENDBRANCH   1  19
BRANCH   5  21
HETATM   21  N2  UNL     1      -2.697   1.273   3.534  1.00  0.00    -0.300 N 
ATOM     22  H2  UNL     1      -1.862   0.798   3.191  1.00  0.00     0.171 HD
BRANCH  21  23
HETATM   23  C16 UNL     1      -2.824   1.284   4.918  1.00  0.00     0.264 C 
BRANCH  23  24
HETATM   24  O5  UNL     1      -3.535   0.353   5.483  1.00  0.00    -0.327 OA
ATOM     25  H5  UNL     1      -3.102  -0.253   6.072  1.00  0.00     0.221 HD
ENDBRANCH  23  24
BRANCH  23  26
HETATM   26  O6  UNL     1      -2.291   2.169   5.788  1.00  0.00    -0.311 OA
BRANCH  26  27
HETATM   27  C17 UNL     1      -0.910   2.423   5.885  1.00  0.00     0.132 C 
HETATM   28  C18 UNL     1      -0.075   1.176   5.918  1.00  0.00     0.032 C 
HETATM   29  C19 UNL     1       0.924   1.047   4.833  1.00  0.00     0.002 C 
HETATM   30  C20 UNL     1       1.636   2.275   4.423  1.00  0.00     0.000 C 
HETATM   31  C21 UNL     1       1.051   3.548   4.997  1.00  0.00     0.002 C 
HETATM   32  C22 UNL     1      -0.458   3.406   4.827  1.00  0.00     0.032 C 
ENDBRANCH  26  27
ENDBRANCH  23  26
ENDBRANCH  21  23
ENDBRANCH   5  21
BRANCH   4  33
HETATM   33  O4  UNL     1      -5.714   1.911   3.664  1.00  0.00    -0.281 OA
ATOM     34  H4  UNL     1      -5.564   2.251   4.538  1.00  0.00     0.245 HD
ENDBRANCH   4  33
TORSDOF 11
ENDMDL
MODEL 3
REMARK VINA RESULT: -5.772824349      2.528      8.651
REMARK  11 active torsions:
REMARK  status: ('A' for Active; 'I' for Inactive)
REMARK    1  A    between atoms: C2_2  and  C3_3 
REMARK    2  A    between atoms: C4_4  and  C5_5 
REMARK    3  A    between atoms: C7_7  and  O1_8 
REMARK    4  A    between atoms: C9_10  and  O2_11 
REMARK    5  A    between atoms: C11_13  and  O3_14 
REMARK    6  A    between atoms: N1_19  and  O4_20 
REMARK    7  A    between atoms: C15_22  and  N2_23 
REMARK    8  A    between atoms: N2_23  and  C16_25 
REMARK    9  A    between atoms: C16_25  and  O5_26 
REMARK   10  A    between atoms: C16_25  and  O6_28 
REMARK   11  A    between atoms: O6_28  and  C17_29 
ROOT
HETATM    1  C3  UNL     1      -0.867   4.363  -0.243  1.00  0.00     0.022 A 
HETATM    2  C4  UNL     1      -0.067   3.289   0.176  1.00  0.00     0.009 A 
HETATM    3  C14 UNL     1       0.668   2.891  -0.888  1.00  0.00     0.138 A 
HETATM    4  N1  UNL     1       0.383   3.650  -1.960  1.00  0.00    -0.217 N 
HETATM    5  C15 UNL     1      -0.549   4.555  -1.596  1.00  0.00     0.147 A 
ENDROOT
BRANCH   2   6
HETATM    6  C5  UNL     1      -0.064   2.740   1.515  1.00  0.00     0.021 A 
HETATM    7  C6  UNL     1       0.949   3.071   2.380  1.00  0.00     0.055 A 
HETATM    8  C7  UNL     1       0.985   2.558   3.684  1.00  0.00     0.105 A 
HETATM    9  C9  UNL     1      -0.034   1.703   4.083  1.00  0.00     0.138 A 
HETATM   10  C11 UNL     1      -1.057   1.362   3.227  1.00  0.00     0.144 A 
HETATM   11  C13 UNL     1      -1.062   1.892   1.931  1.00  0.00     0.163 A 
HETATM   12  F1  UNL     1      -2.047   1.588   1.053  1.00  0.00    -0.202 F 
BRANCH   8  13
HETATM   13  O1  UNL     1       2.000   2.881   4.571  1.00  0.00    -0.353 OA
HETATM   14  C8  UNL     1       2.311   4.251   4.744  1.00  0.00     0.210 C 
ENDBRANCH   8  13
BRANCH   9  15
HETATM   15  O2  UNL     1      -0.019   1.183   5.371  1.00  0.00    -0.351 OA
HETATM   16  C10 UNL     1      -0.530   1.923   6.478  1.00  0.00     0.210 C 
ENDBRANCH   9  15
BRANCH  10  17
HETATM   17  O3  UNL     1      -2.073   0.511   3.625  1.00  0.00    -0.350 OA
HETATM   18  C12 UNL     1      -3.296   1.081   4.066  1.00  0.00     0.210 C 
ENDBRANCH  10  17
ENDBRANCH   2   6
BRANCH   1  19
HETATM   19  C2  UNL     1      -1.794   5.075   0.628  1.00  0.00     0.006 C 
HETATM   20  C1  UNL     1      -3.079   4.866   0.744  1.00  0.00     0.012 C 
ENDBRANCH   1  19
BRANCH   5  21
HETATM   21  N2  UNL     1      -1.096   5.596  -2.361  1.00  0.00    -0.300 N 
ATOM     22  H2  UNL     1      -0.657   6.505  -2.212  1.00  0.00     0.171 HD
BRANCH  21  23
HETATM   23  C16 UNL     1      -2.133   5.603  -3.285  1.00  0.00     0.264 C 
BRANCH  23  24
HETATM   24  O5  UNL     1      -2.476   6.737  -3.824  1.00  0.00    -0.327 OA
ATOM     25  H5  UNL     1      -3.185   6.741  -4.456  1.00  0.00     0.221 HD
ENDBRANCH  23  24
BRANCH  23  26
HETATM   26  O6  UNL     1      -2.864   4.551  -3.714  1.00  0.00    -0.311 OA
BRANCH  26  27
HETATM   27  C17 UNL     1      -4.023   4.096  -3.059  1.00  0.00     0.132 C 
HETATM   28  C18 UNL     1      -5.179   3.859  -3.988  1.00  0.00     0.032 C 
HETATM   29  C19 UNL     1      -5.716   2.479  -4.001  1.00  0.00     0.002 C 
HETATM   30  C20 UNL     1      -5.789   1.772  -2.706  1.00  0.00     0.000 C 
HETATM   31  C21 UNL     1      -5.057   2.470  -1.580  1.00  0.00     0.002 C 
HETATM   32  C22 UNL     1      -3.722   2.902  -2.179  1.00  0.00     0.032 C 
ENDBRANCH  26  27
ENDBRANCH  23  26
ENDBRANCH  21  23
ENDBRANCH   5  21
BRANCH   4  33
HETATM   33  O4  UNL     1       0.990   3.486  -3.210  1.00  0.00    -0.281 OA
ATOM     34  H4  UNL     1       0.558   3.676  -4.034  1.00  0.00     0.245 HD
ENDBRANCH   4  33
TORSDOF 11
ENDMDL
MODEL 4
REMARK VINA RESULT: -5.739129375      2.563      3.810
REMARK  11 active torsions:
REMARK  status: ('A' for Active; 'I' for Inactive)
REMARK    1  A    between atoms: C2_2  and  C3_3 
REMARK    2  A    between atoms: C4_4  and  C5_5 
REMARK    3  A    between atoms: C7_7  and  O1_8 
REMARK    4  A    between atoms: C9_10  and  O2_11 
REMARK    5  A    between atoms: C11_13  and  O3_14 
REMARK    6  A    between atoms: N1_19  and  O4_20 
REMARK    7  A    between atoms: C15_22  and  N2_23 
REMARK    8  A    between atoms: N2_23  and  C16_25 
REMARK    9  A    between atoms: C16_25  and  O5_26 
REMARK   10  A    between atoms: C16_25  and  O6_28 
REMARK   11  A    between atoms: O6_28  and  C17_29 
ROOT
HETATM    1  C3  UNL     1      -2.533   3.218   3.823  1.00  0.00     0.022 A 
HETATM    2  C4  UNL     1      -2.617   2.302   2.763  1.00  0.00     0.009 A 
HETATM    3  C14 UNL     1      -3.014   1.117   3.282  1.00  0.00     0.138 A 
HETATM    4  N1  UNL     1      -3.188   1.225   4.610  1.00  0.00    -0.217 N 
HETATM    5  C15 UNL     1      -2.902   2.495   4.967  1.00  0.00     0.147 A 
ENDROOT
BRANCH   2   6
HETATM    6  C5  UNL     1      -2.322   2.614   1.381  1.00  0.00     0.021 A 
HETATM    7  C6  UNL     1      -3.341   2.974   0.536  1.00  0.00     0.055 A 
HETATM    8  C7  UNL     1      -3.093   3.283  -0.809  1.00  0.00     0.105 A 
HETATM    9  C9  UNL     1      -1.784   3.217  -1.268  1.00  0.00     0.138 A 
HETATM   10  C11 UNL     1      -0.750   2.858  -0.431  1.00  0.00     0.144 A 
HETATM   11  C13 UNL     1      -1.034   2.555   0.905  1.00  0.00     0.163 A 
HETATM   12  F1  UNL     1      -0.052   2.199   1.767  1.00  0.00    -0.202 F 
BRANCH   8  13
HETATM   13  O1  UNL     1      -4.110   3.649  -1.676  1.00  0.00    -0.353 OA
HETATM   14  C8  UNL     1      -4.934   2.622  -2.194  1.00  0.00     0.210 C 
ENDBRANCH   8  13
BRANCH   9  15
HETATM   15  O2  UNL     1      -1.514   3.520  -2.596  1.00  0.00    -0.351 OA
HETATM   16  C10 UNL     1      -1.255   4.858  -3.017  1.00  0.00     0.210 C 
ENDBRANCH   9  15
BRANCH  10  17
HETATM   17  O3  UNL     1       0.555   2.793  -0.889  1.00  0.00    -0.350 OA
HETATM   18  C12 UNL     1       1.428   3.873  -0.591  1.00  0.00     0.210 C 
ENDBRANCH  10  17
ENDBRANCH   2   6
BRANCH   1  19
HETATM   19  C2  UNL     1      -2.146   4.613   3.663  1.00  0.00     0.006 C 
HETATM   20  C1  UNL     1      -2.944   5.647   3.596  1.00  0.00     0.012 C 
ENDBRANCH   1  19
BRANCH   5  21
HETATM   21  N2  UNL     1      -3.011   3.087   6.234  1.00  0.00    -0.300 N 
ATOM     22  H2  UNL     1      -3.965   3.147   6.591  1.00  0.00     0.171 HD
BRANCH  21  23
HETATM   23  C16 UNL     1      -2.045   3.607   7.086  1.00  0.00     0.264 C 
BRANCH  23  24
HETATM   24  O5  UNL     1      -2.295   3.637   8.362  1.00  0.00    -0.327 OA
ATOM     25  H5  UNL     1      -1.582   3.835   8.958  1.00  0.00     0.221 HD
ENDBRANCH  23  24
BRANCH  23  26
HETATM   26  O6  UNL     1      -0.835   4.108   6.754  1.00  0.00    -0.311 OA
BRANCH  26  27
HETATM   27  C17 UNL     1       0.304   3.308   6.546  1.00  0.00     0.132 C 
HETATM   28  C18 UNL     1       0.023   1.836   6.635  1.00  0.00     0.032 C 
HETATM   29  C19 UNL     1       0.339   1.050   5.420  1.00  0.00     0.002 C 
HETATM   30  C20 UNL     1       1.564   1.417   4.680  1.00  0.00     0.000 C 
HETATM   31  C21 UNL     1       2.186   2.722   5.127  1.00  0.00     0.002 C 
HETATM   32  C22 UNL     1       1.019   3.694   5.269  1.00  0.00     0.032 C 
ENDBRANCH  26  27
ENDBRANCH  23  26
ENDBRANCH  21  23
ENDBRANCH   5  21
BRANCH   4  33
HETATM   33  O4  UNL     1      -3.605   0.168   5.426  1.00  0.00    -0.281 OA
ATOM     34  H4  UNL     1      -3.195  -0.051   6.255  1.00  0.00     0.245 HD
ENDBRANCH   4  33
TORSDOF 11
ENDMDL
MODEL 5
REMARK VINA RESULT: -5.731572622      2.349      9.068
REMARK  11 active torsions:
REMARK  status: ('A' for Active; 'I' for Inactive)
REMARK    1  A    between atoms: C2_2  and  C3_3 
REMARK    2  A    between atoms: C4_4  and  C5_5 
REMARK    3  A    between atoms: C7_7  and  O1_8 
REMARK    4  A    between atoms: C9_10  and  O2_11 
REMARK    5  A    between atoms: C11_13  and  O3_14 
REMARK    6  A    between atoms: N1_19  and  O4_20 
REMARK    7  A    between atoms: C15_22  and  N2_23 
REMARK    8  A    between atoms: N2_23  and  C16_25 
REMARK    9  A    between atoms: C16_25  and  O5_26 
REMARK   10  A    between atoms: C16_25  and  O6_28 
REMARK   11  A    between atoms: O6_28  and  C17_29 
ROOT
HETATM    1  C3  UNL     1      -3.538   2.620   0.033  1.00  0.00     0.022 A 
HETATM    2  C4  UNL     1      -4.182   2.796   1.267  1.00  0.00     0.009 A 
HETATM    3  C14 UNL     1      -5.469   3.124   1.010  1.00  0.00     0.138 A 
HETATM    4  N1  UNL     1      -5.682   3.166  -0.316  1.00  0.00    -0.217 N 
HETATM    5  C15 UNL     1      -4.523   2.862  -0.936  1.00  0.00     0.147 A 
ENDROOT
BRANCH   2   6
HETATM    6  C5  UNL     1      -3.543   2.645   2.557  1.00  0.00     0.021 A 
HETATM    7  C6  UNL     1      -3.803   1.530   3.314  1.00  0.00     0.055 A 
HETATM    8  C7  UNL     1      -3.203   1.350   4.568  1.00  0.00     0.105 A 
HETATM    9  C9  UNL     1      -2.334   2.331   5.029  1.00  0.00     0.138 A 
HETATM   10  C11 UNL     1      -2.063   3.455   4.280  1.00  0.00     0.144 A 
HETATM   11  C13 UNL     1      -2.680   3.603   3.032  1.00  0.00     0.163 A 
HETATM   12  F1  UNL     1      -2.444   4.689   2.258  1.00  0.00    -0.202 F 
BRANCH   8  13
HETATM   13  O1  UNL     1      -3.453   0.231   5.347  1.00  0.00    -0.353 OA
HETATM   14  C8  UNL     1      -4.709  -0.404   5.202  1.00  0.00     0.210 C 
ENDBRANCH   8  13
BRANCH   9  15
HETATM   15  O2  UNL     1      -1.727   2.173   6.268  1.00  0.00    -0.351 OA
HETATM   16  C10 UNL     1      -0.444   1.565   6.397  1.00  0.00     0.210 C 
ENDBRANCH   9  15
BRANCH  10  17
HETATM   17  O3  UNL     1      -1.196   4.431   4.738  1.00  0.00    -0.350 OA
HETATM   18  C12 UNL     1       0.126   4.457   4.219  1.00  0.00     0.210 C 
ENDBRANCH  10  17
ENDBRANCH   2   6
BRANCH   1  19
HETATM   19  C2  UNL     1      -2.136   2.247  -0.106  1.00  0.00     0.006 C 
HETATM   20  C1  UNL     1      -1.154   3.017  -0.496  1.00  0.00     0.012 C 
ENDBRANCH   1  19
BRANCH   5  21
HETATM   21  N2  UNL     1      -4.284   2.715  -2.310  1.00  0.00    -0.300 N 
ATOM     22  H2  UNL     1      -3.297   2.661  -2.564  1.00  0.00     0.171 HD
BRANCH  21  23
HETATM   23  C16 UNL     1      -5.159   2.629  -3.386  1.00  0.00     0.264 C 
BRANCH  23  24
HETATM   24  O5  UNL     1      -4.937   3.377  -4.427  1.00  0.00    -0.327 OA
ATOM     25  H5  UNL     1      -4.930   2.968  -5.285  1.00  0.00     0.221 HD
ENDBRANCH  23  24
BRANCH  23  26
HETATM   26  O6  UNL     1      -6.254   1.846  -3.499  1.00  0.00    -0.311 OA
BRANCH  26  27
HETATM   27  C17 UNL     1      -7.059   1.803  -4.653  1.00  0.00     0.132 C 
HETATM   28  C18 UNL     1      -6.994   0.490  -5.377  1.00  0.00     0.032 C 
HETATM   29  C19 UNL     1      -8.283  -0.222  -5.528  1.00  0.00     0.002 C 
HETATM   30  C20 UNL     1      -9.478   0.600  -5.814  1.00  0.00     0.000 C 
HETATM   31  C21 UNL     1      -9.254   2.088  -5.653  1.00  0.00     0.002 C 
HETATM   32  C22 UNL     1      -8.477   2.237  -4.349  1.00  0.00     0.032 C 
ENDBRANCH  26  27
ENDBRANCH  23  26
ENDBRANCH  21  23
ENDBRANCH   5  21
BRANCH   4  33
HETATM   33  O4  UNL     1      -6.920   3.469  -0.894  1.00  0.00    -0.281 OA
ATOM     34  H4  UNL     1      -7.018   3.915  -1.727  1.00  0.00     0.245 HD
ENDBRANCH   4  33
TORSDOF 11
ENDMDL
