MODEL 1
REMARK VINA RESULT: -6.118815307      0.000      0.000
REMARK  10 active torsions:
REMARK  status: ('A' for Active; 'I' for Inactive)
REMARK    1  A    between atoms: C2_2  and  C3_3 
REMARK    2  A    between atoms: C3_3  and  C4_4 
REMARK    3  A    between atoms: C4_4  and  N1_5 
REMARK    4  A    between atoms: C5_6  and  C6_7 
REMARK    5  A    between atoms: C6_7  and  N2_8 
REMARK    6  A    between atoms: C15_17  and  C17_19 
REMARK    7  A    between atoms: C18_26  and  C19_27 
REMARK    8  A    between atoms: C19_27  and  N5_28 
REMARK    9  A    between atoms: C20_29  and  O1_30 
REMARK   10  A    between atoms: C23_34  and  O2_35 
ROOT
HETATM    1  N1  UNL     1      -4.818   1.677   4.314  1.00  0.00    -0.319 N 
HETATM    2  C5  UNL     1      -3.497   1.763   4.562  1.00  0.00     0.134 A 
HETATM    3  N3  UNL     1      -3.143   0.736   5.368  1.00  0.00    -0.283 N 
ATOM      4  H3  UNL     1      -2.206   0.545   5.723  1.00  0.00     0.188 HD
HETATM    5  N4  UNL     1      -4.209   0.038   5.608  1.00  0.00    -0.286 N 
ATOM      6  H4  UNL     1      -4.245  -0.800   6.188  1.00  0.00     0.188 HD
HETATM    7  C18 UNL     1      -5.276   0.595   4.965  1.00  0.00     0.118 A 
ENDROOT
BRANCH   2   8
HETATM    8  C6  UNL     1      -2.534   2.753   4.024  1.00  0.00     0.111 C 
BRANCH   8   9
HETATM    9  N2  UNL     1      -2.208   2.643   2.664  1.00  0.00    -0.274 NA
HETATM   10  C7  UNL     1      -2.303   4.014   2.104  1.00  0.00     0.101 C 
HETATM   11  C8  UNL     1      -2.591   3.936   0.641  1.00  0.00     0.003 C 
HETATM   12  C9  UNL     1      -1.771   4.935  -0.101  1.00  0.00     0.006 C 
HETATM   13  C13 UNL     1      -2.326   2.565   0.126  1.00  0.00    -0.007 C 
HETATM   14  C10 UNL     1      -2.159   5.021  -1.563  1.00  0.00     0.000 C 
HETATM   15  C11 UNL     1      -2.728   3.725  -2.073  1.00  0.00     0.000 C 
HETATM   16  C12 UNL     1      -2.190   2.508  -1.375  1.00  0.00     0.005 C 
HETATM   17  C14 UNL     1      -1.095   1.918   0.698  1.00  0.00     0.036 C 
HETATM   18  C15 UNL     1      -1.008   2.053   2.228  1.00  0.00     0.072 C 
HETATM   19  C16 UNL     1      -0.767   0.662   2.737  1.00  0.00     0.038 C 
BRANCH  18  20
HETATM   20  C17 UNL     1       0.270   2.836   2.505  1.00  0.00     0.375 C 
HETATM   21  F1  UNL     1       0.927   3.067   1.274  1.00  0.00    -0.212 F 
HETATM   22  F2  UNL     1       1.180   2.172   3.273  1.00  0.00    -0.212 F 
ENDBRANCH  18  20
ENDBRANCH   8   9
ENDBRANCH   2   8
BRANCH   1  23
HETATM   23  C4  UNL     1      -5.594   2.586   3.529  1.00  0.00     0.132 C 
BRANCH  23  24
HETATM   24  C3  UNL     1      -5.747   2.187   2.081  1.00  0.00     0.020 C 
BRANCH  24  25
HETATM   25  C2  UNL     1      -6.102   3.406   1.272  1.00  0.00    -0.003 C 
HETATM   26  C1  UNL     1      -6.091   3.106  -0.222  1.00  0.00     0.005 C 
ENDBRANCH  24  25
ENDBRANCH  23  24
ENDBRANCH   1  23
BRANCH   7  27
HETATM   27  C19 UNL     1      -6.660   0.095   4.965  1.00  0.00     0.211 C 
BRANCH  27  28
HETATM   28  N5  UNL     1      -7.529   0.849   5.865  1.00  0.00    -0.301 N 
HETATM   29  C20 UNL     1      -7.413   1.154   7.143  1.00  0.00     0.144 A 
HETATM   30  C21 UNL     1      -8.490   1.893   7.532  1.00  0.00     0.060 A 
HETATM   31  C22 UNL     1      -9.304   2.044   6.434  1.00  0.00     0.060 A 
HETATM   32  C23 UNL     1      -8.687   1.386   5.401  1.00  0.00     0.144 A 
BRANCH  29  33
HETATM   33  O1  UNL     1      -6.358   0.789   7.994  1.00  0.00    -0.346 OA
ATOM     34  H1  UNL     1      -6.297   0.968   8.925  1.00  0.00     0.219 HD
ENDBRANCH  29  33
BRANCH  32  35
HETATM   35  O2  UNL     1      -9.199   1.301   4.091  1.00  0.00    -0.346 OA
ATOM     36  H2  UNL     1      -9.395   2.021   3.504  1.00  0.00     0.219 HD
ENDBRANCH  32  35
ENDBRANCH  27  28
ENDBRANCH   7  27
TORSDOF 10
ENDMDL
MODEL 2
REMARK VINA RESULT: -6.006388058      2.368      3.013
REMARK  10 active torsions:
REMARK  status: ('A' for Active; 'I' for Inactive)
REMARK    1  A    between atoms: C2_2  and  C3_3 
REMARK    2  A    between atoms: C3_3  and  C4_4 
REMARK    3  A    between atoms: C4_4  and  N1_5 
REMARK    4  A    between atoms: C5_6  and  C6_7 
REMARK    5  A    between atoms: C6_7  and  N2_8 
REMARK    6  A    between atoms: C15_17  and  C17_19 
REMARK    7  A    between atoms: C18_26  and  C19_27 
REMARK    8  A    between atoms: C19_27  and  N5_28 
REMARK    9  A    between atoms: C20_29  and  O1_30 
REMARK   10  A    between atoms: C23_34  and  O2_35 
ROOT
HETATM    1  N1  UNL     1      -3.863   4.150   6.165  1.00  0.00    -0.319 N 
HETATM    2  C5  UNL     1      -2.674   4.062   6.789  1.00  0.00     0.134 A 
HETATM    3  N3  UNL     1      -2.891   3.769   8.091  1.00  0.00    -0.283 N 
ATOM      4  H3  UNL     1      -2.175   3.642   8.807  1.00  0.00     0.188 HD
HETATM    5  N4  UNL     1      -4.173   3.677   8.265  1.00  0.00    -0.286 N 
ATOM      6  H4  UNL     1      -4.632   3.465   9.151  1.00  0.00     0.188 HD
HETATM    7  C18 UNL     1      -4.814   3.909   7.083  1.00  0.00     0.118 A 
ENDROOT
BRANCH   2   8
HETATM    8  C6  UNL     1      -1.323   4.192   6.192  1.00  0.00     0.111 C 
BRANCH   8   9
HETATM    9  N2  UNL     1      -1.027   3.349   5.110  1.00  0.00    -0.274 NA
HETATM   10  C7  UNL     1      -0.571   4.234   4.009  1.00  0.00     0.101 C 
HETATM   11  C8  UNL     1      -0.827   3.570   2.696  1.00  0.00     0.003 C 
HETATM   12  C9  UNL     1       0.334   3.766   1.783  1.00  0.00     0.006 C 
HETATM   13  C13 UNL     1      -1.095   2.119   2.886  1.00  0.00    -0.007 C 
HETATM   14  C10 UNL     1       0.050   3.269   0.381  1.00  0.00     0.000 C 
HETATM   15  C11 UNL     1      -0.959   2.153   0.372  1.00  0.00     0.000 C 
HETATM   16  C12 UNL     1      -0.950   1.315   1.618  1.00  0.00     0.005 C 
HETATM   17  C14 UNL     1      -0.224   1.460   3.920  1.00  0.00     0.036 C 
HETATM   18  C15 UNL     1      -0.134   2.269   5.226  1.00  0.00     0.072 C 
HETATM   19  C16 UNL     1      -0.461   1.294   6.319  1.00  0.00     0.038 C 
BRANCH  18  20
HETATM   20  C17 UNL     1       1.338   2.622   5.395  1.00  0.00     0.375 C 
HETATM   21  F1  UNL     1       2.033   2.213   4.233  1.00  0.00    -0.212 F 
HETATM   22  F2  UNL     1       1.957   1.975   6.424  1.00  0.00    -0.212 F 
ENDBRANCH  18  20
ENDBRANCH   8   9
ENDBRANCH   2   8
BRANCH   1  23
HETATM   23  C4  UNL     1      -4.077   4.472   4.789  1.00  0.00     0.132 C 
BRANCH  23  24
HETATM   24  C3  UNL     1      -4.246   3.273   3.886  1.00  0.00     0.020 C 
BRANCH  24  25
HETATM   25  C2  UNL     1      -4.530   3.751   2.486  1.00  0.00    -0.003 C 
HETATM   26  C1  UNL     1      -4.547   2.592   1.496  1.00  0.00     0.005 C 
ENDBRANCH  24  25
ENDBRANCH  23  24
ENDBRANCH   1  23
BRANCH   7  27
HETATM   27  C19 UNL     1      -6.266   3.878   6.852  1.00  0.00     0.211 C 
BRANCH  27  28
HETATM   28  N5  UNL     1      -6.737   2.566   6.410  1.00  0.00    -0.301 N 
HETATM   29  C20 UNL     1      -6.665   1.376   6.973  1.00  0.00     0.144 A 
HETATM   30  C21 UNL     1      -7.266   0.457   6.166  1.00  0.00     0.060 A 
HETATM   31  C22 UNL     1      -7.726   1.123   5.055  1.00  0.00     0.060 A 
HETATM   32  C23 UNL     1      -7.386   2.441   5.225  1.00  0.00     0.144 A 
BRANCH  29  33
HETATM   33  O1  UNL     1      -6.070   1.073   8.208  1.00  0.00    -0.346 OA
ATOM     34  H1  UNL     1      -6.215   0.290   8.727  1.00  0.00     0.219 HD
ENDBRANCH  29  33
BRANCH  32  35
HETATM   35  O2  UNL     1      -7.679   3.465   4.302  1.00  0.00    -0.346 OA
ATOM     36  H2  UNL     1      -8.538   3.785   4.054  1.00  0.00     0.219 HD
ENDBRANCH  32  35
ENDBRANCH  27  28
ENDBRANCH   7  27
TORSDOF 10
ENDMDL
MODEL 3
REMARK VINA RESULT: -5.870584281      2.617      3.563
REMARK  10 active torsions:
REMARK  status: ('A' for Active; 'I' for Inactive)
REMARK    1  A    between atoms: C2_2  and  C3_3 
REMARK    2  A    between atoms: C3_3  and  C4_4 
REMARK    3  A    between atoms: C4_4  and  N1_5 
REMARK    4  A    between atoms: C5_6  and  C6_7 
REMARK    5  A    between atoms: C6_7  and  N2_8 
REMARK    6  A    between atoms: C15_17  and  C17_19 
REMARK    7  A    between atoms: C18_26  and  C19_27 
REMARK    8  A    between atoms: C19_27  and  N5_28 
REMARK    9  A    between atoms: C20_29  and  O1_30 
REMARK   10  A    between atoms: C23_34  and  O2_35 
ROOT
HETATM    1  N1  UNL     1      -2.972   3.295   6.127  1.00  0.00    -0.319 N 
HETATM    2  C5  UNL     1      -1.887   3.291   6.925  1.00  0.00     0.134 A 
HETATM    3  N3  UNL     1      -2.259   3.702   8.159  1.00  0.00    -0.283 N 
ATOM      4  H3  UNL     1      -1.648   3.799   8.970  1.00  0.00     0.188 HD
HETATM    5  N4  UNL     1      -3.531   3.950   8.124  1.00  0.00    -0.286 N 
ATOM      6  H4  UNL     1      -4.088   4.277   8.914  1.00  0.00     0.188 HD
HETATM    7  C18 UNL     1      -4.012   3.706   6.870  1.00  0.00     0.118 A 
ENDROOT
BRANCH   2   8
HETATM    8  C6  UNL     1      -0.510   2.861   6.584  1.00  0.00     0.111 C 
BRANCH   8   9
HETATM    9  N2  UNL     1      -0.077   3.112   5.273  1.00  0.00    -0.274 NA
HETATM   10  C7  UNL     1       0.219   4.565   5.206  1.00  0.00     0.101 C 
HETATM   11  C8  UNL     1       0.079   5.039   3.798  1.00  0.00     0.003 C 
HETATM   12  C9  UNL     1       1.188   5.972   3.453  1.00  0.00     0.006 C 
HETATM   13  C13 UNL     1       0.061   3.887   2.856  1.00  0.00    -0.007 C 
HETATM   14  C10 UNL     1       0.990   6.621   2.099  1.00  0.00     0.000 C 
HETATM   15  C11 UNL     1       0.185   5.753   1.169  1.00  0.00     0.000 C 
HETATM   16  C12 UNL     1       0.339   4.281   1.426  1.00  0.00     0.005 C 
HETATM   17  C14 UNL     1       1.034   2.793   3.201  1.00  0.00     0.036 C 
HETATM   18  C15 UNL     1       0.987   2.402   4.688  1.00  0.00     0.072 C 
HETATM   19  C16 UNL     1       0.833   0.910   4.702  1.00  0.00     0.038 C 
BRANCH  18  20
HETATM   20  C17 UNL     1       2.378   2.692   5.238  1.00  0.00     0.375 C 
HETATM   21  F1  UNL     1       3.102   3.416   4.262  1.00  0.00    -0.212 F 
HETATM   22  F2  UNL     1       3.128   1.580   5.484  1.00  0.00    -0.212 F 
ENDBRANCH  18  20
ENDBRANCH   8   9
ENDBRANCH   2   8
BRANCH   1  23
HETATM   23  C4  UNL     1      -3.004   2.956   4.738  1.00  0.00     0.132 C 
BRANCH  23  24
HETATM   24  C3  UNL     1      -3.147   1.478   4.460  1.00  0.00     0.020 C 
BRANCH  24  25
HETATM   25  C2  UNL     1      -2.428   1.150   3.178  1.00  0.00    -0.003 C 
HETATM   26  C1  UNL     1      -3.016   1.917   1.999  1.00  0.00     0.005 C 
ENDBRANCH  24  25
ENDBRANCH  23  24
ENDBRANCH   1  23
BRANCH   7  27
HETATM   27  C19 UNL     1      -5.407   3.845   6.423  1.00  0.00     0.211 C 
BRANCH  27  28
HETATM   28  N5  UNL     1      -6.144   2.585   6.485  1.00  0.00    -0.301 N 
HETATM   29  C20 UNL     1      -6.455   1.801   7.499  1.00  0.00     0.144 A 
HETATM   30  C21 UNL     1      -7.170   0.734   7.043  1.00  0.00     0.060 A 
HETATM   31  C22 UNL     1      -7.300   0.877   5.682  1.00  0.00     0.060 A 
HETATM   32  C23 UNL     1      -6.653   2.039   5.350  1.00  0.00     0.144 A 
BRANCH  29  33
HETATM   33  O1  UNL     1      -6.115   2.007   8.845  1.00  0.00    -0.346 OA
ATOM     34  H1  UNL     1      -5.653   1.398   9.409  1.00  0.00     0.219 HD
ENDBRANCH  29  33
BRANCH  32  35
HETATM   35  O2  UNL     1      -6.553   2.550   4.041  1.00  0.00    -0.346 OA
ATOM     36  H2  UNL     1      -6.696   2.079   3.229  1.00  0.00     0.219 HD
ENDBRANCH  32  35
ENDBRANCH  27  28
ENDBRANCH   7  27
TORSDOF 10
ENDMDL
MODEL 4
REMARK VINA RESULT: -5.861073929      2.326      3.250
REMARK  10 active torsions:
REMARK  status: ('A' for Active; 'I' for Inactive)
REMARK    1  A    between atoms: C2_2  and  C3_3 
REMARK    2  A    between atoms: C3_3  and  C4_4 
REMARK    3  A    between atoms: C4_4  and  N1_5 
REMARK    4  A    between atoms: C5_6  and  C6_7 
REMARK    5  A    between atoms: C6_7  and  N2_8 
REMARK    6  A    between atoms: C15_17  and  C17_19 
REMARK    7  A    between atoms: C18_26  and  C19_27 
REMARK    8  A    between atoms: C19_27  and  N5_28 
REMARK    9  A    between atoms: C20_29  and  O1_30 
REMARK   10  A    between atoms: C23_34  and  O2_35 
ROOT
HETATM    1  N1  UNL     1      -3.965   4.113   6.124  1.00  0.00    -0.319 N 
HETATM    2  C5  UNL     1      -2.758   4.060   6.719  1.00  0.00     0.134 A 
HETATM    3  N3  UNL     1      -2.933   3.736   8.020  1.00  0.00    -0.283 N 
ATOM      4  H3  UNL     1      -2.197   3.625   8.717  1.00  0.00     0.188 HD
HETATM    5  N4  UNL     1      -4.206   3.593   8.222  1.00  0.00    -0.286 N 
ATOM      6  H4  UNL     1      -4.636   3.348   9.114  1.00  0.00     0.188 HD
HETATM    7  C18 UNL     1      -4.883   3.820   7.059  1.00  0.00     0.118 A 
ENDROOT
BRANCH   2   8
HETATM    8  C6  UNL     1      -1.428   4.252   6.093  1.00  0.00     0.111 C 
BRANCH   8   9
HETATM    9  N2  UNL     1      -1.104   3.402   5.025  1.00  0.00    -0.274 NA
HETATM   10  C7  UNL     1      -0.602   4.279   3.937  1.00  0.00     0.101 C 
HETATM   11  C8  UNL     1      -0.820   3.613   2.619  1.00  0.00     0.003 C 
HETATM   12  C9  UNL     1       0.374   3.794   1.745  1.00  0.00     0.006 C 
HETATM   13  C13 UNL     1      -1.109   2.165   2.804  1.00  0.00    -0.007 C 
HETATM   14  C10 UNL     1       0.132   3.295   0.335  1.00  0.00     0.000 C 
HETATM   15  C11 UNL     1      -0.887   2.189   0.295  1.00  0.00     0.000 C 
HETATM   16  C12 UNL     1      -0.930   1.355   1.544  1.00  0.00     0.005 C 
HETATM   17  C14 UNL     1      -0.280   1.501   3.869  1.00  0.00     0.036 C 
HETATM   18  C15 UNL     1      -0.226   2.313   5.174  1.00  0.00     0.072 C 
HETATM   19  C16 UNL     1      -0.600   1.346   6.259  1.00  0.00     0.038 C 
BRANCH  18  20
HETATM   20  C17 UNL     1       1.242   2.653   5.393  1.00  0.00     0.375 C 
HETATM   21  F1  UNL     1       1.977   2.198   4.272  1.00  0.00    -0.212 F 
HETATM   22  F2  UNL     1       1.810   2.030   6.465  1.00  0.00    -0.212 F 
ENDBRANCH  18  20
ENDBRANCH   8   9
ENDBRANCH   2   8
BRANCH   1  23
HETATM   23  C4  UNL     1      -4.223   4.450   4.759  1.00  0.00     0.132 C 
BRANCH  23  24
HETATM   24  C3  UNL     1      -4.228   3.271   3.815  1.00  0.00     0.020 C 
BRANCH  24  25
HETATM   25  C2  UNL     1      -4.501   3.764   2.418  1.00  0.00    -0.003 C 
HETATM   26  C1  UNL     1      -4.586   2.609   1.428  1.00  0.00     0.005 C 
ENDBRANCH  24  25
ENDBRANCH  23  24
ENDBRANCH   1  23
BRANCH   7  27
HETATM   27  C19 UNL     1      -6.339   3.737   6.861  1.00  0.00     0.211 C 
BRANCH  27  28
HETATM   28  N5  UNL     1      -6.748   2.490   6.219  1.00  0.00    -0.301 N 
HETATM   29  C20 UNL     1      -7.277   2.248   5.035  1.00  0.00     0.144 A 
HETATM   30  C21 UNL     1      -7.471   0.907   4.891  1.00  0.00     0.060 A 
HETATM   31  C22 UNL     1      -7.038   0.302   6.048  1.00  0.00     0.060 A 
HETATM   32  C23 UNL     1      -6.589   1.307   6.866  1.00  0.00     0.144 A 
BRANCH  29  33
HETATM   33  O1  UNL     1      -7.601   3.202   4.057  1.00  0.00    -0.346 OA
ATOM     34  H1  UNL     1      -8.338   3.801   4.077  1.00  0.00     0.219 HD
ENDBRANCH  29  33
BRANCH  32  35
HETATM   35  O2  UNL     1      -6.058   1.107   8.156  1.00  0.00    -0.346 OA
ATOM     36  H2  UNL     1      -6.234   0.381   8.742  1.00  0.00     0.219 HD
ENDBRANCH  32  35
ENDBRANCH  27  28
ENDBRANCH   7  27
TORSDOF 10
ENDMDL
MODEL 5
REMARK VINA RESULT: -5.739834082      2.832      3.998
REMARK  10 active torsions:
REMARK  status: ('A' for Active; 'I' for Inactive)
REMARK    1  A    between atoms: C2_2  and  C3_3 
REMARK    2  A    between atoms: C3_3  and  C4_4 
REMARK    3  A    between atoms: C4_4  and  N1_5 
REMARK    4  A    between atoms: C5_6  and  C6_7 
REMARK    5  A    between atoms: C6_7  and  N2_8 
REMARK    6  A    between atoms: C15_17  and  C17_19 
REMARK    7  A    between atoms: C18_26  and  C19_27 
REMARK    8  A    between atoms: C19_27  and  N5_28 
REMARK    9  A    between atoms: C20_29  and  O1_30 
REMARK   10  A    between atoms: C23_34  and  O2_35 
ROOT
HETATM    1  N1  UNL     1      -2.741   3.510   6.430  1.00  0.00    -0.319 N 
HETATM    2  C5  UNL     1      -1.584   3.441   7.116  1.00  0.00     0.134 A 
HETATM    3  N3  UNL     1      -1.783   3.959   8.349  1.00  0.00    -0.283 N 
ATOM      4  H3  UNL     1      -1.084   4.039   9.088  1.00  0.00     0.188 HD
HETATM    5  N4  UNL     1      -3.023   4.333   8.424  1.00  0.00    -0.286 N 
ATOM      6  H4  UNL     1      -3.459   4.760   9.240  1.00  0.00     0.188 HD
HETATM    7  C18 UNL     1      -3.654   4.068   7.243  1.00  0.00     0.118 A 
ENDROOT
BRANCH   2   8
HETATM    8  C6  UNL     1      -0.298   2.854   6.670  1.00  0.00     0.111 C 
BRANCH   8   9
HETATM    9  N2  UNL     1       0.074   3.086   5.337  1.00  0.00    -0.274 NA
HETATM   10  C7  UNL     1       0.384   4.534   5.240  1.00  0.00     0.101 C 
HETATM   11  C8  UNL     1       0.181   4.995   3.835  1.00  0.00     0.003 C 
HETATM   12  C9  UNL     1       1.283   5.911   3.426  1.00  0.00     0.006 C 
HETATM   13  C13 UNL     1       0.103   3.834   2.908  1.00  0.00    -0.007 C 
HETATM   14  C10 UNL     1       1.027   6.548   2.076  1.00  0.00     0.000 C 
HETATM   15  C11 UNL     1       0.168   5.681   1.197  1.00  0.00     0.000 C 
HETATM   16  C12 UNL     1       0.315   4.210   1.462  1.00  0.00     0.005 C 
HETATM   17  C14 UNL     1       1.078   2.731   3.217  1.00  0.00     0.036 C 
HETATM   18  C15 UNL     1       1.100   2.356   4.709  1.00  0.00     0.072 C 
HETATM   19  C16 UNL     1       0.928   0.866   4.746  1.00  0.00     0.038 C 
BRANCH  18  20
HETATM   20  C17 UNL     1       2.518   2.634   5.187  1.00  0.00     0.375 C 
HETATM   21  F1  UNL     1       3.203   3.339   4.170  1.00  0.00    -0.212 F 
HETATM   22  F2  UNL     1       3.267   1.515   5.408  1.00  0.00    -0.212 F 
ENDBRANCH  18  20
ENDBRANCH   8   9
ENDBRANCH   2   8
BRANCH   1  23
HETATM   23  C4  UNL     1      -2.951   3.096   5.078  1.00  0.00     0.132 C 
BRANCH  23  24
HETATM   24  C3  UNL     1      -3.128   1.607   4.901  1.00  0.00     0.020 C 
BRANCH  24  25
HETATM   25  C2  UNL     1      -2.532   1.196   3.581  1.00  0.00    -0.003 C 
HETATM   26  C1  UNL     1      -3.191   1.931   2.420  1.00  0.00     0.005 C 
ENDBRANCH  24  25
ENDBRANCH  23  24
ENDBRANCH   1  23
BRANCH   7  27
HETATM   27  C19 UNL     1      -5.068   4.322   6.928  1.00  0.00     0.211 C 
BRANCH  27  28
HETATM   28  N5  UNL     1      -5.904   3.136   7.100  1.00  0.00    -0.301 N 
HETATM   29  C20 UNL     1      -6.502   2.353   6.224  1.00  0.00     0.144 A 
HETATM   30  C21 UNL     1      -7.163   1.359   6.883  1.00  0.00     0.060 A 
HETATM   31  C22 UNL     1      -6.956   1.549   8.228  1.00  0.00     0.060 A 
HETATM   32  C23 UNL     1      -6.166   2.664   8.346  1.00  0.00     0.144 A 
BRANCH  29  33
HETATM   33  O1  UNL     1      -6.482   2.496   4.828  1.00  0.00    -0.346 OA
ATOM     34  H1  UNL     1      -7.207   2.341   4.234  1.00  0.00     0.219 HD
ENDBRANCH  29  33
BRANCH  32  35
HETATM   35  O2  UNL     1      -5.721   3.200   9.570  1.00  0.00    -0.346 OA
ATOM     36  H2  UNL     1      -6.251   3.418  10.328  1.00  0.00     0.219 HD
ENDBRANCH  32  35
ENDBRANCH  27  28
ENDBRANCH   7  27
TORSDOF 10
ENDMDL
