MODEL 1
REMARK VINA RESULT: -5.719000847      0.000      0.000
REMARK  8 active torsions:
REMARK  status: ('A' for Active; 'I' for Inactive)
REMARK    1  A    between atoms: O1_2  and  C2_3 
REMARK    2  A    between atoms: C5_7  and  C6_8 
REMARK    3  A    between atoms: C7_10  and  C8_11 
REMARK    4  A    between atoms: C11_14  and  C12_15 
REMARK    5  A    between atoms: C12_15  and  O3_16 
REMARK    6  A    between atoms: C12_15  and  O4_18 
REMARK    7  A    between atoms: C14_20  and  C15_21 
REMARK    8  A    between atoms: C21_34  and  O5_35 
ROOT
HETATM    1  C6  UNL     1      -3.978   1.719   3.828  1.00  0.00     0.103 A 
HETATM    2  O2  UNL     1      -4.789   0.717   3.980  1.00  0.00    -0.312 OA
HETATM    3  C7  UNL     1      -5.508   0.844   5.084  1.00  0.00     0.069 A 
HETATM    4  C11 UNL     1      -5.139   1.998   5.680  1.00  0.00     0.040 A 
HETATM    5  C14 UNL     1      -4.143   2.590   4.886  1.00  0.00     0.026 A 
ENDROOT
BRANCH   5   6
HETATM    6  C15 UNL     1      -3.432   3.850   5.091  1.00  0.00     0.019 A 
HETATM    7  C16 UNL     1      -3.822   5.015   4.466  1.00  0.00     0.018 A 
HETATM    8  C17 UNL     1      -3.134   6.185   4.668  1.00  0.00     0.034 A 
HETATM    9  C18 UNL     1      -2.039   6.208   5.505  1.00  0.00     0.080 A 
HETATM   10  N1  UNL     1      -1.173   7.175   5.901  1.00  0.00    -0.284 N 
HETATM   11  C19 UNL     1      -1.643   5.051   6.134  1.00  0.00     0.117 A 
HETATM   12  N2  UNL     1      -0.287   6.635   6.734  1.00  0.00    -0.242 N 
ATOM     13  H1  UNL     1      -1.198   8.152   5.608  1.00  0.00     0.188 HD
HETATM   14  N3  UNL     1      -0.546   5.358   6.891  1.00  0.00    -0.281 N 
ATOM     15  H2  UNL     1       0.479   7.138   7.184  1.00  0.00     0.208 HD
ATOM     16  H3  UNL     1      -0.021   4.707   7.476  1.00  0.00     0.188 HD
HETATM   17  C20 UNL     1      -2.340   3.883   5.924  1.00  0.00     0.158 A 
HETATM   18  F2  UNL     1      -1.892   2.770   6.566  1.00  0.00    -0.203 F 
ENDBRANCH   5   6
BRANCH   1  19
HETATM   19  C5  UNL     1      -3.066   1.830   2.690  1.00  0.00     0.071 A 
HETATM   20  C4  UNL     1      -3.479   2.286   1.456  1.00  0.00     0.134 A 
HETATM   21  C3  UNL     1      -2.601   2.381   0.397  1.00  0.00     0.080 A 
HETATM   22  F1  UNL     1      -4.790   2.634   1.343  1.00  0.00    -0.205 F 
HETATM   23  C2  UNL     1      -1.273   2.029   0.510  1.00  0.00     0.073 A 
HETATM   24  C23 UNL     1      -0.847   1.571   1.740  1.00  0.00     0.074 A 
HETATM   25  C21 UNL     1      -1.725   1.475   2.801  1.00  0.00     0.086 A 
BRANCH  23  26
HETATM   26  O1  UNL     1      -0.403   2.135  -0.577  1.00  0.00    -0.356 OA
HETATM   27  C1  UNL     1       0.588   3.101  -0.704  1.00  0.00     0.210 C 
ENDBRANCH  23  26
BRANCH  25  28
HETATM   28  O5  UNL     1      -1.312   1.017   4.041  1.00  0.00    -0.355 OA
HETATM   29  C22 UNL     1       0.032   1.187   4.426  1.00  0.00     0.210 C 
ENDBRANCH  25  28
ENDBRANCH   1  19
BRANCH   4  30
HETATM   30  C12 UNL     1      -5.617   2.642   6.881  1.00  0.00     0.294 C 
BRANCH  30  31
HETATM   31  O3  UNL     1      -6.910   3.215   6.619  1.00  0.00    -0.367 OA
ATOM     32  H3  UNL     1      -7.389   3.281   7.437  1.00  0.00     0.213 HD
ENDBRANCH  30  31
BRANCH  30  33
HETATM   33  O4  UNL     1      -5.789   1.904   8.012  1.00  0.00    -0.362 OA
HETATM   34  C13 UNL     1      -7.124   1.938   8.443  1.00  0.00     0.205 C 
ENDBRANCH  30  33
ENDBRANCH   4  30
BRANCH   3  35
HETATM   35  C8  UNL     1      -6.505  -0.120   5.533  1.00  0.00     0.035 C 
HETATM   36  C9  UNL     1      -7.782   0.105   4.695  1.00  0.00     0.016 C 
HETATM   37  C10 UNL     1      -6.100  -1.561   5.151  1.00  0.00     0.016 C 
ENDBRANCH   3  35
TORSDOF 8
ENDMDL
MODEL 2
REMARK VINA RESULT: -5.667823781      3.094      4.570
REMARK  8 active torsions:
REMARK  status: ('A' for Active; 'I' for Inactive)
REMARK    1  A    between atoms: O1_2  and  C2_3 
REMARK    2  A    between atoms: C5_7  and  C6_8 
REMARK    3  A    between atoms: C7_10  and  C8_11 
REMARK    4  A    between atoms: C11_14  and  C12_15 
REMARK    5  A    between atoms: C12_15  and  O3_16 
REMARK    6  A    between atoms: C12_15  and  O4_18 
REMARK    7  A    between atoms: C14_20  and  C15_21 
REMARK    8  A    between atoms: C21_34  and  O5_35 
ROOT
HETATM    1  C6  UNL     1      -2.831   1.498   4.390  1.00  0.00     0.103 A 
HETATM    2  O2  UNL     1      -3.540   0.571   4.957  1.00  0.00    -0.312 OA
HETATM    3  C7  UNL     1      -4.793   0.594   4.529  1.00  0.00     0.069 A 
HETATM    4  C11 UNL     1      -4.897   1.598   3.631  1.00  0.00     0.040 A 
HETATM    5  C14 UNL     1      -3.636   2.206   3.520  1.00  0.00     0.026 A 
ENDROOT
BRANCH   5   6
HETATM    6  C15 UNL     1      -3.226   3.324   2.674  1.00  0.00     0.019 A 
HETATM    7  C16 UNL     1      -3.349   4.632   3.090  1.00  0.00     0.018 A 
HETATM    8  C17 UNL     1      -2.966   5.668   2.275  1.00  0.00     0.034 A 
HETATM    9  C18 UNL     1      -2.448   5.408   1.023  1.00  0.00     0.080 A 
HETATM   10  N1  UNL     1      -1.991   6.187   0.010  1.00  0.00    -0.284 N 
HETATM   11  C19 UNL     1      -2.322   4.106   0.599  1.00  0.00     0.117 A 
HETATM   12  N2  UNL     1      -1.602   5.398  -0.989  1.00  0.00    -0.242 N 
ATOM     13  H1  UNL     1      -1.953   7.207   0.014  1.00  0.00     0.188 HD
HETATM   14  N3  UNL     1      -1.791   4.140  -0.660  1.00  0.00    -0.281 N 
ATOM     15  H2  UNL     1      -1.215   5.721  -1.876  1.00  0.00     0.208 HD
ATOM     16  H3  UNL     1      -1.579   3.330  -1.243  1.00  0.00     0.188 HD
HETATM   17  C20 UNL     1      -2.710   3.076   1.425  1.00  0.00     0.158 A 
HETATM   18  F2  UNL     1      -2.570   1.810   0.945  1.00  0.00    -0.203 F 
ENDBRANCH   5   6
BRANCH   1  19
HETATM   19  C5  UNL     1      -1.412   1.696   4.683  1.00  0.00     0.071 A 
HETATM   20  C4  UNL     1      -0.414   1.181   3.882  1.00  0.00     0.134 A 
HETATM   21  C3  UNL     1       0.917   1.380   4.180  1.00  0.00     0.080 A 
HETATM   22  F1  UNL     1      -0.814   0.472   2.792  1.00  0.00    -0.205 F 
HETATM   23  C2  UNL     1       1.325   2.098   5.284  1.00  0.00     0.073 A 
HETATM   24  C23 UNL     1       0.336   2.619   6.094  1.00  0.00     0.074 A 
HETATM   25  C21 UNL     1      -0.998   2.421   5.798  1.00  0.00     0.086 A 
BRANCH  23  26
HETATM   26  O1  UNL     1       2.679   2.287   5.564  1.00  0.00    -0.356 OA
HETATM   27  C1  UNL     1       3.477   3.268   4.986  1.00  0.00     0.210 C 
ENDBRANCH  23  26
BRANCH  25  28
HETATM   28  O5  UNL     1      -2.000   2.937   6.601  1.00  0.00    -0.355 OA
HETATM   29  C22 UNL     1      -1.654   3.722   7.718  1.00  0.00     0.210 C 
ENDBRANCH  25  28
ENDBRANCH   1  19
BRANCH   4  30
HETATM   30  C12 UNL     1      -6.015   2.047   2.834  1.00  0.00     0.294 C 
BRANCH  30  31
HETATM   31  O3  UNL     1      -6.471   3.312   3.344  1.00  0.00    -0.367 OA
ATOM     32  H3  UNL     1      -6.510   3.265   4.292  1.00  0.00     0.213 HD
ENDBRANCH  30  31
BRANCH  30  33
HETATM   33  O4  UNL     1      -5.844   2.253   1.500  1.00  0.00    -0.362 OA
HETATM   34  C13 UNL     1      -6.547   3.386   1.066  1.00  0.00     0.205 C 
ENDBRANCH  30  33
ENDBRANCH   4  30
BRANCH   3  35
HETATM   35  C8  UNL     1      -5.834  -0.319   4.981  1.00  0.00     0.035 C 
HETATM   36  C9  UNL     1      -5.139  -1.576   5.548  1.00  0.00     0.016 C 
HETATM   37  C10 UNL     1      -6.575   0.244   6.214  1.00  0.00     0.016 C 
ENDBRANCH   3  35
TORSDOF 8
ENDMDL
MODEL 3
REMARK VINA RESULT: -5.600801696      3.770      6.246
REMARK  8 active torsions:
REMARK  status: ('A' for Active; 'I' for Inactive)
REMARK    1  A    between atoms: O1_2  and  C2_3 
REMARK    2  A    between atoms: C5_7  and  C6_8 
REMARK    3  A    between atoms: C7_10  and  C8_11 
REMARK    4  A    between atoms: C11_14  and  C12_15 
REMARK    5  A    between atoms: C12_15  and  O3_16 
REMARK    6  A    between atoms: C12_15  and  O4_18 
REMARK    7  A    between atoms: C14_20  and  C15_21 
REMARK    8  A    between atoms: C21_34  and  O5_35 
ROOT
HETATM    1  C6  UNL     1      -2.416   2.485   2.417  1.00  0.00     0.103 A 
HETATM    2  O2  UNL     1      -3.577   2.264   2.953  1.00  0.00    -0.312 OA
HETATM    3  C7  UNL     1      -4.546   2.355   2.056  1.00  0.00     0.069 A 
HETATM    4  C11 UNL     1      -3.974   2.651   0.868  1.00  0.00     0.040 A 
HETATM    5  C14 UNL     1      -2.588   2.743   1.072  1.00  0.00     0.026 A 
ENDROOT
BRANCH   5   6
HETATM    6  C15 UNL     1      -1.534   3.030   0.102  1.00  0.00     0.019 A 
HETATM    7  C16 UNL     1      -0.769   2.028  -0.457  1.00  0.00     0.018 A 
HETATM    8  C17 UNL     1       0.221   2.321  -1.360  1.00  0.00     0.034 A 
HETATM    9  C18 UNL     1       0.463   3.629  -1.723  1.00  0.00     0.080 A 
HETATM   10  N1  UNL     1       1.343   4.229  -2.564  1.00  0.00    -0.284 N 
HETATM   11  C19 UNL     1      -0.295   4.635  -1.171  1.00  0.00     0.117 A 
HETATM   12  N2  UNL     1       1.133   5.543  -2.530  1.00  0.00    -0.242 N 
ATOM     13  H1  UNL     1       2.046   3.752  -3.129  1.00  0.00     0.188 HD
HETATM   14  N3  UNL     1       0.153   5.815  -1.699  1.00  0.00    -0.281 N 
ATOM     15  H2  UNL     1       1.655   6.235  -3.068  1.00  0.00     0.208 HD
ATOM     16  H3  UNL     1      -0.210   6.744  -1.484  1.00  0.00     0.188 HD
HETATM   17  C20 UNL     1      -1.285   4.330  -0.266  1.00  0.00     0.158 A 
HETATM   18  F2  UNL     1      -1.994   5.370   0.253  1.00  0.00    -0.203 F 
ENDBRANCH   5   6
BRANCH   1  19
HETATM   19  C5  UNL     1      -1.172   2.449   3.186  1.00  0.00     0.071 A 
HETATM   20  C4  UNL     1      -0.485   1.276   3.422  1.00  0.00     0.134 A 
HETATM   21  C3  UNL     1       0.685   1.267   4.151  1.00  0.00     0.080 A 
HETATM   22  F1  UNL     1      -1.023   0.140   2.900  1.00  0.00    -0.205 F 
HETATM   23  C2  UNL     1       1.231   2.417   4.681  1.00  0.00     0.073 A 
HETATM   24  C23 UNL     1       0.552   3.597   4.452  1.00  0.00     0.074 A 
HETATM   25  C21 UNL     1      -0.620   3.608   3.722  1.00  0.00     0.086 A 
BRANCH  23  26
HETATM   26  O1  UNL     1       2.417   2.382   5.415  1.00  0.00    -0.356 OA
HETATM   27  C1  UNL     1       3.570   3.086   5.088  1.00  0.00     0.210 C 
ENDBRANCH  23  26
BRANCH  25  28
HETATM   28  O5  UNL     1      -1.311   4.784   3.484  1.00  0.00    -0.355 OA
HETATM   29  C22 UNL     1      -0.593   5.954   3.168  1.00  0.00     0.210 C 
ENDBRANCH  25  28
ENDBRANCH   1  19
BRANCH   4  30
HETATM   30  C12 UNL     1      -4.550   2.829  -0.445  1.00  0.00     0.294 C 
BRANCH  30  31
HETATM   31  O3  UNL     1      -4.779   4.232  -0.667  1.00  0.00    -0.367 OA
ATOM     32  H3  UNL     1      -5.584   4.337  -1.160  1.00  0.00     0.213 HD
ENDBRANCH  30  31
BRANCH  30  33
HETATM   33  O4  UNL     1      -3.856   2.415  -1.540  1.00  0.00    -0.362 OA
HETATM   34  C13 UNL     1      -4.081   3.261  -2.636  1.00  0.00     0.205 C 
ENDBRANCH  30  33
ENDBRANCH   4  30
BRANCH   3  35
HETATM   35  C8  UNL     1      -5.960   2.163   2.349  1.00  0.00     0.035 C 
HETATM   36  C9  UNL     1      -6.060   1.394   3.684  1.00  0.00     0.016 C 
HETATM   37  C10 UNL     1      -6.650   3.505   2.680  1.00  0.00     0.016 C 
ENDBRANCH   3  35
TORSDOF 8
ENDMDL
MODEL 4
REMARK VINA RESULT: -5.595697261      3.616      5.641
REMARK  8 active torsions:
REMARK  status: ('A' for Active; 'I' for Inactive)
REMARK    1  A    between atoms: O1_2  and  C2_3 
REMARK    2  A    between atoms: C5_7  and  C6_8 
REMARK    3  A    between atoms: C7_10  and  C8_11 
REMARK    4  A    between atoms: C11_14  and  C12_15 
REMARK    5  A    between atoms: C12_15  and  O3_16 
REMARK    6  A    between atoms: C12_15  and  O4_18 
REMARK    7  A    between atoms: C14_20  and  C15_21 
REMARK    8  A    between atoms: C21_34  and  O5_35 
ROOT
HETATM    1  C6  UNL     1      -0.861   3.095   3.364  1.00  0.00     0.103 A 
HETATM    2  O2  UNL     1       0.422   3.225   3.515  1.00  0.00    -0.312 OA
HETATM    3  C7  UNL     1       0.769   3.119   4.788  1.00  0.00     0.069 A 
HETATM    4  C11 UNL     1      -0.358   2.906   5.501  1.00  0.00     0.040 A 
HETATM    5  C14 UNL     1      -1.436   2.886   4.601  1.00  0.00     0.026 A 
ENDROOT
BRANCH   5   6
HETATM    6  C15 UNL     1      -2.856   2.678   4.874  1.00  0.00     0.019 A 
HETATM    7  C16 UNL     1      -3.635   3.656   5.455  1.00  0.00     0.018 A 
HETATM    8  C17 UNL     1      -4.966   3.435   5.709  1.00  0.00     0.034 A 
HETATM    9  C18 UNL     1      -5.542   2.225   5.383  1.00  0.00     0.080 A 
HETATM   10  N1  UNL     1      -6.792   1.713   5.503  1.00  0.00    -0.284 N 
HETATM   11  C19 UNL     1      -4.772   1.244   4.803  1.00  0.00     0.117 A 
HETATM   12  N2  UNL     1      -6.789   0.473   5.018  1.00  0.00    -0.242 N 
ATOM     13  H1  UNL     1      -7.599   2.196   5.898  1.00  0.00     0.188 HD
HETATM   14  N3  UNL     1      -5.586   0.166   4.591  1.00  0.00    -0.281 N 
ATOM     15  H2  UNL     1      -7.600  -0.145   4.982  1.00  0.00     0.208 HD
ATOM     16  H3  UNL     1      -5.307  -0.723   4.174  1.00  0.00     0.188 HD
HETATM   17  C20 UNL     1      -3.439   1.476   4.553  1.00  0.00     0.158 A 
HETATM   18  F2  UNL     1      -2.729   0.462   3.988  1.00  0.00    -0.203 F 
ENDBRANCH   5   6
BRANCH   1  19
HETATM   19  C5  UNL     1      -1.513   3.171   2.057  1.00  0.00     0.071 A 
HETATM   20  C4  UNL     1      -1.509   2.117   1.168  1.00  0.00     0.134 A 
HETATM   21  C3  UNL     1      -2.130   2.213  -0.059  1.00  0.00     0.080 A 
HETATM   22  F1  UNL     1      -0.862   0.987   1.566  1.00  0.00    -0.205 F 
HETATM   23  C2  UNL     1      -2.785   3.357  -0.464  1.00  0.00     0.073 A 
HETATM   24  C23 UNL     1      -2.796   4.420   0.417  1.00  0.00     0.074 A 
HETATM   25  C21 UNL     1      -2.175   4.325   1.646  1.00  0.00     0.086 A 
BRANCH  23  26
HETATM   26  O1  UNL     1      -3.407   3.430  -1.712  1.00  0.00    -0.356 OA
HETATM   27  C1  UNL     1      -4.429   2.589  -2.136  1.00  0.00     0.210 C 
ENDBRANCH  23  26
BRANCH  25  28
HETATM   28  O5  UNL     1      -2.178   5.382   2.540  1.00  0.00    -0.355 OA
HETATM   29  C22 UNL     1      -3.354   6.141   2.707  1.00  0.00     0.210 C 
ENDBRANCH  25  28
ENDBRANCH   1  19
BRANCH   4  30
HETATM   30  C12 UNL     1      -0.560   2.685   6.914  1.00  0.00     0.294 C 
BRANCH  30  31
HETATM   31  O3  UNL     1       0.099   1.463   7.293  1.00  0.00    -0.367 OA
ATOM     32  H3  UNL     1      -0.071   0.804   6.630  1.00  0.00     0.213 HD
ENDBRANCH  30  31
BRANCH  30  33
HETATM   33  O4  UNL     1      -0.112   3.610   7.806  1.00  0.00    -0.362 OA
HETATM   34  C13 UNL     1      -0.868   4.790   7.737  1.00  0.00     0.205 C 
ENDBRANCH  30  33
ENDBRANCH   4  30
BRANCH   3  35
HETATM   35  C8  UNL     1       2.137   3.223   5.279  1.00  0.00     0.035 C 
HETATM   36  C9  UNL     1       2.800   1.839   5.113  1.00  0.00     0.016 C 
HETATM   37  C10 UNL     1       2.994   4.121   4.359  1.00  0.00     0.016 C 
ENDBRANCH   3  35
TORSDOF 8
ENDMDL
MODEL 5
REMARK VINA RESULT: -5.547097173      1.105      1.890
REMARK  8 active torsions:
REMARK  status: ('A' for Active; 'I' for Inactive)
REMARK    1  A    between atoms: O1_2  and  C2_3 
REMARK    2  A    between atoms: C5_7  and  C6_8 
REMARK    3  A    between atoms: C7_10  and  C8_11 
REMARK    4  A    between atoms: C11_14  and  C12_15 
REMARK    5  A    between atoms: C12_15  and  O3_16 
REMARK    6  A    between atoms: C12_15  and  O4_18 
REMARK    7  A    between atoms: C14_20  and  C15_21 
REMARK    8  A    between atoms: C21_34  and  O5_35 
ROOT
HETATM    1  C6  UNL     1      -4.012   1.726   3.828  1.00  0.00     0.103 A 
HETATM    2  O2  UNL     1      -4.834   0.731   3.968  1.00  0.00    -0.312 OA
HETATM    3  C7  UNL     1      -5.557   0.855   5.070  1.00  0.00     0.069 A 
HETATM    4  C11 UNL     1      -5.179   2.000   5.677  1.00  0.00     0.040 A 
HETATM    5  C14 UNL     1      -4.174   2.590   4.893  1.00  0.00     0.026 A 
ENDROOT
BRANCH   5   6
HETATM    6  C15 UNL     1      -3.452   3.841   5.113  1.00  0.00     0.019 A 
HETATM    7  C16 UNL     1      -3.897   5.037   4.593  1.00  0.00     0.018 A 
HETATM    8  C17 UNL     1      -3.198   6.199   4.806  1.00  0.00     0.034 A 
HETATM    9  C18 UNL     1      -2.036   6.181   5.549  1.00  0.00     0.080 A 
HETATM   10  N1  UNL     1      -1.143   7.130   5.927  1.00  0.00    -0.284 N 
HETATM   11  C19 UNL     1      -1.585   4.992   6.071  1.00  0.00     0.117 A 
HETATM   12  N2  UNL     1      -0.188   6.549   6.650  1.00  0.00    -0.242 N 
ATOM     13  H1  UNL     1      -1.196   8.123   5.697  1.00  0.00     0.188 HD
HETATM   14  N3  UNL     1      -0.429   5.262   6.751  1.00  0.00    -0.281 N 
ATOM     15  H2  UNL     1       0.611   7.031   7.063  1.00  0.00     0.208 HD
ATOM     16  H3  UNL     1       0.145   4.582   7.250  1.00  0.00     0.188 HD
HETATM   17  C20 UNL     1      -2.294   3.833   5.851  1.00  0.00     0.158 A 
HETATM   18  F2  UNL     1      -1.790   2.688   6.386  1.00  0.00    -0.203 F 
ENDBRANCH   5   6
BRANCH   1  19
HETATM   19  C5  UNL     1      -3.094   1.838   2.696  1.00  0.00     0.071 A 
HETATM   20  C4  UNL     1      -1.763   1.490   2.788  1.00  0.00     0.134 A 
HETATM   21  C3  UNL     1      -0.916   1.605   1.706  1.00  0.00     0.080 A 
HETATM   22  F1  UNL     1      -1.336   1.030   3.996  1.00  0.00    -0.205 F 
HETATM   23  C2  UNL     1      -1.346   2.071   0.482  1.00  0.00     0.073 A 
HETATM   24  C23 UNL     1      -2.677   2.423   0.377  1.00  0.00     0.074 A 
HETATM   25  C21 UNL     1      -3.526   2.308   1.459  1.00  0.00     0.086 A 
BRANCH  23  26
HETATM   26  O1  UNL     1      -0.470   2.178  -0.599  1.00  0.00    -0.356 OA
HETATM   27  C1  UNL     1       0.535   3.132  -0.710  1.00  0.00     0.210 C 
ENDBRANCH  23  26
BRANCH  25  28
HETATM   28  O5  UNL     1      -4.863   2.658   1.368  1.00  0.00    -0.355 OA
HETATM   29  C22 UNL     1      -5.406   2.984   0.110  1.00  0.00     0.210 C 
ENDBRANCH  25  28
ENDBRANCH   1  19
BRANCH   4  30
HETATM   30  C12 UNL     1      -5.657   2.638   6.882  1.00  0.00     0.294 C 
BRANCH  30  31
HETATM   31  O3  UNL     1      -6.948   3.217   6.621  1.00  0.00    -0.367 OA
ATOM     32  H3  UNL     1      -6.881   3.788   5.865  1.00  0.00     0.213 HD
ENDBRANCH  30  31
BRANCH  30  33
HETATM   33  O4  UNL     1      -5.833   1.893   8.007  1.00  0.00    -0.362 OA
HETATM   34  C13 UNL     1      -7.167   1.933   8.440  1.00  0.00     0.205 C 
ENDBRANCH  30  33
ENDBRANCH   4  30
BRANCH   3  35
HETATM   35  C8  UNL     1      -6.565  -0.104   5.505  1.00  0.00     0.035 C 
HETATM   36  C9  UNL     1      -7.820   0.110   4.631  1.00  0.00     0.016 C 
HETATM   37  C10 UNL     1      -6.150  -1.550   5.154  1.00  0.00     0.016 C 
ENDBRANCH   3  35
TORSDOF 8
ENDMDL
