MODEL 1
REMARK VINA RESULT: -6.290305525      0.000      0.000
REMARK  9 active torsions:
REMARK  status: ('A' for Active; 'I' for Inactive)
REMARK    1  A    between atoms: O1_2  and  C2_3 
REMARK    2  A    between atoms: C4_5  and  N1_6 
REMARK    3  A    between atoms: C5_7  and  O2_8 
REMARK    4  A    between atoms: C7_11  and  S1_12 
REMARK    5  A    between atoms: S1_12  and  C8_13 
REMARK    6  A    between atoms: C12_18  and  C13_19 
REMARK    7  A    between atoms: C17_24  and  O3_25 
REMARK    8  A    between atoms: C19_28  and  O4_29 
REMARK    9  A    between atoms: C21_31  and  O5_32 
ROOT
HETATM    1  N1  UNL     1      -5.477   2.266   1.622  1.00  0.00    -0.271 N 
HETATM    2  C5  UNL     1      -6.762   1.870   1.585  1.00  0.00     0.150 A 
HETATM    3  C6  UNL     1      -7.296   2.239   0.369  1.00  0.00     0.079 A 
HETATM    4  C7  UNL     1      -6.325   2.873  -0.361  1.00  0.00     0.061 A 
HETATM    5  C17 UNL     1      -5.216   2.869   0.447  1.00  0.00     0.166 A 
ENDROOT
BRANCH   1   6
HETATM    6  C4  UNL     1      -4.661   2.103   2.793  1.00  0.00     0.049 A 
HETATM    7  C3  UNL     1      -5.011   2.417   4.061  1.00  0.00     0.070 A 
HETATM    8  C2  UNL     1      -4.211   2.245   5.157  1.00  0.00     0.106 A 
HETATM    9  C21 UNL     1      -2.954   1.693   4.880  1.00  0.00     0.135 A 
HETATM   10  C19 UNL     1      -2.528   1.348   3.623  1.00  0.00     0.106 A 
HETATM   11  C18 UNL     1      -3.408   1.566   2.589  1.00  0.00     0.070 A 
BRANCH   8  12
HETATM   12  O1  UNL     1      -4.577   2.580   6.434  1.00  0.00    -0.353 OA
HETATM   13  C1  UNL     1      -4.797   3.917   6.830  1.00  0.00     0.210 C 
ENDBRANCH   8  12
BRANCH   9  14
HETATM   14  O5  UNL     1      -2.078   1.487   5.953  1.00  0.00    -0.351 OA
HETATM   15  C22 UNL     1      -1.280   2.622   6.306  1.00  0.00     0.210 C 
ENDBRANCH   9  14
BRANCH  10  16
HETATM   16  O4  UNL     1      -1.278   0.811   3.364  1.00  0.00    -0.353 OA
HETATM   17  C20 UNL     1      -0.236   1.674   2.936  1.00  0.00     0.210 C 
ENDBRANCH  10  16
ENDBRANCH   1   6
BRANCH   2  18
HETATM   18  O2  UNL     1      -7.474   1.195   2.596  1.00  0.00    -0.346 OA
ATOM     19  H2  UNL     1      -8.124   1.563   3.183  1.00  0.00     0.219 HD
ENDBRANCH   2  18
BRANCH   5  20
HETATM   20  O3  UNL     1      -3.997   3.417   0.076  1.00  0.00    -0.345 OA
ATOM     21  H3  UNL     1      -3.393   3.863   0.658  1.00  0.00     0.219 HD
ENDBRANCH   5  20
BRANCH   4  22
HETATM   22  S1  UNL     1      -6.512   3.713  -1.969  1.00  0.00    -0.080 SA
BRANCH  22  23
HETATM   23  C8  UNL     1      -6.664   2.353  -3.157  1.00  0.00     0.083 A 
HETATM   24  C9  UNL     1      -5.577   1.472  -3.299  1.00  0.00     0.136 A 
HETATM   25  F1  UNL     1      -4.560   1.609  -2.431  1.00  0.00    -0.205 F 
HETATM   26  C10 UNL     1      -5.633   0.540  -4.305  1.00  0.00     0.044 A 
HETATM   27  C11 UNL     1      -6.671   0.395  -5.187  1.00  0.00     0.013 A 
HETATM   28  C12 UNL     1      -7.732   1.282  -5.008  1.00  0.00    -0.015 A 
HETATM   29  C16 UNL     1      -7.711   2.220  -4.021  1.00  0.00     0.143 A 
HETATM   30  F2  UNL     1      -8.773   3.091  -3.861  1.00  0.00    -0.204 F 
BRANCH  28  31
HETATM   31  C13 UNL     1      -8.975   1.117  -5.778  1.00  0.00     0.013 C 
HETATM   32  C14 UNL     1      -8.561   1.074  -7.252  1.00  0.00     0.015 C 
HETATM   33  C15 UNL     1      -9.515  -0.336  -5.470  1.00  0.00     0.015 C 
ENDBRANCH  28  31
ENDBRANCH  22  23
ENDBRANCH   4  22
TORSDOF 9
ENDMDL
MODEL 2
REMARK VINA RESULT: -6.096949448      2.038      3.071
REMARK  9 active torsions:
REMARK  status: ('A' for Active; 'I' for Inactive)
REMARK    1  A    between atoms: O1_2  and  C2_3 
REMARK    2  A    between atoms: C4_5  and  N1_6 
REMARK    3  A    between atoms: C5_7  and  O2_8 
REMARK    4  A    between atoms: C7_11  and  S1_12 
REMARK    5  A    between atoms: S1_12  and  C8_13 
REMARK    6  A    between atoms: C12_18  and  C13_19 
REMARK    7  A    between atoms: C17_24  and  O3_25 
REMARK    8  A    between atoms: C19_28  and  O4_29 
REMARK    9  A    between atoms: C21_31  and  O5_32 
ROOT
HETATM    1  N1  UNL     1      -6.650   2.122   1.859  1.00  0.00    -0.271 N 
HETATM    2  C5  UNL     1      -7.731   1.534   1.316  1.00  0.00     0.150 A 
HETATM    3  C6  UNL     1      -7.775   1.855  -0.023  1.00  0.00     0.079 A 
HETATM    4  C7  UNL     1      -6.701   2.655  -0.317  1.00  0.00     0.061 A 
HETATM    5  C17 UNL     1      -6.030   2.795   0.873  1.00  0.00     0.166 A 
ENDROOT
BRANCH   1   6
HETATM    6  C4  UNL     1      -6.366   2.049   3.266  1.00  0.00     0.049 A 
HETATM    7  C3  UNL     1      -5.693   1.059   3.895  1.00  0.00     0.070 A 
HETATM    8  C2  UNL     1      -5.435   1.021   5.238  1.00  0.00     0.106 A 
HETATM    9  C21 UNL     1      -5.925   2.121   5.956  1.00  0.00     0.135 A 
HETATM   10  C19 UNL     1      -6.614   3.161   5.389  1.00  0.00     0.106 A 
HETATM   11  C18 UNL     1      -6.823   3.099   4.031  1.00  0.00     0.070 A 
BRANCH   8  12
HETATM   12  O1  UNL     1      -4.761   0.005   5.862  1.00  0.00    -0.353 OA
HETATM   13  C1  UNL     1      -4.911  -1.346   5.480  1.00  0.00     0.210 C 
ENDBRANCH   8  12
BRANCH   9  14
HETATM   14  O5  UNL     1      -5.699   2.153   7.338  1.00  0.00    -0.351 OA
HETATM   15  C22 UNL     1      -6.756   1.606   8.133  1.00  0.00     0.210 C 
ENDBRANCH   9  14
BRANCH  10  16
HETATM   16  O4  UNL     1      -7.099   4.237   6.114  1.00  0.00    -0.353 OA
HETATM   17  C20 UNL     1      -8.502   4.382   6.271  1.00  0.00     0.210 C 
ENDBRANCH  10  16
ENDBRANCH   1   6
BRANCH   2  18
HETATM   18  O2  UNL     1      -8.679   0.724   1.973  1.00  0.00    -0.346 OA
ATOM     19  H2  UNL     1      -9.559   0.969   2.235  1.00  0.00     0.219 HD
ENDBRANCH   2  18
BRANCH   5  20
HETATM   20  O3  UNL     1      -4.866   3.537   1.011  1.00  0.00    -0.345 OA
ATOM     21  H3  UNL     1      -4.055   3.384   0.540  1.00  0.00     0.219 HD
ENDBRANCH   5  20
BRANCH   4  22
HETATM   22  S1  UNL     1      -6.346   3.507  -1.889  1.00  0.00    -0.080 SA
BRANCH  22  23
HETATM   23  C8  UNL     1      -6.555   2.216  -3.143  1.00  0.00     0.083 A 
HETATM   24  C9  UNL     1      -5.509   1.295  -3.328  1.00  0.00     0.136 A 
HETATM   25  F1  UNL     1      -4.488   1.344  -2.454  1.00  0.00    -0.205 F 
HETATM   26  C10 UNL     1      -5.604   0.418  -4.379  1.00  0.00     0.044 A 
HETATM   27  C11 UNL     1      -6.645   0.364  -5.268  1.00  0.00     0.013 A 
HETATM   28  C12 UNL     1      -7.665   1.287  -5.045  1.00  0.00    -0.015 A 
HETATM   29  C16 UNL     1      -7.605   2.173  -4.013  1.00  0.00     0.143 A 
HETATM   30  F2  UNL     1      -8.627   3.082  -3.811  1.00  0.00    -0.204 F 
BRANCH  28  31
HETATM   31  C13 UNL     1      -8.912   1.217  -5.823  1.00  0.00     0.013 C 
HETATM   32  C14 UNL     1      -8.493   1.077  -7.290  1.00  0.00     0.015 C 
HETATM   33  C15 UNL     1      -9.596  -0.163  -5.468  1.00  0.00     0.015 C 
ENDBRANCH  28  31
ENDBRANCH  22  23
ENDBRANCH   4  22
TORSDOF 9
ENDMDL
MODEL 3
REMARK VINA RESULT: -6.006825191      1.941      2.401
REMARK  9 active torsions:
REMARK  status: ('A' for Active; 'I' for Inactive)
REMARK    1  A    between atoms: O1_2  and  C2_3 
REMARK    2  A    between atoms: C4_5  and  N1_6 
REMARK    3  A    between atoms: C5_7  and  O2_8 
REMARK    4  A    between atoms: C7_11  and  S1_12 
REMARK    5  A    between atoms: S1_12  and  C8_13 
REMARK    6  A    between atoms: C12_18  and  C13_19 
REMARK    7  A    between atoms: C17_24  and  O3_25 
REMARK    8  A    between atoms: C19_28  and  O4_29 
REMARK    9  A    between atoms: C21_31  and  O5_32 
ROOT
HETATM    1  N1  UNL     1      -6.659   2.343   1.813  1.00  0.00    -0.271 N 
HETATM    2  C5  UNL     1      -7.627   1.602   1.242  1.00  0.00     0.150 A 
HETATM    3  C6  UNL     1      -7.618   1.845  -0.114  1.00  0.00     0.079 A 
HETATM    4  C7  UNL     1      -6.627   2.750  -0.390  1.00  0.00     0.061 A 
HETATM    5  C17 UNL     1      -6.057   3.033   0.826  1.00  0.00     0.166 A 
ENDROOT
BRANCH   1   6
HETATM    6  C4  UNL     1      -6.463   2.378   3.236  1.00  0.00     0.049 A 
HETATM    7  C3  UNL     1      -7.013   3.265   4.097  1.00  0.00     0.070 A 
HETATM    8  C2  UNL     1      -6.809   3.269   5.449  1.00  0.00     0.106 A 
HETATM    9  C21 UNL     1      -5.966   2.251   5.914  1.00  0.00     0.135 A 
HETATM   10  C19 UNL     1      -5.374   1.316   5.104  1.00  0.00     0.106 A 
HETATM   11  C18 UNL     1      -5.641   1.404   3.758  1.00  0.00     0.070 A 
BRANCH   8  12
HETATM   12  O1  UNL     1      -7.364   4.182   6.306  1.00  0.00    -0.353 OA
HETATM   13  C1  UNL     1      -8.757   4.271   6.516  1.00  0.00     0.210 C 
ENDBRANCH   8  12
BRANCH   9  14
HETATM   14  O5  UNL     1      -5.710   2.190   7.289  1.00  0.00    -0.351 OA
HETATM   15  C22 UNL     1      -6.707   1.511   8.059  1.00  0.00     0.210 C 
ENDBRANCH   9  14
BRANCH  10  16
HETATM   16  O4  UNL     1      -4.536   0.320   5.579  1.00  0.00    -0.353 OA
HETATM   17  C20 UNL     1      -4.951  -1.033   5.474  1.00  0.00     0.210 C 
ENDBRANCH  10  16
ENDBRANCH   1   6
BRANCH   2  18
HETATM   18  O2  UNL     1      -8.517   0.722   1.888  1.00  0.00    -0.346 OA
ATOM     19  H2  UNL     1      -9.174   0.169   1.481  1.00  0.00     0.219 HD
ENDBRANCH   2  18
BRANCH   5  20
HETATM   20  O3  UNL     1      -4.999   3.914   0.989  1.00  0.00    -0.345 OA
ATOM     21  H3  UNL     1      -4.696   4.539   0.341  1.00  0.00     0.219 HD
ENDBRANCH   5  20
BRANCH   4  22
HETATM   22  S1  UNL     1      -6.269   3.555  -1.987  1.00  0.00    -0.080 SA
BRANCH  22  23
HETATM   23  C8  UNL     1      -6.516   2.238  -3.206  1.00  0.00     0.083 A 
HETATM   24  C9  UNL     1      -5.491   1.289  -3.374  1.00  0.00     0.136 A 
HETATM   25  F1  UNL     1      -4.464   1.337  -2.509  1.00  0.00    -0.205 F 
HETATM   26  C10 UNL     1      -5.614   0.387  -4.401  1.00  0.00     0.044 A 
HETATM   27  C11 UNL     1      -6.662   0.334  -5.281  1.00  0.00     0.013 A 
HETATM   28  C12 UNL     1      -7.660   1.286  -5.076  1.00  0.00    -0.015 A 
HETATM   29  C16 UNL     1      -7.573   2.196  -4.067  1.00  0.00     0.143 A 
HETATM   30  F2  UNL     1      -8.573   3.133  -3.882  1.00  0.00    -0.204 F 
BRANCH  28  31
HETATM   31  C13 UNL     1      -8.914   1.223  -5.843  1.00  0.00     0.013 C 
HETATM   32  C14 UNL     1      -8.508   1.073  -7.313  1.00  0.00     0.015 C 
HETATM   33  C15 UNL     1      -9.608  -0.148  -5.476  1.00  0.00     0.015 C 
ENDBRANCH  28  31
ENDBRANCH  22  23
ENDBRANCH   4  22
TORSDOF 9
ENDMDL
MODEL 4
REMARK VINA RESULT: -6.004319537      0.522      2.263
REMARK  9 active torsions:
REMARK  status: ('A' for Active; 'I' for Inactive)
REMARK    1  A    between atoms: O1_2  and  C2_3 
REMARK    2  A    between atoms: C4_5  and  N1_6 
REMARK    3  A    between atoms: C5_7  and  O2_8 
REMARK    4  A    between atoms: C7_11  and  S1_12 
REMARK    5  A    between atoms: S1_12  and  C8_13 
REMARK    6  A    between atoms: C12_18  and  C13_19 
REMARK    7  A    between atoms: C17_24  and  O3_25 
REMARK    8  A    between atoms: C19_28  and  O4_29 
REMARK    9  A    between atoms: C21_31  and  O5_32 
ROOT
HETATM    1  N1  UNL     1      -5.378   2.453   1.528  1.00  0.00    -0.271 N 
HETATM    2  C5  UNL     1      -6.643   1.997   1.490  1.00  0.00     0.150 A 
HETATM    3  C6  UNL     1      -7.183   2.313   0.261  1.00  0.00     0.079 A 
HETATM    4  C7  UNL     1      -6.236   2.974  -0.476  1.00  0.00     0.061 A 
HETATM    5  C17 UNL     1      -5.134   3.040   0.341  1.00  0.00     0.166 A 
ENDROOT
BRANCH   1   6
HETATM    6  C4  UNL     1      -4.566   2.355   2.709  1.00  0.00     0.049 A 
HETATM    7  C3  UNL     1      -3.420   1.648   2.835  1.00  0.00     0.070 A 
HETATM    8  C2  UNL     1      -2.666   1.579   3.974  1.00  0.00     0.106 A 
HETATM    9  C21 UNL     1      -3.169   2.322   5.051  1.00  0.00     0.135 A 
HETATM   10  C19 UNL     1      -4.321   3.064   4.999  1.00  0.00     0.106 A 
HETATM   11  C18 UNL     1      -5.006   3.062   3.807  1.00  0.00     0.070 A 
BRANCH   8  12
HETATM   12  O1  UNL     1      -1.514   0.848   4.089  1.00  0.00    -0.353 OA
HETATM   13  C1  UNL     1      -0.261   1.343   3.666  1.00  0.00     0.210 C 
ENDBRANCH   8  12
BRANCH   9  14
HETATM   14  O5  UNL     1      -2.451   2.301   6.253  1.00  0.00    -0.351 OA
HETATM   15  C22 UNL     1      -1.567   3.409   6.447  1.00  0.00     0.210 C 
ENDBRANCH   9  14
BRANCH  10  16
HETATM   16  O4  UNL     1      -4.809   3.786   6.075  1.00  0.00    -0.353 OA
HETATM   17  C20 UNL     1      -5.836   3.219   6.874  1.00  0.00     0.210 C 
ENDBRANCH  10  16
ENDBRANCH   1   6
BRANCH   2  18
HETATM   18  O2  UNL     1      -7.332   1.313   2.511  1.00  0.00    -0.346 OA
ATOM     19  H2  UNL     1      -7.221   0.406   2.770  1.00  0.00     0.219 HD
ENDBRANCH   2  18
BRANCH   5  20
HETATM   20  O3  UNL     1      -3.939   3.636  -0.033  1.00  0.00    -0.345 OA
ATOM     21  H3  UNL     1      -3.792   4.122  -0.836  1.00  0.00     0.219 HD
ENDBRANCH   5  20
BRANCH   4  22
HETATM   22  S1  UNL     1      -6.447   3.767  -2.104  1.00  0.00    -0.080 SA
BRANCH  22  23
HETATM   23  C8  UNL     1      -6.628   2.373  -3.248  1.00  0.00     0.083 A 
HETATM   24  C9  UNL     1      -5.561   1.465  -3.361  1.00  0.00     0.136 A 
HETATM   25  F1  UNL     1      -4.541   1.608  -2.496  1.00  0.00    -0.205 F 
HETATM   26  C10 UNL     1      -5.636   0.503  -4.336  1.00  0.00     0.044 A 
HETATM   27  C11 UNL     1      -6.676   0.353  -5.215  1.00  0.00     0.013 A 
HETATM   28  C12 UNL     1      -7.718   1.268  -5.066  1.00  0.00    -0.015 A 
HETATM   29  C16 UNL     1      -7.677   2.236  -4.109  1.00  0.00     0.143 A 
HETATM   30  F2  UNL     1      -8.719   3.135  -3.979  1.00  0.00    -0.204 F 
BRANCH  28  31
HETATM   31  C13 UNL     1      -8.963   1.106  -5.832  1.00  0.00     0.013 C 
HETATM   32  C14 UNL     1      -8.549   1.007  -7.304  1.00  0.00     0.015 C 
HETATM   33  C15 UNL     1      -9.536  -0.324  -5.479  1.00  0.00     0.015 C 
ENDBRANCH  28  31
ENDBRANCH  22  23
ENDBRANCH   4  22
TORSDOF 9
ENDMDL
MODEL 5
REMARK VINA RESULT: -5.944715892      2.579      4.262
REMARK  9 active torsions:
REMARK  status: ('A' for Active; 'I' for Inactive)
REMARK    1  A    between atoms: O1_2  and  C2_3 
REMARK    2  A    between atoms: C4_5  and  N1_6 
REMARK    3  A    between atoms: C5_7  and  O2_8 
REMARK    4  A    between atoms: C7_11  and  S1_12 
REMARK    5  A    between atoms: S1_12  and  C8_13 
REMARK    6  A    between atoms: C12_18  and  C13_19 
REMARK    7  A    between atoms: C17_24  and  O3_25 
REMARK    8  A    between atoms: C19_28  and  O4_29 
REMARK    9  A    between atoms: C21_31  and  O5_32 
ROOT
HETATM    1  N1  UNL     1      -1.437   3.434   0.438  1.00  0.00    -0.271 N 
HETATM    2  C5  UNL     1      -0.953   3.076  -0.765  1.00  0.00     0.150 A 
HETATM    3  C6  UNL     1      -1.638   3.776  -1.735  1.00  0.00     0.079 A 
HETATM    4  C7  UNL     1      -2.561   4.583  -1.123  1.00  0.00     0.061 A 
HETATM    5  C17 UNL     1      -2.405   4.343   0.219  1.00  0.00     0.166 A 
ENDROOT
BRANCH   1   6
HETATM    6  C4  UNL     1      -0.988   2.818   1.656  1.00  0.00     0.049 A 
HETATM    7  C3  UNL     1       0.210   3.010   2.254  1.00  0.00     0.070 A 
HETATM    8  C2  UNL     1       0.606   2.410   3.418  1.00  0.00     0.106 A 
HETATM    9  C21 UNL     1      -0.346   1.552   3.984  1.00  0.00     0.135 A 
HETATM   10  C19 UNL     1      -1.580   1.308   3.438  1.00  0.00     0.106 A 
HETATM   11  C18 UNL     1      -1.877   1.958   2.264  1.00  0.00     0.070 A 
BRANCH   8  12
HETATM   12  O1  UNL     1       1.828   2.606   4.005  1.00  0.00    -0.353 OA
HETATM   13  C1  UNL     1       2.172   3.815   4.647  1.00  0.00     0.210 C 
ENDBRANCH   8  12
BRANCH   9  14
HETATM   14  O5  UNL     1      -0.012   0.900   5.178  1.00  0.00    -0.351 OA
HETATM   15  C22 UNL     1      -0.351   1.615   6.370  1.00  0.00     0.210 C 
ENDBRANCH   9  14
BRANCH  10  16
HETATM   16  O4  UNL     1      -2.507   0.450   4.006  1.00  0.00    -0.353 OA
HETATM   17  C20 UNL     1      -3.741   0.979   4.464  1.00  0.00     0.210 C 
ENDBRANCH  10  16
ENDBRANCH   1   6
BRANCH   2  18
HETATM   18  O2  UNL     1       0.073   2.148  -1.028  1.00  0.00    -0.346 OA
ATOM     19  H2  UNL     1       0.667   2.143  -1.770  1.00  0.00     0.219 HD
ENDBRANCH   2  18
BRANCH   5  20
HETATM   20  O3  UNL     1      -3.156   4.972   1.201  1.00  0.00    -0.345 OA
ATOM     21  H3  UNL     1      -4.030   4.717   1.475  1.00  0.00     0.219 HD
ENDBRANCH   5  20
BRANCH   4  22
HETATM   22  S1  UNL     1      -3.847   5.603  -1.917  1.00  0.00    -0.080 SA
BRANCH  22  23
HETATM   23  C8  UNL     1      -5.239   4.462  -2.131  1.00  0.00     0.083 A 
HETATM   24  C9  UNL     1      -6.175   4.355  -1.087  1.00  0.00     0.136 A 
HETATM   25  F1  UNL     1      -6.056   5.222  -0.066  1.00  0.00    -0.205 F 
HETATM   26  C10 UNL     1      -7.138   3.382  -1.185  1.00  0.00     0.044 A 
HETATM   27  C11 UNL     1      -7.263   2.501  -2.226  1.00  0.00     0.013 A 
HETATM   28  C12 UNL     1      -6.321   2.644  -3.244  1.00  0.00    -0.015 A 
HETATM   29  C16 UNL     1      -5.351   3.599  -3.181  1.00  0.00     0.143 A 
HETATM   30  F2  UNL     1      -4.425   3.723  -4.200  1.00  0.00    -0.204 F 
BRANCH  28  31
HETATM   31  C13 UNL     1      -6.453   1.876  -4.492  1.00  0.00     0.013 C 
HETATM   32  C14 UNL     1      -5.792   0.518  -4.228  1.00  0.00     0.015 C 
HETATM   33  C15 UNL     1      -7.988   1.547  -4.667  1.00  0.00     0.015 C 
ENDBRANCH  28  31
ENDBRANCH  22  23
ENDBRANCH   4  22
TORSDOF 9
ENDMDL
