MODEL 1
REMARK VINA RESULT: -6.701144874      0.000      0.000
REMARK  7 active torsions:
REMARK  status: ('A' for Active; 'I' for Inactive)
REMARK    1  A    between atoms: C2_2  and  C3_3 
REMARK    2  A    between atoms: C3_3  and  C4_4 
REMARK    3  A    between atoms: C4_4  and  C5_5 
REMARK    4  A    between atoms: C5_5  and  C6_6 
REMARK    5  A    between atoms: C11_11  and  C12_12 
REMARK       I    between atoms: C12_12  and  N1_14 
REMARK    6  A    between atoms: N1_14  and  C13_16 
REMARK    7  A    between atoms: C14_21  and  C15_22 
ROOT
HETATM    1  C6  UNL     1     -14.706  -3.425  -1.306  1.00  0.00     0.187 C 
HETATM    2  C7  UNL     1     -15.351  -3.853  -0.038  1.00  0.00     0.033 C 
HETATM    3  C8  UNL     1     -14.853  -2.953   1.087  1.00  0.00     0.002 C 
HETATM    4  C9  UNL     1     -13.448  -3.306   1.448  1.00  0.00     0.003 C 
HETATM    5  C10 UNL     1     -12.459  -3.228   0.347  1.00  0.00     0.043 C 
HETATM    6  C11 UNL     1     -12.739  -2.193  -0.695  1.00  0.00     0.277 C 
HETATM    7  N4  UNL     1     -14.107  -2.109  -1.084  1.00  0.00    -0.058 N 
ATOM      8  H41 UNL     1     -14.648  -1.567  -0.410  1.00  0.00     0.278 HD
ATOM      9  H42 UNL     1     -14.220  -1.511  -1.902  1.00  0.00     0.278 HD
ENDROOT
BRANCH   6  10
HETATM   10  C12 UNL     1     -12.295  -0.880  -0.178  1.00  0.00     0.254 C 
HETATM   11  O1  UNL     1     -13.157  -0.060   0.214  1.00  0.00    -0.271 OA
HETATM   12  N1  UNL     1     -10.945  -0.498  -0.102  1.00  0.00    -0.304 N 
ATOM     13  H1  UNL     1     -10.310  -0.926   0.571  1.00  0.00     0.171 HD
BRANCH  12  14
HETATM   14  C13 UNL     1     -10.535   0.433  -0.933  1.00  0.00     0.167 A 
HETATM   15  N2  UNL     1      -9.695   1.446  -0.700  1.00  0.00    -0.279 N 
HETATM   16  N3  UNL     1      -9.424   2.244  -1.649  1.00  0.00    -0.296 N 
ATOM     17  H2  UNL     1      -9.279   1.576   0.222  1.00  0.00     0.189 HD
HETATM   18  C14 UNL     1      -9.969   2.069  -2.844  1.00  0.00     0.069 A 
ATOM     19  H3  UNL     1      -8.784   3.023  -1.492  1.00  0.00     0.187 HD
HETATM   20  S1  UNL     1     -10.923   0.676  -2.580  1.00  0.00    -0.038 SA
BRANCH  18  21
HETATM   21  C15 UNL     1      -9.771   2.906  -4.087  1.00  0.00     0.062 C 
HETATM   22  C16 UNL     1     -11.141   2.923  -4.773  1.00  0.00     0.012 C 
ENDBRANCH  18  21
ENDBRANCH  12  14
ENDBRANCH   6  10
BRANCH   1  23
HETATM   23  C5  UNL     1     -15.664  -3.357  -2.442  1.00  0.00     0.033 C 
BRANCH  23  24
HETATM   24  C4  UNL     1     -15.786  -2.122  -3.219  1.00  0.00     0.002 C 
BRANCH  24  25
HETATM   25  C3  UNL     1     -17.059  -1.816  -3.941  1.00  0.00    -0.000 C 
BRANCH  25  26
HETATM   26  C2  UNL     1     -16.905  -0.519  -4.761  1.00  0.00    -0.005 C 
HETATM   27  C1  UNL     1     -16.624   0.610  -3.809  1.00  0.00     0.005 C 
ENDBRANCH  25  26
ENDBRANCH  24  25
ENDBRANCH  23  24
ENDBRANCH   1  23
TORSDOF 7
ENDMDL
MODEL 2
REMARK VINA RESULT: -6.597169477      1.217      1.425
REMARK  7 active torsions:
REMARK  status: ('A' for Active; 'I' for Inactive)
REMARK    1  A    between atoms: C2_2  and  C3_3 
REMARK    2  A    between atoms: C3_3  and  C4_4 
REMARK    3  A    between atoms: C4_4  and  C5_5 
REMARK    4  A    between atoms: C5_5  and  C6_6 
REMARK    5  A    between atoms: C11_11  and  C12_12 
REMARK       I    between atoms: C12_12  and  N1_14 
REMARK    6  A    between atoms: N1_14  and  C13_16 
REMARK    7  A    between atoms: C14_21  and  C15_22 
ROOT
HETATM    1  C6  UNL     1     -15.038  -4.127  -0.923  1.00  0.00     0.187 C 
HETATM    2  C7  UNL     1     -15.636  -4.350   0.418  1.00  0.00     0.033 C 
HETATM    3  C8  UNL     1     -15.164  -3.239   1.349  1.00  0.00     0.002 C 
HETATM    4  C9  UNL     1     -13.737  -3.452   1.728  1.00  0.00     0.003 C 
HETATM    5  C10 UNL     1     -12.773  -3.526   0.604  1.00  0.00     0.043 C 
HETATM    6  C11 UNL     1     -13.128  -2.712  -0.599  1.00  0.00     0.277 C 
HETATM    7  N4  UNL     1     -14.506  -2.766  -0.958  1.00  0.00    -0.058 N 
ATOM      8  H41 UNL     1     -15.062  -2.138  -0.378  1.00  0.00     0.278 HD
ATOM      9  H42 UNL     1     -14.666  -2.332  -1.867  1.00  0.00     0.278 HD
ENDROOT
BRANCH   6  10
HETATM   10  C12 UNL     1     -12.744  -1.306  -0.340  1.00  0.00     0.254 C 
HETATM   11  O1  UNL     1     -13.636  -0.482  -0.030  1.00  0.00    -0.271 OA
HETATM   12  N1  UNL     1     -11.422  -0.841  -0.422  1.00  0.00    -0.304 N 
ATOM     13  H1  UNL     1     -10.720  -1.112   0.267  1.00  0.00     0.171 HD
BRANCH  12  14
HETATM   14  C13 UNL     1     -11.125  -0.043  -1.422  1.00  0.00     0.167 A 
HETATM   15  N2  UNL     1     -11.612  -0.049  -2.667  1.00  0.00    -0.279 N 
HETATM   16  N3  UNL     1     -11.188   0.817  -3.492  1.00  0.00    -0.296 N 
ATOM     17  H2  UNL     1     -12.310  -0.737  -2.948  1.00  0.00     0.189 HD
HETATM   18  C14 UNL     1     -10.281   1.706  -3.119  1.00  0.00     0.069 A 
ATOM     19  H3  UNL     1     -11.549   0.829  -4.447  1.00  0.00     0.187 HD
HETATM   20  S1  UNL     1     -10.026   1.266  -1.487  1.00  0.00    -0.038 SA
BRANCH  18  21
HETATM   21  C15 UNL     1      -9.660   2.806  -3.950  1.00  0.00     0.062 C 
HETATM   22  C16 UNL     1      -8.805   3.610  -2.965  1.00  0.00     0.012 C 
ENDBRANCH  18  21
ENDBRANCH  12  14
ENDBRANCH   6  10
BRANCH   1  23
HETATM   23  C5  UNL     1     -16.020  -4.313  -2.026  1.00  0.00     0.033 C 
BRANCH  23  24
HETATM   24  C4  UNL     1     -15.755  -3.731  -3.342  1.00  0.00     0.002 C 
BRANCH  24  25
HETATM   25  C3  UNL     1     -16.764  -2.830  -3.978  1.00  0.00    -0.000 C 
BRANCH  25  26
HETATM   26  C2  UNL     1     -16.462  -1.359  -3.623  1.00  0.00    -0.005 C 
HETATM   27  C1  UNL     1     -16.933  -0.494  -4.758  1.00  0.00     0.005 C 
ENDBRANCH  25  26
ENDBRANCH  24  25
ENDBRANCH  23  24
ENDBRANCH   1  23
TORSDOF 7
ENDMDL
MODEL 3
REMARK VINA RESULT: -6.437294589      0.822      1.300
REMARK  7 active torsions:
REMARK  status: ('A' for Active; 'I' for Inactive)
REMARK    1  A    between atoms: C2_2  and  C3_3 
REMARK    2  A    between atoms: C3_3  and  C4_4 
REMARK    3  A    between atoms: C4_4  and  C5_5 
REMARK    4  A    between atoms: C5_5  and  C6_6 
REMARK    5  A    between atoms: C11_11  and  C12_12 
REMARK       I    between atoms: C12_12  and  N1_14 
REMARK    6  A    between atoms: N1_14  and  C13_16 
REMARK    7  A    between atoms: C14_21  and  C15_22 
ROOT
HETATM    1  C6  UNL     1     -14.634  -3.625  -1.198  1.00  0.00     0.187 C 
HETATM    2  C7  UNL     1     -15.288  -4.020   0.076  1.00  0.00     0.033 C 
HETATM    3  C8  UNL     1     -14.867  -3.036   1.161  1.00  0.00     0.002 C 
HETATM    4  C9  UNL     1     -13.456  -3.292   1.573  1.00  0.00     0.003 C 
HETATM    5  C10 UNL     1     -12.443  -3.218   0.493  1.00  0.00     0.043 C 
HETATM    6  C11 UNL     1     -12.751  -2.257  -0.610  1.00  0.00     0.277 C 
HETATM    7  N4  UNL     1     -14.112  -2.268  -1.035  1.00  0.00    -0.058 N 
ATOM      8  H41 UNL     1     -14.698  -1.722  -0.404  1.00  0.00     0.278 HD
ATOM      9  H42 UNL     1     -14.236  -1.722  -1.887  1.00  0.00     0.278 HD
ENDROOT
BRANCH   6  10
HETATM   10  C12 UNL     1     -12.392  -0.896  -0.156  1.00  0.00     0.254 C 
HETATM   11  O1  UNL     1     -13.308  -0.085   0.114  1.00  0.00    -0.271 OA
HETATM   12  N1  UNL     1     -11.065  -0.458  -0.009  1.00  0.00    -0.304 N 
ATOM     13  H1  UNL     1     -10.468  -0.815   0.737  1.00  0.00     0.171 HD
BRANCH  12  14
HETATM   14  C13 UNL     1     -10.625   0.430  -0.871  1.00  0.00     0.167 A 
HETATM   15  N2  UNL     1      -9.707   1.385  -0.689  1.00  0.00    -0.279 N 
HETATM   16  N3  UNL     1      -9.420   2.149  -1.661  1.00  0.00    -0.296 N 
ATOM     17  H2  UNL     1      -9.247   1.498   0.214  1.00  0.00     0.189 HD
HETATM   18  C14 UNL     1     -10.024   1.996  -2.830  1.00  0.00     0.069 A 
ATOM     19  H3  UNL     1      -8.722   2.883  -1.542  1.00  0.00     0.187 HD
HETATM   20  S1  UNL     1     -11.062   0.677  -2.506  1.00  0.00    -0.038 SA
BRANCH  18  21
HETATM   21  C15 UNL     1      -9.819   2.799  -4.094  1.00  0.00     0.062 C 
HETATM   22  C16 UNL     1     -11.221   2.961  -4.690  1.00  0.00     0.012 C 
ENDBRANCH  18  21
ENDBRANCH  12  14
ENDBRANCH   6  10
BRANCH   1  23
HETATM   23  C5  UNL     1     -15.564  -3.670  -2.358  1.00  0.00     0.033 C 
BRANCH  23  24
HETATM   24  C4  UNL     1     -15.866  -2.444  -3.098  1.00  0.00     0.002 C 
BRANCH  24  25
HETATM   25  C3  UNL     1     -16.899  -2.457  -4.179  1.00  0.00    -0.000 C 
BRANCH  25  26
HETATM   26  C2  UNL     1     -16.880  -3.813  -4.914  1.00  0.00    -0.005 C 
HETATM   27  C1  UNL     1     -17.750  -3.700  -6.134  1.00  0.00     0.005 C 
ENDBRANCH  25  26
ENDBRANCH  24  25
ENDBRANCH  23  24
ENDBRANCH   1  23
TORSDOF 7
ENDMDL
MODEL 4
REMARK VINA RESULT: -6.260824577      5.317      8.273
REMARK  7 active torsions:
REMARK  status: ('A' for Active; 'I' for Inactive)
REMARK    1  A    between atoms: C2_2  and  C3_3 
REMARK    2  A    between atoms: C3_3  and  C4_4 
REMARK    3  A    between atoms: C4_4  and  C5_5 
REMARK    4  A    between atoms: C5_5  and  C6_6 
REMARK    5  A    between atoms: C11_11  and  C12_12 
REMARK       I    between atoms: C12_12  and  N1_14 
REMARK    6  A    between atoms: N1_14  and  C13_16 
REMARK    7  A    between atoms: C14_21  and  C15_22 
ROOT
HETATM    1  C6  UNL     1     -12.788  -2.618   0.393  1.00  0.00     0.187 C 
HETATM    2  C7  UNL     1     -14.258  -2.411   0.347  1.00  0.00     0.033 C 
HETATM    3  C8  UNL     1     -14.902  -3.268   1.430  1.00  0.00     0.002 C 
HETATM    4  C9  UNL     1     -14.890  -4.705   1.028  1.00  0.00     0.003 C 
HETATM    5  C10 UNL     1     -13.557  -5.285   0.741  1.00  0.00     0.043 C 
HETATM    6  C11 UNL     1     -12.422  -4.704   1.523  1.00  0.00     0.277 C 
HETATM    7  N4  UNL     1     -12.467  -3.286   1.654  1.00  0.00    -0.058 N 
ATOM      8  H41 UNL     1     -13.112  -3.005   2.393  1.00  0.00     0.278 HD
ATOM      9  H42 UNL     1     -11.599  -2.926   2.049  1.00  0.00     0.278 HD
ENDROOT
BRANCH   6  10
HETATM   10  C12 UNL     1     -12.420  -5.321   2.867  1.00  0.00     0.254 C 
HETATM   11  O1  UNL     1     -12.076  -4.626   3.852  1.00  0.00    -0.271 OA
HETATM   12  N1  UNL     1     -12.785  -6.656   3.103  1.00  0.00    -0.304 N 
ATOM     13  H1  UNL     1     -13.753  -6.965   3.014  1.00  0.00     0.171 HD
BRANCH  12  14
HETATM   14  C13 UNL     1     -11.830  -7.491   3.444  1.00  0.00     0.167 A 
HETATM   15  N2  UNL     1     -10.874  -7.333   4.364  1.00  0.00    -0.279 N 
HETATM   16  N3  UNL     1     -10.037  -8.271   4.542  1.00  0.00    -0.296 N 
ATOM     17  H2  UNL     1     -10.817  -6.476   4.913  1.00  0.00     0.189 HD
HETATM   18  C14 UNL     1     -10.118  -9.382   3.825  1.00  0.00     0.069 A 
ATOM     19  H3  UNL     1      -9.300  -8.170   5.240  1.00  0.00     0.187 HD
HETATM   20  S1  UNL     1     -11.476  -9.051   2.840  1.00  0.00    -0.038 SA
BRANCH  18  21
HETATM   21  C15 UNL     1      -9.223 -10.598   3.891  1.00  0.00     0.062 C 
HETATM   22  C16 UNL     1      -9.857 -11.608   2.929  1.00  0.00     0.012 C 
ENDBRANCH  18  21
ENDBRANCH  12  14
ENDBRANCH   6  10
BRANCH   1  23
HETATM   23  C5  UNL     1     -12.026  -1.345   0.289  1.00  0.00     0.033 C 
BRANCH  23  24
HETATM   24  C4  UNL     1     -11.872  -0.692  -1.011  1.00  0.00     0.002 C 
BRANCH  24  25
HETATM   25  C3  UNL     1     -10.687   0.181  -1.274  1.00  0.00    -0.000 C 
BRANCH  25  26
HETATM   26  C2  UNL     1     -10.619   0.548  -2.770  1.00  0.00    -0.005 C 
HETATM   27  C1  UNL     1      -9.897   1.860  -2.901  1.00  0.00     0.005 C 
ENDBRANCH  25  26
ENDBRANCH  24  25
ENDBRANCH  23  24
ENDBRANCH   1  23
TORSDOF 7
ENDMDL
MODEL 5
REMARK VINA RESULT: -6.185754213      3.124      4.367
REMARK  7 active torsions:
REMARK  status: ('A' for Active; 'I' for Inactive)
REMARK    1  A    between atoms: C2_2  and  C3_3 
REMARK    2  A    between atoms: C3_3  and  C4_4 
REMARK    3  A    between atoms: C4_4  and  C5_5 
REMARK    4  A    between atoms: C5_5  and  C6_6 
REMARK    5  A    between atoms: C11_11  and  C12_12 
REMARK       I    between atoms: C12_12  and  N1_14 
REMARK    6  A    between atoms: N1_14  and  C13_16 
REMARK    7  A    between atoms: C14_21  and  C15_22 
ROOT
HETATM    1  C6  UNL     1     -16.513  -5.183  -4.663  1.00  0.00     0.187 C 
HETATM    2  C7  UNL     1     -17.694  -5.669  -3.905  1.00  0.00     0.033 C 
HETATM    3  C8  UNL     1     -17.886  -4.776  -2.685  1.00  0.00     0.002 C 
HETATM    4  C9  UNL     1     -16.849  -5.078  -1.655  1.00  0.00     0.003 C 
HETATM    5  C10 UNL     1     -15.441  -4.930  -2.093  1.00  0.00     0.043 C 
HETATM    6  C11 UNL     1     -15.198  -3.884  -3.132  1.00  0.00     0.277 C 
HETATM    7  N4  UNL     1     -16.177  -3.849  -4.167  1.00  0.00    -0.058 N 
ATOM      8  H41 UNL     1     -17.013  -3.347  -3.867  1.00  0.00     0.278 HD
ATOM      9  H42 UNL     1     -15.884  -3.237  -4.929  1.00  0.00     0.278 HD
ENDROOT
BRANCH   6  10
HETATM   10  C12 UNL     1     -15.147  -2.566  -2.462  1.00  0.00     0.254 C 
HETATM   11  O1  UNL     1     -15.854  -1.632  -2.907  1.00  0.00    -0.271 OA
HETATM   12  N1  UNL     1     -14.339  -2.300  -1.344  1.00  0.00    -0.304 N 
ATOM     13  H1  UNL     1     -14.547  -2.705  -0.432  1.00  0.00     0.171 HD
BRANCH  12  14
HETATM   14  C13 UNL     1     -13.304  -1.511  -1.522  1.00  0.00     0.167 A 
HETATM   15  N2  UNL     1     -12.917  -0.882  -2.636  1.00  0.00    -0.279 N 
HETATM   16  N3  UNL     1     -11.875  -0.157  -2.597  1.00  0.00    -0.296 N 
ATOM     17  H2  UNL     1     -13.447  -0.982  -3.501  1.00  0.00     0.189 HD
HETATM   18  C14 UNL     1     -11.192  -0.033  -1.469  1.00  0.00     0.069 A 
ATOM     19  H3  UNL     1     -11.564   0.332  -3.436  1.00  0.00     0.187 HD
HETATM   20  S1  UNL     1     -12.104  -1.017  -0.409  1.00  0.00    -0.038 SA
BRANCH  18  21
HETATM   21  C15 UNL     1      -9.939   0.777  -1.226  1.00  0.00     0.062 C 
HETATM   22  C16 UNL     1      -9.856   1.741  -2.415  1.00  0.00     0.012 C 
ENDBRANCH  18  21
ENDBRANCH  12  14
ENDBRANCH   6  10
BRANCH   1  23
HETATM   23  C5  UNL     1     -16.756  -5.128  -6.130  1.00  0.00     0.033 C 
BRANCH  23  24
HETATM   24  C4  UNL     1     -17.825  -5.934  -6.722  1.00  0.00     0.002 C 
BRANCH  24  25
HETATM   25  C3  UNL     1     -18.919  -5.271  -7.496  1.00  0.00    -0.000 C 
BRANCH  25  26
HETATM   26  C2  UNL     1     -18.744  -3.739  -7.457  1.00  0.00    -0.005 C 
HETATM   27  C1  UNL     1     -19.083  -3.192  -8.816  1.00  0.00     0.005 C 
ENDBRANCH  25  26
ENDBRANCH  24  25
ENDBRANCH  23  24
ENDBRANCH   1  23
TORSDOF 7
ENDMDL
