MODEL 1
REMARK VINA RESULT: -6.502645988      0.000      0.000
REMARK  6 active torsions:
REMARK  status: ('A' for Active; 'I' for Inactive)
REMARK    1  A    between atoms: C2_2  and  C3_3 
REMARK    2  A    between atoms: C3_3  and  N1_4 
REMARK    3  A    between atoms: N1_4  and  C5_6 
REMARK    4  A    between atoms: C5_6  and  C6_7 
REMARK    5  A    between atoms: C8_9  and  C9_10 
REMARK    6  A    between atoms: C11_12  and  C12_13 
ROOT
HETATM    1  C6  UNL     1     -15.668  -5.082  -0.075  1.00  0.00     0.026 C 
HETATM    2  C7  UNL     1     -14.660  -4.085   0.469  1.00  0.00     0.045 C 
HETATM    3  C8  UNL     1     -14.772  -2.735  -0.178  1.00  0.00     0.173 C 
HETATM    4  O1  UNL     1     -15.176  -2.896  -1.493  1.00  0.00    -0.379 OA
HETATM    5  C15 UNL     1     -14.613  -4.041  -2.001  1.00  0.00     0.177 C 
HETATM    6  C16 UNL     1     -15.536  -5.188  -1.562  1.00  0.00    -0.021 C 
HETATM    7  C17 UNL     1     -16.847  -4.966  -2.280  1.00  0.00     0.017 C 
HETATM    8  C18 UNL     1     -14.915  -6.453  -2.049  1.00  0.00     0.017 C 
ENDROOT
BRANCH   3   9
HETATM    9  C9  UNL     1     -13.428  -2.057  -0.255  1.00  0.00     0.057 A 
HETATM   10  C10 UNL     1     -13.038  -1.052  -1.115  1.00  0.00     0.061 A 
HETATM   11  C11 UNL     1     -11.729  -0.708  -0.856  1.00  0.00     0.063 A 
HETATM   12  N4  UNL     1     -11.350  -1.509   0.155  1.00  0.00    -0.300 N 
HETATM   13  N5  UNL     1     -12.347  -2.314   0.520  1.00  0.00    -0.302 N 
ATOM     14  H4  UNL     1     -10.424  -1.501   0.583  1.00  0.00     0.187 HD
ATOM     15  H5  UNL     1     -12.303  -3.011   1.264  1.00  0.00     0.186 HD
BRANCH  11  16
HETATM   16  C12 UNL     1     -10.901   0.299  -1.508  1.00  0.00     0.026 A 
HETATM   17  C13 UNL     1      -9.978   1.150  -0.943  1.00  0.00     0.122 A 
HETATM   18  N2  UNL     1      -9.422   1.931  -1.882  1.00  0.00    -0.311 N 
HETATM   19  N3  UNL     1      -9.986   1.585  -3.044  1.00  0.00    -0.311 N 
ATOM     20  H2  UNL     1      -8.710   2.647  -1.738  1.00  0.00     0.186 HD
HETATM   21  C14 UNL     1     -10.888   0.599  -2.855  1.00  0.00     0.122 A 
ATOM     22  H3  UNL     1      -9.765   2.007  -3.946  1.00  0.00     0.186 HD
ENDBRANCH  11  16
ENDBRANCH   3   9
BRANCH   1  23
HETATM   23  C5  UNL     1     -15.510  -6.396   0.632  1.00  0.00     0.277 C 
BRANCH  23  24
HETATM   24  N1  UNL     1     -14.533  -6.357   1.694  1.00  0.00     0.084 N 
HETATM   25  C4  UNL     1     -15.196  -6.455   2.980  1.00  0.00     0.309 C 
BRANCH  24  26
HETATM   26  C3  UNL     1     -13.620  -7.448   1.565  1.00  0.00     0.271 C 
BRANCH  26  27
HETATM   27  C2  UNL     1     -12.415  -7.175   0.719  1.00  0.00     0.026 C 
HETATM   28  C1  UNL     1     -11.639  -6.052   1.423  1.00  0.00     0.007 C 
ENDBRANCH  26  27
ENDBRANCH  24  26
ENDBRANCH  23  24
ENDBRANCH   1  23
TORSDOF 6
ENDMDL
MODEL 2
REMARK VINA RESULT: -6.464759505      0.966      1.160
REMARK  6 active torsions:
REMARK  status: ('A' for Active; 'I' for Inactive)
REMARK    1  A    between atoms: C2_2  and  C3_3 
REMARK    2  A    between atoms: C3_3  and  N1_4 
REMARK    3  A    between atoms: N1_4  and  C5_6 
REMARK    4  A    between atoms: C5_6  and  C6_7 
REMARK    5  A    between atoms: C8_9  and  C9_10 
REMARK    6  A    between atoms: C11_12  and  C12_13 
ROOT
HETATM    1  C6  UNL     1     -15.601  -4.958   1.198  1.00  0.00     0.026 C 
HETATM    2  C7  UNL     1     -14.610  -3.829   1.422  1.00  0.00     0.045 C 
HETATM    3  C8  UNL     1     -14.735  -2.735   0.402  1.00  0.00     0.173 C 
HETATM    4  O1  UNL     1     -15.128  -3.287  -0.807  1.00  0.00    -0.379 OA
HETATM    5  C15 UNL     1     -14.546  -4.523  -0.948  1.00  0.00     0.177 C 
HETATM    6  C16 UNL     1     -15.456  -5.501  -0.190  1.00  0.00    -0.021 C 
HETATM    7  C17 UNL     1     -16.764  -5.523  -0.946  1.00  0.00     0.017 C 
HETATM    8  C18 UNL     1     -14.814  -6.844  -0.276  1.00  0.00     0.017 C 
ENDROOT
BRANCH   3   9
HETATM    9  C9  UNL     1     -13.401  -2.091   0.130  1.00  0.00     0.057 A 
HETATM   10  C10 UNL     1     -13.113  -1.097  -0.782  1.00  0.00     0.061 A 
HETATM   11  C11 UNL     1     -11.773  -0.785  -0.714  1.00  0.00     0.063 A 
HETATM   12  N4  UNL     1     -11.273  -1.593   0.236  1.00  0.00    -0.300 N 
HETATM   13  N5  UNL     1     -12.226  -2.372   0.745  1.00  0.00    -0.302 N 
ATOM     14  H4  UNL     1     -10.296  -1.607   0.528  1.00  0.00     0.187 HD
ATOM     15  H5  UNL     1     -12.094  -3.069   1.478  1.00  0.00     0.186 HD
BRANCH  11  16
HETATM   16  C12 UNL     1     -11.023   0.200  -1.484  1.00  0.00     0.026 A 
HETATM   17  C13 UNL     1     -10.104   1.122  -1.036  1.00  0.00     0.122 A 
HETATM   18  N2  UNL     1      -9.632   1.851  -2.058  1.00  0.00    -0.311 N 
HETATM   19  N3  UNL     1     -10.245   1.401  -3.158  1.00  0.00    -0.311 N 
ATOM     20  H2  UNL     1      -8.942   2.601  -2.007  1.00  0.00     0.186 HD
HETATM   21  C14 UNL     1     -11.095   0.400  -2.847  1.00  0.00     0.122 A 
ATOM     22  H3  UNL     1     -10.091   1.763  -4.100  1.00  0.00     0.186 HD
ENDBRANCH  11  16
ENDBRANCH   3   9
BRANCH   1  23
HETATM   23  C5  UNL     1     -15.430  -5.999   2.264  1.00  0.00     0.277 C 
BRANCH  23  24
HETATM   24  N1  UNL     1     -14.432  -5.648   3.247  1.00  0.00     0.084 N 
HETATM   25  C4  UNL     1     -15.009  -5.695   4.576  1.00  0.00     0.309 C 
BRANCH  24  26
HETATM   26  C3  UNL     1     -13.339  -6.565   3.189  1.00  0.00     0.271 C 
BRANCH  26  27
HETATM   27  C2  UNL     1     -11.992  -5.942   2.987  1.00  0.00     0.026 C 
HETATM   28  C1  UNL     1     -11.652  -6.123   1.500  1.00  0.00     0.007 C 
ENDBRANCH  26  27
ENDBRANCH  24  26
ENDBRANCH  23  24
ENDBRANCH   1  23
TORSDOF 6
ENDMDL
MODEL 3
REMARK VINA RESULT: -6.397524683      2.006      2.686
REMARK  6 active torsions:
REMARK  status: ('A' for Active; 'I' for Inactive)
REMARK    1  A    between atoms: C2_2  and  C3_3 
REMARK    2  A    between atoms: C3_3  and  N1_4 
REMARK    3  A    between atoms: N1_4  and  C5_6 
REMARK    4  A    between atoms: C5_6  and  C6_7 
REMARK    5  A    between atoms: C8_9  and  C9_10 
REMARK    6  A    between atoms: C11_12  and  C12_13 
ROOT
HETATM    1  C6  UNL     1     -13.641  -4.815   2.054  1.00  0.00     0.026 C 
HETATM    2  C7  UNL     1     -13.106  -3.496   1.522  1.00  0.00     0.045 C 
HETATM    3  C8  UNL     1     -14.129  -2.730   0.737  1.00  0.00     0.173 C 
HETATM    4  O1  UNL     1     -14.968  -3.624   0.091  1.00  0.00    -0.379 OA
HETATM    5  C15 UNL     1     -14.241  -4.722  -0.299  1.00  0.00     0.177 C 
HETATM    6  C16 UNL     1     -14.183  -5.641   0.930  1.00  0.00    -0.021 C 
HETATM    7  C17 UNL     1     -15.603  -6.096   1.176  1.00  0.00     0.017 C 
HETATM    8  C18 UNL     1     -13.346  -6.816   0.553  1.00  0.00     0.017 C 
ENDROOT
BRANCH   3   9
HETATM    9  C9  UNL     1     -13.481  -1.928  -0.362  1.00  0.00     0.057 A 
HETATM   10  C10 UNL     1     -12.412  -1.064  -0.259  1.00  0.00     0.061 A 
HETATM   11  C11 UNL     1     -12.126  -0.535  -1.499  1.00  0.00     0.063 A 
HETATM   12  N4  UNL     1     -13.026  -1.087  -2.330  1.00  0.00    -0.300 N 
HETATM   13  N5  UNL     1     -13.836  -1.914  -1.670  1.00  0.00    -0.302 N 
ATOM     14  H4  UNL     1     -13.081  -0.897  -3.331  1.00  0.00     0.187 HD
ATOM     15  H5  UNL     1     -14.599  -2.450  -2.083  1.00  0.00     0.186 HD
BRANCH  11  16
HETATM   16  C12 UNL     1     -11.084   0.415  -1.870  1.00  0.00     0.026 A 
HETATM   17  C13 UNL     1     -10.789   0.922  -3.116  1.00  0.00     0.122 A 
HETATM   18  N2  UNL     1      -9.755   1.774  -3.044  1.00  0.00    -0.311 N 
HETATM   19  N3  UNL     1      -9.387   1.814  -1.758  1.00  0.00    -0.311 N 
ATOM     20  H2  UNL     1      -9.332   2.289  -3.817  1.00  0.00     0.186 HD
HETATM   21  C14 UNL     1     -10.171   1.002  -1.019  1.00  0.00     0.122 A 
ATOM     22  H3  UNL     1      -8.621   2.378  -1.390  1.00  0.00     0.186 HD
ENDBRANCH  11  16
ENDBRANCH   3   9
BRANCH   1  23
HETATM   23  C5  UNL     1     -12.571  -5.512   2.843  1.00  0.00     0.277 C 
BRANCH  23  24
HETATM   24  N1  UNL     1     -12.917  -5.695   4.232  1.00  0.00     0.084 N 
HETATM   25  C4  UNL     1     -13.564  -6.979   4.416  1.00  0.00     0.309 C 
BRANCH  24  26
HETATM   26  C3  UNL     1     -11.741  -5.654   5.042  1.00  0.00     0.271 C 
BRANCH  26  27
HETATM   27  C2  UNL     1     -10.749  -4.595   4.674  1.00  0.00     0.026 C 
HETATM   28  C1  UNL     1      -9.371  -5.273   4.682  1.00  0.00     0.007 C 
ENDBRANCH  26  27
ENDBRANCH  24  26
ENDBRANCH  23  24
ENDBRANCH   1  23
TORSDOF 6
ENDMDL
MODEL 4
REMARK VINA RESULT: -6.355581754      2.467      3.295
REMARK  6 active torsions:
REMARK  status: ('A' for Active; 'I' for Inactive)
REMARK    1  A    between atoms: C2_2  and  C3_3 
REMARK    2  A    between atoms: C3_3  and  N1_4 
REMARK    3  A    between atoms: N1_4  and  C5_6 
REMARK    4  A    between atoms: C5_6  and  C6_7 
REMARK    5  A    between atoms: C8_9  and  C9_10 
REMARK    6  A    between atoms: C11_12  and  C12_13 
ROOT
HETATM    1  C6  UNL     1     -13.167  -5.175   2.756  1.00  0.00     0.026 C 
HETATM    2  C7  UNL     1     -12.909  -3.800   2.163  1.00  0.00     0.045 C 
HETATM    3  C8  UNL     1     -14.033  -3.326   1.289  1.00  0.00     0.173 C 
HETATM    4  O1  UNL     1     -14.615  -4.419   0.668  1.00  0.00    -0.379 OA
HETATM    5  C15 UNL     1     -13.643  -5.344   0.379  1.00  0.00     0.177 C 
HETATM    6  C16 UNL     1     -13.451  -6.161   1.666  1.00  0.00    -0.021 C 
HETATM    7  C17 UNL     1     -14.745  -6.909   1.881  1.00  0.00     0.017 C 
HETATM    8  C18 UNL     1     -12.355  -7.136   1.399  1.00  0.00     0.017 C 
ENDROOT
BRANCH   3   9
HETATM    9  C9  UNL     1     -13.520  -2.458   0.169  1.00  0.00     0.057 A 
HETATM   10  C10 UNL     1     -12.431  -1.612   0.187  1.00  0.00     0.061 A 
HETATM   11  C11 UNL     1     -12.300  -1.005  -1.043  1.00  0.00     0.063 A 
HETATM   12  N4  UNL     1     -13.310  -1.493  -1.783  1.00  0.00    -0.300 N 
HETATM   13  N5  UNL     1     -14.041  -2.355  -1.078  1.00  0.00    -0.302 N 
ATOM     14  H4  UNL     1     -13.492  -1.237  -2.754  1.00  0.00     0.187 HD
ATOM     15  H5  UNL     1     -14.860  -2.856  -1.421  1.00  0.00     0.186 HD
BRANCH  11  16
HETATM   16  C12 UNL     1     -11.299  -0.041  -1.485  1.00  0.00     0.026 A 
HETATM   17  C13 UNL     1     -10.448   0.725  -0.722  1.00  0.00     0.122 A 
HETATM   18  N2  UNL     1      -9.674   1.491  -1.505  1.00  0.00    -0.311 N 
HETATM   19  N3  UNL     1     -10.026   1.219  -2.767  1.00  0.00    -0.311 N 
ATOM     20  H2  UNL     1      -8.958   2.150  -1.200  1.00  0.00     0.186 HD
HETATM   21  C14 UNL     1     -11.009   0.295  -2.791  1.00  0.00     0.122 A 
ATOM     22  H3  UNL     1      -9.610   1.650  -3.593  1.00  0.00     0.186 HD
ENDBRANCH  11  16
ENDBRANCH   3   9
BRANCH   1  23
HETATM   23  C5  UNL     1     -12.014  -5.571   3.631  1.00  0.00     0.277 C 
BRANCH  23  24
HETATM   24  N1  UNL     1     -12.267  -5.357   5.036  1.00  0.00     0.084 N 
HETATM   25  C4  UNL     1     -12.430  -6.630   5.709  1.00  0.00     0.309 C 
BRANCH  24  26
HETATM   26  C3  UNL     1     -11.171  -4.661   5.633  1.00  0.00     0.271 C 
BRANCH  26  27
HETATM   27  C2  UNL     1      -9.913  -4.637   4.822  1.00  0.00     0.026 C 
HETATM   28  C1  UNL     1      -8.751  -4.649   5.827  1.00  0.00     0.007 C 
ENDBRANCH  26  27
ENDBRANCH  24  26
ENDBRANCH  23  24
ENDBRANCH   1  23
TORSDOF 6
ENDMDL
MODEL 5
REMARK VINA RESULT: -6.153473716      1.781      2.193
REMARK  6 active torsions:
REMARK  status: ('A' for Active; 'I' for Inactive)
REMARK    1  A    between atoms: C2_2  and  C3_3 
REMARK    2  A    between atoms: C3_3  and  N1_4 
REMARK    3  A    between atoms: N1_4  and  C5_6 
REMARK    4  A    between atoms: C5_6  and  C6_7 
REMARK    5  A    between atoms: C8_9  and  C9_10 
REMARK    6  A    between atoms: C11_12  and  C12_13 
ROOT
HETATM    1  C6  UNL     1     -14.302  -5.284   1.614  1.00  0.00     0.026 C 
HETATM    2  C7  UNL     1     -13.761  -3.919   1.222  1.00  0.00     0.045 C 
HETATM    3  C8  UNL     1     -14.711  -3.146   0.355  1.00  0.00     0.173 C 
HETATM    4  O1  UNL     1     -15.424  -4.031  -0.437  1.00  0.00    -0.379 OA
HETATM    5  C15 UNL     1     -14.608  -5.079  -0.789  1.00  0.00     0.177 C 
HETATM    6  C16 UNL     1     -14.665  -6.064   0.388  1.00  0.00    -0.021 C 
HETATM    7  C17 UNL     1     -16.084  -6.582   0.429  1.00  0.00     0.017 C 
HETATM    8  C18 UNL     1     -13.739  -7.185   0.059  1.00  0.00     0.017 C 
ENDROOT
BRANCH   3   9
HETATM    9  C9  UNL     1     -13.966  -2.260  -0.610  1.00  0.00     0.057 A 
HETATM   10  C10 UNL     1     -12.852  -1.487  -0.359  1.00  0.00     0.061 A 
HETATM   11  C11 UNL     1     -12.478  -0.831  -1.512  1.00  0.00     0.063 A 
HETATM   12  N4  UNL     1     -13.371  -1.218  -2.440  1.00  0.00    -0.300 N 
HETATM   13  N5  UNL     1     -14.258  -2.065  -1.919  1.00  0.00    -0.302 N 
ATOM     14  H4  UNL     1     -13.368  -0.906  -3.411  1.00  0.00     0.187 HD
ATOM     15  H5  UNL     1     -15.032  -2.497  -2.424  1.00  0.00     0.186 HD
BRANCH  11  16
HETATM   16  C12 UNL     1     -11.366   0.087  -1.723  1.00  0.00     0.026 A 
HETATM   17  C13 UNL     1     -10.525   0.647  -0.787  1.00  0.00     0.122 A 
HETATM   18  N2  UNL     1      -9.623   1.442  -1.381  1.00  0.00    -0.311 N 
HETATM   19  N3  UNL     1      -9.883   1.395  -2.692  1.00  0.00    -0.311 N 
ATOM     20  H2  UNL     1      -8.885   1.978  -0.923  1.00  0.00     0.186 HD
HETATM   21  C14 UNL     1     -10.933   0.583  -2.935  1.00  0.00     0.122 A 
ATOM     22  H3  UNL     1      -9.360   1.901  -3.407  1.00  0.00     0.186 HD
ENDBRANCH  11  16
ENDBRANCH   3   9
BRANCH   1  23
HETATM   23  C5  UNL     1     -13.310  -5.986   2.493  1.00  0.00     0.277 C 
BRANCH  23  24
HETATM   24  N1  UNL     1     -13.161  -5.368   3.789  1.00  0.00     0.084 N 
HETATM   25  C4  UNL     1     -14.218  -5.814   4.675  1.00  0.00     0.309 C 
BRANCH  24  26
HETATM   26  C3  UNL     1     -11.901  -5.723   4.362  1.00  0.00     0.271 C 
BRANCH  26  27
HETATM   27  C2  UNL     1     -10.798  -5.964   3.380  1.00  0.00     0.026 C 
HETATM   28  C1  UNL     1      -9.489  -5.920   4.182  1.00  0.00     0.007 C 
ENDBRANCH  26  27
ENDBRANCH  24  26
ENDBRANCH  23  24
ENDBRANCH   1  23
TORSDOF 6
ENDMDL
