MODEL 1
REMARK VINA RESULT: -4.854074012      0.000      0.000
REMARK  2 active torsions:
REMARK  status: ('A' for Active; 'I' for Inactive)
REMARK    1  A    between atoms: O1_1  and  C1_3 
REMARK    2  A    between atoms: C4_7  and  O2_8 
ROOT
HETATM    1  C1  UNL     1      37.441  32.608  -6.049  1.00  0.00     0.269 C 
HETATM    2  C2  UNL     1      36.957  32.950  -7.431  1.00  0.00     0.134 C 
HETATM    3  S1  UNL     1      38.007  34.191  -8.235  1.00  0.00    -0.159 SA
HETATM    4  C3  UNL     1      39.116  34.935  -7.022  1.00  0.00     0.134 C 
HETATM    5  C4  UNL     1      39.065  34.126  -5.733  1.00  0.00     0.269 C 
HETATM    6  O3  UNL     1      37.774  33.782  -5.380  1.00  0.00    -0.330 OA
ENDROOT
BRANCH   1   7
HETATM    7  O1  UNL     1      36.485  31.861  -5.400  1.00  0.00    -0.370 OA
ATOM      8  H1  UNL     1      36.900  31.323  -4.735  1.00  0.00     0.212 HD
ENDBRANCH   1   7
BRANCH   5   9
HETATM    9  O2  UNL     1      39.763  34.772  -4.733  1.00  0.00    -0.370 OA
ATOM     10  H2  UNL     1      40.304  35.461  -5.101  1.00  0.00     0.212 HD
ENDBRANCH   5   9
TORSDOF 2
ENDMDL
MODEL 2
REMARK VINA RESULT: -4.733183677      1.271      1.453
REMARK  2 active torsions:
REMARK  status: ('A' for Active; 'I' for Inactive)
REMARK    1  A    between atoms: O1_1  and  C1_3 
REMARK    2  A    between atoms: C4_7  and  O2_8 
ROOT
HETATM    1  C1  UNL     1      36.704  31.901  -7.010  1.00  0.00     0.269 C 
HETATM    2  C2  UNL     1      36.680  32.184  -8.487  1.00  0.00     0.134 C 
HETATM    3  S1  UNL     1      37.718  33.606  -8.926  1.00  0.00    -0.159 SA
HETATM    4  C3  UNL     1      38.192  34.504  -7.434  1.00  0.00     0.134 C 
HETATM    5  C4  UNL     1      37.834  33.670  -6.212  1.00  0.00     0.269 C 
HETATM    6  O3  UNL     1      36.579  33.101  -6.314  1.00  0.00    -0.330 OA
ENDROOT
BRANCH   1   7
HETATM    7  O1  UNL     1      35.723  30.986  -6.702  1.00  0.00    -0.370 OA
ATOM      8  H1  UNL     1      36.096  30.285  -6.181  1.00  0.00     0.212 HD
ENDBRANCH   1   7
BRANCH   5   9
HETATM    9  O2  UNL     1      38.020  34.405  -5.059  1.00  0.00    -0.370 OA
ATOM     10  H2  UNL     1      37.929  33.848  -4.295  1.00  0.00     0.212 HD
ENDBRANCH   5   9
TORSDOF 2
ENDMDL
MODEL 3
REMARK VINA RESULT: -4.629950725      2.578      3.323
REMARK  2 active torsions:
REMARK  status: ('A' for Active; 'I' for Inactive)
REMARK    1  A    between atoms: O1_1  and  C1_3 
REMARK    2  A    between atoms: C4_7  and  O2_8 
ROOT
HETATM    1  C1  UNL     1      35.942  32.869  -8.697  1.00  0.00     0.269 C 
HETATM    2  C2  UNL     1      37.176  32.926  -9.556  1.00  0.00     0.134 C 
HETATM    3  S1  UNL     1      38.578  32.063  -8.794  1.00  0.00    -0.159 SA
HETATM    4  C3  UNL     1      38.209  31.698  -7.067  1.00  0.00     0.134 C 
HETATM    5  C4  UNL     1      36.732  31.956  -6.804  1.00  0.00     0.269 C 
HETATM    6  O3  UNL     1      36.294  33.135  -7.376  1.00  0.00    -0.330 OA
ENDROOT
BRANCH   1   7
HETATM    7  O1  UNL     1      34.996  33.735  -9.196  1.00  0.00    -0.370 OA
ATOM      8  H1  UNL     1      34.313  33.866  -8.548  1.00  0.00     0.212 HD
ENDBRANCH   1   7
BRANCH   5   9
HETATM    9  O2  UNL     1      36.460  31.858  -5.454  1.00  0.00    -0.370 OA
ATOM     10  H2  UNL     1      35.526  31.758  -5.312  1.00  0.00     0.212 HD
ENDBRANCH   5   9
TORSDOF 2
ENDMDL
MODEL 4
REMARK VINA RESULT: -4.608105268      1.709      3.451
REMARK  2 active torsions:
REMARK  status: ('A' for Active; 'I' for Inactive)
REMARK    1  A    between atoms: O1_1  and  C1_3 
REMARK    2  A    between atoms: C4_7  and  O2_8 
ROOT
HETATM    1  C1  UNL     1      37.898  33.456  -5.942  1.00  0.00     0.269 C 
HETATM    2  C2  UNL     1      39.315  33.118  -6.317  1.00  0.00     0.134 C 
HETATM    3  S1  UNL     1      39.416  31.589  -7.289  1.00  0.00    -0.159 SA
HETATM    4  C3  UNL     1      37.842  30.712  -7.220  1.00  0.00     0.134 C 
HETATM    5  C4  UNL     1      36.786  31.623  -6.609  1.00  0.00     0.269 C 
HETATM    6  O3  UNL     1      37.255  32.302  -5.501  1.00  0.00    -0.330 OA
ENDROOT
BRANCH   1   7
HETATM    7  O1  UNL     1      37.900  34.470  -5.011  1.00  0.00    -0.370 OA
ATOM      8  H1  UNL     1      38.736  34.485  -4.560  1.00  0.00     0.212 HD
ENDBRANCH   1   7
BRANCH   5   9
HETATM    9  O2  UNL     1      35.621  30.920  -6.380  1.00  0.00    -0.370 OA
ATOM     10  H2  UNL     1      34.874  31.508  -6.389  1.00  0.00     0.212 HD
ENDBRANCH   5   9
TORSDOF 2
ENDMDL
MODEL 5
REMARK VINA RESULT: -4.597970677      2.562      3.710
REMARK  2 active torsions:
REMARK  status: ('A' for Active; 'I' for Inactive)
REMARK    1  A    between atoms: O1_1  and  C1_3 
REMARK    2  A    between atoms: C4_7  and  O2_8 
ROOT
HETATM    1  C1  UNL     1      36.916  33.599  -8.914  1.00  0.00     0.269 C 
HETATM    2  C2  UNL     1      37.974  34.462  -8.284  1.00  0.00     0.134 C 
HETATM    3  S1  UNL     1      38.631  33.732  -6.758  1.00  0.00    -0.159 SA
HETATM    4  C3  UNL     1      37.578  32.367  -6.228  1.00  0.00     0.134 C 
HETATM    5  C4  UNL     1      36.603  32.023  -7.346  1.00  0.00     0.269 C 
HETATM    6  O3  UNL     1      36.047  33.148  -7.923  1.00  0.00    -0.330 OA
ENDROOT
BRANCH   1   7
HETATM    7  O1  UNL     1      36.286  34.303  -9.914  1.00  0.00    -0.370 OA
ATOM      8  H1  UNL     1      36.390  33.844 -10.739  1.00  0.00     0.212 HD
ENDBRANCH   1   7
BRANCH   5   9
HETATM    9  O2  UNL     1      35.671  31.106  -6.904  1.00  0.00    -0.370 OA
ATOM     10  H2  UNL     1      34.917  31.098  -7.481  1.00  0.00     0.212 HD
ENDBRANCH   5   9
TORSDOF 2
ENDMDL
