MODEL 1
REMARK VINA RESULT: -5.201108429      0.000      0.000
REMARK  3 active torsions:
REMARK  status: ('A' for Active; 'I' for Inactive)
REMARK    1  A    between atoms: O1_2  and  C2_3 
REMARK       I    between atoms: C2_3  and  N1_5 
REMARK    2  A    between atoms: N1_5  and  O3_6 
REMARK    3  A    between atoms: O3_6  and  C3_7 
ROOT
HETATM    1  C2  UNL     1      39.389  29.659 -14.801  1.00  0.00     0.465 C 
HETATM    2  O2  UNL     1      40.109  28.683 -15.057  1.00  0.00    -0.218 OA
HETATM    3  N1  UNL     1      38.632  30.396 -15.640  1.00  0.00    -0.200 NA
ENDROOT
BRANCH   3   4
HETATM    4  O3  UNL     1      37.900  31.109 -16.455  1.00  0.00    -0.091 OA
BRANCH   4   5
HETATM    5  C3  UNL     1      37.658  32.478 -16.315  1.00  0.00     0.368 C 
HETATM    6  O4  UNL     1      38.572  33.120 -15.719  1.00  0.00    -0.622 OA
HETATM    7  O5  UNL     1      36.524  33.138 -16.777  1.00  0.00    -0.622 OA
ENDBRANCH   4   5
ENDBRANCH   3   4
BRANCH   1   8
HETATM    8  O1  UNL     1      39.429  29.981 -13.395  1.00  0.00    -0.296 OA
HETATM    9  C1  UNL     1      39.693  31.235 -12.881  1.00  0.00     0.216 C 
ENDBRANCH   1   8
TORSDOF 3
ENDMDL
MODEL 2
REMARK VINA RESULT: -4.946404868      2.368      4.018
REMARK  3 active torsions:
REMARK  status: ('A' for Active; 'I' for Inactive)
REMARK    1  A    between atoms: O1_2  and  C2_3 
REMARK       I    between atoms: C2_3  and  N1_5 
REMARK    2  A    between atoms: N1_5  and  O3_6 
REMARK    3  A    between atoms: O3_6  and  C3_7 
ROOT
HETATM    1  C2  UNL     1      38.203  31.947 -15.868  1.00  0.00     0.465 C 
HETATM    2  O2  UNL     1      38.259  30.816 -16.371  1.00  0.00    -0.218 OA
HETATM    3  N1  UNL     1      38.580  32.346 -14.636  1.00  0.00    -0.200 NA
ENDROOT
BRANCH   3   4
HETATM    4  O3  UNL     1      38.946  32.730 -13.441  1.00  0.00    -0.091 OA
BRANCH   4   5
HETATM    5  C3  UNL     1      38.067  33.130 -12.431  1.00  0.00     0.368 C 
HETATM    6  O4  UNL     1      38.246  34.310 -12.009  1.00  0.00    -0.622 OA
HETATM    7  O5  UNL     1      37.056  32.339 -11.895  1.00  0.00    -0.622 OA
ENDBRANCH   4   5
ENDBRANCH   3   4
BRANCH   1   8
HETATM    8  O1  UNL     1      37.644  32.901 -16.795  1.00  0.00    -0.296 OA
HETATM    9  C1  UNL     1      36.315  33.276 -16.835  1.00  0.00     0.216 C 
ENDBRANCH   1   8
TORSDOF 3
ENDMDL
MODEL 3
REMARK VINA RESULT: -4.933872431      7.496      8.476
REMARK  3 active torsions:
REMARK  status: ('A' for Active; 'I' for Inactive)
REMARK    1  A    between atoms: O1_2  and  C2_3 
REMARK       I    between atoms: C2_3  and  N1_5 
REMARK    2  A    between atoms: N1_5  and  O3_6 
REMARK    3  A    between atoms: O3_6  and  C3_7 
ROOT
HETATM    1  C2  UNL     1      37.183  32.681  -5.933  1.00  0.00     0.465 C 
HETATM    2  O2  UNL     1      37.166  31.679  -5.205  1.00  0.00    -0.218 OA
HETATM    3  N1  UNL     1      36.455  32.937  -7.040  1.00  0.00    -0.200 NA
ENDROOT
BRANCH   3   4
HETATM    4  O3  UNL     1      35.748  33.182  -8.112  1.00  0.00    -0.091 OA
BRANCH   4   5
HETATM    5  C3  UNL     1      36.281  33.366  -9.391  1.00  0.00     0.368 C 
HETATM    6  O4  UNL     1      37.015  34.389  -9.518  1.00  0.00    -0.622 OA
HETATM    7  O5  UNL     1      36.060  32.521 -10.474  1.00  0.00    -0.622 OA
ENDBRANCH   4   5
ENDBRANCH   3   4
BRANCH   1   8
HETATM    8  O1  UNL     1      38.141  33.651  -5.461  1.00  0.00    -0.296 OA
HETATM    9  C1  UNL     1      38.256  34.943  -5.936  1.00  0.00     0.216 C 
ENDBRANCH   1   8
TORSDOF 3
ENDMDL
MODEL 4
REMARK VINA RESULT: -4.926148608      1.816      4.270
REMARK  3 active torsions:
REMARK  status: ('A' for Active; 'I' for Inactive)
REMARK    1  A    between atoms: O1_2  and  C2_3 
REMARK       I    between atoms: C2_3  and  N1_5 
REMARK    2  A    between atoms: N1_5  and  O3_6 
REMARK    3  A    between atoms: O3_6  and  C3_7 
ROOT
HETATM    1  C2  UNL     1      38.146  32.012 -15.973  1.00  0.00     0.465 C 
HETATM    2  O2  UNL     1      38.497  30.969 -16.541  1.00  0.00    -0.218 OA
HETATM    3  N1  UNL     1      38.253  32.344 -14.669  1.00  0.00    -0.200 NA
ENDROOT
BRANCH   3   4
HETATM    4  O3  UNL     1      38.357  32.662 -13.406  1.00  0.00    -0.091 OA
BRANCH   4   5
HETATM    5  C3  UNL     1      38.955  31.860 -12.430  1.00  0.00     0.368 C 
HETATM    6  O4  UNL     1      39.266  30.696 -12.819  1.00  0.00    -0.622 OA
HETATM    7  O5  UNL     1      39.214  32.256 -11.122  1.00  0.00    -0.622 OA
ENDBRANCH   4   5
ENDBRANCH   3   4
BRANCH   1   8
HETATM    8  O1  UNL     1      37.551  32.939 -16.906  1.00  0.00    -0.296 OA
HETATM    9  C1  UNL     1      36.243  33.378 -16.856  1.00  0.00     0.216 C 
ENDBRANCH   1   8
TORSDOF 3
ENDMDL
MODEL 5
REMARK VINA RESULT: -4.926005107      8.070      9.310
REMARK  3 active torsions:
REMARK  status: ('A' for Active; 'I' for Inactive)
REMARK    1  A    between atoms: O1_2  and  C2_3 
REMARK       I    between atoms: C2_3  and  N1_5 
REMARK    2  A    between atoms: N1_5  and  O3_6 
REMARK    3  A    between atoms: O3_6  and  C3_7 
ROOT
HETATM    1  C2  UNL     1      37.818  34.733  -5.716  1.00  0.00     0.465 C 
HETATM    2  O2  UNL     1      37.566  35.927  -5.500  1.00  0.00    -0.218 OA
HETATM    3  N1  UNL     1      37.089  33.823  -6.395  1.00  0.00    -0.200 NA
ENDROOT
BRANCH   3   4
HETATM    4  O3  UNL     1      36.380  32.943  -7.052  1.00  0.00    -0.091 OA
BRANCH   4   5
HETATM    5  C3  UNL     1      36.190  32.950  -8.437  1.00  0.00     0.368 C 
HETATM    6  O4  UNL     1      35.103  33.473  -8.820  1.00  0.00    -0.622 OA
HETATM    7  O5  UNL     1      37.090  32.439  -9.367  1.00  0.00    -0.622 OA
ENDBRANCH   4   5
ENDBRANCH   3   4
BRANCH   1   8
HETATM    8  O1  UNL     1      39.077  34.351  -5.123  1.00  0.00    -0.296 OA
HETATM    9  C1  UNL     1      40.219  34.034  -5.832  1.00  0.00     0.216 C 
ENDBRANCH   1   8
TORSDOF 3
ENDMDL
