MODEL 1
REMARK VINA RESULT: -5.836561156      0.000      0.000
REMARK  3 active torsions:
REMARK  status: ('A' for Active; 'I' for Inactive)
REMARK    1  A    between atoms: C2_2  and  N1_4 
REMARK    2  A    between atoms: C7_8  and  C8_9 
REMARK    3  A    between atoms: C9_14  and  N3_15 
ROOT
HETATM    1  N1  UNL     1     -13.550  23.775  11.133  1.00  0.00    -0.389 N 
HETATM    2  C4  UNL     1     -12.689  23.086  10.264  1.00  0.00     0.058 C 
HETATM    3  C5  UNL     1     -13.016  23.281   8.845  1.00  0.00     0.045 C 
HETATM    4  C6  UNL     1     -14.466  23.405   8.527  1.00  0.00     0.018 C 
HETATM    5  C7  UNL     1     -15.195  24.355   9.421  1.00  0.00     0.057 C 
HETATM    6  C10 UNL     1     -14.872  23.780  10.832  1.00  0.00     0.133 C 
ENDROOT
BRANCH   5   7
HETATM    7  C8  UNL     1     -16.688  24.233   9.225  1.00  0.00     0.056 A 
HETATM    8  N2  UNL     1     -17.147  23.469   8.265  1.00  0.00    -0.321 N 
HETATM    9  S1  UNL     1     -18.791  23.175   8.129  1.00  0.00     0.026 SA
ATOM     10  H2  UNL     1     -16.500  23.050   7.598  1.00  0.00     0.174 HD
HETATM   11  S2  UNL     1     -19.186  24.358   9.804  1.00  0.00    -0.016 SA
HETATM   12  C9  UNL     1     -17.574  24.785  10.124  1.00  0.00     0.099 A 
BRANCH  12  13
HETATM   13  N3  UNL     1     -17.216  25.635  11.103  1.00  0.00    -0.391 N 
ATOM     14  H32 UNL     1     -17.816  25.859  11.897  1.00  0.00     0.157 HD
ATOM     15  H31 UNL     1     -16.347  26.168  11.103  1.00  0.00     0.157 HD
ENDBRANCH  12  13
ENDBRANCH   5   7
BRANCH   1  16
HETATM   16  C2  UNL     1     -13.107  23.820  12.499  1.00  0.00     0.075 C 
HETATM   17  C1  UNL     1     -11.605  23.773  12.655  1.00  0.00     0.032 C 
HETATM   18  C3  UNL     1     -13.616  22.590  13.254  1.00  0.00     0.032 C 
ENDBRANCH   1  16
TORSDOF 3
ENDMDL
MODEL 2
REMARK VINA RESULT: -5.804389045      2.980      5.269
REMARK  3 active torsions:
REMARK  status: ('A' for Active; 'I' for Inactive)
REMARK    1  A    between atoms: C2_2  and  N1_4 
REMARK    2  A    between atoms: C7_8  and  C8_9 
REMARK    3  A    between atoms: C9_14  and  N3_15 
ROOT
HETATM    1  N1  UNL     1     -17.044  24.558   9.422  1.00  0.00    -0.389 N 
HETATM    2  C4  UNL     1     -16.918  24.910  10.775  1.00  0.00     0.058 C 
HETATM    3  C5  UNL     1     -15.527  24.921  11.248  1.00  0.00     0.045 C 
HETATM    4  C6  UNL     1     -14.635  23.888  10.652  1.00  0.00     0.018 C 
HETATM    5  C7  UNL     1     -14.736  23.796   9.164  1.00  0.00     0.057 C 
HETATM    6  C10 UNL     1     -16.261  23.552   8.960  1.00  0.00     0.133 C 
ENDROOT
BRANCH   5   7
HETATM    7  C8  UNL     1     -14.020  22.566   8.655  1.00  0.00     0.056 A 
HETATM    8  N2  UNL     1     -14.716  21.496   8.361  1.00  0.00    -0.321 N 
HETATM    9  S1  UNL     1     -13.979  20.179   7.635  1.00  0.00     0.026 SA
ATOM     10  H2  UNL     1     -15.713  21.465   8.576  1.00  0.00     0.174 HD
HETATM   11  S2  UNL     1     -12.136  21.163   7.620  1.00  0.00    -0.016 SA
HETATM   12  C9  UNL     1     -12.676  22.596   8.353  1.00  0.00     0.099 A 
BRANCH  12  13
HETATM   13  N3  UNL     1     -11.859  23.615   8.671  1.00  0.00    -0.391 N 
ATOM     14  H32 UNL     1     -10.944  23.754   8.244  1.00  0.00     0.157 HD
ATOM     15  H31 UNL     1     -12.059  24.296   9.403  1.00  0.00     0.157 HD
ENDBRANCH  12  13
ENDBRANCH   5   7
BRANCH   1  16
HETATM   16  C2  UNL     1     -18.347  24.790   8.864  1.00  0.00     0.075 C 
HETATM   17  C1  UNL     1     -19.399  25.130   9.894  1.00  0.00     0.032 C 
HETATM   18  C3  UNL     1     -18.861  23.517   8.188  1.00  0.00     0.032 C 
ENDBRANCH   1  16
TORSDOF 3
ENDMDL
MODEL 3
REMARK VINA RESULT: -5.715613906      3.001      4.816
REMARK  3 active torsions:
REMARK  status: ('A' for Active; 'I' for Inactive)
REMARK    1  A    between atoms: C2_2  and  N1_4 
REMARK    2  A    between atoms: C7_8  and  C8_9 
REMARK    3  A    between atoms: C9_14  and  N3_15 
ROOT
HETATM    1  N1  UNL     1     -15.080  24.263  10.266  1.00  0.00    -0.389 N 
HETATM    2  C4  UNL     1     -14.576  24.076  11.564  1.00  0.00     0.058 C 
HETATM    3  C5  UNL     1     -13.307  23.336  11.595  1.00  0.00     0.045 C 
HETATM    4  C6  UNL     1     -13.156  22.269  10.565  1.00  0.00     0.018 C 
HETATM    5  C7  UNL     1     -13.533  22.709   9.188  1.00  0.00     0.057 C 
HETATM    6  C10 UNL     1     -14.987  23.223   9.401  1.00  0.00     0.133 C 
ENDROOT
BRANCH   5   7
HETATM    7  C8  UNL     1     -13.616  21.524   8.254  1.00  0.00     0.056 A 
HETATM    8  N2  UNL     1     -14.746  20.871   8.147  1.00  0.00    -0.321 N 
HETATM    9  S1  UNL     1     -14.923  19.665   6.998  1.00  0.00     0.026 SA
ATOM     10  H2  UNL     1     -15.523  21.098   8.768  1.00  0.00     0.174 HD
HETATM   11  S2  UNL     1     -12.971  19.965   6.318  1.00  0.00    -0.016 SA
HETATM   12  C9  UNL     1     -12.578  21.211   7.403  1.00  0.00     0.099 A 
BRANCH  12  13
HETATM   13  N3  UNL     1     -11.358  21.773   7.472  1.00  0.00    -0.391 N 
ATOM     14  H32 UNL     1     -10.988  22.208   8.317  1.00  0.00     0.157 HD
ATOM     15  H31 UNL     1     -10.729  21.863   6.675  1.00  0.00     0.157 HD
ENDBRANCH  12  13
ENDBRANCH   5   7
BRANCH   1  16
HETATM   16  C2  UNL     1     -16.168  25.196  10.179  1.00  0.00     0.075 C 
HETATM   17  C1  UNL     1     -16.685  25.658  11.521  1.00  0.00     0.032 C 
HETATM   18  C3  UNL     1     -17.373  24.535   9.505  1.00  0.00     0.032 C 
ENDBRANCH   1  16
TORSDOF 3
ENDMDL
MODEL 4
REMARK VINA RESULT: -5.641571576      4.014      5.077
REMARK  3 active torsions:
REMARK  status: ('A' for Active; 'I' for Inactive)
REMARK    1  A    between atoms: C2_2  and  N1_4 
REMARK    2  A    between atoms: C7_8  and  C8_9 
REMARK    3  A    between atoms: C9_14  and  N3_15 
ROOT
HETATM    1  N1  UNL     1     -13.014  22.234  10.789  1.00  0.00    -0.389 N 
HETATM    2  C4  UNL     1     -12.702  23.381  10.041  1.00  0.00     0.058 C 
HETATM    3  C5  UNL     1     -13.232  23.345   8.671  1.00  0.00     0.045 C 
HETATM    4  C6  UNL     1     -13.254  22.004   8.022  1.00  0.00     0.018 C 
HETATM    5  C7  UNL     1     -13.825  20.929   8.888  1.00  0.00     0.057 C 
HETATM    6  C10 UNL     1     -12.934  21.035  10.161  1.00  0.00     0.133 C 
ENDROOT
BRANCH   5   7
HETATM    7  C8  UNL     1     -13.574  19.567   8.284  1.00  0.00     0.056 A 
HETATM    8  N2  UNL     1     -12.499  18.903   8.629  1.00  0.00    -0.321 N 
HETATM    9  S1  UNL     1     -12.276  17.324   8.114  1.00  0.00     0.026 SA
ATOM     10  H2  UNL     1     -11.793  19.349   9.216  1.00  0.00     0.174 HD
HETATM   11  S2  UNL     1     -14.098  17.354   7.093  1.00  0.00    -0.016 SA
HETATM   12  C9  UNL     1     -14.521  18.948   7.498  1.00  0.00     0.099 A 
BRANCH  12  13
HETATM   13  N3  UNL     1     -15.624  19.560   7.033  1.00  0.00    -0.391 N 
ATOM     14  H32 UNL     1     -16.253  19.138   6.350  1.00  0.00     0.157 HD
ATOM     15  H31 UNL     1     -15.891  20.513   7.279  1.00  0.00     0.157 HD
ENDBRANCH  12  13
ENDBRANCH   5   7
BRANCH   1  16
HETATM   16  C2  UNL     1     -12.741  22.347  12.194  1.00  0.00     0.075 C 
HETATM   17  C1  UNL     1     -13.936  22.771  13.016  1.00  0.00     0.032 C 
HETATM   18  C3  UNL     1     -11.694  23.437  12.438  1.00  0.00     0.032 C 
ENDBRANCH   1  16
TORSDOF 3
ENDMDL
MODEL 5
REMARK VINA RESULT: -5.581994240      3.057      5.673
REMARK  3 active torsions:
REMARK  status: ('A' for Active; 'I' for Inactive)
REMARK    1  A    between atoms: C2_2  and  N1_4 
REMARK    2  A    between atoms: C7_8  and  C8_9 
REMARK    3  A    between atoms: C9_14  and  N3_15 
ROOT
HETATM    1  N1  UNL     1     -17.855  23.966   8.994  1.00  0.00    -0.389 N 
HETATM    2  C4  UNL     1     -18.633  24.871   9.733  1.00  0.00     0.058 C 
HETATM    3  C5  UNL     1     -17.834  25.859  10.471  1.00  0.00     0.045 C 
HETATM    4  C6  UNL     1     -16.535  25.367  11.009  1.00  0.00     0.018 C 
HETATM    5  C7  UNL     1     -15.727  24.601  10.013  1.00  0.00     0.057 C 
HETATM    6  C10 UNL     1     -16.726  23.490   9.574  1.00  0.00     0.133 C 
ENDROOT
BRANCH   5   7
HETATM    7  C8  UNL     1     -14.565  23.909  10.687  1.00  0.00     0.056 A 
HETATM    8  N2  UNL     1     -14.538  23.831  11.994  1.00  0.00    -0.321 N 
HETATM    9  S1  UNL     1     -13.359  22.925  12.765  1.00  0.00     0.026 SA
ATOM     10  H2  UNL     1     -15.240  24.324  12.546  1.00  0.00     0.174 HD
HETATM   11  S2  UNL     1     -12.519  22.377  10.932  1.00  0.00    -0.016 SA
HETATM   12  C9  UNL     1     -13.614  23.232   9.955  1.00  0.00     0.099 A 
BRANCH  12  13
HETATM   13  N3  UNL     1     -13.511  23.299   8.616  1.00  0.00    -0.391 N 
ATOM     14  H32 UNL     1     -12.971  24.016   8.131  1.00  0.00     0.157 HD
ATOM     15  H31 UNL     1     -14.009  22.680   7.977  1.00  0.00     0.157 HD
ENDBRANCH  12  13
ENDBRANCH   5   7
BRANCH   1  16
HETATM   16  C2  UNL     1     -18.599  23.162   8.065  1.00  0.00     0.075 C 
HETATM   17  C1  UNL     1     -19.713  23.907   7.368  1.00  0.00     0.032 C 
HETATM   18  C3  UNL     1     -19.297  22.018   8.804  1.00  0.00     0.032 C 
ENDBRANCH   1  16
TORSDOF 3
ENDMDL
