MODEL 1
REMARK VINA RESULT: -6.069595717      0.000      0.000
REMARK  2 active torsions:
REMARK  status: ('A' for Active; 'I' for Inactive)
REMARK    1  A    between atoms: C2_2  and  C3_3 
REMARK    2  A    between atoms: N4_14  and  C7_15 
ROOT
HETATM    1  C3  UNL     1     -12.732  23.017  10.180  1.00  0.00     0.260 C 
HETATM    2  N1  UNL     1     -12.379  24.112  11.077  1.00  0.00    -0.058 N 
ATOM      3  H11 UNL     1     -11.955  24.920  10.622  1.00  0.00     0.278 HD
ATOM      4  H12 UNL     1     -11.592  23.922  11.697  1.00  0.00     0.278 HD
HETATM    5  C4  UNL     1     -13.653  24.385  11.763  1.00  0.00     0.277 C 
HETATM    6  C5  UNL     1     -14.689  24.171  10.729  1.00  0.00     0.033 A 
HETATM    7  C6  UNL     1     -14.112  23.347   9.789  1.00  0.00     0.072 A 
HETATM    8  N2  UNL     1     -14.816  22.966   8.708  1.00  0.00    -0.287 N 
ATOM      9  H2  UNL     1     -14.394  22.355   8.008  1.00  0.00     0.188 HD
HETATM   10  N3  UNL     1     -16.050  23.385   8.561  1.00  0.00    -0.239 N 
ATOM     11  H3  UNL     1     -16.561  23.081   7.731  1.00  0.00     0.208 HD
HETATM   12  N4  UNL     1     -16.675  24.177   9.416  1.00  0.00    -0.262 N 
HETATM   13  C12 UNL     1     -15.989  24.573  10.507  1.00  0.00     0.129 A 
HETATM   14  S1  UNL     1     -16.694  25.554  11.615  1.00  0.00    -0.058 SA
ENDROOT
BRANCH  12  15
HETATM   15  C7  UNL     1     -18.042  24.603   9.190  1.00  0.00     0.111 C 
HETATM   16  C8  UNL     1     -19.014  23.825  10.054  1.00  0.00     0.027 C 
HETATM   17  C9  UNL     1     -18.989  22.466   9.388  1.00  0.00     0.002 C 
HETATM   18  C10 UNL     1     -19.135  22.851   7.925  1.00  0.00     0.002 C 
HETATM   19  C11 UNL     1     -18.469  24.206   7.796  1.00  0.00     0.027 C 
ENDBRANCH  12  15
BRANCH   1  20
HETATM   20  C2  UNL     1     -12.643  21.706  10.884  1.00  0.00     0.002 C 
HETATM   21  C1  UNL     1     -12.635  20.573  10.197  1.00  0.00     0.009 C 
ENDBRANCH   1  20
TORSDOF 2
ENDMDL
MODEL 2
REMARK VINA RESULT: -5.496814955      3.865      5.449
REMARK  2 active torsions:
REMARK  status: ('A' for Active; 'I' for Inactive)
REMARK    1  A    between atoms: C2_2  and  C3_3 
REMARK    2  A    between atoms: N4_14  and  C7_15 
ROOT
HETATM    1  C3  UNL     1     -13.677  20.464   6.789  1.00  0.00     0.260 C 
HETATM    2  N1  UNL     1     -12.357  19.914   6.498  1.00  0.00    -0.058 N 
ATOM      3  H11 UNL     1     -11.803  20.457   5.835  1.00  0.00     0.278 HD
ATOM      4  H12 UNL     1     -12.362  19.057   5.946  1.00  0.00     0.278 HD
HETATM    5  C4  UNL     1     -11.764  19.782   7.839  1.00  0.00     0.277 C 
HETATM    6  C5  UNL     1     -12.268  20.953   8.590  1.00  0.00     0.033 A 
HETATM    7  C6  UNL     1     -13.418  21.345   7.940  1.00  0.00     0.072 A 
HETATM    8  N2  UNL     1     -14.117  22.401   8.392  1.00  0.00    -0.287 N 
ATOM      9  H2  UNL     1     -14.969  22.696   7.915  1.00  0.00     0.188 HD
HETATM   10  N3  UNL     1     -13.695  23.049   9.451  1.00  0.00    -0.239 N 
ATOM     11  H3  UNL     1     -14.244  23.846   9.773  1.00  0.00     0.208 HD
HETATM   12  N4  UNL     1     -12.604  22.737  10.131  1.00  0.00    -0.262 N 
HETATM   13  C12 UNL     1     -11.886  21.682   9.696  1.00  0.00     0.129 A 
HETATM   14  S1  UNL     1     -10.520  21.230  10.483  1.00  0.00    -0.058 SA
ENDROOT
BRANCH  12  15
HETATM   15  C7  UNL     1     -12.195  23.498  11.294  1.00  0.00     0.111 C 
HETATM   16  C8  UNL     1     -12.348  22.688  12.566  1.00  0.00     0.027 C 
HETATM   17  C9  UNL     1     -13.854  22.651  12.721  1.00  0.00     0.002 C 
HETATM   18  C10 UNL     1     -14.211  24.110  12.489  1.00  0.00     0.002 C 
HETATM   19  C11 UNL     1     -13.167  24.632  11.521  1.00  0.00     0.027 C 
ENDBRANCH  12  15
BRANCH   1  20
HETATM   20  C2  UNL     1     -14.643  19.377   7.118  1.00  0.00     0.002 C 
HETATM   21  C1  UNL     1     -15.032  18.518   6.187  1.00  0.00     0.009 C 
ENDBRANCH   1  20
TORSDOF 2
ENDMDL
MODEL 3
REMARK VINA RESULT: -5.249019404      4.274      6.391
REMARK  2 active torsions:
REMARK  status: ('A' for Active; 'I' for Inactive)
REMARK    1  A    between atoms: C2_2  and  C3_3 
REMARK    2  A    between atoms: N4_14  and  C7_15 
ROOT
HETATM    1  C3  UNL     1      -8.711  26.380   9.292  1.00  0.00     0.260 C 
HETATM    2  N1  UNL     1      -7.646  25.475   8.875  1.00  0.00    -0.058 N 
ATOM      3  H11 UNL     1      -6.868  25.398   9.530  1.00  0.00     0.278 HD
ATOM      4  H12 UNL     1      -7.083  25.807   8.091  1.00  0.00     0.278 HD
HETATM    5  C4  UNL     1      -8.372  24.219   8.626  1.00  0.00     0.277 C 
HETATM    6  C5  UNL     1      -9.429  24.186   9.661  1.00  0.00     0.033 A 
HETATM    7  C6  UNL     1      -9.615  25.495  10.046  1.00  0.00     0.072 A 
HETATM    8  N2  UNL     1     -10.526  25.795  10.988  1.00  0.00    -0.287 N 
ATOM      9  H2  UNL     1     -10.668  26.763  11.277  1.00  0.00     0.188 HD
HETATM   10  N3  UNL     1     -11.231  24.832  11.533  1.00  0.00    -0.239 N 
ATOM     11  H3  UNL     1     -11.915  25.087  12.246  1.00  0.00     0.208 HD
HETATM   12  N4  UNL     1     -11.113  23.552  11.220  1.00  0.00    -0.262 N 
HETATM   13  C12 UNL     1     -10.205  23.228  10.278  1.00  0.00     0.129 A 
HETATM   14  S1  UNL     1      -9.998  21.663   9.833  1.00  0.00    -0.058 SA
ENDROOT
BRANCH  12  15
HETATM   15  C7  UNL     1     -11.925  22.540  11.864  1.00  0.00     0.111 C 
HETATM   16  C8  UNL     1     -13.051  22.077  10.961  1.00  0.00     0.027 C 
HETATM   17  C9  UNL     1     -13.968  23.282  10.981  1.00  0.00     0.002 C 
HETATM   18  C10 UNL     1     -14.023  23.587  12.468  1.00  0.00     0.002 C 
HETATM   19  C11 UNL     1     -12.678  23.157  13.019  1.00  0.00     0.027 C 
ENDBRANCH  12  15
BRANCH   1  20
HETATM   20  C2  UNL     1      -9.380  26.992   8.108  1.00  0.00     0.002 C 
HETATM   21  C1  UNL     1      -8.668  27.623   7.185  1.00  0.00     0.009 C 
ENDBRANCH   1  20
TORSDOF 2
ENDMDL
MODEL 4
REMARK VINA RESULT: -5.213608652      4.279      6.324
REMARK  2 active torsions:
REMARK  status: ('A' for Active; 'I' for Inactive)
REMARK    1  A    between atoms: C2_2  and  C3_3 
REMARK    2  A    between atoms: N4_14  and  C7_15 
ROOT
HETATM    1  C3  UNL     1      -8.109  26.563  11.886  1.00  0.00     0.260 C 
HETATM    2  N1  UNL     1      -7.532  26.389  13.215  1.00  0.00    -0.058 N 
ATOM      3  H11 UNL     1      -7.807  27.095  13.897  1.00  0.00     0.278 HD
ATOM      4  H12 UNL     1      -6.531  26.576  13.275  1.00  0.00     0.278 HD
HETATM    5  C4  UNL     1      -7.925  25.012  13.556  1.00  0.00     0.277 C 
HETATM    6  C5  UNL     1      -9.274  24.851  12.972  1.00  0.00     0.033 A 
HETATM    7  C6  UNL     1      -9.362  25.794  11.971  1.00  0.00     0.072 A 
HETATM    8  N2  UNL     1     -10.488  25.897  11.243  1.00  0.00    -0.287 N 
ATOM      9  H2  UNL     1     -10.559  26.593  10.501  1.00  0.00     0.188 HD
HETATM   10  N3  UNL     1     -11.495  25.096  11.495  1.00  0.00    -0.239 N 
ATOM     11  H3  UNL     1     -12.338  25.196  10.928  1.00  0.00     0.208 HD
HETATM   12  N4  UNL     1     -11.491  24.166  12.437  1.00  0.00    -0.262 N 
HETATM   13  C12 UNL     1     -10.373  24.044  13.180  1.00  0.00     0.129 A 
HETATM   14  S1  UNL     1     -10.288  22.915  14.366  1.00  0.00    -0.058 SA
ENDROOT
BRANCH  12  15
HETATM   15  C7  UNL     1     -12.642  23.314  12.661  1.00  0.00     0.111 C 
HETATM   16  C8  UNL     1     -12.704  22.190  11.646  1.00  0.00     0.027 C 
HETATM   17  C9  UNL     1     -13.101  22.939  10.391  1.00  0.00     0.002 C 
HETATM   18  C10 UNL     1     -14.241  23.800  10.908  1.00  0.00     0.002 C 
HETATM   19  C11 UNL     1     -13.906  24.085  12.359  1.00  0.00     0.027 C 
ENDBRANCH  12  15
BRANCH   1  20
HETATM   20  C2  UNL     1      -7.193  26.032  10.837  1.00  0.00     0.002 C 
HETATM   21  C1  UNL     1      -7.389  26.328   9.560  1.00  0.00     0.009 C 
ENDBRANCH   1  20
TORSDOF 2
ENDMDL
MODEL 5
REMARK VINA RESULT: -5.141482126      4.292      6.394
REMARK  2 active torsions:
REMARK  status: ('A' for Active; 'I' for Inactive)
REMARK    1  A    between atoms: C2_2  and  C3_3 
REMARK    2  A    between atoms: N4_14  and  C7_15 
ROOT
HETATM    1  C3  UNL     1     -14.768  18.046   5.947  1.00  0.00     0.260 C 
HETATM    2  N1  UNL     1     -13.771  17.979   4.884  1.00  0.00    -0.058 N 
ATOM      3  H11 UNL     1     -14.038  18.444   4.016  1.00  0.00     0.278 HD
ATOM      4  H12 UNL     1     -13.650  17.055   4.468  1.00  0.00     0.278 HD
HETATM    5  C4  UNL     1     -12.571  18.526   5.536  1.00  0.00     0.277 C 
HETATM    6  C5  UNL     1     -13.080  19.592   6.426  1.00  0.00     0.033 A 
HETATM    7  C6  UNL     1     -14.403  19.282   6.659  1.00  0.00     0.072 A 
HETATM    8  N2  UNL     1     -15.149  20.077   7.446  1.00  0.00    -0.287 N 
ATOM      9  H2  UNL     1     -16.129  19.852   7.622  1.00  0.00     0.188 HD
HETATM   10  N3  UNL     1     -14.609  21.142   7.986  1.00  0.00    -0.239 N 
ATOM     11  H3  UNL     1     -15.198  21.728   8.578  1.00  0.00     0.208 HD
HETATM   12  N4  UNL     1     -13.349  21.509   7.813  1.00  0.00    -0.262 N 
HETATM   13  C12 UNL     1     -12.581  20.728   7.027  1.00  0.00     0.129 A 
HETATM   14  S1  UNL     1     -11.009  21.113   6.763  1.00  0.00    -0.058 SA
ENDROOT
BRANCH  12  15
HETATM   15  C7  UNL     1     -12.817  22.701   8.441  1.00  0.00     0.111 C 
HETATM   16  C8  UNL     1     -11.811  22.356   9.520  1.00  0.00     0.027 C 
HETATM   17  C9  UNL     1     -12.710  21.799  10.603  1.00  0.00     0.002 C 
HETATM   18  C10 UNL     1     -13.808  22.849  10.645  1.00  0.00     0.002 C 
HETATM   19  C11 UNL     1     -13.908  23.385   9.231  1.00  0.00     0.027 C 
ENDBRANCH  12  15
BRANCH   1  20
HETATM   20  C2  UNL     1     -14.687  16.844   6.826  1.00  0.00     0.002 C 
HETATM   21  C1  UNL     1     -14.880  15.632   6.326  1.00  0.00     0.009 C 
ENDBRANCH   1  20
TORSDOF 2
ENDMDL
