MODEL 1
REMARK VINA RESULT: -7.593020119      0.000      0.000
REMARK  7 active torsions:
REMARK  status: ('A' for Active; 'I' for Inactive)
REMARK    1  A    between atoms: O1_2  and  C2_3 
REMARK    2  A    between atoms: C2_3  and  C3_5 
REMARK    3  A    between atoms: C3_5  and  C4_6 
REMARK    4  A    between atoms: C4_6  and  C5_7 
REMARK    5  A    between atoms: C8_11  and  O3_12 
REMARK    6  A    between atoms: C9_14  and  C10_15 
REMARK       I    between atoms: C10_15  and  N1_17 
REMARK    7  A    between atoms: N1_17  and  C11_19 
ROOT
HETATM    1  C5  UNL     1     -14.363  23.409  10.618  1.00  0.00     0.002 A 
HETATM    2  S1  UNL     1     -13.699  24.062  12.073  1.00  0.00    -0.096 SA
HETATM    3  C6  UNL     1     -12.220  23.269  12.092  1.00  0.00     0.013 A 
HETATM    4  C7  UNL     1     -11.130  23.393  13.120  1.00  0.00     0.059 C 
HETATM    5  C8  UNL     1     -12.256  22.500  10.963  1.00  0.00     0.095 A 
HETATM    6  C9  UNL     1     -13.352  22.549  10.182  1.00  0.00     0.079 A 
ENDROOT
BRANCH   6   7
HETATM    7  C10 UNL     1     -13.563  21.756   8.964  1.00  0.00     0.256 C 
HETATM    8  O4  UNL     1     -13.772  22.347   7.876  1.00  0.00    -0.268 OA
HETATM    9  N1  UNL     1     -13.554  20.345   8.894  1.00  0.00    -0.347 N 
ATOM     10  H1  UNL     1     -13.392  19.808   9.746  1.00  0.00     0.163 HD
BRANCH   9  11
HETATM   11  C11 UNL     1     -13.773  19.632   7.628  1.00  0.00     0.034 C 
HETATM   12  C12 UNL     1     -12.947  20.177   6.526  1.00  0.00     0.035 C 
HETATM   13  C13 UNL     1     -13.146  19.324   5.283  1.00  0.00    -0.012 C 
HETATM   14  C14 UNL     1     -12.691  17.909   5.505  1.00  0.00     0.009 C 
HETATM   15  C18 UNL     1     -14.608  19.368   4.940  1.00  0.00     0.009 C 
HETATM   16  C15 UNL     1     -13.454  17.332   6.666  1.00  0.00    -0.012 C 
HETATM   17  C16 UNL     1     -14.923  17.283   6.246  1.00  0.00     0.009 C 
HETATM   18  C20 UNL     1     -13.301  18.196   7.867  1.00  0.00     0.035 C 
HETATM   19  C17 UNL     1     -15.369  18.698   6.051  1.00  0.00    -0.012 C 
HETATM   20  C19 UNL     1     -15.244  19.529   7.307  1.00  0.00     0.035 C 
ENDBRANCH   9  11
ENDBRANCH   6   7
BRANCH   1  21
HETATM   21  C4  UNL     1     -15.681  23.745  10.000  1.00  0.00     0.057 C 
BRANCH  21  22
HETATM   22  C3  UNL     1     -16.047  25.174   9.966  1.00  0.00     0.116 C 
BRANCH  22  23
HETATM   23  C2  UNL     1     -17.068  25.552  10.969  1.00  0.00     0.258 C 
HETATM   24  O2  UNL     1     -16.850  25.619  12.171  1.00  0.00    -0.265 OA
BRANCH  23  25
HETATM   25  O1  UNL     1     -18.378  25.857  10.537  1.00  0.00    -0.326 OA
HETATM   26  C1  UNL     1     -19.011  25.072   9.563  1.00  0.00     0.213 C 
ENDBRANCH  23  25
ENDBRANCH  22  23
ENDBRANCH  21  22
ENDBRANCH   1  21
BRANCH   5  27
HETATM   27  O3  UNL     1     -11.122  21.694  10.692  1.00  0.00    -0.359 OA
ATOM     28  H3  UNL     1     -11.246  20.950  10.114  1.00  0.00     0.217 HD
ENDBRANCH   5  27
TORSDOF 7
ENDMDL
MODEL 2
REMARK VINA RESULT: -7.491344956      0.665      1.496
REMARK  7 active torsions:
REMARK  status: ('A' for Active; 'I' for Inactive)
REMARK    1  A    between atoms: O1_2  and  C2_3 
REMARK    2  A    between atoms: C2_3  and  C3_5 
REMARK    3  A    between atoms: C3_5  and  C4_6 
REMARK    4  A    between atoms: C4_6  and  C5_7 
REMARK    5  A    between atoms: C8_11  and  O3_12 
REMARK    6  A    between atoms: C9_14  and  C10_15 
REMARK       I    between atoms: C10_15  and  N1_17 
REMARK    7  A    between atoms: N1_17  and  C11_19 
ROOT
HETATM    1  C5  UNL     1     -14.050  23.238  10.219  1.00  0.00     0.002 A 
HETATM    2  S1  UNL     1     -13.611  24.024  11.694  1.00  0.00    -0.096 SA
HETATM    3  C6  UNL     1     -12.127  23.293  11.975  1.00  0.00     0.013 A 
HETATM    4  C7  UNL     1     -11.192  23.537  13.127  1.00  0.00     0.059 C 
HETATM    5  C8  UNL     1     -11.985  22.441  10.916  1.00  0.00     0.095 A 
HETATM    6  C9  UNL     1     -12.965  22.389   9.994  1.00  0.00     0.079 A 
ENDROOT
BRANCH   6   7
HETATM    7  C10 UNL     1     -12.984  21.499   8.824  1.00  0.00     0.256 C 
HETATM    8  O4  UNL     1     -12.113  21.641   7.931  1.00  0.00    -0.268 OA
HETATM    9  N1  UNL     1     -13.918  20.464   8.600  1.00  0.00    -0.347 N 
ATOM     10  H1  UNL     1     -14.652  20.300   9.289  1.00  0.00     0.163 HD
BRANCH   9  11
HETATM   11  C11 UNL     1     -13.861  19.618   7.399  1.00  0.00     0.034 C 
HETATM   12  C12 UNL     1     -13.158  18.337   7.648  1.00  0.00     0.035 C 
HETATM   13  C13 UNL     1     -13.235  17.475   6.397  1.00  0.00    -0.012 C 
HETATM   14  C14 UNL     1     -14.655  17.129   6.050  1.00  0.00     0.009 C 
HETATM   15  C18 UNL     1     -12.585  18.245   5.283  1.00  0.00     0.009 C 
HETATM   16  C15 UNL     1     -15.431  18.404   5.857  1.00  0.00    -0.012 C 
HETATM   17  C16 UNL     1     -14.820  19.111   4.648  1.00  0.00     0.009 C 
HETATM   18  C20 UNL     1     -15.312  19.269   7.061  1.00  0.00     0.035 C 
HETATM   19  C17 UNL     1     -13.415  19.470   5.015  1.00  0.00    -0.012 C 
HETATM   20  C19 UNL     1     -13.340  20.390   6.212  1.00  0.00     0.035 C 
ENDBRANCH   9  11
ENDBRANCH   6   7
BRANCH   1  21
HETATM   21  C4  UNL     1     -15.280  23.475   9.406  1.00  0.00     0.057 C 
BRANCH  21  22
HETATM   22  C3  UNL     1     -15.880  24.820   9.493  1.00  0.00     0.116 C 
BRANCH  22  23
HETATM   23  C2  UNL     1     -17.052  24.892  10.393  1.00  0.00     0.258 C 
HETATM   24  O2  UNL     1     -17.045  25.459  11.477  1.00  0.00    -0.265 OA
BRANCH  23  25
HETATM   25  O1  UNL     1     -18.262  24.277  10.000  1.00  0.00    -0.326 OA
HETATM   26  C1  UNL     1     -19.323  25.045   9.498  1.00  0.00     0.213 C 
ENDBRANCH  23  25
ENDBRANCH  22  23
ENDBRANCH  21  22
ENDBRANCH   1  21
BRANCH   5  27
HETATM   27  O3  UNL     1     -10.802  21.663  10.865  1.00  0.00    -0.359 OA
ATOM     28  H3  UNL     1     -10.246  21.666  11.635  1.00  0.00     0.217 HD
ENDBRANCH   5  27
TORSDOF 7
ENDMDL
MODEL 3
REMARK VINA RESULT: -7.432649994      1.790      4.489
REMARK  7 active torsions:
REMARK  status: ('A' for Active; 'I' for Inactive)
REMARK    1  A    between atoms: O1_2  and  C2_3 
REMARK    2  A    between atoms: C2_3  and  C3_5 
REMARK    3  A    between atoms: C3_5  and  C4_6 
REMARK    4  A    between atoms: C4_6  and  C5_7 
REMARK    5  A    between atoms: C8_11  and  O3_12 
REMARK    6  A    between atoms: C9_14  and  C10_15 
REMARK       I    between atoms: C10_15  and  N1_17 
REMARK    7  A    between atoms: N1_17  and  C11_19 
ROOT
HETATM    1  C5  UNL     1     -14.879  24.375  10.856  1.00  0.00     0.002 A 
HETATM    2  S1  UNL     1     -16.251  25.385  11.150  1.00  0.00    -0.096 SA
HETATM    3  C6  UNL     1     -17.238  24.900   9.883  1.00  0.00     0.013 A 
HETATM    4  C7  UNL     1     -18.617  25.403   9.555  1.00  0.00     0.059 C 
HETATM    5  C8  UNL     1     -16.490  23.954   9.240  1.00  0.00     0.095 A 
HETATM    6  C9  UNL     1     -15.266  23.663   9.719  1.00  0.00     0.079 A 
ENDROOT
BRANCH   6   7
HETATM    7  C10 UNL     1     -14.325  22.706   9.120  1.00  0.00     0.256 C 
HETATM    8  O4  UNL     1     -13.209  23.115   8.716  1.00  0.00    -0.268 OA
HETATM    9  N1  UNL     1     -14.562  21.325   8.949  1.00  0.00    -0.347 N 
ATOM     10  H1  UNL     1     -15.453  20.932   9.256  1.00  0.00     0.163 HD
BRANCH   9  11
HETATM   11  C11 UNL     1     -13.561  20.437   8.341  1.00  0.00     0.034 C 
HETATM   12  C12 UNL     1     -12.462  20.105   9.277  1.00  0.00     0.035 C 
HETATM   13  C13 UNL     1     -11.528  19.103   8.617  1.00  0.00    -0.012 C 
HETATM   14  C14 UNL     1     -12.233  17.814   8.303  1.00  0.00     0.009 C 
HETATM   15  C18 UNL     1     -11.001  19.743   7.364  1.00  0.00     0.009 C 
HETATM   16  C15 UNL     1     -13.406  18.109   7.407  1.00  0.00    -0.012 C 
HETATM   17  C16 UNL     1     -12.834  18.651   6.098  1.00  0.00     0.009 C 
HETATM   18  C20 UNL     1     -14.291  19.128   8.032  1.00  0.00     0.035 C 
HETATM   19  C17 UNL     1     -12.155  19.945   6.421  1.00  0.00    -0.012 C 
HETATM   20  C19 UNL     1     -13.099  20.970   7.007  1.00  0.00     0.035 C 
ENDBRANCH   9  11
ENDBRANCH   6   7
BRANCH   1  21
HETATM   21  C4  UNL     1     -13.632  24.293  11.673  1.00  0.00     0.057 C 
BRANCH  21  22
HETATM   22  C3  UNL     1     -13.322  22.983  12.275  1.00  0.00     0.116 C 
BRANCH  22  23
HETATM   23  C2  UNL     1     -11.872  22.722  12.421  1.00  0.00     0.258 C 
HETATM   24  O2  UNL     1     -11.271  22.788  13.484  1.00  0.00    -0.265 OA
BRANCH  23  25
HETATM   25  O1  UNL     1     -11.116  22.374  11.279  1.00  0.00    -0.326 OA
HETATM   26  C1  UNL     1     -10.120  23.233  10.793  1.00  0.00     0.213 C 
ENDBRANCH  23  25
ENDBRANCH  22  23
ENDBRANCH  21  22
ENDBRANCH   1  21
BRANCH   5  27
HETATM   27  O3  UNL     1     -17.065  23.339   8.099  1.00  0.00    -0.359 OA
ATOM     28  H3  UNL     1     -16.949  22.401   8.007  1.00  0.00     0.217 HD
ENDBRANCH   5  27
TORSDOF 7
ENDMDL
MODEL 4
REMARK VINA RESULT: -7.397960718      1.858      4.512
REMARK  7 active torsions:
REMARK  status: ('A' for Active; 'I' for Inactive)
REMARK    1  A    between atoms: O1_2  and  C2_3 
REMARK    2  A    between atoms: C2_3  and  C3_5 
REMARK    3  A    between atoms: C3_5  and  C4_6 
REMARK    4  A    between atoms: C4_6  and  C5_7 
REMARK    5  A    between atoms: C8_11  and  O3_12 
REMARK    6  A    between atoms: C9_14  and  C10_15 
REMARK       I    between atoms: C10_15  and  N1_17 
REMARK    7  A    between atoms: N1_17  and  C11_19 
ROOT
HETATM    1  C5  UNL     1     -14.790  24.110  11.091  1.00  0.00     0.002 A 
HETATM    2  S1  UNL     1     -16.110  25.162  11.460  1.00  0.00    -0.096 SA
HETATM    3  C6  UNL     1     -17.015  24.986  10.058  1.00  0.00     0.013 A 
HETATM    4  C7  UNL     1     -18.323  25.650   9.726  1.00  0.00     0.059 C 
HETATM    5  C8  UNL     1     -16.280  24.109   9.313  1.00  0.00     0.095 A 
HETATM    6  C9  UNL     1     -15.124  23.640   9.819  1.00  0.00     0.079 A 
ENDROOT
BRANCH   6   7
HETATM    7  C10 UNL     1     -14.202  22.727   9.129  1.00  0.00     0.256 C 
HETATM    8  O4  UNL     1     -13.342  23.201   8.345  1.00  0.00    -0.268 OA
HETATM    9  N1  UNL     1     -14.188  21.322   9.265  1.00  0.00    -0.347 N 
ATOM     10  H1  UNL     1     -14.864  20.877   9.886  1.00  0.00     0.163 HD
BRANCH   9  11
HETATM   11  C11 UNL     1     -13.226  20.483   8.536  1.00  0.00     0.034 C 
HETATM   12  C12 UNL     1     -11.823  20.871   8.810  1.00  0.00     0.035 C 
HETATM   13  C13 UNL     1     -10.889  19.895   8.110  1.00  0.00    -0.012 C 
HETATM   14  C14 UNL     1     -11.061  18.496   8.630  1.00  0.00     0.009 C 
HETATM   15  C18 UNL     1     -11.195  19.961   6.641  1.00  0.00     0.009 C 
HETATM   16  C15 UNL     1     -12.495  18.081   8.438  1.00  0.00    -0.012 C 
HETATM   17  C16 UNL     1     -12.744  18.046   6.931  1.00  0.00     0.009 C 
HETATM   18  C20 UNL     1     -13.409  19.064   9.079  1.00  0.00     0.035 C 
HETATM   19  C17 UNL     1     -12.593  19.448   6.430  1.00  0.00    -0.012 C 
HETATM   20  C19 UNL     1     -13.573  20.406   7.070  1.00  0.00     0.035 C 
ENDBRANCH   9  11
ENDBRANCH   6   7
BRANCH   1  21
HETATM   21  C4  UNL     1     -13.625  23.786  11.969  1.00  0.00     0.057 C 
BRANCH  21  22
HETATM   22  C3  UNL     1     -12.362  24.489  11.675  1.00  0.00     0.116 C 
BRANCH  22  23
HETATM   23  C2  UNL     1     -11.230  23.582  11.384  1.00  0.00     0.258 C 
HETATM   24  O2  UNL     1     -10.492  23.702  10.415  1.00  0.00    -0.265 OA
BRANCH  23  25
HETATM   25  O1  UNL     1     -10.964  22.507  12.262  1.00  0.00    -0.326 OA
HETATM   26  C1  UNL     1     -10.420  22.740  13.532  1.00  0.00     0.213 C 
ENDBRANCH  23  25
ENDBRANCH  22  23
ENDBRANCH  21  22
ENDBRANCH   1  21
BRANCH   5  27
HETATM   27  O3  UNL     1     -16.795  23.750   8.041  1.00  0.00    -0.359 OA
ATOM     28  H3  UNL     1     -16.248  23.201   7.491  1.00  0.00     0.217 HD
ENDBRANCH   5  27
TORSDOF 7
ENDMDL
MODEL 5
REMARK VINA RESULT: -7.365601697      1.838      4.434
REMARK  7 active torsions:
REMARK  status: ('A' for Active; 'I' for Inactive)
REMARK    1  A    between atoms: O1_2  and  C2_3 
REMARK    2  A    between atoms: C2_3  and  C3_5 
REMARK    3  A    between atoms: C3_5  and  C4_6 
REMARK    4  A    between atoms: C4_6  and  C5_7 
REMARK    5  A    between atoms: C8_11  and  O3_12 
REMARK    6  A    between atoms: C9_14  and  C10_15 
REMARK       I    between atoms: C10_15  and  N1_17 
REMARK    7  A    between atoms: N1_17  and  C11_19 
ROOT
HETATM    1  C5  UNL     1     -14.805  24.110  11.087  1.00  0.00     0.002 A 
HETATM    2  S1  UNL     1     -16.115  25.167  11.477  1.00  0.00    -0.096 SA
HETATM    3  C6  UNL     1     -17.051  24.983  10.097  1.00  0.00     0.013 A 
HETATM    4  C7  UNL     1     -18.365  25.646   9.788  1.00  0.00     0.059 C 
HETATM    5  C8  UNL     1     -16.335  24.098   9.342  1.00  0.00     0.095 A 
HETATM    6  C9  UNL     1     -15.168  23.631   9.826  1.00  0.00     0.079 A 
ENDROOT
BRANCH   6   7
HETATM    7  C10 UNL     1     -14.264  22.711   9.123  1.00  0.00     0.256 C 
HETATM    8  O4  UNL     1     -13.428  23.176   8.309  1.00  0.00    -0.268 OA
HETATM    9  N1  UNL     1     -14.242  21.308   9.278  1.00  0.00    -0.347 N 
ATOM     10  H1  UNL     1     -14.899  20.869   9.924  1.00  0.00     0.163 HD
BRANCH   9  11
HETATM   11  C11 UNL     1     -13.298  20.462   8.533  1.00  0.00     0.034 C 
HETATM   12  C12 UNL     1     -11.889  20.858   8.760  1.00  0.00     0.035 C 
HETATM   13  C13 UNL     1     -10.973  19.876   8.048  1.00  0.00    -0.012 C 
HETATM   14  C14 UNL     1     -11.123  18.484   8.594  1.00  0.00     0.009 C 
HETATM   15  C18 UNL     1     -11.322  19.917   6.587  1.00  0.00     0.009 C 
HETATM   16  C15 UNL     1     -12.560  18.061   8.451  1.00  0.00    -0.012 C 
HETATM   17  C16 UNL     1     -12.854  18.002   6.952  1.00  0.00     0.009 C 
HETATM   18  C20 UNL     1     -13.459  19.050   9.103  1.00  0.00     0.035 C 
HETATM   19  C17 UNL     1     -12.724  19.396   6.426  1.00  0.00    -0.012 C 
HETATM   20  C19 UNL     1     -13.687  20.360   7.079  1.00  0.00     0.035 C 
ENDBRANCH   9  11
ENDBRANCH   6   7
BRANCH   1  21
HETATM   21  C4  UNL     1     -13.622  23.791  11.941  1.00  0.00     0.057 C 
BRANCH  21  22
HETATM   22  C3  UNL     1     -12.363  24.483  11.609  1.00  0.00     0.116 C 
BRANCH  22  23
HETATM   23  C2  UNL     1     -11.262  23.569  11.232  1.00  0.00     0.258 C 
HETATM   24  O2  UNL     1     -11.012  22.524  11.818  1.00  0.00    -0.265 OA
BRANCH  23  25
HETATM   25  O1  UNL     1     -10.436  23.900  10.134  1.00  0.00    -0.326 OA
HETATM   26  C1  UNL     1      -9.741  25.118  10.105  1.00  0.00     0.213 C 
ENDBRANCH  23  25
ENDBRANCH  22  23
ENDBRANCH  21  22
ENDBRANCH   1  21
BRANCH   5  27
HETATM   27  O3  UNL     1     -16.878  23.730   8.085  1.00  0.00    -0.359 OA
ATOM     28  H3  UNL     1     -16.270  23.628   7.362  1.00  0.00     0.217 HD
ENDBRANCH   5  27
TORSDOF 7
ENDMDL
