MODEL 1
REMARK VINA RESULT: -6.699489005      0.000      0.000
REMARK  5 active torsions:
REMARK  status: ('A' for Active; 'I' for Inactive)
REMARK    1  A    between atoms: S1_2  and  C2_3 
REMARK    2  A    between atoms: C3_6  and  S2_7 
REMARK    3  A    between atoms: S2_7  and  C4_8 
REMARK    4  A    between atoms: C4_8  and  C5_9 
REMARK    5  A    between atoms: C7_16  and  C8_17 
ROOT
HETATM    1  C2  UNL     1     -13.640  22.776   9.207  1.00  0.00     0.084 A 
HETATM    2  N1  UNL     1     -14.851  22.971   8.620  1.00  0.00    -0.331 N 
ATOM      3  H1  UNL     1     -15.025  22.588   7.691  1.00  0.00     0.168 HD
HETATM    4  C3  UNL     1     -15.802  23.646   9.232  1.00  0.00     0.148 A 
HETATM    5  N2  UNL     1     -15.551  24.129  10.429  1.00  0.00    -0.303 N 
ATOM      6  H2  UNL     1     -16.285  24.653  10.907  1.00  0.00     0.171 HD
HETATM    7  C6  UNL     1     -14.341  23.959  11.064  1.00  0.00     0.257 A 
HETATM    8  O3  UNL     1     -14.387  24.511  12.173  1.00  0.00    -0.267 OA
HETATM    9  C7  UNL     1     -13.311  23.261  10.463  1.00  0.00     0.052 A 
ENDROOT
BRANCH   9  10
HETATM   10  C8  UNL     1     -12.031  23.117  11.141  1.00  0.00    -0.004 C 
HETATM   11  C9  UNL     1     -11.216  24.389  10.880  1.00  0.00     0.019 C 
HETATM   12  C10 UNL     1      -9.994  24.492  11.774  1.00  0.00    -0.013 C 
HETATM   13  C11 UNL     1     -10.261  24.331  13.225  1.00  0.00     0.009 C 
HETATM   14  C15 UNL     1      -9.083  23.354  11.285  1.00  0.00     0.009 C 
HETATM   15  C12 UNL     1     -10.928  22.991  13.432  1.00  0.00    -0.013 C 
HETATM   16  C13 UNL     1     -10.078  21.846  12.972  1.00  0.00     0.009 C 
HETATM   17  C17 UNL     1     -12.220  22.909  12.614  1.00  0.00     0.019 C 
HETATM   18  C14 UNL     1      -9.819  22.089  11.522  1.00  0.00    -0.013 C 
HETATM   19  C16 UNL     1     -11.136  22.022  10.715  1.00  0.00     0.019 C 
ENDBRANCH   9  10
BRANCH   1  20
HETATM   20  S1  UNL     1     -12.495  21.848   8.267  1.00  0.00    -0.116 SA
HETATM   21  C1  UNL     1     -13.257  20.717   7.066  1.00  0.00     0.097 C 
ENDBRANCH   1  20
BRANCH   4  22
HETATM   22  S2  UNL     1     -17.379  23.862   8.391  1.00  0.00    -0.083 SA
BRANCH  22  23
HETATM   23  C4  UNL     1     -18.658  23.754   9.675  1.00  0.00     0.195 C 
BRANCH  23  24
HETATM   24  C5  UNL     1     -19.104  25.102  10.109  1.00  0.00     0.182 C 
HETATM   25  O1  UNL     1     -20.228  25.493   9.742  1.00  0.00    -0.647 OA
HETATM   26  O2  UNL     1     -18.240  25.839  10.893  1.00  0.00    -0.647 OA
ENDBRANCH  23  24
ENDBRANCH  22  23
ENDBRANCH   4  22
TORSDOF 5
ENDMDL
MODEL 2
REMARK VINA RESULT: -6.658577556      0.244      1.539
REMARK  5 active torsions:
REMARK  status: ('A' for Active; 'I' for Inactive)
REMARK    1  A    between atoms: S1_2  and  C2_3 
REMARK    2  A    between atoms: C3_6  and  S2_7 
REMARK    3  A    between atoms: S2_7  and  C4_8 
REMARK    4  A    between atoms: C4_8  and  C5_9 
REMARK    5  A    between atoms: C7_16  and  C8_17 
ROOT
HETATM    1  C2  UNL     1     -13.659  22.934   9.262  1.00  0.00     0.084 A 
HETATM    2  N1  UNL     1     -14.862  23.066   8.644  1.00  0.00    -0.331 N 
ATOM      3  H1  UNL     1     -14.988  22.685   7.706  1.00  0.00     0.168 HD
HETATM    4  C3  UNL     1     -15.868  23.677   9.236  1.00  0.00     0.148 A 
HETATM    5  N2  UNL     1     -15.679  24.158  10.445  1.00  0.00    -0.303 N 
ATOM      6  H2  UNL     1     -16.454  24.632  10.909  1.00  0.00     0.171 HD
HETATM    7  C6  UNL     1     -14.478  24.051  11.111  1.00  0.00     0.257 A 
HETATM    8  O3  UNL     1     -14.586  24.585  12.225  1.00  0.00    -0.267 OA
HETATM    9  C7  UNL     1     -13.393  23.422  10.532  1.00  0.00     0.052 A 
ENDROOT
BRANCH   9  10
HETATM   10  C8  UNL     1     -12.126  23.344  11.244  1.00  0.00    -0.004 C 
HETATM   11  C9  UNL     1     -11.419  22.057  10.804  1.00  0.00     0.019 C 
HETATM   12  C10 UNL     1      -9.966  22.011  11.241  1.00  0.00    -0.013 C 
HETATM   13  C11 UNL     1      -9.161  23.201  10.872  1.00  0.00     0.009 C 
HETATM   14  C15 UNL     1     -10.047  21.893  12.772  1.00  0.00     0.009 C 
HETATM   15  C12 UNL     1      -9.830  24.420  11.465  1.00  0.00    -0.013 C 
HETATM   16  C13 UNL     1      -9.930  24.355  12.959  1.00  0.00     0.009 C 
HETATM   17  C17 UNL     1     -11.268  24.539  10.953  1.00  0.00     0.019 C 
HETATM   18  C14 UNL     1     -10.717  23.122  13.259  1.00  0.00    -0.013 C 
HETATM   19  C16 UNL     1     -12.159  23.251  12.717  1.00  0.00     0.019 C 
ENDBRANCH   9  10
BRANCH   1  20
HETATM   20  S1  UNL     1     -12.436  22.087   8.343  1.00  0.00    -0.116 SA
HETATM   21  C1  UNL     1     -13.092  20.830   7.208  1.00  0.00     0.097 C 
ENDBRANCH   1  20
BRANCH   4  22
HETATM   22  S2  UNL     1     -17.432  23.811   8.354  1.00  0.00    -0.083 SA
BRANCH  22  23
HETATM   23  C4  UNL     1     -18.734  23.734   9.616  1.00  0.00     0.195 C 
BRANCH  23  24
HETATM   24  C5  UNL     1     -19.167  25.092  10.030  1.00  0.00     0.182 C 
HETATM   25  O1  UNL     1     -20.280  25.496   9.645  1.00  0.00    -0.647 OA
HETATM   26  O2  UNL     1     -18.303  25.825  10.817  1.00  0.00    -0.647 OA
ENDBRANCH  23  24
ENDBRANCH  22  23
ENDBRANCH   4  22
TORSDOF 5
ENDMDL
MODEL 3
REMARK VINA RESULT: -6.518125754      1.311      1.459
REMARK  5 active torsions:
REMARK  status: ('A' for Active; 'I' for Inactive)
REMARK    1  A    between atoms: S1_2  and  C2_3 
REMARK    2  A    between atoms: C3_6  and  S2_7 
REMARK    3  A    between atoms: S2_7  and  C4_8 
REMARK    4  A    between atoms: C4_8  and  C5_9 
REMARK    5  A    between atoms: C7_16  and  C8_17 
ROOT
HETATM    1  C2  UNL     1     -14.176  23.122   9.544  1.00  0.00     0.084 A 
HETATM    2  N1  UNL     1     -15.434  23.460   9.157  1.00  0.00    -0.331 N 
ATOM      3  H1  UNL     1     -15.789  23.127   8.260  1.00  0.00     0.168 HD
HETATM    4  C3  UNL     1     -16.201  24.212   9.919  1.00  0.00     0.148 A 
HETATM    5  N2  UNL     1     -15.720  24.628  11.069  1.00  0.00    -0.303 N 
ATOM      6  H2  UNL     1     -16.310  25.210  11.665  1.00  0.00     0.171 HD
HETATM    7  C6  UNL     1     -14.451  24.312  11.505  1.00  0.00     0.257 A 
HETATM    8  O3  UNL     1     -14.266  24.831  12.616  1.00  0.00    -0.267 OA
HETATM    9  C7  UNL     1     -13.607  23.530  10.740  1.00  0.00     0.052 A 
ENDROOT
BRANCH   9  10
HETATM   10  C8  UNL     1     -12.262  23.232  11.208  1.00  0.00    -0.004 C 
HETATM   11  C9  UNL     1     -11.383  24.454  10.917  1.00  0.00     0.019 C 
HETATM   12  C10 UNL     1     -10.041  24.388  11.625  1.00  0.00    -0.013 C 
HETATM   13  C11 UNL     1     -10.112  24.130  13.084  1.00  0.00     0.009 C 
HETATM   14  C15 UNL     1      -9.314  23.227  10.927  1.00  0.00     0.009 C 
HETATM   15  C12 UNL     1     -10.859  22.833  13.294  1.00  0.00    -0.013 C 
HETATM   16  C13 UNL     1     -10.187  21.667  12.634  1.00  0.00     0.009 C 
HETATM   17  C17 UNL     1     -12.256  22.919  12.675  1.00  0.00     0.019 C 
HETATM   18  C14 UNL     1     -10.118  22.008  11.182  1.00  0.00    -0.013 C 
HETATM   19  C16 UNL     1     -11.537  22.110  10.579  1.00  0.00     0.019 C 
ENDBRANCH   9  10
BRANCH   1  20
HETATM   20  S1  UNL     1     -13.296  22.110   8.423  1.00  0.00    -0.116 SA
HETATM   21  C1  UNL     1     -14.028  20.467   8.165  1.00  0.00     0.097 C 
ENDBRANCH   1  20
BRANCH   4  22
HETATM   22  S2  UNL     1     -17.857  24.617   9.338  1.00  0.00    -0.083 SA
BRANCH  22  23
HETATM   23  C4  UNL     1     -18.427  23.180   8.386  1.00  0.00     0.195 C 
BRANCH  23  24
HETATM   24  C5  UNL     1     -19.348  22.334   9.185  1.00  0.00     0.182 C 
HETATM   25  O1  UNL     1     -19.670  21.222   8.725  1.00  0.00    -0.647 OA
HETATM   26  O2  UNL     1     -19.790  22.835  10.392  1.00  0.00    -0.647 OA
ENDBRANCH  23  24
ENDBRANCH  22  23
ENDBRANCH   4  22
TORSDOF 5
ENDMDL
MODEL 4
REMARK VINA RESULT: -6.298477878      1.418      2.143
REMARK  5 active torsions:
REMARK  status: ('A' for Active; 'I' for Inactive)
REMARK    1  A    between atoms: S1_2  and  C2_3 
REMARK    2  A    between atoms: C3_6  and  S2_7 
REMARK    3  A    between atoms: S2_7  and  C4_8 
REMARK    4  A    between atoms: C4_8  and  C5_9 
REMARK    5  A    between atoms: C7_16  and  C8_17 
ROOT
HETATM    1  C2  UNL     1     -14.362  23.251   9.577  1.00  0.00     0.084 A 
HETATM    2  N1  UNL     1     -15.624  23.534   9.160  1.00  0.00    -0.331 N 
ATOM      3  H1  UNL     1     -15.938  23.199   8.250  1.00  0.00     0.168 HD
HETATM    4  C3  UNL     1     -16.448  24.235   9.912  1.00  0.00     0.148 A 
HETATM    5  N2  UNL     1     -16.018  24.655  11.082  1.00  0.00    -0.303 N 
ATOM      6  H2  UNL     1     -16.652  25.197  11.669  1.00  0.00     0.171 HD
HETATM    7  C6  UNL     1     -14.748  24.394  11.547  1.00  0.00     0.257 A 
HETATM    8  O3  UNL     1     -14.618  24.903  12.671  1.00  0.00    -0.267 OA
HETATM    9  C7  UNL     1     -13.846  23.667  10.794  1.00  0.00     0.052 A 
ENDROOT
BRANCH   9  10
HETATM   10  C8  UNL     1     -12.501  23.428  11.295  1.00  0.00    -0.004 C 
HETATM   11  C9  UNL     1     -11.940  22.202  10.564  1.00  0.00     0.019 C 
HETATM   12  C10 UNL     1     -10.446  22.032  10.773  1.00  0.00    -0.013 C 
HETATM   13  C11 UNL     1      -9.628  23.235  10.480  1.00  0.00     0.009 C 
HETATM   14  C15 UNL     1     -10.323  21.671  12.263  1.00  0.00     0.009 C 
HETATM   15  C12 UNL     1     -10.135  24.366  11.345  1.00  0.00    -0.013 C 
HETATM   16  C13 UNL     1     -10.033  24.064  12.809  1.00  0.00     0.009 C 
HETATM   17  C17 UNL     1     -11.620  24.620  11.071  1.00  0.00     0.019 C 
HETATM   18  C14 UNL     1     -10.845  22.830  13.025  1.00  0.00    -0.013 C 
HETATM   19  C16 UNL     1     -12.337  23.099  12.725  1.00  0.00     0.019 C 
ENDBRANCH   9  10
BRANCH   1  20
HETATM   20  S1  UNL     1     -13.403  22.302   8.465  1.00  0.00    -0.116 SA
HETATM   21  C1  UNL     1     -14.130  20.693   8.037  1.00  0.00     0.097 C 
ENDBRANCH   1  20
BRANCH   4  22
HETATM   22  S2  UNL     1     -18.105  24.568   9.293  1.00  0.00    -0.083 SA
BRANCH  22  23
HETATM   23  C4  UNL     1     -18.628  23.070   8.410  1.00  0.00     0.195 C 
BRANCH  23  24
HETATM   24  C5  UNL     1     -19.500  22.220   9.259  1.00  0.00     0.182 C 
HETATM   25  O1  UNL     1     -19.798  21.085   8.842  1.00  0.00    -0.647 OA
HETATM   26  O2  UNL     1     -19.929  22.745  10.461  1.00  0.00    -0.647 OA
ENDBRANCH  23  24
ENDBRANCH  22  23
ENDBRANCH   4  22
TORSDOF 5
ENDMDL
MODEL 5
REMARK VINA RESULT: -6.229867836      3.832      4.947
REMARK  5 active torsions:
REMARK  status: ('A' for Active; 'I' for Inactive)
REMARK    1  A    between atoms: S1_2  and  C2_3 
REMARK    2  A    between atoms: C3_6  and  S2_7 
REMARK    3  A    between atoms: S2_7  and  C4_8 
REMARK    4  A    between atoms: C4_8  and  C5_9 
REMARK    5  A    between atoms: C7_16  and  C8_17 
ROOT
HETATM    1  C2  UNL     1     -13.942  21.785   8.762  1.00  0.00     0.084 A 
HETATM    2  N1  UNL     1     -14.700  21.035   7.919  1.00  0.00    -0.331 N 
ATOM      3  H1  UNL     1     -15.558  21.429   7.531  1.00  0.00     0.168 HD
HETATM    4  C3  UNL     1     -14.346  19.809   7.595  1.00  0.00     0.148 A 
HETATM    5  N2  UNL     1     -13.237  19.325   8.109  1.00  0.00    -0.303 N 
ATOM      6  H2  UNL     1     -12.957  18.376   7.862  1.00  0.00     0.171 HD
HETATM    7  C6  UNL     1     -12.436  20.046   8.968  1.00  0.00     0.257 A 
HETATM    8  O3  UNL     1     -11.462  19.350   9.290  1.00  0.00    -0.267 OA
HETATM    9  C7  UNL     1     -12.767  21.335   9.340  1.00  0.00     0.052 A 
ENDROOT
BRANCH   9  10
HETATM   10  C8  UNL     1     -11.920  22.067  10.270  1.00  0.00    -0.004 C 
HETATM   11  C9  UNL     1     -11.358  23.287   9.532  1.00  0.00     0.019 C 
HETATM   12  C10 UNL     1     -10.709  24.289  10.470  1.00  0.00    -0.013 C 
HETATM   13  C11 UNL     1     -11.551  24.714  11.617  1.00  0.00     0.009 C 
HETATM   14  C15 UNL     1      -9.462  23.553  10.987  1.00  0.00     0.009 C 
HETATM   15  C12 UNL     1     -11.945  23.476  12.390  1.00  0.00    -0.013 C 
HETATM   16  C13 UNL     1     -10.762  22.724  12.919  1.00  0.00     0.009 C 
HETATM   17  C17 UNL     1     -12.693  22.498  11.481  1.00  0.00     0.019 C 
HETATM   18  C14 UNL     1      -9.946  22.361  11.723  1.00  0.00    -0.013 C 
HETATM   19  C16 UNL     1     -10.723  21.389  10.807  1.00  0.00     0.019 C 
ENDBRANCH   9  10
BRANCH   1  20
HETATM   20  S1  UNL     1     -14.547  23.395   9.077  1.00  0.00    -0.116 SA
HETATM   21  C1  UNL     1     -16.325  23.601   8.762  1.00  0.00     0.097 C 
ENDBRANCH   1  20
BRANCH   4  22
HETATM   22  S2  UNL     1     -15.401  18.877   6.472  1.00  0.00    -0.083 SA
BRANCH  22  23
HETATM   23  C4  UNL     1     -14.441  18.648   4.948  1.00  0.00     0.195 C 
BRANCH  23  24
HETATM   24  C5  UNL     1     -15.245  18.990   3.747  1.00  0.00     0.182 C 
HETATM   25  O1  UNL     1     -16.201  19.775   3.886  1.00  0.00    -0.647 OA
HETATM   26  O2  UNL     1     -14.879  18.412   2.549  1.00  0.00    -0.647 OA
ENDBRANCH  23  24
ENDBRANCH  22  23
ENDBRANCH   4  22
TORSDOF 5
ENDMDL
