MODEL 1
REMARK VINA RESULT: -7.942808420      0.000      0.000
REMARK  6 active torsions:
REMARK  status: ('A' for Active; 'I' for Inactive)
REMARK    1  A    between atoms: C3_4  and  C4_5 
REMARK    2  A    between atoms: C7_13  and  N5_14 
REMARK    3  A    between atoms: N5_14  and  C8_16 
REMARK    4  A    between atoms: C11_19  and  O1_20 
REMARK    5  A    between atoms: O1_20  and  C12_21 
REMARK    6  A    between atoms: C12_21  and  C13_22 
ROOT
HETATM    1  N1  UNL     1     -12.361  17.344   3.240  1.00  0.00    -0.191 NA
HETATM    2  C1  UNL     1     -12.901  17.366   4.269  1.00  0.00     0.105 C 
HETATM    3  C2  UNL     1     -13.578  17.371   5.545  1.00  0.00     0.117 A 
HETATM    4  C3  UNL     1     -14.624  16.543   5.890  1.00  0.00     0.056 A 
HETATM    5  N2  UNL     1     -14.953  16.877   7.150  1.00  0.00    -0.280 N 
ATOM      6  H2  UNL     1     -15.697  16.443   7.698  1.00  0.00     0.189 HD
HETATM    7  N3  UNL     1     -14.161  17.858   7.576  1.00  0.00    -0.163 N 
HETATM    8  N4  UNL     1     -13.894  18.648   8.609  1.00  0.00    -0.109 N 
ATOM      9  H4  UNL     1     -14.395  18.624   9.497  1.00  0.00     0.208 HD
HETATM   10  C7  UNL     1     -12.878  19.483   8.330  1.00  0.00     0.700 A 
HETATM   11  N6  UNL     1     -12.504  19.195   7.072  1.00  0.00    -0.170 N 
ATOM     12  H6  UNL     1     -11.753  19.651   6.554  1.00  0.00     0.186 HD
HETATM   13  C21 UNL     1     -13.287  18.201   6.611  1.00  0.00     0.183 A 
ENDROOT
BRANCH   4  14
HETATM   14  C4  UNL     1     -15.263  15.483   5.031  1.00  0.00     0.039 A 
HETATM   15  C5  UNL     1     -14.717  14.106   5.077  1.00  0.00     0.011 A 
HETATM   16  C6  UNL     1     -16.090  14.438   5.678  1.00  0.00     0.011 A 
ENDBRANCH   4  14
BRANCH  10  17
HETATM   17  N5  UNL     1     -12.368  20.387   9.131  1.00  0.00    -0.190 N 
ATOM     18  H5  UNL     1     -11.417  20.282   9.485  1.00  0.00     0.184 HD
BRANCH  17  19
HETATM   19  C8  UNL     1     -13.144  21.506   9.499  1.00  0.00     0.049 A 
HETATM   20  C9  UNL     1     -13.240  21.819  10.832  1.00  0.00     0.033 A 
HETATM   21  C10 UNL     1     -13.981  22.896  11.240  1.00  0.00     0.039 A 
HETATM   22  C11 UNL     1     -14.643  23.682  10.341  1.00  0.00     0.068 A 
HETATM   23  C19 UNL     1     -14.521  23.329   8.979  1.00  0.00     0.039 A 
HETATM   24  C20 UNL     1     -13.786  22.260   8.555  1.00  0.00     0.033 A 
BRANCH  22  25
HETATM   25  O1  UNL     1     -15.396  24.756  10.668  1.00  0.00    -0.351 OA
BRANCH  25  26
HETATM   26  C12 UNL     1     -16.353  25.509  10.072  1.00  0.00     0.180 C 
BRANCH  26  27
HETATM   27  C13 UNL     1     -17.759  25.110  10.384  1.00  0.00     0.014 C 
HETATM   28  C14 UNL     1     -17.938  23.641  10.003  1.00  0.00     0.033 C 
HETATM   29  C15 UNL     1     -18.151  23.507   8.514  1.00  0.00    -0.030 C 
HETATM   30  C16 UNL     1     -19.104  24.285   8.020  1.00  0.00    -0.031 C 
HETATM   31  C17 UNL     1     -19.810  25.159   8.988  1.00  0.00     0.027 C 
HETATM   32  C18 UNL     1     -18.751  26.000   9.662  1.00  0.00     0.011 C 
ENDBRANCH  26  27
ENDBRANCH  25  26
ENDBRANCH  22  25
ENDBRANCH  17  19
ENDBRANCH  10  17
TORSDOF 6
ENDMDL
MODEL 2
REMARK VINA RESULT: -7.924506693      2.976      8.674
REMARK  6 active torsions:
REMARK  status: ('A' for Active; 'I' for Inactive)
REMARK    1  A    between atoms: C3_4  and  C4_5 
REMARK    2  A    between atoms: C7_13  and  N5_14 
REMARK    3  A    between atoms: N5_14  and  C8_16 
REMARK    4  A    between atoms: C11_19  and  O1_20 
REMARK    5  A    between atoms: O1_20  and  C12_21 
REMARK    6  A    between atoms: C12_21  and  C13_22 
ROOT
HETATM    1  N1  UNL     1     -16.154  25.862  12.566  1.00  0.00    -0.191 NA
HETATM    2  C1  UNL     1     -16.104  25.255  11.576  1.00  0.00     0.105 C 
HETATM    3  C2  UNL     1     -16.056  24.516  10.336  1.00  0.00     0.117 A 
HETATM    4  C3  UNL     1     -17.041  24.521   9.373  1.00  0.00     0.056 A 
HETATM    5  N2  UNL     1     -16.600  23.710   8.396  1.00  0.00    -0.280 N 
ATOM      6  H2  UNL     1     -17.104  23.500   7.534  1.00  0.00     0.189 HD
HETATM    7  N3  UNL     1     -15.405  23.221   8.723  1.00  0.00    -0.163 N 
HETATM    8  N4  UNL     1     -14.424  22.428   8.314  1.00  0.00    -0.109 N 
ATOM      9  H4  UNL     1     -14.424  21.920   7.429  1.00  0.00     0.208 HD
HETATM   10  C7  UNL     1     -13.429  22.382   9.217  1.00  0.00     0.700 A 
HETATM   11  N6  UNL     1     -13.816  23.181  10.226  1.00  0.00    -0.170 N 
ATOM     12  H6  UNL     1     -13.284  23.368  11.077  1.00  0.00     0.186 HD
HETATM   13  C21 UNL     1     -15.024  23.694   9.924  1.00  0.00     0.183 A 
ENDROOT
BRANCH   4  14
HETATM   14  C4  UNL     1     -18.342  25.281   9.409  1.00  0.00     0.039 A 
HETATM   15  C5  UNL     1     -19.451  24.833   8.534  1.00  0.00     0.011 A 
HETATM   16  C6  UNL     1     -19.518  24.657  10.058  1.00  0.00     0.011 A 
ENDBRANCH   4  14
BRANCH  10  17
HETATM   17  N5  UNL     1     -12.316  21.695   9.120  1.00  0.00    -0.190 N 
ATOM     18  H5  UNL     1     -11.419  22.141   9.313  1.00  0.00     0.184 HD
BRANCH  17  19
HETATM   19  C8  UNL     1     -12.369  20.336   8.748  1.00  0.00     0.049 A 
HETATM   20  C9  UNL     1     -11.650  19.935   7.650  1.00  0.00     0.033 A 
HETATM   21  C10 UNL     1     -11.669  18.626   7.248  1.00  0.00     0.039 A 
HETATM   22  C11 UNL     1     -12.400  17.689   7.921  1.00  0.00     0.068 A 
HETATM   23  C19 UNL     1     -13.126  18.139   9.046  1.00  0.00     0.039 A 
HETATM   24  C20 UNL     1     -13.118  19.439   9.460  1.00  0.00     0.033 A 
BRANCH  22  25
HETATM   25  O1  UNL     1     -12.471  16.382   7.582  1.00  0.00    -0.351 OA
BRANCH  25  26
HETATM   26  C12 UNL     1     -13.126  15.636   6.660  1.00  0.00     0.180 C 
BRANCH  26  27
HETATM   27  C13 UNL     1     -14.170  16.367   5.880  1.00  0.00     0.014 C 
HETATM   28  C14 UNL     1     -15.370  15.439   5.693  1.00  0.00     0.033 C 
HETATM   29  C15 UNL     1     -15.107  14.463   4.570  1.00  0.00    -0.030 C 
HETATM   30  C16 UNL     1     -14.707  15.020   3.436  1.00  0.00    -0.031 C 
HETATM   31  C17 UNL     1     -14.578  16.497   3.435  1.00  0.00     0.027 C 
HETATM   32  C18 UNL     1     -13.621  16.846   4.550  1.00  0.00     0.011 C 
ENDBRANCH  26  27
ENDBRANCH  25  26
ENDBRANCH  22  25
ENDBRANCH  17  19
ENDBRANCH  10  17
TORSDOF 6
ENDMDL
MODEL 3
REMARK VINA RESULT: -7.781415551      3.112      4.618
REMARK  6 active torsions:
REMARK  status: ('A' for Active; 'I' for Inactive)
REMARK    1  A    between atoms: C3_4  and  C4_5 
REMARK    2  A    between atoms: C7_13  and  N5_14 
REMARK    3  A    between atoms: N5_14  and  C8_16 
REMARK    4  A    between atoms: C11_19  and  O1_20 
REMARK    5  A    between atoms: O1_20  and  C12_21 
REMARK    6  A    between atoms: C12_21  and  C13_22 
ROOT
HETATM    1  N1  UNL     1     -13.135  14.615   3.524  1.00  0.00    -0.191 NA
HETATM    2  C1  UNL     1     -13.657  15.653   3.487  1.00  0.00     0.105 C 
HETATM    3  C2  UNL     1     -14.314  16.937   3.421  1.00  0.00     0.117 A 
HETATM    4  C3  UNL     1     -14.661  17.590   2.258  1.00  0.00     0.056 A 
HETATM    5  N2  UNL     1     -15.243  18.739   2.645  1.00  0.00    -0.280 N 
ATOM      6  H2  UNL     1     -15.613  19.451   2.015  1.00  0.00     0.189 HD
HETATM    7  N3  UNL     1     -15.262  18.807   3.975  1.00  0.00    -0.163 N 
HETATM    8  N4  UNL     1     -15.634  19.559   5.003  1.00  0.00    -0.109 N 
ATOM      9  H4  UNL     1     -16.097  20.463   4.919  1.00  0.00     0.208 HD
HETATM   10  C7  UNL     1     -15.319  18.971   6.171  1.00  0.00     0.700 A 
HETATM   11  N6  UNL     1     -14.729  17.808   5.846  1.00  0.00    -0.170 N 
ATOM     12  H6  UNL     1     -14.368  17.117   6.505  1.00  0.00     0.186 HD
HETATM   13  C21 UNL     1     -14.694  17.707   4.504  1.00  0.00     0.183 A 
ENDROOT
BRANCH   4  14
HETATM   14  C4  UNL     1     -14.434  17.113   0.847  1.00  0.00     0.039 A 
HETATM   15  C5  UNL     1     -15.612  16.884  -0.023  1.00  0.00     0.011 A 
HETATM   16  C6  UNL     1     -14.654  18.057  -0.273  1.00  0.00     0.011 A 
ENDBRANCH   4  14
BRANCH  10  17
HETATM   17  N5  UNL     1     -15.548  19.446   7.372  1.00  0.00    -0.190 N 
ATOM     18  H5  UNL     1     -16.469  19.344   7.798  1.00  0.00     0.184 HD
BRANCH  17  19
HETATM   19  C8  UNL     1     -14.510  20.098   8.069  1.00  0.00     0.049 A 
HETATM   20  C9  UNL     1     -14.303  21.433   7.824  1.00  0.00     0.033 A 
HETATM   21  C10 UNL     1     -13.308  22.112   8.476  1.00  0.00     0.039 A 
HETATM   22  C11 UNL     1     -12.498  21.486   9.379  1.00  0.00     0.068 A 
HETATM   23  C19 UNL     1     -12.741  20.113   9.605  1.00  0.00     0.039 A 
HETATM   24  C20 UNL     1     -13.728  19.422   8.964  1.00  0.00     0.033 A 
BRANCH  22  25
HETATM   25  O1  UNL     1     -11.494  22.087  10.057  1.00  0.00    -0.351 OA
BRANCH  25  26
HETATM   26  C12 UNL     1     -11.082  22.165  11.346  1.00  0.00     0.180 C 
BRANCH  26  27
HETATM   27  C13 UNL     1     -11.678  23.285  12.136  1.00  0.00     0.014 C 
HETATM   28  C14 UNL     1     -12.686  22.696  13.122  1.00  0.00     0.033 C 
HETATM   29  C15 UNL     1     -13.990  22.395  12.421  1.00  0.00    -0.030 C 
HETATM   30  C16 UNL     1     -14.486  23.406  11.721  1.00  0.00    -0.031 C 
HETATM   31  C17 UNL     1     -13.701  24.663  11.728  1.00  0.00     0.027 C 
HETATM   32  C18 UNL     1     -12.321  24.312  11.225  1.00  0.00     0.011 C 
ENDBRANCH  26  27
ENDBRANCH  25  26
ENDBRANCH  22  25
ENDBRANCH  17  19
ENDBRANCH  10  17
TORSDOF 6
ENDMDL
MODEL 4
REMARK VINA RESULT: -7.589645225      0.541      1.047
REMARK  6 active torsions:
REMARK  status: ('A' for Active; 'I' for Inactive)
REMARK    1  A    between atoms: C3_4  and  C4_5 
REMARK    2  A    between atoms: C7_13  and  N5_14 
REMARK    3  A    between atoms: N5_14  and  C8_16 
REMARK    4  A    between atoms: C11_19  and  O1_20 
REMARK    5  A    between atoms: O1_20  and  C12_21 
REMARK    6  A    between atoms: C12_21  and  C13_22 
ROOT
HETATM    1  N1  UNL     1     -12.362  16.981   3.154  1.00  0.00    -0.191 NA
HETATM    2  C1  UNL     1     -12.885  17.066   4.189  1.00  0.00     0.105 C 
HETATM    3  C2  UNL     1     -13.540  17.150   5.473  1.00  0.00     0.117 A 
HETATM    4  C3  UNL     1     -14.622  16.389   5.860  1.00  0.00     0.056 A 
HETATM    5  N2  UNL     1     -14.914  16.782   7.113  1.00  0.00    -0.280 N 
ATOM      6  H2  UNL     1     -15.671  16.406   7.685  1.00  0.00     0.189 HD
HETATM    7  N3  UNL     1     -14.066  17.735   7.494  1.00  0.00    -0.163 N 
HETATM    8  N4  UNL     1     -13.743  18.544   8.494  1.00  0.00    -0.109 N 
ATOM      9  H4  UNL     1     -14.230  18.577   9.389  1.00  0.00     0.208 HD
HETATM   10  C7  UNL     1     -12.690  19.316   8.173  1.00  0.00     0.700 A 
HETATM   11  N6  UNL     1     -12.350  18.966   6.920  1.00  0.00    -0.170 N 
ATOM     12  H6  UNL     1     -11.585  19.365   6.376  1.00  0.00     0.186 HD
HETATM   13  C21 UNL     1     -13.191  17.999   6.505  1.00  0.00     0.183 A 
ENDROOT
BRANCH   4  14
HETATM   14  C4  UNL     1     -15.328  15.335   5.048  1.00  0.00     0.039 A 
HETATM   15  C5  UNL     1     -14.864  13.931   5.148  1.00  0.00     0.011 A 
HETATM   16  C6  UNL     1     -16.211  14.368   5.740  1.00  0.00     0.011 A 
ENDBRANCH   4  14
BRANCH  10  17
HETATM   17  N5  UNL     1     -12.121  20.219   8.935  1.00  0.00    -0.190 N 
ATOM     18  H5  UNL     1     -11.139  20.129   9.193  1.00  0.00     0.184 HD
BRANCH  17  19
HETATM   19  C8  UNL     1     -12.880  21.316   9.395  1.00  0.00     0.049 A 
HETATM   20  C9  UNL     1     -13.054  21.463  10.749  1.00  0.00     0.033 A 
HETATM   21  C10 UNL     1     -13.781  22.511  11.245  1.00  0.00     0.039 A 
HETATM   22  C11 UNL     1     -14.353  23.433  10.415  1.00  0.00     0.068 A 
HETATM   23  C19 UNL     1     -14.151  23.249   9.029  1.00  0.00     0.039 A 
HETATM   24  C20 UNL     1     -13.429  22.211   8.518  1.00  0.00     0.033 A 
BRANCH  22  25
HETATM   25  O1  UNL     1     -15.087  24.490  10.830  1.00  0.00    -0.351 OA
BRANCH  25  26
HETATM   26  C12 UNL     1     -16.400  24.824  10.871  1.00  0.00     0.180 C 
BRANCH  26  27
HETATM   27  C13 UNL     1     -17.033  25.071   9.540  1.00  0.00     0.014 C 
HETATM   28  C14 UNL     1     -18.213  26.021   9.738  1.00  0.00     0.033 C 
HETATM   29  C15 UNL     1     -19.414  25.266  10.253  1.00  0.00    -0.030 C 
HETATM   30  C16 UNL     1     -19.734  24.189   9.549  1.00  0.00    -0.031 C 
HETATM   31  C17 UNL     1     -18.879  23.890   8.375  1.00  0.00     0.027 C 
HETATM   32  C18 UNL     1     -17.465  23.770   8.893  1.00  0.00     0.011 C 
ENDBRANCH  26  27
ENDBRANCH  25  26
ENDBRANCH  22  25
ENDBRANCH  17  19
ENDBRANCH  10  17
TORSDOF 6
ENDMDL
MODEL 5
REMARK VINA RESULT: -7.499609490      1.490      2.153
REMARK  6 active torsions:
REMARK  status: ('A' for Active; 'I' for Inactive)
REMARK    1  A    between atoms: C3_4  and  C4_5 
REMARK    2  A    between atoms: C7_13  and  N5_14 
REMARK    3  A    between atoms: N5_14  and  C8_16 
REMARK    4  A    between atoms: C11_19  and  O1_20 
REMARK    5  A    between atoms: O1_20  and  C12_21 
REMARK    6  A    between atoms: C12_21  and  C13_22 
ROOT
HETATM    1  N1  UNL     1     -10.167  18.950   4.883  1.00  0.00    -0.191 NA
HETATM    2  C1  UNL     1     -10.959  18.834   5.726  1.00  0.00     0.105 C 
HETATM    3  C2  UNL     1     -11.941  18.669   6.773  1.00  0.00     0.117 A 
HETATM    4  C3  UNL     1     -12.723  17.549   6.954  1.00  0.00     0.056 A 
HETATM    5  N2  UNL     1     -13.489  17.810   8.028  1.00  0.00    -0.280 N 
ATOM      6  H2  UNL     1     -14.182  17.174   8.424  1.00  0.00     0.189 HD
HETATM    7  N3  UNL     1     -13.207  19.024   8.496  1.00  0.00    -0.163 N 
HETATM    8  N4  UNL     1     -13.515  19.906   9.438  1.00  0.00    -0.109 N 
ATOM      9  H4  UNL     1     -14.215  19.755  10.163  1.00  0.00     0.208 HD
HETATM   10  C7  UNL     1     -12.781  21.025   9.312  1.00  0.00     0.700 A 
HETATM   11  N6  UNL     1     -11.988  20.823   8.245  1.00  0.00    -0.170 N 
ATOM     12  H6  UNL     1     -11.304  21.484   7.876  1.00  0.00     0.186 HD
HETATM   13  C21 UNL     1     -12.248  19.599   7.747  1.00  0.00     0.183 A 
ENDROOT
BRANCH   4  14
HETATM   14  C4  UNL     1     -12.717  16.293   6.122  1.00  0.00     0.039 A 
HETATM   15  C5  UNL     1     -12.315  15.018   6.762  1.00  0.00     0.011 A 
HETATM   16  C6  UNL     1     -13.771  15.277   6.349  1.00  0.00     0.011 A 
ENDBRANCH   4  14
BRANCH  10  17
HETATM   17  N5  UNL     1     -12.837  22.088  10.078  1.00  0.00    -0.190 N 
ATOM     18  H5  UNL     1     -12.084  22.287  10.737  1.00  0.00     0.184 HD
BRANCH  17  19
HETATM   19  C8  UNL     1     -13.947  22.954   9.984  1.00  0.00     0.049 A 
HETATM   20  C9  UNL     1     -14.433  23.514  11.139  1.00  0.00     0.033 A 
HETATM   21  C10 UNL     1     -15.508  24.361  11.101  1.00  0.00     0.039 A 
HETATM   22  C11 UNL     1     -16.126  24.669   9.922  1.00  0.00     0.068 A 
HETATM   23  C19 UNL     1     -15.598  24.073   8.755  1.00  0.00     0.039 A 
HETATM   24  C20 UNL     1     -14.527  23.228   8.776  1.00  0.00     0.033 A 
BRANCH  22  25
HETATM   25  O1  UNL     1     -17.192  25.491   9.806  1.00  0.00    -0.351 OA
BRANCH  25  26
HETATM   26  C12 UNL     1     -18.424  25.595  10.364  1.00  0.00     0.180 C 
BRANCH  26  27
HETATM   27  C13 UNL     1     -19.547  25.088   9.520  1.00  0.00     0.014 C 
HETATM   28  C14 UNL     1     -20.033  23.765  10.109  1.00  0.00     0.033 C 
HETATM   29  C15 UNL     1     -19.115  22.639   9.697  1.00  0.00    -0.030 C 
HETATM   30  C16 UNL     1     -18.882  22.565   8.394  1.00  0.00    -0.031 C 
HETATM   31  C17 UNL     1     -19.545  23.584   7.546  1.00  0.00     0.027 C 
HETATM   32  C18 UNL     1     -19.115  24.932   8.075  1.00  0.00     0.011 C 
ENDBRANCH  26  27
ENDBRANCH  25  26
ENDBRANCH  22  25
ENDBRANCH  17  19
ENDBRANCH  10  17
TORSDOF 6
ENDMDL
