MODEL 1
REMARK VINA RESULT: -7.789679915      0.000      0.000
REMARK  7 active torsions:
REMARK  status: ('A' for Active; 'I' for Inactive)
REMARK    1  A    between atoms: C2_2  and  N1_3 
REMARK    2  A    between atoms: C7_9  and  O2_10 
REMARK    3  A    between atoms: O2_10  and  C8_11 
REMARK    4  A    between atoms: C8_11  and  N4_16 
REMARK    5  A    between atoms: N4_16  and  C10_18 
REMARK    6  A    between atoms: C10_18  and  C11_19 
REMARK    7  A    between atoms: C11_19  and  C12_20 
ROOT
HETATM    1  C8  UNL     1     -12.732  23.382  10.881  1.00  0.00     0.233 C 
HETATM    2  N2  UNL     1     -11.670  22.949  11.379  1.00  0.00    -0.259 N 
ATOM      3  H2  UNL     1     -11.125  22.417  10.701  1.00  0.00     0.181 HD
HETATM    4  C9  UNL     1     -11.059  23.002  12.575  1.00  0.00     0.185 C 
HETATM    5  N3  UNL     1     -10.509  23.030  13.593  1.00  0.00    -0.172 NA
ENDROOT
BRANCH   1   6
HETATM    6  O2  UNL     1     -12.962  23.064   9.529  1.00  0.00    -0.279 OA
BRANCH   6   7
HETATM    7  C7  UNL     1     -13.021  21.749   9.085  1.00  0.00     0.080 A 
HETATM    8  C6  UNL     1     -13.509  20.679   9.778  1.00  0.00     0.040 A 
HETATM    9  C5  UNL     1     -13.519  19.410   9.229  1.00  0.00     0.040 A 
HETATM   10  C4  UNL     1     -13.047  19.156   7.975  1.00  0.00     0.079 A 
HETATM   11  O1  UNL     1     -13.013  17.933   7.339  1.00  0.00    -0.332 OA
HETATM   12  C20 UNL     1     -12.545  20.235   7.256  1.00  0.00    -0.004 A 
HETATM   13  C3  UNL     1     -13.279  17.843   5.949  1.00  0.00     0.296 C 
HETATM   14  N1  UNL     1     -12.864  18.970   5.203  1.00  0.00    -0.388 N 
HETATM   15  C21 UNL     1     -12.037  19.905   5.897  1.00  0.00     0.160 C 
HETATM   16  C19 UNL     1     -12.532  21.480   7.786  1.00  0.00     0.049 A 
BRANCH  14  17
HETATM   17  C2  UNL     1     -13.842  19.579   4.365  1.00  0.00     0.115 C 
HETATM   18  C1  UNL     1     -15.263  19.261   4.688  1.00  0.00     0.026 C 
ENDBRANCH  14  17
ENDBRANCH   6   7
ENDBRANCH   1   6
BRANCH   1  19
HETATM   19  N4  UNL     1     -13.697  24.160  11.601  1.00  0.00    -0.355 N 
ATOM     20  H4  UNL     1     -13.367  24.841  12.285  1.00  0.00     0.163 HD
BRANCH  19  21
HETATM   21  C10 UNL     1     -15.120  24.017  11.390  1.00  0.00     0.123 C 
BRANCH  21  22
HETATM   22  C11 UNL     1     -15.704  25.375  11.035  1.00  0.00     0.024 C 
BRANCH  22  23
HETATM   23  C12 UNL     1     -16.678  25.305   9.896  1.00  0.00    -0.013 C 
HETATM   24  C13 UNL     1     -18.088  25.486  10.391  1.00  0.00     0.005 C 
HETATM   25  C14 UNL     1     -19.025  25.345   9.200  1.00  0.00     0.004 C 
HETATM   26  C15 UNL     1     -18.932  23.927   8.704  1.00  0.00    -0.019 C 
HETATM   27  C16 UNL     1     -19.449  23.019   9.774  1.00  0.00     0.010 C 
HETATM   28  C17 UNL     1     -17.543  23.605   8.235  1.00  0.00     0.004 C 
HETATM   29  C18 UNL     1     -16.480  23.969   9.210  1.00  0.00     0.005 C 
ENDBRANCH  22  23
ENDBRANCH  21  22
ENDBRANCH  19  21
ENDBRANCH   1  19
TORSDOF 7
ENDMDL
MODEL 2
REMARK VINA RESULT: -7.696026053      1.180      1.794
REMARK  7 active torsions:
REMARK  status: ('A' for Active; 'I' for Inactive)
REMARK    1  A    between atoms: C2_2  and  N1_3 
REMARK    2  A    between atoms: C7_9  and  O2_10 
REMARK    3  A    between atoms: O2_10  and  C8_11 
REMARK    4  A    between atoms: C8_11  and  N4_16 
REMARK    5  A    between atoms: N4_16  and  C10_18 
REMARK    6  A    between atoms: C10_18  and  C11_19 
REMARK    7  A    between atoms: C11_19  and  C12_20 
ROOT
HETATM    1  C8  UNL     1     -12.964  22.812  11.532  1.00  0.00     0.233 C 
HETATM    2  N2  UNL     1     -11.855  22.710  12.101  1.00  0.00    -0.259 N 
ATOM      3  H2  UNL     1     -11.497  21.755  12.060  1.00  0.00     0.181 HD
HETATM    4  C9  UNL     1     -11.012  23.528  12.752  1.00  0.00     0.185 C 
HETATM    5  N3  UNL     1     -10.266  24.209  13.317  1.00  0.00    -0.172 NA
ENDROOT
BRANCH   1   6
HETATM    6  O2  UNL     1     -13.486  21.634  10.965  1.00  0.00    -0.279 OA
BRANCH   6   7
HETATM    7  C7  UNL     1     -13.306  21.324   9.623  1.00  0.00     0.080 A 
HETATM    8  C6  UNL     1     -12.268  21.718   8.831  1.00  0.00     0.040 A 
HETATM    9  C5  UNL     1     -12.193  21.342   7.502  1.00  0.00     0.040 A 
HETATM   10  C4  UNL     1     -13.144  20.563   6.911  1.00  0.00     0.079 A 
HETATM   11  O1  UNL     1     -13.162  20.135   5.601  1.00  0.00    -0.332 OA
HETATM   12  C20 UNL     1     -14.210  20.154   7.705  1.00  0.00    -0.004 A 
HETATM   13  C3  UNL     1     -13.620  18.832   5.281  1.00  0.00     0.296 C 
HETATM   14  N1  UNL     1     -14.642  18.350   6.131  1.00  0.00    -0.388 N 
HETATM   15  C21 UNL     1     -15.223  19.311   7.014  1.00  0.00     0.160 C 
HETATM   16  C19 UNL     1     -14.290  20.517   9.006  1.00  0.00     0.049 A 
BRANCH  14  17
HETATM   17  C2  UNL     1     -14.427  17.076   6.732  1.00  0.00     0.115 C 
HETATM   18  C1  UNL     1     -13.022  16.774   7.131  1.00  0.00     0.026 C 
ENDBRANCH  14  17
ENDBRANCH   6   7
ENDBRANCH   1   6
BRANCH   1  19
HETATM   19  N4  UNL     1     -13.706  24.034  11.435  1.00  0.00    -0.355 N 
ATOM     20  H4  UNL     1     -13.196  24.913  11.347  1.00  0.00     0.163 HD
BRANCH  19  21
HETATM   21  C10 UNL     1     -15.151  24.067  11.459  1.00  0.00     0.123 C 
BRANCH  21  22
HETATM   22  C11 UNL     1     -15.620  25.433  10.984  1.00  0.00     0.024 C 
BRANCH  22  23
HETATM   23  C12 UNL     1     -16.619  25.346   9.868  1.00  0.00    -0.013 C 
HETATM   24  C13 UNL     1     -18.019  25.521  10.394  1.00  0.00     0.005 C 
HETATM   25  C14 UNL     1     -18.982  25.361   9.227  1.00  0.00     0.004 C 
HETATM   26  C15 UNL     1     -18.890  23.940   8.742  1.00  0.00    -0.019 C 
HETATM   27  C16 UNL     1     -19.375  23.038   9.832  1.00  0.00     0.010 C 
HETATM   28  C17 UNL     1     -17.510  23.624   8.244  1.00  0.00     0.004 C 
HETATM   29  C18 UNL     1     -16.427  24.005   9.191  1.00  0.00     0.005 C 
ENDBRANCH  22  23
ENDBRANCH  21  22
ENDBRANCH  19  21
ENDBRANCH   1  19
TORSDOF 7
ENDMDL
MODEL 3
REMARK VINA RESULT: -7.680448242      2.735      6.427
REMARK  7 active torsions:
REMARK  status: ('A' for Active; 'I' for Inactive)
REMARK    1  A    between atoms: C2_2  and  N1_3 
REMARK    2  A    between atoms: C7_9  and  O2_10 
REMARK    3  A    between atoms: O2_10  and  C8_11 
REMARK    4  A    between atoms: C8_11  and  N4_16 
REMARK    5  A    between atoms: N4_16  and  C10_18 
REMARK    6  A    between atoms: C10_18  and  C11_19 
REMARK    7  A    between atoms: C11_19  and  C12_20 
ROOT
HETATM    1  C8  UNL     1     -16.148  24.976  10.453  1.00  0.00     0.233 C 
HETATM    2  N2  UNL     1     -17.360  25.244  10.610  1.00  0.00    -0.259 N 
ATOM      3  H2  UNL     1     -17.563  25.524  11.570  1.00  0.00     0.181 HD
HETATM    4  C9  UNL     1     -18.464  25.258   9.845  1.00  0.00     0.185 C 
HETATM    5  N3  UNL     1     -19.432  25.280   9.211  1.00  0.00    -0.172 NA
ENDROOT
BRANCH   1   6
HETATM    6  O2  UNL     1     -15.327  25.109  11.589  1.00  0.00    -0.279 OA
BRANCH   6   7
HETATM    7  C7  UNL     1     -14.210  24.307  11.784  1.00  0.00     0.080 A 
HETATM    8  C6  UNL     1     -14.195  23.054  12.325  1.00  0.00     0.040 A 
HETATM    9  C5  UNL     1     -13.016  22.346  12.468  1.00  0.00     0.040 A 
HETATM   10  C4  UNL     1     -11.811  22.853  12.080  1.00  0.00     0.079 A 
HETATM   11  O1  UNL     1     -10.584  22.231  12.178  1.00  0.00    -0.332 OA
HETATM   12  C20 UNL     1     -11.809  24.129  11.528  1.00  0.00    -0.004 A 
HETATM   13  C3  UNL     1      -9.620  22.387  11.151  1.00  0.00     0.296 C 
HETATM   14  N1  UNL     1      -9.656  23.645  10.505  1.00  0.00    -0.388 N 
HETATM   15  C21 UNL     1     -10.470  24.640  11.127  1.00  0.00     0.160 C 
HETATM   16  C19 UNL     1     -12.958  24.829  11.385  1.00  0.00     0.049 A 
BRANCH  14  17
HETATM   17  C2  UNL     1      -9.748  23.633   9.084  1.00  0.00     0.115 C 
HETATM   18  C1  UNL     1      -9.762  24.970   8.423  1.00  0.00     0.026 C 
ENDBRANCH  14  17
ENDBRANCH   6   7
ENDBRANCH   1   6
BRANCH   1  19
HETATM   19  N4  UNL     1     -15.575  24.552   9.210  1.00  0.00    -0.355 N 
ATOM     20  H4  UNL     1     -15.161  25.252   8.595  1.00  0.00     0.163 HD
BRANCH  19  21
HETATM   21  C10 UNL     1     -15.563  23.167   8.796  1.00  0.00     0.123 C 
BRANCH  21  22
HETATM   22  C11 UNL     1     -14.126  22.743   8.536  1.00  0.00     0.024 C 
BRANCH  22  23
HETATM   23  C12 UNL     1     -13.838  21.350   9.013  1.00  0.00    -0.013 C 
HETATM   24  C13 UNL     1     -12.357  21.077   8.992  1.00  0.00     0.005 C 
HETATM   25  C14 UNL     1     -12.140  19.635   9.427  1.00  0.00     0.004 C 
HETATM   26  C15 UNL     1     -12.748  18.740   8.381  1.00  0.00    -0.019 C 
HETATM   27  C16 UNL     1     -11.991  18.928   7.104  1.00  0.00     0.010 C 
HETATM   28  C17 UNL     1     -14.227  18.966   8.263  1.00  0.00     0.004 C 
HETATM   29  C18 UNL     1     -14.607  20.397   8.121  1.00  0.00     0.005 C 
ENDBRANCH  22  23
ENDBRANCH  21  22
ENDBRANCH  19  21
ENDBRANCH   1  19
TORSDOF 7
ENDMDL
MODEL 4
REMARK VINA RESULT: -7.637875442      1.879      2.870
REMARK  7 active torsions:
REMARK  status: ('A' for Active; 'I' for Inactive)
REMARK    1  A    between atoms: C2_2  and  N1_3 
REMARK    2  A    between atoms: C7_9  and  O2_10 
REMARK    3  A    between atoms: O2_10  and  C8_11 
REMARK    4  A    between atoms: C8_11  and  N4_16 
REMARK    5  A    between atoms: N4_16  and  C10_18 
REMARK    6  A    between atoms: C10_18  and  C11_19 
REMARK    7  A    between atoms: C11_19  and  C12_20 
ROOT
HETATM    1  C8  UNL     1     -10.714  23.480  11.257  1.00  0.00     0.233 C 
HETATM    2  N2  UNL     1      -9.693  24.182  11.090  1.00  0.00    -0.259 N 
ATOM      3  H2  UNL     1      -8.946  23.659  10.633  1.00  0.00     0.181 HD
HETATM    4  C9  UNL     1      -9.322  25.446  11.355  1.00  0.00     0.185 C 
HETATM    5  N3  UNL     1      -8.975  26.529  11.572  1.00  0.00    -0.172 NA
ENDROOT
BRANCH   1   6
HETATM    6  O2  UNL     1     -10.640  22.151  10.798  1.00  0.00    -0.279 OA
BRANCH   6   7
HETATM    7  C7  UNL     1     -11.346  21.719   9.683  1.00  0.00     0.080 A 
HETATM    8  C6  UNL     1     -11.359  22.308   8.452  1.00  0.00     0.040 A 
HETATM    9  C5  UNL     1     -12.102  21.782   7.411  1.00  0.00     0.040 A 
HETATM   10  C4  UNL     1     -12.858  20.656   7.552  1.00  0.00     0.079 A 
HETATM   11  O1  UNL     1     -13.631  20.054   6.581  1.00  0.00    -0.332 OA
HETATM   12  C20 UNL     1     -12.857  20.045   8.801  1.00  0.00    -0.004 A 
HETATM   13  C3  UNL     1     -13.708  18.641   6.504  1.00  0.00     0.296 C 
HETATM   14  N1  UNL     1     -13.615  17.984   7.753  1.00  0.00    -0.388 N 
HETATM   15  C21 UNL     1     -13.701  18.824   8.905  1.00  0.00     0.160 C 
HETATM   16  C19 UNL     1     -12.133  20.552   9.825  1.00  0.00     0.049 A 
BRANCH  14  17
HETATM   17  C2  UNL     1     -12.635  16.955   7.865  1.00  0.00     0.115 C 
HETATM   18  C1  UNL     1     -11.409  17.133   7.034  1.00  0.00     0.026 C 
ENDBRANCH  14  17
ENDBRANCH   6   7
ENDBRANCH   1   6
BRANCH   1  19
HETATM   19  N4  UNL     1     -11.918  23.950  11.876  1.00  0.00    -0.355 N 
ATOM     20  H4  UNL     1     -12.213  24.912  11.710  1.00  0.00     0.163 HD
BRANCH  19  21
HETATM   21  C10 UNL     1     -12.731  23.109  12.727  1.00  0.00     0.123 C 
BRANCH  21  22
HETATM   22  C11 UNL     1     -14.020  22.769  11.996  1.00  0.00     0.024 C 
BRANCH  22  23
HETATM   23  C12 UNL     1     -14.452  23.852  11.051  1.00  0.00    -0.013 C 
HETATM   24  C13 UNL     1     -15.627  24.609  11.612  1.00  0.00     0.005 C 
HETATM   25  C14 UNL     1     -16.051  25.646  10.583  1.00  0.00     0.004 C 
HETATM   26  C15 UNL     1     -16.561  24.915   9.371  1.00  0.00    -0.019 C 
HETATM   27  C16 UNL     1     -17.793  24.161   9.761  1.00  0.00     0.010 C 
HETATM   28  C17 UNL     1     -15.486  24.069   8.753  1.00  0.00     0.004 C 
HETATM   29  C18 UNL     1     -14.776  23.195   9.725  1.00  0.00     0.005 C 
ENDBRANCH  22  23
ENDBRANCH  21  22
ENDBRANCH  19  21
ENDBRANCH   1  19
TORSDOF 7
ENDMDL
MODEL 5
REMARK VINA RESULT: -7.600405382      1.785      2.330
REMARK  7 active torsions:
REMARK  status: ('A' for Active; 'I' for Inactive)
REMARK    1  A    between atoms: C2_2  and  N1_3 
REMARK    2  A    between atoms: C7_9  and  O2_10 
REMARK    3  A    between atoms: O2_10  and  C8_11 
REMARK    4  A    between atoms: C8_11  and  N4_16 
REMARK    5  A    between atoms: N4_16  and  C10_18 
REMARK    6  A    between atoms: C10_18  and  C11_19 
REMARK    7  A    between atoms: C11_19  and  C12_20 
ROOT
HETATM    1  C8  UNL     1     -10.863  24.168  11.136  1.00  0.00     0.233 C 
HETATM    2  N2  UNL     1      -9.701  24.380  11.549  1.00  0.00    -0.259 N 
ATOM      3  H2  UNL     1      -9.006  24.217  10.820  1.00  0.00     0.181 HD
HETATM    4  C9  UNL     1      -9.129  24.765  12.701  1.00  0.00     0.185 C 
HETATM    5  N3  UNL     1      -8.608  25.095  13.681  1.00  0.00    -0.172 NA
ENDROOT
BRANCH   1   6
HETATM    6  O2  UNL     1     -10.983  23.761   9.794  1.00  0.00    -0.279 OA
BRANCH   6   7
HETATM    7  C7  UNL     1     -11.035  22.420   9.435  1.00  0.00     0.080 A 
HETATM    8  C6  UNL     1     -10.699  21.357  10.221  1.00  0.00     0.040 A 
HETATM    9  C5  UNL     1     -10.795  20.059   9.755  1.00  0.00     0.040 A 
HETATM   10  C4  UNL     1     -11.227  19.768   8.494  1.00  0.00     0.079 A 
HETATM   11  O1  UNL     1     -11.358  18.514   7.936  1.00  0.00    -0.332 OA
HETATM   12  C20 UNL     1     -11.571  20.841   7.680  1.00  0.00    -0.004 A 
HETATM   13  C3  UNL     1     -12.446  18.226   7.075  1.00  0.00     0.296 C 
HETATM   14  N1  UNL     1     -12.881  19.326   6.300  1.00  0.00    -0.388 N 
HETATM   15  C21 UNL     1     -12.030  20.472   6.313  1.00  0.00     0.160 C 
HETATM   16  C19 UNL     1     -11.481  22.114   8.128  1.00  0.00     0.049 A 
BRANCH  14  17
HETATM   17  C2  UNL     1     -14.270  19.641   6.358  1.00  0.00     0.115 C 
HETATM   18  C1  UNL     1     -14.881  19.632   7.718  1.00  0.00     0.026 C 
ENDBRANCH  14  17
ENDBRANCH   6   7
ENDBRANCH   1   6
BRANCH   1  19
HETATM   19  N4  UNL     1     -12.039  24.314  11.941  1.00  0.00    -0.355 N 
ATOM     20  H4  UNL     1     -12.464  25.236  12.028  1.00  0.00     0.163 HD
BRANCH  19  21
HETATM   21  C10 UNL     1     -12.645  23.199  12.635  1.00  0.00     0.123 C 
BRANCH  21  22
HETATM   22  C11 UNL     1     -13.923  22.805  11.912  1.00  0.00     0.024 C 
BRANCH  22  23
HETATM   23  C12 UNL     1     -14.416  23.876  10.985  1.00  0.00    -0.013 C 
HETATM   24  C13 UNL     1     -15.626  24.562  11.563  1.00  0.00     0.005 C 
HETATM   25  C14 UNL     1     -16.110  25.591  10.551  1.00  0.00     0.004 C 
HETATM   26  C15 UNL     1     -16.589  24.851   9.331  1.00  0.00    -0.019 C 
HETATM   27  C16 UNL     1     -17.777  24.028   9.717  1.00  0.00     0.010 C 
HETATM   28  C17 UNL     1     -15.474  24.071   8.696  1.00  0.00     0.004 C 
HETATM   29  C18 UNL     1     -14.713  23.222   9.651  1.00  0.00     0.005 C 
ENDBRANCH  22  23
ENDBRANCH  21  22
ENDBRANCH  19  21
ENDBRANCH   1  19
TORSDOF 7
ENDMDL
