MODEL 1
REMARK VINA RESULT: -6.228191648      0.000      0.000
REMARK  5 active torsions:
REMARK  status: ('A' for Active; 'I' for Inactive)
REMARK    1  A    between atoms: C2_2  and  C3_3 
REMARK    2  A    between atoms: C3_3  and  C4_4 
REMARK    3  A    between atoms: C4_4  and  C5_5 
REMARK    4  A    between atoms: C5_5  and  C6_6 
REMARK    5  A    between atoms: C9_12  and  C10_13 
ROOT
HETATM    1  C6  UNL     1      -6.117  14.927   7.028  1.00  0.00     0.212 C 
HETATM    2  C7  UNL     1      -7.495  14.666   7.613  1.00  0.00     0.265 C 
HETATM    3  N1  UNL     1      -8.410  15.718   7.221  1.00  0.00    -0.071 N 
ATOM      4  H11 UNL     1      -8.053  16.652   7.415  1.00  0.00     0.277 HD
ATOM      5  H12 UNL     1      -9.239  15.769   7.813  1.00  0.00     0.277 HD
HETATM    6  C8  UNL     1      -8.723  15.508   5.821  1.00  0.00     0.273 C 
HETATM    7  C9  UNL     1      -7.496  14.928   5.157  1.00  0.00     0.281 C 
HETATM    8  N6  UNL     1      -6.300  15.516   5.737  1.00  0.00    -0.057 N 
ATOM      9  H61 UNL     1      -5.480  15.424   5.137  1.00  0.00     0.278 HD
ATOM     10  H62 UNL     1      -6.330  16.535   5.764  1.00  0.00     0.278 HD
ENDROOT
BRANCH   7  11
HETATM   11  C10 UNL     1      -7.582  15.136   3.704  1.00  0.00     0.143 A 
HETATM   12  N2  UNL     1      -6.818  16.002   3.023  1.00  0.00    -0.273 N 
HETATM   13  N3  UNL     1      -7.114  15.971   1.757  1.00  0.00    -0.225 N 
ATOM     14  H2  UNL     1      -6.104  16.600   3.440  1.00  0.00     0.189 HD
HETATM   15  N4  UNL     1      -8.078  15.084   1.589  1.00  0.00    -0.005 NA
ATOM     16  H3  UNL     1      -6.679  16.532   1.025  1.00  0.00     0.205 HD
HETATM   17  N5  UNL     1      -8.376  14.562   2.778  1.00  0.00    -0.269 N 
ATOM     18  H5  UNL     1      -9.085  13.849   2.957  1.00  0.00     0.185 HD
ENDBRANCH   7  11
BRANCH   1  19
HETATM   19  C5  UNL     1      -5.388  15.823   7.997  1.00  0.00     0.035 C 
BRANCH  19  20
HETATM   20  C4  UNL     1      -4.400  16.732   7.318  1.00  0.00     0.006 C 
BRANCH  20  21
HETATM   21  C3  UNL     1      -3.109  15.980   7.127  1.00  0.00     0.026 C 
BRANCH  21  22
HETATM   22  C2  UNL     1      -2.438  16.283   5.859  1.00  0.00    -0.037 C 
HETATM   23  C1  UNL     1      -2.822  17.337   5.155  1.00  0.00     0.007 C 
ENDBRANCH  21  22
ENDBRANCH  20  21
ENDBRANCH  19  20
ENDBRANCH   1  19
TORSDOF 5
ENDMDL
MODEL 2
REMARK VINA RESULT: -6.132302072      1.904      2.919
REMARK  5 active torsions:
REMARK  status: ('A' for Active; 'I' for Inactive)
REMARK    1  A    between atoms: C2_2  and  C3_3 
REMARK    2  A    between atoms: C3_3  and  C4_4 
REMARK    3  A    between atoms: C4_4  and  C5_5 
REMARK    4  A    between atoms: C5_5  and  C6_6 
REMARK    5  A    between atoms: C9_12  and  C10_13 
ROOT
HETATM    1  C6  UNL     1      -6.095  15.708   4.174  1.00  0.00     0.212 C 
HETATM    2  C7  UNL     1      -5.386  14.437   3.740  1.00  0.00     0.265 C 
HETATM    3  N1  UNL     1      -6.344  13.364   3.572  1.00  0.00    -0.071 N 
ATOM      4  H11 UNL     1      -6.950  13.238   4.381  1.00  0.00     0.277 HD
ATOM      5  H12 UNL     1      -5.915  12.438   3.585  1.00  0.00     0.277 HD
HETATM    6  C8  UNL     1      -7.075  13.634   2.350  1.00  0.00     0.273 C 
HETATM    7  C9  UNL     1      -7.193  15.134   2.208  1.00  0.00     0.281 C 
HETATM    8  N6  UNL     1      -7.367  15.740   3.517  1.00  0.00    -0.057 N 
ATOM      9  H61 UNL     1      -7.769  16.676   3.473  1.00  0.00     0.278 HD
ATOM     10  H62 UNL     1      -8.108  15.303   4.064  1.00  0.00     0.278 HD
ENDROOT
BRANCH   7  11
HETATM   11  C10 UNL     1      -8.295  15.452   1.286  1.00  0.00     0.143 A 
HETATM   12  N2  UNL     1      -8.244  16.422   0.363  1.00  0.00    -0.273 N 
HETATM   13  N3  UNL     1      -9.359  16.472  -0.305  1.00  0.00    -0.225 N 
ATOM     14  H2  UNL     1      -7.443  17.034   0.205  1.00  0.00     0.189 HD
HETATM   15  N4  UNL     1     -10.159  15.535   0.173  1.00  0.00    -0.005 NA
ATOM     16  H3  UNL     1      -9.578  17.120  -1.062  1.00  0.00     0.205 HD
HETATM   17  N5  UNL     1      -9.517  14.899   1.152  1.00  0.00    -0.269 N 
ATOM     18  H5  UNL     1      -9.888  14.126   1.705  1.00  0.00     0.185 HD
ENDBRANCH   7  11
BRANCH   1  19
HETATM   19  C5  UNL     1      -6.199  15.664   5.677  1.00  0.00     0.035 C 
BRANCH  19  20
HETATM   20  C4  UNL     1      -4.872  15.860   6.358  1.00  0.00     0.006 C 
BRANCH  20  21
HETATM   21  C3  UNL     1      -4.288  17.172   5.901  1.00  0.00     0.026 C 
BRANCH  21  22
HETATM   22  C2  UNL     1      -2.874  17.083   5.524  1.00  0.00    -0.037 C 
HETATM   23  C1  UNL     1      -2.209  15.962   5.753  1.00  0.00     0.007 C 
ENDBRANCH  21  22
ENDBRANCH  20  21
ENDBRANCH  19  20
ENDBRANCH   1  19
TORSDOF 5
ENDMDL
MODEL 3
REMARK VINA RESULT: -6.114042250      2.348      3.588
REMARK  5 active torsions:
REMARK  status: ('A' for Active; 'I' for Inactive)
REMARK    1  A    between atoms: C2_2  and  C3_3 
REMARK    2  A    between atoms: C3_3  and  C4_4 
REMARK    3  A    between atoms: C4_4  and  C5_5 
REMARK    4  A    between atoms: C5_5  and  C6_6 
REMARK    5  A    between atoms: C9_12  and  C10_13 
ROOT
HETATM    1  C6  UNL     1      -4.681  15.778   7.393  1.00  0.00     0.212 C 
HETATM    2  C7  UNL     1      -3.452  16.567   6.975  1.00  0.00     0.265 C 
HETATM    3  N1  UNL     1      -2.695  15.825   5.989  1.00  0.00    -0.071 N 
ATOM      4  H11 UNL     1      -2.489  14.869   6.279  1.00  0.00     0.277 HD
ATOM      5  H12 UNL     1      -1.730  16.145   5.900  1.00  0.00     0.277 HD
HETATM    6  C8  UNL     1      -3.433  15.894   4.744  1.00  0.00     0.273 C 
HETATM    7  C9  UNL     1      -4.905  15.923   5.084  1.00  0.00     0.281 C 
HETATM    8  N6  UNL     1      -5.160  15.079   6.239  1.00  0.00    -0.057 N 
ATOM      9  H61 UNL     1      -6.137  14.798   6.320  1.00  0.00     0.278 HD
ATOM     10  H62 UNL     1      -4.761  14.145   6.146  1.00  0.00     0.278 HD
ENDROOT
BRANCH   7  11
HETATM   11  C10 UNL     1      -5.687  15.521   3.905  1.00  0.00     0.143 A 
HETATM   12  N2  UNL     1      -5.377  14.481   3.119  1.00  0.00    -0.273 N 
HETATM   13  N3  UNL     1      -6.245  14.364   2.157  1.00  0.00    -0.225 N 
ATOM     14  H2  UNL     1      -4.574  13.867   3.256  1.00  0.00     0.189 HD
HETATM   15  N4  UNL     1      -7.138  15.327   2.299  1.00  0.00    -0.005 NA
ATOM     16  H3  UNL     1      -6.238  13.655   1.424  1.00  0.00     0.205 HD
HETATM   17  N5  UNL     1      -6.808  16.047   3.370  1.00  0.00    -0.269 N 
ATOM     18  H5  UNL     1      -7.317  16.857   3.725  1.00  0.00     0.185 HD
ENDBRANCH   7  11
BRANCH   1  19
HETATM   19  C5  UNL     1      -4.258  14.863   8.514  1.00  0.00     0.035 C 
BRANCH  19  20
HETATM   20  C4  UNL     1      -4.623  15.400   9.872  1.00  0.00     0.006 C 
BRANCH  20  21
HETATM   21  C3  UNL     1      -3.496  15.097  10.825  1.00  0.00     0.026 C 
BRANCH  21  22
HETATM   22  C2  UNL     1      -2.265  14.663  10.158  1.00  0.00    -0.037 C 
HETATM   23  C1  UNL     1      -1.254  14.213  10.885  1.00  0.00     0.007 C 
ENDBRANCH  21  22
ENDBRANCH  20  21
ENDBRANCH  19  20
ENDBRANCH   1  19
TORSDOF 5
ENDMDL
MODEL 4
REMARK VINA RESULT: -6.035566361      2.446      3.759
REMARK  5 active torsions:
REMARK  status: ('A' for Active; 'I' for Inactive)
REMARK    1  A    between atoms: C2_2  and  C3_3 
REMARK    2  A    between atoms: C3_3  and  C4_4 
REMARK    3  A    between atoms: C4_4  and  C5_5 
REMARK    4  A    between atoms: C5_5  and  C6_6 
REMARK    5  A    between atoms: C9_12  and  C10_13 
ROOT
HETATM    1  C6  UNL     1      -4.287  15.925   7.631  1.00  0.00     0.212 C 
HETATM    2  C7  UNL     1      -3.067  16.577   7.000  1.00  0.00     0.265 C 
HETATM    3  N1  UNL     1      -2.593  15.777   5.890  1.00  0.00    -0.071 N 
ATOM      4  H11 UNL     1      -2.453  14.797   6.134  1.00  0.00     0.277 HD
ATOM      5  H12 UNL     1      -1.629  15.985   5.629  1.00  0.00     0.277 HD
HETATM    6  C8  UNL     1      -3.529  15.963   4.800  1.00  0.00     0.273 C 
HETATM    7  C9  UNL     1      -4.902  16.155   5.402  1.00  0.00     0.281 C 
HETATM    8  N6  UNL     1      -5.044  15.316   6.580  1.00  0.00    -0.057 N 
ATOM      9  H61 UNL     1      -6.017  15.148   6.836  1.00  0.00     0.278 HD
ATOM     10  H62 UNL     1      -4.782  14.345   6.412  1.00  0.00     0.278 HD
ENDROOT
BRANCH   7  11
HETATM   11  C10 UNL     1      -5.925  15.876   4.383  1.00  0.00     0.143 A 
HETATM   12  N2  UNL     1      -7.226  15.699   4.654  1.00  0.00    -0.273 N 
HETATM   13  N3  UNL     1      -7.892  15.469   3.559  1.00  0.00    -0.225 N 
ATOM     14  H2  UNL     1      -7.637  15.738   5.587  1.00  0.00     0.189 HD
HETATM   15  N4  UNL     1      -7.035  15.493   2.554  1.00  0.00    -0.005 NA
ATOM     16  H3  UNL     1      -8.895  15.302   3.490  1.00  0.00     0.205 HD
HETATM   17  N5  UNL     1      -5.822  15.742   3.044  1.00  0.00    -0.269 N 
ATOM     18  H5  UNL     1      -4.962  15.818   2.501  1.00  0.00     0.185 HD
ENDBRANCH   7  11
BRANCH   1  19
HETATM   19  C5  UNL     1      -3.780  14.939   8.653  1.00  0.00     0.035 C 
BRANCH  19  20
HETATM   20  C4  UNL     1      -4.245  15.257  10.048  1.00  0.00     0.006 C 
BRANCH  20  21
HETATM   21  C3  UNL     1      -3.125  14.952  11.008  1.00  0.00     0.026 C 
BRANCH  21  22
HETATM   22  C2  UNL     1      -1.885  14.536  10.346  1.00  0.00    -0.037 C 
HETATM   23  C1  UNL     1      -0.862  14.124  11.080  1.00  0.00     0.007 C 
ENDBRANCH  21  22
ENDBRANCH  20  21
ENDBRANCH  19  20
ENDBRANCH   1  19
TORSDOF 5
ENDMDL
MODEL 5
REMARK VINA RESULT: -6.034443304      1.897      3.819
REMARK  5 active torsions:
REMARK  status: ('A' for Active; 'I' for Inactive)
REMARK    1  A    between atoms: C2_2  and  C3_3 
REMARK    2  A    between atoms: C3_3  and  C4_4 
REMARK    3  A    between atoms: C4_4  and  C5_5 
REMARK    4  A    between atoms: C5_5  and  C6_6 
REMARK    5  A    between atoms: C9_12  and  C10_13 
ROOT
HETATM    1  C6  UNL     1      -6.610  15.631   3.336  1.00  0.00     0.212 C 
HETATM    2  C7  UNL     1      -7.055  14.382   2.593  1.00  0.00     0.265 C 
HETATM    3  N1  UNL     1      -7.158  13.266   3.511  1.00  0.00    -0.071 N 
ATOM      4  H11 UNL     1      -6.318  13.131   4.072  1.00  0.00     0.277 HD
ATOM      5  H12 UNL     1      -7.149  12.360   3.042  1.00  0.00     0.277 HD
HETATM    6  C8  UNL     1      -8.348  13.481   4.310  1.00  0.00     0.273 C 
HETATM    7  C9  UNL     1      -8.511  14.972   4.499  1.00  0.00     0.281 C 
HETATM    8  N6  UNL     1      -7.206  15.596   4.637  1.00  0.00    -0.057 N 
ATOM      9  H61 UNL     1      -7.248  16.513   5.081  1.00  0.00     0.278 HD
ATOM     10  H62 UNL     1      -6.617  15.139   5.333  1.00  0.00     0.278 HD
ENDROOT
BRANCH   7  11
HETATM   11  C10 UNL     1      -9.385  15.224   5.655  1.00  0.00     0.143 A 
HETATM   12  N2  UNL     1      -9.318  16.324   6.419  1.00  0.00    -0.273 N 
HETATM   13  N3  UNL     1     -10.210  16.274   7.365  1.00  0.00    -0.225 N 
ATOM     14  H2  UNL     1      -8.661  17.091   6.279  1.00  0.00     0.189 HD
HETATM   15  N4  UNL     1     -10.875  15.140   7.233  1.00  0.00    -0.005 NA
ATOM     16  H3  UNL     1     -10.369  16.984   8.080  1.00  0.00     0.205 HD
HETATM   17  N5  UNL     1     -10.379  14.484   6.186  1.00  0.00    -0.269 N 
ATOM     18  H5  UNL     1     -10.696  13.576   5.845  1.00  0.00     0.185 HD
ENDBRANCH   7  11
BRANCH   1  19
HETATM   19  C5  UNL     1      -5.103  15.612   3.367  1.00  0.00     0.035 C 
BRANCH  19  20
HETATM   20  C4  UNL     1      -4.551  15.585   4.767  1.00  0.00     0.006 C 
BRANCH  20  21
HETATM   21  C3  UNL     1      -3.488  16.647   4.883  1.00  0.00     0.026 C 
BRANCH  21  22
HETATM   22  C2  UNL     1      -2.454  16.333   5.874  1.00  0.00    -0.037 C 
HETATM   23  C1  UNL     1      -2.813  15.957   7.092  1.00  0.00     0.007 C 
ENDBRANCH  21  22
ENDBRANCH  20  21
ENDBRANCH  19  20
ENDBRANCH   1  19
TORSDOF 5
ENDMDL
