MODEL 1
REMARK VINA RESULT: -6.180020681      0.000      0.000
REMARK  6 active torsions:
REMARK  status: ('A' for Active; 'I' for Inactive)
REMARK    1  A    between atoms: N1_1  and  C1_5 
REMARK    2  A    between atoms: C1_5  and  C2_6 
REMARK    3  A    between atoms: C2_6  and  C3_7 
REMARK    4  A    between atoms: C3_7  and  C4_8 
REMARK    5  A    between atoms: C4_8  and  C5_9 
REMARK    6  A    between atoms: C6_12  and  C7_13 
ROOT
HETATM    1  C5  UNL     1      -4.068  15.974   4.822  1.00  0.00     0.097 A 
HETATM    2  N2  UNL     1      -4.490  15.136   3.857  1.00  0.00    -0.327 N 
ATOM      3  H2  UNL     1      -3.924  14.393   3.446  1.00  0.00     0.169 HD
HETATM    4  C6  UNL     1      -5.758  15.413   3.510  1.00  0.00     0.165 A 
HETATM    5  N5  UNL     1      -6.131  16.451   4.281  1.00  0.00    -0.281 N 
ATOM      6  H5  UNL     1      -7.044  16.904   4.263  1.00  0.00     0.188 HD
HETATM    7  N6  UNL     1      -5.118  16.789   5.070  1.00  0.00    -0.287 N 
ATOM      8  H6  UNL     1      -5.130  17.545   5.754  1.00  0.00     0.188 HD
ENDROOT
BRANCH   1   9
HETATM    9  C4  UNL     1      -2.753  16.044   5.509  1.00  0.00     0.078 C 
BRANCH   9  10
HETATM   10  C3  UNL     1      -2.898  16.627   6.877  1.00  0.00     0.009 C 
BRANCH  10  11
HETATM   11  C2  UNL     1      -2.989  15.537   7.914  1.00  0.00     0.027 C 
BRANCH  11  12
HETATM   12  C1  UNL     1      -4.376  15.366   8.465  1.00  0.00     0.229 C 
BRANCH  12  13
HETATM   13  N1  UNL     1      -4.936  14.164   7.865  1.00  0.00    -0.079 N 
ATOM     14  H13 UNL     1      -5.568  14.364   7.089  1.00  0.00     0.274 HD
ATOM     15  H12 UNL     1      -4.249  13.623   7.340  1.00  0.00     0.274 HD
ATOM     16  H11 UNL     1      -5.379  13.629   8.612  1.00  0.00     0.274 HD
ENDBRANCH  12  13
ENDBRANCH  11  12
ENDBRANCH  10  11
ENDBRANCH   9  10
ENDBRANCH   1   9
BRANCH   4  17
HETATM   17  C7  UNL     1      -6.579  14.721   2.491  1.00  0.00     0.143 C 
HETATM   18  N3  UNL     1      -6.495  13.485   2.199  1.00  0.00    -0.372 N 
HETATM   19  C8  UNL     1      -7.429  13.114   1.169  1.00  0.00     0.141 C 
ATOM     20  H3  UNL     1      -5.845  12.836   2.641  1.00  0.00     0.161 HD
HETATM   21  C9  UNL     1      -8.429  14.280   1.201  1.00  0.00     0.141 C 
HETATM   22  N4  UNL     1      -7.566  15.328   1.696  1.00  0.00    -0.372 N 
ATOM     23  H4  UNL     1      -7.656  16.325   1.504  1.00  0.00     0.161 HD
ENDBRANCH   4  17
TORSDOF 6
ENDMDL
MODEL 2
REMARK VINA RESULT: -5.875182542      1.666      6.381
REMARK  6 active torsions:
REMARK  status: ('A' for Active; 'I' for Inactive)
REMARK    1  A    between atoms: N1_1  and  C1_5 
REMARK    2  A    between atoms: C1_5  and  C2_6 
REMARK    3  A    between atoms: C2_6  and  C3_7 
REMARK    4  A    between atoms: C3_7  and  C4_8 
REMARK    5  A    between atoms: C4_8  and  C5_9 
REMARK    6  A    between atoms: C6_12  and  C7_13 
ROOT
HETATM    1  C5  UNL     1      -6.745  14.269   2.465  1.00  0.00     0.097 A 
HETATM    2  N2  UNL     1      -5.536  14.448   3.027  1.00  0.00    -0.327 N 
ATOM      3  H2  UNL     1      -4.725  13.850   2.864  1.00  0.00     0.169 HD
HETATM    4  C6  UNL     1      -5.543  15.522   3.834  1.00  0.00     0.165 A 
HETATM    5  N5  UNL     1      -6.790  16.021   3.769  1.00  0.00    -0.281 N 
ATOM      6  H5  UNL     1      -7.126  16.844   4.270  1.00  0.00     0.188 HD
HETATM    7  N6  UNL     1      -7.514  15.271   2.948  1.00  0.00    -0.287 N 
ATOM      8  H6  UNL     1      -8.495  15.426   2.717  1.00  0.00     0.188 HD
ENDROOT
BRANCH   1   9
HETATM    9  C4  UNL     1      -7.204  13.223   1.515  1.00  0.00     0.078 C 
BRANCH   9  10
HETATM   10  C3  UNL     1      -8.627  13.452   1.119  1.00  0.00     0.009 C 
BRANCH  10  11
HETATM   11  C2  UNL     1      -8.709  14.009  -0.279  1.00  0.00     0.027 C 
BRANCH  11  12
HETATM   12  C1  UNL     1      -9.470  15.300  -0.352  1.00  0.00     0.229 C 
BRANCH  12  13
HETATM   13  N1  UNL     1      -8.529  16.376  -0.078  1.00  0.00    -0.079 N 
ATOM     14  H13 UNL     1      -8.054  16.712  -0.915  1.00  0.00     0.274 HD
ATOM     15  H12 UNL     1      -8.988  17.252   0.174  1.00  0.00     0.274 HD
ATOM     16  H11 UNL     1      -7.886  16.043   0.640  1.00  0.00     0.274 HD
ENDBRANCH  12  13
ENDBRANCH  11  12
ENDBRANCH  10  11
ENDBRANCH   9  10
ENDBRANCH   1   9
BRANCH   4  17
HETATM   17  C7  UNL     1      -4.412  16.051   4.631  1.00  0.00     0.143 C 
HETATM   18  N3  UNL     1      -3.362  15.399   4.934  1.00  0.00    -0.372 N 
HETATM   19  C8  UNL     1      -2.449  16.191   5.715  1.00  0.00     0.141 C 
ATOM     20  H3  UNL     1      -3.188  14.433   4.657  1.00  0.00     0.161 HD
HETATM   21  C9  UNL     1      -2.946  17.620   5.449  1.00  0.00     0.141 C 
HETATM   22  N4  UNL     1      -4.337  17.345   5.172  1.00  0.00    -0.372 N 
ATOM     23  H4  UNL     1      -5.121  17.976   5.337  1.00  0.00     0.161 HD
ENDBRANCH   4  17
TORSDOF 6
ENDMDL
MODEL 3
REMARK VINA RESULT: -5.868824899      2.205      5.486
REMARK  6 active torsions:
REMARK  status: ('A' for Active; 'I' for Inactive)
REMARK    1  A    between atoms: N1_1  and  C1_5 
REMARK    2  A    between atoms: C1_5  and  C2_6 
REMARK    3  A    between atoms: C2_6  and  C3_7 
REMARK    4  A    between atoms: C3_7  and  C4_8 
REMARK    5  A    between atoms: C4_8  and  C5_9 
REMARK    6  A    between atoms: C6_12  and  C7_13 
ROOT
HETATM    1  C5  UNL     1      -6.855  14.084   3.126  1.00  0.00     0.097 A 
HETATM    2  N2  UNL     1      -6.143  14.466   4.202  1.00  0.00    -0.327 N 
ATOM      3  H2  UNL     1      -6.266  14.091   5.143  1.00  0.00     0.169 HD
HETATM    4  C6  UNL     1      -5.248  15.411   3.866  1.00  0.00     0.165 A 
HETATM    5  N5  UNL     1      -5.411  15.618   2.547  1.00  0.00    -0.281 N 
ATOM      6  H5  UNL     1      -4.879  16.280   1.982  1.00  0.00     0.188 HD
HETATM    7  N6  UNL     1      -6.375  14.823   2.100  1.00  0.00    -0.287 N 
ATOM      8  H6  UNL     1      -6.703  14.777   1.135  1.00  0.00     0.188 HD
ENDROOT
BRANCH   1   9
HETATM    9  C4  UNL     1      -7.943  13.079   3.017  1.00  0.00     0.078 C 
BRANCH   9  10
HETATM   10  C3  UNL     1      -8.719  12.995   4.292  1.00  0.00     0.009 C 
BRANCH  10  11
HETATM   11  C2  UNL     1      -9.700  14.135   4.395  1.00  0.00     0.027 C 
BRANCH  11  12
HETATM   12  C1  UNL     1      -9.677  14.809   5.736  1.00  0.00     0.229 C 
BRANCH  12  13
HETATM   13  N1  UNL     1      -9.044  16.107   5.559  1.00  0.00    -0.079 N 
ATOM     14  H13 UNL     1      -8.215  16.229   6.141  1.00  0.00     0.274 HD
ATOM     15  H12 UNL     1      -8.586  16.207   4.654  1.00  0.00     0.274 HD
ATOM     16  H11 UNL     1      -9.757  16.819   5.726  1.00  0.00     0.274 HD
ENDBRANCH  12  13
ENDBRANCH  11  12
ENDBRANCH  10  11
ENDBRANCH   9  10
ENDBRANCH   1   9
BRANCH   4  17
HETATM   17  C7  UNL     1      -4.279  16.085   4.761  1.00  0.00     0.143 C 
HETATM   18  N3  UNL     1      -4.420  17.255   5.242  1.00  0.00    -0.372 N 
HETATM   19  C8  UNL     1      -3.308  17.627   6.076  1.00  0.00     0.141 C 
ATOM     20  H3  UNL     1      -5.223  17.857   5.058  1.00  0.00     0.161 HD
HETATM   21  C9  UNL     1      -2.661  16.267   6.382  1.00  0.00     0.141 C 
HETATM   22  N4  UNL     1      -3.066  15.535   5.203  1.00  0.00    -0.372 N 
ATOM     23  H4  UNL     1      -2.561  14.761   4.772  1.00  0.00     0.161 HD
ENDBRANCH   4  17
TORSDOF 6
ENDMDL
MODEL 4
REMARK VINA RESULT: -5.819483760      3.383      5.397
REMARK  6 active torsions:
REMARK  status: ('A' for Active; 'I' for Inactive)
REMARK    1  A    between atoms: N1_1  and  C1_5 
REMARK    2  A    between atoms: C1_5  and  C2_6 
REMARK    3  A    between atoms: C2_6  and  C3_7 
REMARK    4  A    between atoms: C3_7  and  C4_8 
REMARK    5  A    between atoms: C4_8  and  C5_9 
REMARK    6  A    between atoms: C6_12  and  C7_13 
ROOT
HETATM    1  C5  UNL     1      -8.168  15.258   5.253  1.00  0.00     0.097 A 
HETATM    2  N2  UNL     1      -6.961  15.492   5.800  1.00  0.00    -0.327 N 
ATOM      3  H2  UNL     1      -6.733  15.352   6.785  1.00  0.00     0.169 HD
HETATM    4  C6  UNL     1      -6.098  15.935   4.871  1.00  0.00     0.165 A 
HETATM    5  N5  UNL     1      -6.789  15.977   3.718  1.00  0.00    -0.281 N 
ATOM      6  H5  UNL     1      -6.418  16.272   2.815  1.00  0.00     0.188 HD
HETATM    7  N6  UNL     1      -8.032  15.571   3.944  1.00  0.00    -0.287 N 
ATOM      8  H6  UNL     1      -8.769  15.505   3.242  1.00  0.00     0.188 HD
ENDROOT
BRANCH   1   9
HETATM    9  C4  UNL     1      -9.418  14.765   5.887  1.00  0.00     0.078 C 
BRANCH   9  10
HETATM   10  C3  UNL     1      -9.760  15.581   7.091  1.00  0.00     0.009 C 
BRANCH  10  11
HETATM   11  C2  UNL     1      -9.361  14.862   8.354  1.00  0.00     0.027 C 
BRANCH  11  12
HETATM   12  C1  UNL     1      -9.753  15.603   9.600  1.00  0.00     0.229 C 
BRANCH  12  13
HETATM   13  N1  UNL     1     -10.711  16.628   9.213  1.00  0.00    -0.079 N 
ATOM     14  H13 UNL     1     -10.280  17.541   9.066  1.00  0.00     0.274 HD
ATOM     15  H12 UNL     1     -11.073  16.499   8.268  1.00  0.00     0.274 HD
ATOM     16  H11 UNL     1     -11.445  16.642   9.922  1.00  0.00     0.274 HD
ENDBRANCH  12  13
ENDBRANCH  11  12
ENDBRANCH  10  11
ENDBRANCH   9  10
ENDBRANCH   1   9
BRANCH   4  17
HETATM   17  C7  UNL     1      -4.677  16.302   5.071  1.00  0.00     0.143 C 
HETATM   18  N3  UNL     1      -4.255  17.471   5.348  1.00  0.00    -0.372 N 
HETATM   19  C8  UNL     1      -2.823  17.504   5.482  1.00  0.00     0.141 C 
ATOM     20  H3  UNL     1      -4.858  18.285   5.461  1.00  0.00     0.161 HD
HETATM   21  C9  UNL     1      -2.479  16.019   5.681  1.00  0.00     0.141 C 
HETATM   22  N4  UNL     1      -3.590  15.417   4.980  1.00  0.00    -0.372 N 
ATOM     23  H4  UNL     1      -3.586  14.514   4.506  1.00  0.00     0.161 HD
ENDBRANCH   4  17
TORSDOF 6
ENDMDL
MODEL 5
REMARK VINA RESULT: -5.762884561      1.505      2.081
REMARK  6 active torsions:
REMARK  status: ('A' for Active; 'I' for Inactive)
REMARK    1  A    between atoms: N1_1  and  C1_5 
REMARK    2  A    between atoms: C1_5  and  C2_6 
REMARK    3  A    between atoms: C2_6  and  C3_7 
REMARK    4  A    between atoms: C3_7  and  C4_8 
REMARK    5  A    between atoms: C4_8  and  C5_9 
REMARK    6  A    between atoms: C6_12  and  C7_13 
ROOT
HETATM    1  C5  UNL     1      -5.987  15.465   5.246  1.00  0.00     0.097 A 
HETATM    2  N2  UNL     1      -6.307  14.492   4.373  1.00  0.00    -0.327 N 
ATOM      3  H2  UNL     1      -6.237  13.492   4.566  1.00  0.00     0.169 HD
HETATM    4  C6  UNL     1      -6.734  15.018   3.213  1.00  0.00     0.165 A 
HETATM    5  N5  UNL     1      -6.675  16.353   3.372  1.00  0.00    -0.281 N 
ATOM      6  H5  UNL     1      -6.933  17.045   2.669  1.00  0.00     0.188 HD
HETATM    7  N6  UNL     1      -6.227  16.623   4.591  1.00  0.00    -0.287 N 
ATOM      8  H6  UNL     1      -6.086  17.558   4.974  1.00  0.00     0.188 HD
ENDROOT
BRANCH   1   9
HETATM    9  C4  UNL     1      -5.475  15.360   6.637  1.00  0.00     0.078 C 
BRANCH   9  10
HETATM   10  C3  UNL     1      -4.570  16.505   6.957  1.00  0.00     0.009 C 
BRANCH  10  11
HETATM   11  C2  UNL     1      -3.129  16.065   6.950  1.00  0.00     0.027 C 
BRANCH  11  12
HETATM   12  C1  UNL     1      -2.429  16.369   5.657  1.00  0.00     0.229 C 
BRANCH  12  13
HETATM   13  N1  UNL     1      -3.009  17.593   5.126  1.00  0.00    -0.079 N 
ATOM     14  H13 UNL     1      -3.720  17.995   5.737  1.00  0.00     0.274 HD
ATOM     15  H12 UNL     1      -2.361  18.381   5.142  1.00  0.00     0.274 HD
ATOM     16  H11 UNL     1      -3.359  17.384   4.191  1.00  0.00     0.274 HD
ENDBRANCH  12  13
ENDBRANCH  11  12
ENDBRANCH  10  11
ENDBRANCH   9  10
ENDBRANCH   1   9
BRANCH   4  17
HETATM   17  C7  UNL     1      -7.179  14.284   2.006  1.00  0.00     0.143 C 
HETATM   18  N3  UNL     1      -6.855  13.088   1.717  1.00  0.00    -0.372 N 
HETATM   19  C8  UNL     1      -7.450  12.658   0.479  1.00  0.00     0.141 C 
ATOM     20  H3  UNL     1      -6.248  12.504   2.292  1.00  0.00     0.161 HD
HETATM   21  C9  UNL     1      -8.581  13.681   0.288  1.00  0.00     0.141 C 
HETATM   22  N4  UNL     1      -8.018  14.802   1.006  1.00  0.00    -0.372 N 
ATOM     23  H4  UNL     1      -8.197  15.788   0.820  1.00  0.00     0.161 HD
ENDBRANCH   4  17
TORSDOF 6
ENDMDL
