MODEL 1
REMARK VINA RESULT: -5.496349912      0.000      0.000
REMARK  7 active torsions:
REMARK  status: ('A' for Active; 'I' for Inactive)
REMARK    1  A    between atoms: N1_1  and  C1_4 
REMARK    2  A    between atoms: N3_9  and  C4_10 
REMARK    3  A    between atoms: C4_10  and  C5_11 
REMARK    4  A    between atoms: C5_11  and  N4_12 
REMARK    5  A    between atoms: C7_16  and  C8_17 
REMARK    6  A    between atoms: C8_17  and  C9_18 
REMARK    7  A    between atoms: C9_18  and  N6_19 
ROOT
HETATM    1  N4  UNL     1      -6.217  15.466   7.620  1.00  0.00    -0.350 N 
HETATM    2  C6  UNL     1      -5.695  15.623   8.849  1.00  0.00     0.183 A 
HETATM    3  N5  UNL     1      -6.663  15.533   9.757  1.00  0.00    -0.354 N 
ATOM      4  H5  UNL     1      -6.545  15.614  10.766  1.00  0.00     0.166 HD
HETATM    5  C7  UNL     1      -7.817  15.317   9.117  1.00  0.00     0.027 A 
HETATM    6  C10 UNL     1      -7.538  15.275   7.775  1.00  0.00     0.116 A 
ENDROOT
BRANCH   1   7
HETATM    7  C5  UNL     1      -5.442  15.506   6.391  1.00  0.00     0.149 C 
BRANCH   7   8
HETATM    8  C4  UNL     1      -6.272  15.922   5.214  1.00  0.00     0.146 C 
BRANCH   8   9
HETATM    9  N3  UNL     1      -6.284  14.882   4.213  1.00  0.00    -0.351 N 
HETATM   10  C1  UNL     1      -5.836  14.988   2.868  1.00  0.00     0.171 C 
HETATM   11  N2  UNL     1      -6.431  13.933   2.095  1.00  0.00    -0.361 N 
HETATM   12  C2  UNL     1      -7.423  13.337   2.967  1.00  0.00     0.142 C 
ATOM     13  H2  UNL     1      -6.205  13.662   1.138  1.00  0.00     0.162 HD
HETATM   14  C3  UNL     1      -6.747  13.511   4.336  1.00  0.00     0.145 C 
BRANCH  10  15
HETATM   15  N1  UNL     1      -5.019  15.901   2.430  1.00  0.00    -0.371 N 
ATOM     16  H12 UNL     1      -5.296  16.841   2.150  1.00  0.00     0.159 HD
ATOM     17  H11 UNL     1      -4.011  15.802   2.307  1.00  0.00     0.159 HD
ENDBRANCH  10  15
ENDBRANCH   8   9
ENDBRANCH   7   8
ENDBRANCH   1   7
BRANCH   5  18
HETATM   18  C8  UNL     1      -9.184  15.147   9.693  1.00  0.00     0.085 C 
BRANCH  18  19
HETATM   19  C9  UNL     1     -10.258  15.213   8.654  1.00  0.00     0.235 C 
BRANCH  19  20
HETATM   20  N6  UNL     1     -10.933  16.470   8.555  1.00  0.00    -0.079 N 
ATOM     21  H63 UNL     1     -10.303  17.177   8.176  1.00  0.00     0.274 HD
ATOM     22  H62 UNL     1     -11.632  16.437   7.813  1.00  0.00     0.274 HD
ATOM     23  H61 UNL     1     -11.356  16.804   9.421  1.00  0.00     0.274 HD
ENDBRANCH  19  20
ENDBRANCH  18  19
ENDBRANCH   5  18
TORSDOF 7
ENDMDL
MODEL 2
REMARK VINA RESULT: -5.482688967      2.209      6.001
REMARK  7 active torsions:
REMARK  status: ('A' for Active; 'I' for Inactive)
REMARK    1  A    between atoms: N1_1  and  C1_4 
REMARK    2  A    between atoms: N3_9  and  C4_10 
REMARK    3  A    between atoms: C4_10  and  C5_11 
REMARK    4  A    between atoms: C5_11  and  N4_12 
REMARK    5  A    between atoms: C7_16  and  C8_17 
REMARK    6  A    between atoms: C8_17  and  C9_18 
REMARK    7  A    between atoms: C9_18  and  N6_19 
ROOT
HETATM    1  N4  UNL     1      -7.241  15.463   4.686  1.00  0.00    -0.350 N 
HETATM    2  C6  UNL     1      -6.793  15.556   3.422  1.00  0.00     0.183 A 
HETATM    3  N5  UNL     1      -5.487  15.808   3.431  1.00  0.00    -0.354 N 
ATOM      4  H5  UNL     1      -4.895  15.926   2.609  1.00  0.00     0.166 HD
HETATM    5  C7  UNL     1      -5.084  15.879   4.704  1.00  0.00     0.027 A 
HETATM    6  C10 UNL     1      -6.184  15.662   5.493  1.00  0.00     0.116 A 
ENDROOT
BRANCH   1   7
HETATM    7  C5  UNL     1      -8.622  15.195   5.046  1.00  0.00     0.149 C 
BRANCH   7   8
HETATM    8  C4  UNL     1      -8.933  15.622   6.450  1.00  0.00     0.146 C 
BRANCH   8   9
HETATM    9  N3  UNL     1     -10.237  15.146   6.845  1.00  0.00    -0.351 N 
HETATM   10  C1  UNL     1     -10.967  15.524   8.004  1.00  0.00     0.171 C 
HETATM   11  N2  UNL     1     -11.958  14.521   8.278  1.00  0.00    -0.361 N 
HETATM   12  C2  UNL     1     -11.645  13.425   7.384  1.00  0.00     0.142 C 
ATOM     13  H2  UNL     1     -12.719  14.569   8.956  1.00  0.00     0.162 HD
HETATM   14  C3  UNL     1     -11.096  14.190   6.169  1.00  0.00     0.145 C 
BRANCH  10  15
HETATM   15  N1  UNL     1     -10.755  16.609   8.692  1.00  0.00    -0.371 N 
ATOM     16  H12 UNL     1     -10.655  16.643   9.706  1.00  0.00     0.159 HD
ATOM     17  H11 UNL     1     -10.662  17.554   8.318  1.00  0.00     0.159 HD
ENDBRANCH  10  15
ENDBRANCH   8   9
ENDBRANCH   7   8
ENDBRANCH   1   7
BRANCH   5  18
HETATM   18  C8  UNL     1      -3.713  16.141   5.234  1.00  0.00     0.085 C 
BRANCH  18  19
HETATM   19  C9  UNL     1      -3.708  16.417   6.704  1.00  0.00     0.235 C 
BRANCH  19  20
HETATM   20  N6  UNL     1      -3.147  15.381   7.516  1.00  0.00    -0.079 N 
ATOM     21  H63 UNL     1      -3.433  14.467   7.165  1.00  0.00     0.274 HD
ATOM     22  H62 UNL     1      -2.140  15.324   7.365  1.00  0.00     0.274 HD
ATOM     23  H61 UNL     1      -3.349  15.454   8.513  1.00  0.00     0.274 HD
ENDBRANCH  19  20
ENDBRANCH  18  19
ENDBRANCH   5  18
TORSDOF 7
ENDMDL
MODEL 3
REMARK VINA RESULT: -5.437118135      1.572      6.109
REMARK  7 active torsions:
REMARK  status: ('A' for Active; 'I' for Inactive)
REMARK    1  A    between atoms: N1_1  and  C1_4 
REMARK    2  A    between atoms: N3_9  and  C4_10 
REMARK    3  A    between atoms: C4_10  and  C5_11 
REMARK    4  A    between atoms: C5_11  and  N4_12 
REMARK    5  A    between atoms: C7_16  and  C8_17 
REMARK    6  A    between atoms: C8_17  and  C9_18 
REMARK    7  A    between atoms: C9_18  and  N6_19 
ROOT
HETATM    1  N4  UNL     1      -5.885  15.490   6.895  1.00  0.00    -0.350 N 
HETATM    2  C6  UNL     1      -4.577  15.787   6.981  1.00  0.00     0.183 A 
HETATM    3  N5  UNL     1      -4.038  15.773   5.765  1.00  0.00    -0.354 N 
ATOM      4  H5  UNL     1      -3.061  15.963   5.542  1.00  0.00     0.166 HD
HETATM    5  C7  UNL     1      -4.998  15.466   4.886  1.00  0.00     0.027 A 
HETATM    6  C10 UNL     1      -6.158  15.289   5.595  1.00  0.00     0.116 A 
ENDROOT
BRANCH   1   7
HETATM    7  C5  UNL     1      -6.783  15.416   8.035  1.00  0.00     0.149 C 
BRANCH   7   8
HETATM    8  C4  UNL     1      -8.213  15.246   7.617  1.00  0.00     0.146 C 
BRANCH   8   9
HETATM    9  N3  UNL     1      -9.055  15.042   8.772  1.00  0.00    -0.351 N 
HETATM   10  C1  UNL     1     -10.258  15.732   9.082  1.00  0.00     0.171 C 
HETATM   11  N2  UNL     1     -10.528  15.587  10.485  1.00  0.00    -0.361 N 
HETATM   12  C2  UNL     1      -9.334  14.986  11.042  1.00  0.00     0.142 C 
ATOM     13  H2  UNL     1     -11.379  15.851  10.984  1.00  0.00     0.162 HD
HETATM   14  C3  UNL     1      -8.879  14.105   9.867  1.00  0.00     0.145 C 
BRANCH  10  15
HETATM   15  N1  UNL     1     -10.981  16.384   8.219  1.00  0.00    -0.371 N 
ATOM     16  H12 UNL     1     -11.379  17.310   8.376  1.00  0.00     0.159 HD
ATOM     17  H11 UNL     1     -11.245  16.065   7.287  1.00  0.00     0.159 HD
ENDBRANCH  10  15
ENDBRANCH   8   9
ENDBRANCH   7   8
ENDBRANCH   1   7
BRANCH   5  18
HETATM   18  C8  UNL     1      -4.893  15.327   3.403  1.00  0.00     0.085 C 
BRANCH  18  19
HETATM   19  C9  UNL     1      -6.203  14.989   2.764  1.00  0.00     0.235 C 
BRANCH  19  20
HETATM   20  N6  UNL     1      -6.836  16.067   2.068  1.00  0.00    -0.079 N 
ATOM     21  H63 UNL     1      -6.989  16.851   2.700  1.00  0.00     0.274 HD
ATOM     22  H62 UNL     1      -6.181  16.492   1.411  1.00  0.00     0.274 HD
ATOM     23  H61 UNL     1      -7.704  15.824   1.591  1.00  0.00     0.274 HD
ENDBRANCH  19  20
ENDBRANCH  18  19
ENDBRANCH   5  18
TORSDOF 7
ENDMDL
MODEL 4
REMARK VINA RESULT: -5.427513666      1.611      5.620
REMARK  7 active torsions:
REMARK  status: ('A' for Active; 'I' for Inactive)
REMARK    1  A    between atoms: N1_1  and  C1_4 
REMARK    2  A    between atoms: N3_9  and  C4_10 
REMARK    3  A    between atoms: C4_10  and  C5_11 
REMARK    4  A    between atoms: C5_11  and  N4_12 
REMARK    5  A    between atoms: C7_16  and  C8_17 
REMARK    6  A    between atoms: C8_17  and  C9_18 
REMARK    7  A    between atoms: C9_18  and  N6_19 
ROOT
HETATM    1  N4  UNL     1      -5.693  15.466   6.901  1.00  0.00    -0.350 N 
HETATM    2  C6  UNL     1      -4.404  15.846   6.933  1.00  0.00     0.183 A 
HETATM    3  N5  UNL     1      -3.916  15.869   5.696  1.00  0.00    -0.354 N 
ATOM      4  H5  UNL     1      -2.964  16.122   5.434  1.00  0.00     0.166 HD
HETATM    5  C7  UNL     1      -4.890  15.502   4.857  1.00  0.00     0.027 A 
HETATM    6  C10 UNL     1      -6.006  15.249   5.612  1.00  0.00     0.116 A 
ENDROOT
BRANCH   1   7
HETATM    7  C5  UNL     1      -6.536  15.332   8.076  1.00  0.00     0.149 C 
BRANCH   7   8
HETATM    8  C4  UNL     1      -7.592  14.283   7.897  1.00  0.00     0.146 C 
BRANCH   8   9
HETATM    9  N3  UNL     1      -8.886  14.801   8.273  1.00  0.00    -0.351 N 
HETATM   10  C1  UNL     1      -9.644  15.784   7.581  1.00  0.00     0.171 C 
HETATM   11  N2  UNL     1     -10.606  16.351   8.484  1.00  0.00    -0.361 N 
HETATM   12  C2  UNL     1     -10.245  15.842   9.791  1.00  0.00     0.142 C 
ATOM     13  H2  UNL     1     -11.378  16.978   8.256  1.00  0.00     0.162 HD
HETATM   14  C3  UNL     1      -9.704  14.452   9.421  1.00  0.00     0.145 C 
BRANCH  10  15
HETATM   15  N1  UNL     1      -9.478  16.103   6.330  1.00  0.00    -0.371 N 
ATOM     16  H12 UNL     1      -9.841  16.949   5.893  1.00  0.00     0.159 HD
ATOM     17  H11 UNL     1      -8.972  15.560   5.630  1.00  0.00     0.159 HD
ENDBRANCH  10  15
ENDBRANCH   8   9
ENDBRANCH   7   8
ENDBRANCH   1   7
BRANCH   5  18
HETATM   18  C8  UNL     1      -4.839  15.372   3.370  1.00  0.00     0.085 C 
BRANCH  18  19
HETATM   19  C9  UNL     1      -6.164  15.012   2.778  1.00  0.00     0.235 C 
BRANCH  19  20
HETATM   20  N6  UNL     1      -6.819  16.066   2.066  1.00  0.00    -0.079 N 
ATOM     21  H63 UNL     1      -7.525  16.503   2.656  1.00  0.00     0.274 HD
ATOM     22  H62 UNL     1      -6.181  16.852   1.938  1.00  0.00     0.274 HD
ATOM     23  H61 UNL     1      -7.226  15.796   1.170  1.00  0.00     0.274 HD
ENDBRANCH  19  20
ENDBRANCH  18  19
ENDBRANCH   5  18
TORSDOF 7
ENDMDL
MODEL 5
REMARK VINA RESULT: -5.399904424      1.964      6.102
REMARK  7 active torsions:
REMARK  status: ('A' for Active; 'I' for Inactive)
REMARK    1  A    between atoms: N1_1  and  C1_4 
REMARK    2  A    between atoms: N3_9  and  C4_10 
REMARK    3  A    between atoms: C4_10  and  C5_11 
REMARK    4  A    between atoms: C5_11  and  N4_12 
REMARK    5  A    between atoms: C7_16  and  C8_17 
REMARK    6  A    between atoms: C8_17  and  C9_18 
REMARK    7  A    between atoms: C9_18  and  N6_19 
ROOT
HETATM    1  N4  UNL     1      -6.814  15.252   5.525  1.00  0.00    -0.350 N 
HETATM    2  C6  UNL     1      -6.481  15.573   4.263  1.00  0.00     0.183 A 
HETATM    3  N5  UNL     1      -5.396  16.342   4.271  1.00  0.00    -0.354 N 
ATOM      4  H5  UNL     1      -4.930  16.727   3.450  1.00  0.00     0.166 HD
HETATM    5  C7  UNL     1      -5.022  16.522   5.542  1.00  0.00     0.027 A 
HETATM    6  C10 UNL     1      -5.911  15.838   6.331  1.00  0.00     0.116 A 
ENDROOT
BRANCH   1   7
HETATM    7  C5  UNL     1      -7.951  14.422   5.885  1.00  0.00     0.149 C 
BRANCH   7   8
HETATM    8  C4  UNL     1      -9.119  15.237   6.353  1.00  0.00     0.146 C 
BRANCH   8   9
HETATM    9  N3  UNL     1      -9.210  15.209   7.793  1.00  0.00    -0.351 N 
HETATM   10  C1  UNL     1     -10.153  15.899   8.602  1.00  0.00     0.171 C 
HETATM   11  N2  UNL     1      -9.639  15.993   9.940  1.00  0.00    -0.361 N 
HETATM   12  C2  UNL     1      -8.265  15.542   9.851  1.00  0.00     0.142 C 
ATOM     13  H2  UNL     1     -10.134  16.309  10.774  1.00  0.00     0.162 HD
HETATM   14  C3  UNL     1      -8.379  14.486   8.740  1.00  0.00     0.145 C 
BRANCH  10  15
HETATM   15  N1  UNL     1     -11.293  16.363   8.178  1.00  0.00    -0.371 N 
ATOM     16  H12 UNL     1     -12.169  15.841   8.180  1.00  0.00     0.159 HD
ATOM     17  H11 UNL     1     -11.463  17.292   7.793  1.00  0.00     0.159 HD
ENDBRANCH  10  15
ENDBRANCH   8   9
ENDBRANCH   7   8
ENDBRANCH   1   7
BRANCH   5  18
HETATM   18  C8  UNL     1      -3.867  17.307   6.071  1.00  0.00     0.085 C 
BRANCH  18  19
HETATM   19  C9  UNL     1      -2.783  16.435   6.622  1.00  0.00     0.235 C 
BRANCH  19  20
HETATM   20  N6  UNL     1      -2.148  15.580   5.667  1.00  0.00    -0.079 N 
ATOM     21  H63 UNL     1      -2.405  15.858   4.721  1.00  0.00     0.274 HD
ATOM     22  H62 UNL     1      -1.145  15.767   5.642  1.00  0.00     0.274 HD
ATOM     23  H61 UNL     1      -2.315  14.583   5.799  1.00  0.00     0.274 HD
ENDBRANCH  19  20
ENDBRANCH  18  19
ENDBRANCH   5  18
TORSDOF 7
ENDMDL
