MODEL 1
REMARK VINA RESULT: -6.108953523      0.000      0.000
REMARK  7 active torsions:
REMARK  status: ('A' for Active; 'I' for Inactive)
REMARK    1  A    between atoms: N1_1  and  C1_5 
REMARK    2  A    between atoms: C1_5  and  C2_6 
REMARK    3  A    between atoms: C2_6  and  N2_7 
REMARK    4  A    between atoms: N2_7  and  N3_8 
REMARK    5  A    between atoms: N2_7  and  C3_11 
REMARK    6  A    between atoms: C3_11  and  C4_12 
REMARK    7  A    between atoms: C11_20  and  N4_21 
ROOT
HETATM    1  C4  UNL     1      -7.159  14.829   5.584  1.00  0.00     0.178 C 
HETATM    2  O1  UNL     1      -6.311  14.650   6.698  1.00  0.00    -0.342 OA
HETATM    3  C5  UNL     1      -5.121  15.322   6.526  1.00  0.00     0.077 A 
HETATM    4  C6  UNL     1      -4.133  15.663   7.445  1.00  0.00     0.037 A 
HETATM    5  C7  UNL     1      -3.012  16.345   7.040  1.00  0.00     0.003 A 
HETATM    6  C8  UNL     1      -2.881  16.687   5.710  1.00  0.00     0.001 A 
HETATM    7  C9  UNL     1      -3.873  16.343   4.800  1.00  0.00     0.012 A 
HETATM    8  C10 UNL     1      -4.996  15.661   5.199  1.00  0.00     0.008 A 
HETATM    9  C11 UNL     1      -6.186  15.168   4.484  1.00  0.00     0.249 C 
ENDROOT
BRANCH   1  10
HETATM   10  C3  UNL     1      -8.081  15.992   5.884  1.00  0.00     0.148 C 
BRANCH  10  11
HETATM   11  N2  UNL     1      -9.456  15.647   5.566  1.00  0.00    -0.234 NA
BRANCH  11  12
HETATM   12  C2  UNL     1     -10.007  14.771   6.548  1.00  0.00     0.140 C 
BRANCH  12  13
HETATM   13  C1  UNL     1     -10.063  15.306   7.939  1.00  0.00     0.245 C 
BRANCH  13  14
HETATM   14  N1  UNL     1     -11.006  16.368   8.119  1.00  0.00    -0.078 N 
ATOM     15  H13 UNL     1     -10.554  17.272   7.986  1.00  0.00     0.274 HD
ATOM     16  H12 UNL     1     -11.670  16.391   7.347  1.00  0.00     0.274 HD
ATOM     17  H11 UNL     1     -11.497  16.340   9.013  1.00  0.00     0.274 HD
ENDBRANCH  13  14
ENDBRANCH  12  13
ENDBRANCH  11  12
BRANCH  11  18
HETATM   18  N3  UNL     1      -9.501  15.026   4.323  1.00  0.00    -0.363 NA
ATOM     19  H32 UNL     1     -10.186  15.498   3.734  1.00  0.00     0.171 HD
ATOM     20  H31 UNL     1      -8.573  15.052   3.902  1.00  0.00     0.171 HD
ENDBRANCH  11  18
ENDBRANCH  10  11
ENDBRANCH   1  10
BRANCH   9  21
HETATM   21  N4  UNL     1      -6.709  16.155   3.555  1.00  0.00    -0.068 N 
ATOM     22  H43 UNL     1      -6.897  15.735   2.644  1.00  0.00     0.275 HD
ATOM     23  H42 UNL     1      -7.658  16.430   3.810  1.00  0.00     0.275 HD
ATOM     24  H41 UNL     1      -6.105  16.971   3.463  1.00  0.00     0.275 HD
ENDBRANCH   9  21
TORSDOF 7
ENDMDL
MODEL 2
REMARK VINA RESULT: -6.042179407      1.918      3.387
REMARK  7 active torsions:
REMARK  status: ('A' for Active; 'I' for Inactive)
REMARK    1  A    between atoms: N1_1  and  C1_5 
REMARK    2  A    between atoms: C1_5  and  C2_6 
REMARK    3  A    between atoms: C2_6  and  N2_7 
REMARK    4  A    between atoms: N2_7  and  N3_8 
REMARK    5  A    between atoms: N2_7  and  C3_11 
REMARK    6  A    between atoms: C3_11  and  C4_12 
REMARK    7  A    between atoms: C11_20  and  N4_21 
ROOT
HETATM    1  C4  UNL     1      -7.152  15.560   5.820  1.00  0.00     0.178 C 
HETATM    2  O1  UNL     1      -6.200  16.229   5.022  1.00  0.00    -0.342 OA
HETATM    3  C5  UNL     1      -4.945  16.157   5.585  1.00  0.00     0.077 A 
HETATM    4  C6  UNL     1      -3.690  16.408   5.037  1.00  0.00     0.037 A 
HETATM    5  C7  UNL     1      -2.557  16.268   5.801  1.00  0.00     0.003 A 
HETATM    6  C8  UNL     1      -2.681  15.875   7.117  1.00  0.00     0.001 A 
HETATM    7  C9  UNL     1      -3.938  15.626   7.656  1.00  0.00     0.012 A 
HETATM    8  C10 UNL     1      -5.075  15.764   6.897  1.00  0.00     0.008 A 
HETATM    9  C11 UNL     1      -6.508  15.578   7.182  1.00  0.00     0.249 C 
ENDROOT
BRANCH   1  10
HETATM   10  C3  UNL     1      -7.291  14.148   5.293  1.00  0.00     0.148 C 
BRANCH  10  11
HETATM   11  N2  UNL     1      -8.301  14.089   4.251  1.00  0.00    -0.234 NA
BRANCH  11  12
HETATM   12  C2  UNL     1      -7.713  13.829   2.977  1.00  0.00     0.140 C 
BRANCH  12  13
HETATM   13  C1  UNL     1      -7.783  14.943   1.989  1.00  0.00     0.245 C 
BRANCH  13  14
HETATM   14  N1  UNL     1      -6.767  15.938   2.159  1.00  0.00    -0.078 N 
ATOM     15  H13 UNL     1      -6.246  15.774   3.020  1.00  0.00     0.274 HD
ATOM     16  H12 UNL     1      -6.020  15.807   1.477  1.00  0.00     0.274 HD
ATOM     17  H11 UNL     1      -7.115  16.897   2.128  1.00  0.00     0.274 HD
ENDBRANCH  13  14
ENDBRANCH  12  13
ENDBRANCH  11  12
BRANCH  11  18
HETATM   18  N3  UNL     1      -8.982  15.300   4.200  1.00  0.00    -0.363 NA
ATOM     19  H32 UNL     1      -9.895  15.193   4.641  1.00  0.00     0.171 HD
ATOM     20  H31 UNL     1      -8.429  16.015   4.670  1.00  0.00     0.171 HD
ENDBRANCH  11  18
ENDBRANCH  10  11
ENDBRANCH   1  10
BRANCH   9  21
HETATM   21  N4  UNL     1      -6.759  14.363   7.939  1.00  0.00    -0.068 N 
ATOM     22  H43 UNL     1      -7.759  14.225   8.088  1.00  0.00     0.275 HD
ATOM     23  H42 UNL     1      -6.559  13.535   7.378  1.00  0.00     0.275 HD
ATOM     24  H41 UNL     1      -6.251  14.336   8.823  1.00  0.00     0.275 HD
ENDBRANCH   9  21
TORSDOF 7
ENDMDL
MODEL 3
REMARK VINA RESULT: -5.971896888      2.881      3.940
REMARK  7 active torsions:
REMARK  status: ('A' for Active; 'I' for Inactive)
REMARK    1  A    between atoms: N1_1  and  C1_5 
REMARK    2  A    between atoms: C1_5  and  C2_6 
REMARK    3  A    between atoms: C2_6  and  N2_7 
REMARK    4  A    between atoms: N2_7  and  N3_8 
REMARK    5  A    between atoms: N2_7  and  C3_11 
REMARK    6  A    between atoms: C3_11  and  C4_12 
REMARK    7  A    between atoms: C11_20  and  N4_21 
ROOT
HETATM    1  C4  UNL     1      -6.199  14.311   3.811  1.00  0.00     0.178 C 
HETATM    2  O1  UNL     1      -6.209  14.220   5.220  1.00  0.00    -0.342 OA
HETATM    3  C5  UNL     1      -5.403  15.184   5.783  1.00  0.00     0.077 A 
HETATM    4  C6  UNL     1      -5.330  15.650   7.093  1.00  0.00     0.037 A 
HETATM    5  C7  UNL     1      -4.435  16.636   7.431  1.00  0.00     0.003 A 
HETATM    6  C8  UNL     1      -3.612  17.156   6.454  1.00  0.00     0.001 A 
HETATM    7  C9  UNL     1      -3.693  16.685   5.149  1.00  0.00     0.012 A 
HETATM    8  C10 UNL     1      -4.586  15.700   4.805  1.00  0.00     0.008 A 
HETATM    9  C11 UNL     1      -4.893  15.013   3.539  1.00  0.00     0.249 C 
ENDROOT
BRANCH   1  10
HETATM   10  C3  UNL     1      -7.380  15.161   3.392  1.00  0.00     0.148 C 
BRANCH  10  11
HETATM   11  N2  UNL     1      -7.968  14.649   2.167  1.00  0.00    -0.234 NA
BRANCH  11  12
HETATM   12  C2  UNL     1      -7.365  13.413   1.784  1.00  0.00     0.140 C 
BRANCH  12  13
HETATM   13  C1  UNL     1      -8.034  12.682   0.670  1.00  0.00     0.245 C 
BRANCH  13  14
HETATM   14  N1  UNL     1      -7.720  13.188  -0.633  1.00  0.00    -0.078 N 
ATOM     15  H13 UNL     1      -8.126  12.592  -1.354  1.00  0.00     0.274 HD
ATOM     16  H12 UNL     1      -8.231  14.051  -0.814  1.00  0.00     0.274 HD
ATOM     17  H11 UNL     1      -6.722  13.321  -0.798  1.00  0.00     0.274 HD
ENDBRANCH  13  14
ENDBRANCH  12  13
ENDBRANCH  11  12
BRANCH  11  18
HETATM   18  N3  UNL     1      -7.791  15.578   1.147  1.00  0.00    -0.363 NA
ATOM     19  H32 UNL     1      -7.740  16.514   1.548  1.00  0.00     0.171 HD
ATOM     20  H31 UNL     1      -6.941  15.351   0.632  1.00  0.00     0.171 HD
ENDBRANCH  11  18
ENDBRANCH  10  11
ENDBRANCH   1  10
BRANCH   9  21
HETATM   21  N4  UNL     1      -4.975  15.940   2.423  1.00  0.00    -0.068 N 
ATOM     22  H43 UNL     1      -5.482  16.785   2.687  1.00  0.00     0.275 HD
ATOM     23  H42 UNL     1      -4.063  16.350   2.221  1.00  0.00     0.275 HD
ATOM     24  H41 UNL     1      -5.379  15.518   1.587  1.00  0.00     0.275 HD
ENDBRANCH   9  21
TORSDOF 7
ENDMDL
MODEL 4
REMARK VINA RESULT: -5.908357515      2.545      3.478
REMARK  7 active torsions:
REMARK  status: ('A' for Active; 'I' for Inactive)
REMARK    1  A    between atoms: N1_1  and  C1_5 
REMARK    2  A    between atoms: C1_5  and  C2_6 
REMARK    3  A    between atoms: C2_6  and  N2_7 
REMARK    4  A    between atoms: N2_7  and  N3_8 
REMARK    5  A    between atoms: N2_7  and  C3_11 
REMARK    6  A    between atoms: C3_11  and  C4_12 
REMARK    7  A    between atoms: C11_20  and  N4_21 
ROOT
HETATM    1  C4  UNL     1      -6.251  14.290   3.900  1.00  0.00     0.178 C 
HETATM    2  O1  UNL     1      -6.191  14.268   5.310  1.00  0.00    -0.342 OA
HETATM    3  C5  UNL     1      -5.349  15.249   5.784  1.00  0.00     0.077 A 
HETATM    4  C6  UNL     1      -5.205  15.778   7.063  1.00  0.00     0.037 A 
HETATM    5  C7  UNL     1      -4.284  16.768   7.306  1.00  0.00     0.003 A 
HETATM    6  C8  UNL     1      -3.505  17.229   6.266  1.00  0.00     0.001 A 
HETATM    7  C9  UNL     1      -3.656  16.694   4.991  1.00  0.00     0.012 A 
HETATM    8  C10 UNL     1      -4.576  15.705   4.742  1.00  0.00     0.008 A 
HETATM    9  C11 UNL     1      -4.954  14.960   3.528  1.00  0.00     0.249 C 
ENDROOT
BRANCH   1  10
HETATM   10  C3  UNL     1      -7.443  15.133   3.498  1.00  0.00     0.148 C 
BRANCH  10  11
HETATM   11  N2  UNL     1      -8.423  14.326   2.792  1.00  0.00    -0.234 NA
BRANCH  11  12
HETATM   12  C2  UNL     1      -8.105  14.227   1.404  1.00  0.00     0.140 C 
BRANCH  12  13
HETATM   13  C1  UNL     1      -8.953  15.038   0.484  1.00  0.00     0.245 C 
BRANCH  13  14
HETATM   14  N1  UNL     1      -8.442  16.349   0.223  1.00  0.00    -0.078 N 
ATOM     15  H13 UNL     1      -8.450  16.542  -0.779  1.00  0.00     0.274 HD
ATOM     16  H12 UNL     1      -9.100  17.060   0.541  1.00  0.00     0.274 HD
ATOM     17  H11 UNL     1      -7.515  16.520   0.613  1.00  0.00     0.274 HD
ENDBRANCH  13  14
ENDBRANCH  12  13
ENDBRANCH  11  12
BRANCH  11  18
HETATM   18  N3  UNL     1      -9.681  14.901   2.932  1.00  0.00    -0.363 NA
ATOM     19  H32 UNL     1      -9.691  15.810   2.471  1.00  0.00     0.171 HD
ATOM     20  H31 UNL     1     -10.381  14.278   2.530  1.00  0.00     0.171 HD
ENDBRANCH  11  18
ENDBRANCH  10  11
ENDBRANCH   1  10
BRANCH   9  21
HETATM   21  N4  UNL     1      -5.081  15.832   2.373  1.00  0.00    -0.068 N 
ATOM     22  H43 UNL     1      -5.986  16.304   2.370  1.00  0.00     0.275 HD
ATOM     23  H42 UNL     1      -4.471  16.644   2.459  1.00  0.00     0.275 HD
ATOM     24  H41 UNL     1      -4.920  15.346   1.491  1.00  0.00     0.275 HD
ENDBRANCH   9  21
TORSDOF 7
ENDMDL
MODEL 5
REMARK VINA RESULT: -5.888566646      2.324      3.750
REMARK  7 active torsions:
REMARK  status: ('A' for Active; 'I' for Inactive)
REMARK    1  A    between atoms: N1_1  and  C1_5 
REMARK    2  A    between atoms: C1_5  and  C2_6 
REMARK    3  A    between atoms: C2_6  and  N2_7 
REMARK    4  A    between atoms: N2_7  and  N3_8 
REMARK    5  A    between atoms: N2_7  and  C3_11 
REMARK    6  A    between atoms: C3_11  and  C4_12 
REMARK    7  A    between atoms: C11_20  and  N4_21 
ROOT
HETATM    1  C4  UNL     1      -7.001  15.497   5.312  1.00  0.00     0.178 C 
HETATM    2  O1  UNL     1      -6.024  16.325   4.719  1.00  0.00    -0.342 OA
HETATM    3  C5  UNL     1      -4.840  16.272   5.421  1.00  0.00     0.077 A 
HETATM    4  C6  UNL     1      -3.556  16.677   5.064  1.00  0.00     0.037 A 
HETATM    5  C7  UNL     1      -2.511  16.524   5.941  1.00  0.00     0.003 A 
HETATM    6  C8  UNL     1      -2.750  15.964   7.179  1.00  0.00     0.001 A 
HETATM    7  C9  UNL     1      -4.035  15.563   7.526  1.00  0.00     0.012 A 
HETATM    8  C10 UNL     1      -5.085  15.713   6.653  1.00  0.00     0.008 A 
HETATM    9  C11 UNL     1      -6.521  15.393   6.736  1.00  0.00     0.249 C 
ENDROOT
BRANCH   1  10
HETATM   10  C3  UNL     1      -6.959  14.154   4.614  1.00  0.00     0.148 C 
BRANCH  10  11
HETATM   11  N2  UNL     1      -6.789  14.328   3.182  1.00  0.00    -0.234 NA
BRANCH  11  12
HETATM   12  C2  UNL     1      -7.838  13.688   2.458  1.00  0.00     0.140 C 
BRANCH  12  13
HETATM   13  C1  UNL     1      -8.390  14.451   1.303  1.00  0.00     0.245 C 
BRANCH  13  14
HETATM   14  N1  UNL     1      -7.779  15.731   1.102  1.00  0.00    -0.078 N 
ATOM     15  H13 UNL     1      -8.174  16.420   1.741  1.00  0.00     0.274 HD
ATOM     16  H12 UNL     1      -6.814  15.722   1.433  1.00  0.00     0.274 HD
ATOM     17  H11 UNL     1      -7.823  16.067   0.140  1.00  0.00     0.274 HD
ENDBRANCH  13  14
ENDBRANCH  12  13
ENDBRANCH  11  12
BRANCH  11  18
HETATM   18  N3  UNL     1      -5.569  13.787   2.793  1.00  0.00    -0.363 NA
ATOM     19  H32 UNL     1      -4.832  14.478   2.935  1.00  0.00     0.171 HD
ATOM     20  H31 UNL     1      -5.389  12.942   3.335  1.00  0.00     0.171 HD
ENDBRANCH  11  18
ENDBRANCH  10  11
ENDBRANCH   1  10
BRANCH   9  21
HETATM   21  N4  UNL     1      -6.753  14.080   7.313  1.00  0.00    -0.068 N 
ATOM     22  H43 UNL     1      -6.954  13.392   6.587  1.00  0.00     0.275 HD
ATOM     23  H42 UNL     1      -5.887  13.684   7.681  1.00  0.00     0.275 HD
ATOM     24  H41 UNL     1      -7.483  14.084   8.025  1.00  0.00     0.275 HD
ENDBRANCH   9  21
TORSDOF 7
ENDMDL
