MODEL 1
REMARK VINA RESULT: -6.052882267      0.000      0.000
REMARK  6 active torsions:
REMARK  status: ('A' for Active; 'I' for Inactive)
REMARK    1  A    between atoms: N1_1  and  C1_4 
REMARK    2  A    between atoms: N6_16  and  C5_17 
REMARK    3  A    between atoms: C5_17  and  C6_18 
REMARK    4  A    between atoms: C6_18  and  C7_19 
REMARK    5  A    between atoms: C7_19  and  C8_20 
REMARK    6  A    between atoms: C8_20  and  N7_21 
ROOT
HETATM    1  C1  UNL     1      -6.504  15.570   2.861  1.00  0.00     0.132 A 
HETATM    2  N2  UNL     1      -5.167  15.472   2.838  1.00  0.00    -0.337 N 
ATOM      3  H2  UNL     1      -4.684  15.474   1.939  1.00  0.00     0.168 HD
HETATM    4  C2  UNL     1      -4.453  15.372   3.954  1.00  0.00     0.183 A 
HETATM    5  N3  UNL     1      -5.012  15.362   5.177  1.00  0.00    -0.335 N 
ATOM      6  H3  UNL     1      -4.446  15.285   6.022  1.00  0.00     0.168 HD
HETATM    7  C3  UNL     1      -6.360  15.460   5.237  1.00  0.00     0.156 A 
HETATM    8  C4  UNL     1      -7.124  15.564   4.102  1.00  0.00     0.139 A 
HETATM    9  N4  UNL     1      -8.476  15.647   4.504  1.00  0.00    -0.279 N 
ATOM     10  H4  UNL     1      -9.274  15.732   3.874  1.00  0.00     0.189 HD
HETATM   11  N5  UNL     1      -8.543  15.599   5.770  1.00  0.00    -0.238 N 
ATOM     12  H5  UNL     1      -9.414  15.642   6.299  1.00  0.00     0.208 HD
HETATM   13  N6  UNL     1      -7.297  15.483   6.343  1.00  0.00    -0.260 N 
ENDROOT
BRANCH  13  14
HETATM   14  C5  UNL     1      -6.842  15.412   7.697  1.00  0.00     0.152 C 
BRANCH  14  15
HETATM   15  C6  UNL     1      -7.786  14.626   8.554  1.00  0.00     0.024 C 
BRANCH  15  16
HETATM   16  C7  UNL     1      -8.594  15.514   9.432  1.00  0.00     0.029 C 
BRANCH  16  17
HETATM   17  C8  UNL     1     -10.070  15.190   9.146  1.00  0.00     0.229 C 
BRANCH  17  18
HETATM   18  N7  UNL     1     -10.686  16.432   8.731  1.00  0.00    -0.079 N 
ATOM     19  H73 UNL     1     -11.694  16.456   8.885  1.00  0.00     0.274 HD
ATOM     20  H72 UNL     1     -10.448  17.222   9.332  1.00  0.00     0.274 HD
ATOM     21  H71 UNL     1     -10.422  16.571   7.756  1.00  0.00     0.274 HD
ENDBRANCH  17  18
ENDBRANCH  16  17
ENDBRANCH  15  16
ENDBRANCH  14  15
ENDBRANCH  13  14
BRANCH   1  22
HETATM   22  N1  UNL     1      -7.210  15.667   1.799  1.00  0.00    -0.383 N 
ATOM     23  H12 UNL     1      -7.637  16.561   1.554  1.00  0.00     0.157 HD
ATOM     24  H11 UNL     1      -7.373  14.881   1.170  1.00  0.00     0.157 HD
ENDBRANCH   1  22
TORSDOF 6
ENDMDL
MODEL 2
REMARK VINA RESULT: -5.939738116      2.051      2.907
REMARK  6 active torsions:
REMARK  status: ('A' for Active; 'I' for Inactive)
REMARK    1  A    between atoms: N1_1  and  C1_4 
REMARK    2  A    between atoms: N6_16  and  C5_17 
REMARK    3  A    between atoms: C5_17  and  C6_18 
REMARK    4  A    between atoms: C6_18  and  C7_19 
REMARK    5  A    between atoms: C7_19  and  C8_20 
REMARK    6  A    between atoms: C8_20  and  N7_21 
ROOT
HETATM    1  C1  UNL     1      -3.595  16.823   5.735  1.00  0.00     0.132 A 
HETATM    2  N2  UNL     1      -2.899  16.362   6.784  1.00  0.00    -0.337 N 
ATOM      3  H2  UNL     1      -1.931  16.661   6.907  1.00  0.00     0.168 HD
HETATM    4  C2  UNL     1      -3.433  15.526   7.667  1.00  0.00     0.183 A 
HETATM    5  N3  UNL     1      -4.701  15.084   7.575  1.00  0.00    -0.335 N 
ATOM      6  H3  UNL     1      -5.092  14.442   8.265  1.00  0.00     0.168 HD
HETATM    7  C3  UNL     1      -5.433  15.530   6.528  1.00  0.00     0.156 A 
HETATM    8  C4  UNL     1      -4.907  16.393   5.601  1.00  0.00     0.139 A 
HETATM    9  N4  UNL     1      -5.917  16.661   4.648  1.00  0.00    -0.279 N 
ATOM     10  H4  UNL     1      -5.815  17.273   3.838  1.00  0.00     0.189 HD
HETATM   11  N5  UNL     1      -6.968  16.023   4.958  1.00  0.00    -0.238 N 
ATOM     12  H5  UNL     1      -7.836  16.055   4.422  1.00  0.00     0.208 HD
HETATM   13  N6  UNL     1      -6.797  15.283   6.106  1.00  0.00    -0.260 N 
ENDROOT
BRANCH  13  14
HETATM   14  C5  UNL     1      -7.662  14.430   6.862  1.00  0.00     0.152 C 
BRANCH  14  15
HETATM   15  C6  UNL     1      -8.628  15.222   7.689  1.00  0.00     0.024 C 
BRANCH  15  16
HETATM   16  C7  UNL     1      -9.888  15.492   6.947  1.00  0.00     0.029 C 
BRANCH  16  17
HETATM   17  C8  UNL     1     -11.016  15.518   7.991  1.00  0.00     0.229 C 
BRANCH  17  18
HETATM   18  N7  UNL     1     -10.638  16.509   8.974  1.00  0.00    -0.079 N 
ATOM     19  H73 UNL     1      -9.659  16.789   8.912  1.00  0.00     0.274 HD
ATOM     20  H72 UNL     1     -11.042  17.429   8.798  1.00  0.00     0.274 HD
ATOM     21  H71 UNL     1     -10.891  16.123   9.883  1.00  0.00     0.274 HD
ENDBRANCH  17  18
ENDBRANCH  16  17
ENDBRANCH  15  16
ENDBRANCH  14  15
ENDBRANCH  13  14
BRANCH   1  22
HETATM   22  N1  UNL     1      -3.100  17.628   4.873  1.00  0.00    -0.383 N 
ATOM     23  H12 UNL     1      -2.379  17.300   4.230  1.00  0.00     0.157 HD
ATOM     24  H11 UNL     1      -3.394  18.601   4.793  1.00  0.00     0.157 HD
ENDBRANCH   1  22
TORSDOF 6
ENDMDL
MODEL 3
REMARK VINA RESULT: -5.855588330      2.249      3.717
REMARK  6 active torsions:
REMARK  status: ('A' for Active; 'I' for Inactive)
REMARK    1  A    between atoms: N1_1  and  C1_4 
REMARK    2  A    between atoms: N6_16  and  C5_17 
REMARK    3  A    between atoms: C5_17  and  C6_18 
REMARK    4  A    between atoms: C6_18  and  C7_19 
REMARK    5  A    between atoms: C7_19  and  C8_20 
REMARK    6  A    between atoms: C8_20  and  N7_21 
ROOT
HETATM    1  C1  UNL     1      -7.547  14.817   2.767  1.00  0.00     0.132 A 
HETATM    2  N2  UNL     1      -6.423  14.330   2.222  1.00  0.00    -0.337 N 
ATOM      3  H2  UNL     1      -6.427  14.052   1.240  1.00  0.00     0.168 HD
HETATM    4  C2  UNL     1      -5.303  14.199   2.924  1.00  0.00     0.183 A 
HETATM    5  N3  UNL     1      -5.215  14.541   4.222  1.00  0.00    -0.335 N 
ATOM      6  H3  UNL     1      -4.345  14.432   4.745  1.00  0.00     0.168 HD
HETATM    7  C3  UNL     1      -6.331  15.037   4.804  1.00  0.00     0.156 A 
HETATM    8  C4  UNL     1      -7.501  15.183   4.104  1.00  0.00     0.139 A 
HETATM    9  N4  UNL     1      -8.464  15.719   4.989  1.00  0.00    -0.279 N 
ATOM     10  H4  UNL     1      -9.431  15.936   4.747  1.00  0.00     0.189 HD
HETATM   11  N5  UNL     1      -7.938  15.888   6.131  1.00  0.00    -0.238 N 
ATOM     12  H5  UNL     1      -8.434  16.265   6.940  1.00  0.00     0.208 HD
HETATM   13  N6  UNL     1      -6.617  15.502   6.148  1.00  0.00    -0.260 N 
ENDROOT
BRANCH  13  14
HETATM   14  C5  UNL     1      -5.603  15.511   7.157  1.00  0.00     0.152 C 
BRANCH  14  15
HETATM   15  C6  UNL     1      -4.600  16.597   6.919  1.00  0.00     0.024 C 
BRANCH  15  16
HETATM   16  C7  UNL     1      -3.207  16.089   7.036  1.00  0.00     0.029 C 
BRANCH  16  17
HETATM   17  C8  UNL     1      -2.514  16.397   5.699  1.00  0.00     0.229 C 
BRANCH  17  18
HETATM   18  N7  UNL     1      -3.314  17.412   5.049  1.00  0.00    -0.079 N 
ATOM     19  H73 UNL     1      -3.152  18.351   5.414  1.00  0.00     0.274 HD
ATOM     20  H72 UNL     1      -3.028  17.599   4.088  1.00  0.00     0.274 HD
ATOM     21  H71 UNL     1      -4.284  17.108   5.131  1.00  0.00     0.274 HD
ENDBRANCH  17  18
ENDBRANCH  16  17
ENDBRANCH  15  16
ENDBRANCH  14  15
ENDBRANCH  13  14
BRANCH   1  22
HETATM   22  N1  UNL     1      -8.635  14.952   2.108  1.00  0.00    -0.383 N 
ATOM     23  H12 UNL     1      -8.606  15.291   1.146  1.00  0.00     0.157 HD
ATOM     24  H11 UNL     1      -9.550  14.733   2.502  1.00  0.00     0.157 HD
ENDBRANCH   1  22
TORSDOF 6
ENDMDL
MODEL 4
REMARK VINA RESULT: -5.817846506      2.588      4.107
REMARK  6 active torsions:
REMARK  status: ('A' for Active; 'I' for Inactive)
REMARK    1  A    between atoms: N1_1  and  C1_4 
REMARK    2  A    between atoms: N6_16  and  C5_17 
REMARK    3  A    between atoms: C5_17  and  C6_18 
REMARK    4  A    between atoms: C6_18  and  C7_19 
REMARK    5  A    between atoms: C7_19  and  C8_20 
REMARK    6  A    between atoms: C8_20  and  N7_21 
ROOT
HETATM    1  C1  UNL     1      -7.792  14.960   2.487  1.00  0.00     0.132 A 
HETATM    2  N2  UNL     1      -8.839  14.839   3.315  1.00  0.00    -0.337 N 
ATOM      3  H2  UNL     1      -9.734  14.523   2.941  1.00  0.00     0.168 HD
HETATM    4  C2  UNL     1      -8.744  15.119   4.610  1.00  0.00     0.183 A 
HETATM    5  N3  UNL     1      -7.601  15.541   5.181  1.00  0.00    -0.335 N 
ATOM      6  H3  UNL     1      -7.549  15.751   6.178  1.00  0.00     0.168 HD
HETATM    7  C3  UNL     1      -6.524  15.674   4.373  1.00  0.00     0.156 A 
HETATM    8  C4  UNL     1      -6.592  15.392   3.033  1.00  0.00     0.139 A 
HETATM    9  N4  UNL     1      -5.313  15.631   2.481  1.00  0.00    -0.279 N 
ATOM     10  H4  UNL     1      -5.062  15.506   1.500  1.00  0.00     0.189 HD
HETATM   11  N5  UNL     1      -4.527  16.023   3.396  1.00  0.00    -0.238 N 
ATOM     12  H5  UNL     1      -3.545  16.259   3.244  1.00  0.00     0.208 HD
HETATM   13  N6  UNL     1      -5.157  16.092   4.617  1.00  0.00    -0.260 N 
ENDROOT
BRANCH  13  14
HETATM   14  C5  UNL     1      -4.717  16.448   5.931  1.00  0.00     0.152 C 
BRANCH  14  15
HETATM   15  C6  UNL     1      -3.235  16.291   6.075  1.00  0.00     0.024 C 
BRANCH  15  16
HETATM   16  C7  UNL     1      -2.866  15.826   7.439  1.00  0.00     0.029 C 
BRANCH  16  17
HETATM   17  C8  UNL     1      -4.162  15.329   8.100  1.00  0.00     0.229 C 
BRANCH  17  18
HETATM   18  N7  UNL     1      -3.930  13.946   8.459  1.00  0.00    -0.079 N 
ATOM     19  H73 UNL     1      -4.674  13.546   9.031  1.00  0.00     0.274 HD
ATOM     20  H72 UNL     1      -4.018  13.304   7.671  1.00  0.00     0.274 HD
ATOM     21  H71 UNL     1      -3.015  13.916   8.906  1.00  0.00     0.274 HD
ENDBRANCH  17  18
ENDBRANCH  16  17
ENDBRANCH  15  16
ENDBRANCH  14  15
ENDBRANCH  13  14
BRANCH   1  22
HETATM   22  N1  UNL     1      -7.862  14.695   1.237  1.00  0.00    -0.383 N 
ATOM     23  H12 UNL     1      -7.261  15.193   0.580  1.00  0.00     0.157 HD
ATOM     24  H11 UNL     1      -8.501  13.998   0.854  1.00  0.00     0.157 HD
ENDBRANCH   1  22
TORSDOF 6
ENDMDL
MODEL 5
REMARK VINA RESULT: -5.679732368      1.635      2.734
REMARK  6 active torsions:
REMARK  status: ('A' for Active; 'I' for Inactive)
REMARK    1  A    between atoms: N1_1  and  C1_4 
REMARK    2  A    between atoms: N6_16  and  C5_17 
REMARK    3  A    between atoms: C5_17  and  C6_18 
REMARK    4  A    between atoms: C6_18  and  C7_19 
REMARK    5  A    between atoms: C7_19  and  C8_20 
REMARK    6  A    between atoms: C8_20  and  N7_21 
ROOT
HETATM    1  C1  UNL     1      -6.678  15.609   2.599  1.00  0.00     0.132 A 
HETATM    2  N2  UNL     1      -5.346  15.520   2.475  1.00  0.00    -0.337 N 
ATOM      3  H2  UNL     1      -4.916  15.738   1.576  1.00  0.00     0.168 HD
HETATM    4  C2  UNL     1      -4.572  15.156   3.491  1.00  0.00     0.183 A 
HETATM    5  N3  UNL     1      -5.061  14.852   4.707  1.00  0.00    -0.335 N 
ATOM      6  H3  UNL     1      -4.449  14.575   5.474  1.00  0.00     0.168 HD
HETATM    7  C3  UNL     1      -6.402  14.932   4.866  1.00  0.00     0.156 A 
HETATM    8  C4  UNL     1      -7.227  15.305   3.836  1.00  0.00     0.139 A 
HETATM    9  N4  UNL     1      -8.553  15.289   4.324  1.00  0.00    -0.279 N 
ATOM     10  H4  UNL     1      -9.384  15.523   3.781  1.00  0.00     0.189 HD
HETATM   11  N5  UNL     1      -8.549  14.939   5.544  1.00  0.00    -0.238 N 
ATOM     12  H5  UNL     1      -9.389  14.853   6.117  1.00  0.00     0.208 HD
HETATM   13  N6  UNL     1      -7.275  14.689   5.999  1.00  0.00    -0.260 N 
ENDROOT
BRANCH  13  14
HETATM   14  C5  UNL     1      -6.745  14.296   7.268  1.00  0.00     0.152 C 
BRANCH  14  15
HETATM   15  C6  UNL     1      -6.673  15.453   8.216  1.00  0.00     0.024 C 
BRANCH  15  16
HETATM   16  C7  UNL     1      -5.310  16.049   8.247  1.00  0.00     0.029 C 
BRANCH  16  17
HETATM   17  C8  UNL     1      -4.323  14.881   8.401  1.00  0.00     0.229 C 
BRANCH  17  18
HETATM   18  N7  UNL     1      -3.157  15.227   7.616  1.00  0.00    -0.079 N 
ATOM     19  H73 UNL     1      -3.051  14.660   6.775  1.00  0.00     0.274 HD
ATOM     20  H72 UNL     1      -3.238  16.130   7.149  1.00  0.00     0.274 HD
ATOM     21  H71 UNL     1      -2.359  15.168   8.248  1.00  0.00     0.274 HD
ENDBRANCH  17  18
ENDBRANCH  16  17
ENDBRANCH  15  16
ENDBRANCH  14  15
ENDBRANCH  13  14
BRANCH   1  22
HETATM   22  N1  UNL     1      -7.442  15.958   1.634  1.00  0.00    -0.383 N 
ATOM     23  H12 UNL     1      -8.253  16.549   1.818  1.00  0.00     0.157 HD
ATOM     24  H11 UNL     1      -7.281  15.670   0.669  1.00  0.00     0.157 HD
ENDBRANCH   1  22
TORSDOF 6
ENDMDL
