MODEL 1
REMARK VINA RESULT: -7.893823465      0.000      0.000
REMARK  7 active torsions:
REMARK  status: ('A' for Active; 'I' for Inactive)
REMARK    1  A    between atoms: C2_2  and  C4_4 
REMARK    2  A    between atoms: C4_4  and  C5_5 
REMARK    3  A    between atoms: C5_5  and  C6_6 
REMARK    4  A    between atoms: C6_6  and  C7_7 
REMARK    5  A    between atoms: C7_7  and  C8_8 
REMARK    6  A    between atoms: C8_8  and  O1_9 
REMARK    7  A    between atoms: C21_25  and  O4_26 
ROOT
HETATM    1  C7  UNL     1      59.920  15.754  49.310  1.00  0.00    -0.015 C 
HETATM    2  C9  UNL     1      60.948  15.054  48.430  1.00  0.00     0.012 C 
HETATM    3  C10 UNL     1      62.232  15.886  48.555  1.00  0.00     0.006 C 
HETATM    4  C11 UNL     1      61.901  16.969  49.481  1.00  0.00    -0.005 C 
HETATM    5  C12 UNL     1      60.404  17.184  49.431  1.00  0.00     0.001 C 
HETATM    6  C13 UNL     1      60.019  17.962  48.205  1.00  0.00     0.007 C 
HETATM    7  C14 UNL     1      60.751  19.269  48.081  1.00  0.00     0.014 C 
HETATM    8  C15 UNL     1      62.237  19.141  48.210  1.00  0.00    -0.012 C 
HETATM    9  C16 UNL     1      62.806  18.702  46.888  1.00  0.00     0.021 C 
HETATM   10  C17 UNL     1      62.790  20.489  48.481  1.00  0.00    -0.013 C 
HETATM   11  C18 UNL     1      62.092  21.563  48.165  1.00  0.00    -0.008 C 
HETATM   12  C19 UNL     1      62.523  22.969  48.379  1.00  0.00     0.138 C 
HETATM   13  C20 UNL     1      63.636  23.022  49.321  1.00  0.00     0.265 C 
HETATM   14  O2  UNL     1      64.164  24.139  49.587  1.00  0.00    -0.265 OA
HETATM   15  O3  UNL     1      64.064  21.832  49.888  1.00  0.00    -0.279 OA
HETATM   16  C21 UNL     1      64.122  20.645  49.092  1.00  0.00     0.196 C 
HETATM   17  C22 UNL     1      64.567  19.517  49.968  1.00  0.00     0.074 C 
HETATM   18  C23 UNL     1      64.100  18.164  49.549  1.00  0.00     0.011 C 
HETATM   19  C24 UNL     1      62.598  18.265  49.361  1.00  0.00     0.003 C 
ENDROOT
BRANCH   1  20
HETATM   20  C6  UNL     1      59.903  15.026  50.624  1.00  0.00     0.012 C 
BRANCH  20  21
HETATM   21  C5  UNL     1      58.545  14.679  51.132  1.00  0.00     0.001 C 
BRANCH  21  22
HETATM   22  C4  UNL     1      58.681  13.375  51.913  1.00  0.00     0.004 C 
BRANCH  22  23
HETATM   23  C2  UNL     1      57.509  12.461  51.612  1.00  0.00    -0.023 C 
HETATM   24  C1  UNL     1      56.831  12.841  50.320  1.00  0.00     0.009 C 
HETATM   25  C3  UNL     1      56.550  12.493  52.774  1.00  0.00     0.009 C 
ENDBRANCH  22  23
ENDBRANCH  21  22
ENDBRANCH  20  21
ENDBRANCH   1  20
BRANCH   1  26
HETATM   26  C8  UNL     1      58.541  15.702  48.664  1.00  0.00     0.173 C 
BRANCH  26  27
HETATM   27  O1  UNL     1      58.517  14.825  47.604  1.00  0.00    -0.400 OA
ATOM     28  H1  UNL     1      57.626  14.615  47.348  1.00  0.00     0.209 HD
ENDBRANCH  26  27
ENDBRANCH   1  26
BRANCH  16  29
HETATM   29  O4  UNL     1      65.125  20.811  48.124  1.00  0.00    -0.361 OA
ATOM     30  H4  UNL     1      65.958  20.460  48.415  1.00  0.00     0.213 HD
ENDBRANCH  16  29
TORSDOF 7
ENDMDL
MODEL 2
REMARK VINA RESULT: -7.376833235      7.783     13.699
REMARK  7 active torsions:
REMARK  status: ('A' for Active; 'I' for Inactive)
REMARK    1  A    between atoms: C2_2  and  C4_4 
REMARK    2  A    between atoms: C4_4  and  C5_5 
REMARK    3  A    between atoms: C5_5  and  C6_6 
REMARK    4  A    between atoms: C6_6  and  C7_7 
REMARK    5  A    between atoms: C7_7  and  C8_8 
REMARK    6  A    between atoms: C8_8  and  O1_9 
REMARK    7  A    between atoms: C21_25  and  O4_26 
ROOT
HETATM    1  C7  UNL     1      55.775  12.472  56.177  1.00  0.00    -0.015 C 
HETATM    2  C9  UNL     1      55.915  13.315  57.438  1.00  0.00     0.012 C 
HETATM    3  C10 UNL     1      57.006  12.630  58.273  1.00  0.00     0.006 C 
HETATM    4  C11 UNL     1      57.438  11.483  57.474  1.00  0.00    -0.005 C 
HETATM    5  C12 UNL     1      56.302  11.103  56.551  1.00  0.00     0.001 C 
HETATM    6  C13 UNL     1      55.249  10.332  57.294  1.00  0.00     0.007 C 
HETATM    7  C14 UNL     1      55.791   9.121  58.001  1.00  0.00     0.014 C 
HETATM    8  C15 UNL     1      56.977   9.411  58.867  1.00  0.00    -0.012 C 
HETATM    9  C16 UNL     1      56.498   9.960  60.184  1.00  0.00     0.021 C 
HETATM   10  C17 UNL     1      57.650   8.125  59.166  1.00  0.00    -0.013 C 
HETATM   11  C18 UNL     1      56.985   6.992  59.054  1.00  0.00    -0.008 C 
HETATM   12  C19 UNL     1      57.533   5.636  59.321  1.00  0.00     0.138 C 
HETATM   13  C20 UNL     1      58.991   5.675  59.352  1.00  0.00     0.265 C 
HETATM   14  O2  UNL     1      59.628   4.615  59.615  1.00  0.00    -0.265 OA
HETATM   15  O3  UNL     1      59.615   6.884  59.088  1.00  0.00    -0.279 OA
HETATM   16  C21 UNL     1      59.058   8.098  59.600  1.00  0.00     0.196 C 
HETATM   17  C22 UNL     1      59.903   9.237  59.121  1.00  0.00     0.074 C 
HETATM   18  C23 UNL     1      59.196  10.543  58.989  1.00  0.00     0.011 C 
HETATM   19  C24 UNL     1      57.957  10.279  58.154  1.00  0.00     0.003 C 
ENDROOT
BRANCH   1  20
HETATM   20  C6  UNL     1      56.589  13.145  55.109  1.00  0.00     0.012 C 
BRANCH  20  21
HETATM   21  C5  UNL     1      56.578  12.460  53.785  1.00  0.00     0.001 C 
BRANCH  21  22
HETATM   22  C4  UNL     1      57.875  12.840  53.076  1.00  0.00     0.004 C 
BRANCH  22  23
HETATM   23  C2  UNL     1      57.568  13.484  51.736  1.00  0.00    -0.023 C 
HETATM   24  C1  UNL     1      57.095  12.464  50.731  1.00  0.00     0.009 C 
HETATM   25  C3  UNL     1      58.791  14.217  51.251  1.00  0.00     0.009 C 
ENDBRANCH  22  23
ENDBRANCH  21  22
ENDBRANCH  20  21
ENDBRANCH   1  20
BRANCH   1  26
HETATM   26  C8  UNL     1      54.314  12.392  55.749  1.00  0.00     0.173 C 
BRANCH  26  27
HETATM   27  O1  UNL     1      53.522  13.218  56.512  1.00  0.00    -0.400 OA
ATOM     28  H1  UNL     1      53.656  14.132  56.287  1.00  0.00     0.209 HD
ENDBRANCH  26  27
ENDBRANCH   1  26
BRANCH  16  29
HETATM   29  O4  UNL     1      59.174   8.083  60.998  1.00  0.00    -0.361 OA
ATOM     30  H4  UNL     1      58.938   8.919  61.382  1.00  0.00     0.213 HD
ENDBRANCH  16  29
TORSDOF 7
ENDMDL
MODEL 3
REMARK VINA RESULT: -7.264169996      3.153      4.680
REMARK  7 active torsions:
REMARK  status: ('A' for Active; 'I' for Inactive)
REMARK    1  A    between atoms: C2_2  and  C4_4 
REMARK    2  A    between atoms: C4_4  and  C5_5 
REMARK    3  A    between atoms: C5_5  and  C6_6 
REMARK    4  A    between atoms: C6_6  and  C7_7 
REMARK    5  A    between atoms: C7_7  and  C8_8 
REMARK    6  A    between atoms: C8_8  and  O1_9 
REMARK    7  A    between atoms: C21_25  and  O4_26 
ROOT
HETATM    1  C7  UNL     1      62.396  18.254  48.928  1.00  0.00    -0.015 C 
HETATM    2  C9  UNL     1      63.375  17.156  48.528  1.00  0.00     0.012 C 
HETATM    3  C10 UNL     1      64.353  17.027  49.704  1.00  0.00     0.006 C 
HETATM    4  C11 UNL     1      63.897  18.003  50.693  1.00  0.00    -0.005 C 
HETATM    5  C12 UNL     1      63.128  19.082  49.963  1.00  0.00     0.001 C 
HETATM    6  C13 UNL     1      64.067  20.039  49.286  1.00  0.00     0.007 C 
HETATM    7  C14 UNL     1      65.074  20.643  50.225  1.00  0.00     0.014 C 
HETATM    8  C15 UNL     1      65.813  19.631  51.046  1.00  0.00    -0.012 C 
HETATM    9  C16 UNL     1      66.932  19.056  50.222  1.00  0.00     0.021 C 
HETATM   10  C17 UNL     1      66.446  20.341  52.182  1.00  0.00    -0.013 C 
HETATM   11  C18 UNL     1      66.659  21.640  52.112  1.00  0.00    -0.008 C 
HETATM   12  C19 UNL     1      67.283  22.474  53.172  1.00  0.00     0.138 C 
HETATM   13  C20 UNL     1      67.286  21.761  54.445  1.00  0.00     0.265 C 
HETATM   14  O2  UNL     1      67.823  22.302  55.452  1.00  0.00    -0.265 OA
HETATM   15  O3  UNL     1      66.691  20.509  54.489  1.00  0.00    -0.279 OA
HETATM   16  C21 UNL     1      66.854  19.605  53.392  1.00  0.00     0.196 C 
HETATM   17  C22 UNL     1      66.070  18.366  53.690  1.00  0.00     0.074 C 
HETATM   18  C23 UNL     1      65.591  17.614  52.494  1.00  0.00     0.011 C 
HETATM   19  C24 UNL     1      64.876  18.619  51.611  1.00  0.00     0.003 C 
ENDROOT
BRANCH   1  20
HETATM   20  C6  UNL     1      61.175  17.572  49.475  1.00  0.00     0.012 C 
BRANCH  20  21
HETATM   21  C5  UNL     1      60.871  16.246  48.868  1.00  0.00     0.001 C 
BRANCH  21  22
HETATM   22  C4  UNL     1      60.509  15.304  50.013  1.00  0.00     0.004 C 
BRANCH  22  23
HETATM   23  C2  UNL     1      59.049  15.472  50.387  1.00  0.00    -0.023 C 
HETATM   24  C1  UNL     1      58.607  14.420  51.373  1.00  0.00     0.009 C 
HETATM   25  C3  UNL     1      58.214  15.444  49.133  1.00  0.00     0.009 C 
ENDBRANCH  22  23
ENDBRANCH  21  22
ENDBRANCH  20  21
ENDBRANCH   1  20
BRANCH   1  26
HETATM   26  C8  UNL     1      62.025  19.103  47.718  1.00  0.00     0.173 C 
BRANCH  26  27
HETATM   27  O1  UNL     1      62.456  18.524  46.548  1.00  0.00    -0.400 OA
ATOM     28  H1  UNL     1      62.265  19.075  45.798  1.00  0.00     0.209 HD
ENDBRANCH  26  27
ENDBRANCH   1  26
BRANCH  16  29
HETATM   29  O4  UNL     1      68.201  19.215  53.338  1.00  0.00    -0.361 OA
ATOM     30  H4  UNL     1      68.622  19.279  54.188  1.00  0.00     0.213 HD
ENDBRANCH  16  29
TORSDOF 7
ENDMDL
MODEL 4
REMARK VINA RESULT: -7.235969673      2.582      3.319
REMARK  7 active torsions:
REMARK  status: ('A' for Active; 'I' for Inactive)
REMARK    1  A    between atoms: C2_2  and  C4_4 
REMARK    2  A    between atoms: C4_4  and  C5_5 
REMARK    3  A    between atoms: C5_5  and  C6_6 
REMARK    4  A    between atoms: C6_6  and  C7_7 
REMARK    5  A    between atoms: C7_7  and  C8_8 
REMARK    6  A    between atoms: C8_8  and  O1_9 
REMARK    7  A    between atoms: C21_25  and  O4_26 
ROOT
HETATM    1  C7  UNL     1      58.340  15.417  48.208  1.00  0.00    -0.015 C 
HETATM    2  C9  UNL     1      59.005  15.002  46.902  1.00  0.00     0.012 C 
HETATM    3  C10 UNL     1      60.491  14.811  47.238  1.00  0.00     0.006 C 
HETATM    4  C11 UNL     1      60.601  15.094  48.669  1.00  0.00    -0.005 C 
HETATM    5  C12 UNL     1      59.452  15.999  49.055  1.00  0.00     0.001 C 
HETATM    6  C13 UNL     1      59.729  17.415  48.639  1.00  0.00     0.007 C 
HETATM    7  C14 UNL     1      61.030  17.945  49.174  1.00  0.00     0.014 C 
HETATM    8  C15 UNL     1      62.200  17.052  48.902  1.00  0.00    -0.012 C 
HETATM    9  C16 UNL     1      62.684  17.292  47.498  1.00  0.00     0.021 C 
HETATM   10  C17 UNL     1      63.304  17.458  49.804  1.00  0.00    -0.013 C 
HETATM   11  C18 UNL     1      63.311  18.665  50.335  1.00  0.00    -0.008 C 
HETATM   12  C19 UNL     1      64.350  19.202  51.251  1.00  0.00     0.138 C 
HETATM   13  C20 UNL     1      65.158  18.116  51.796  1.00  0.00     0.265 C 
HETATM   14  O2  UNL     1      66.124  18.392  52.562  1.00  0.00    -0.265 OA
HETATM   15  O3  UNL     1      64.822  16.817  51.445  1.00  0.00    -0.279 OA
HETATM   16  C21 UNL     1      64.405  16.527  50.108  1.00  0.00     0.196 C 
HETATM   17  C22 UNL     1      64.062  15.072  50.032  1.00  0.00     0.074 C 
HETATM   18  C23 UNL     1      63.053  14.710  48.995  1.00  0.00     0.011 C 
HETATM   19  C24 UNL     1      61.866  15.631  49.207  1.00  0.00     0.003 C 
ENDROOT
BRANCH   1  20
HETATM   20  C6  UNL     1      57.734  14.178  48.803  1.00  0.00     0.012 C 
BRANCH  20  21
HETATM   21  C5  UNL     1      57.759  14.119  50.292  1.00  0.00     0.001 C 
BRANCH  21  22
HETATM   22  C4  UNL     1      56.870  12.949  50.706  1.00  0.00     0.004 C 
BRANCH  22  23
HETATM   23  C2  UNL     1      57.366  12.354  52.010  1.00  0.00    -0.023 C 
HETATM   24  C1  UNL     1      56.445  12.691  53.156  1.00  0.00     0.009 C 
HETATM   25  C3  UNL     1      58.771  12.834  52.268  1.00  0.00     0.009 C 
ENDBRANCH  22  23
ENDBRANCH  21  22
ENDBRANCH  20  21
ENDBRANCH   1  20
BRANCH   1  26
HETATM   26  C8  UNL     1      57.257  16.458  47.948  1.00  0.00     0.173 C 
BRANCH  26  27
HETATM   27  O1  UNL     1      57.296  16.907  46.649  1.00  0.00    -0.400 OA
ATOM     28  H1  UNL     1      57.317  17.857  46.611  1.00  0.00     0.209 HD
ENDBRANCH  26  27
ENDBRANCH   1  26
BRANCH  16  29
HETATM   29  O4  UNL     1      65.501  16.717  49.253  1.00  0.00    -0.361 OA
ATOM     30  H4  UNL     1      65.250  17.154  48.447  1.00  0.00     0.213 HD
ENDBRANCH  16  29
TORSDOF 7
ENDMDL
MODEL 5
REMARK VINA RESULT: -7.088081369      1.359      1.571
REMARK  7 active torsions:
REMARK  status: ('A' for Active; 'I' for Inactive)
REMARK    1  A    between atoms: C2_2  and  C4_4 
REMARK    2  A    between atoms: C4_4  and  C5_5 
REMARK    3  A    between atoms: C5_5  and  C6_6 
REMARK    4  A    between atoms: C6_6  and  C7_7 
REMARK    5  A    between atoms: C7_7  and  C8_8 
REMARK    6  A    between atoms: C8_8  and  O1_9 
REMARK    7  A    between atoms: C21_25  and  O4_26 
ROOT
HETATM    1  C7  UNL     1      59.265  16.205  48.933  1.00  0.00    -0.015 C 
HETATM    2  C9  UNL     1      60.185  15.067  48.508  1.00  0.00     0.012 C 
HETATM    3  C10 UNL     1      61.552  15.390  49.125  1.00  0.00     0.006 C 
HETATM    4  C11 UNL     1      61.357  16.637  49.864  1.00  0.00    -0.005 C 
HETATM    5  C12 UNL     1      60.185  17.367  49.245  1.00  0.00     0.001 C 
HETATM    6  C13 UNL     1      60.597  18.053  47.974  1.00  0.00     0.007 C 
HETATM    7  C14 UNL     1      61.768  18.978  48.155  1.00  0.00     0.014 C 
HETATM    8  C15 UNL     1      62.936  18.342  48.843  1.00  0.00    -0.012 C 
HETATM    9  C16 UNL     1      63.724  17.549  47.836  1.00  0.00     0.021 C 
HETATM   10  C17 UNL     1      63.829  19.425  49.319  1.00  0.00    -0.013 C 
HETATM   11  C18 UNL     1      63.764  20.622  48.771  1.00  0.00    -0.008 C 
HETATM   12  C19 UNL     1      64.596  21.794  49.149  1.00  0.00     0.138 C 
HETATM   13  C20 UNL     1      65.225  21.574  50.447  1.00  0.00     0.265 C 
HETATM   14  O2  UNL     1      66.010  22.451  50.907  1.00  0.00    -0.265 OA
HETATM   15  O3  UNL     1      64.927  20.400  51.122  1.00  0.00    -0.279 OA
HETATM   16  C21 UNL     1      64.803  19.174  50.397  1.00  0.00     0.196 C 
HETATM   17  C22 UNL     1      64.432  18.095  51.365  1.00  0.00     0.074 C 
HETATM   18  C23 UNL     1      63.663  16.957  50.784  1.00  0.00     0.011 C 
HETATM   19  C24 UNL     1      62.492  17.565  50.035  1.00  0.00     0.003 C 
ENDROOT
BRANCH   1  20
HETATM   20  C6  UNL     1      58.499  15.723  50.131  1.00  0.00     0.012 C 
BRANCH  20  21
HETATM   21  C5  UNL     1      58.372  14.242  50.241  1.00  0.00     0.001 C 
BRANCH  21  22
HETATM   22  C4  UNL     1      58.462  13.896  51.725  1.00  0.00     0.004 C 
BRANCH  22  23
HETATM   23  C2  UNL     1      57.621  12.671  52.028  1.00  0.00    -0.023 C 
HETATM   24  C1  UNL     1      56.611  12.413  50.938  1.00  0.00     0.009 C 
HETATM   25  C3  UNL     1      56.957  12.849  53.369  1.00  0.00     0.009 C 
ENDBRANCH  22  23
ENDBRANCH  21  22
ENDBRANCH  20  21
ENDBRANCH   1  20
BRANCH   1  26
HETATM   26  C8  UNL     1      58.304  16.564  47.806  1.00  0.00     0.173 C 
BRANCH  26  27
HETATM   27  O1  UNL     1      58.038  15.475  47.009  1.00  0.00    -0.400 OA
ATOM     28  H1  UNL     1      57.618  15.735  46.196  1.00  0.00     0.209 HD
ENDBRANCH  26  27
ENDBRANCH   1  26
BRANCH  16  29
HETATM   29  O4  UNL     1      66.066  18.831  49.890  1.00  0.00    -0.361 OA
ATOM     30  H4  UNL     1      66.056  18.744  48.944  1.00  0.00     0.213 HD
ENDBRANCH  16  29
TORSDOF 7
ENDMDL
