MODEL 1
REMARK VINA RESULT: -5.721381637      0.000      0.000
REMARK  8 active torsions:
REMARK  status: ('A' for Active; 'I' for Inactive)
REMARK    1  A    between atoms: C2_2  and  C3_3 
REMARK    2  A    between atoms: C3_3  and  C4_5 
REMARK    3  A    between atoms: C8_9  and  O2_10 
REMARK    4  A    between atoms: C11_14  and  C12_15 
REMARK    5  A    between atoms: C13_16  and  C14_17 
REMARK    6  A    between atoms: C14_17  and  C17_20 
REMARK    7  A    between atoms: C17_20  and  O3_21 
REMARK    8  A    between atoms: C18_24  and  C19_25 
ROOT
HETATM    1  C4  UNL     1      55.859  11.902  56.623  1.00  0.00     0.039 C 
HETATM    2  C5  UNL     1      56.807  12.923  57.223  1.00  0.00     0.050 C 
HETATM    3  C6  UNL     1      56.511  13.018  58.662  1.00  0.00     0.126 C 
HETATM    4  C7  UNL     1      55.014  13.019  59.025  1.00  0.00     0.071 C 
HETATM    5  C8  UNL     1      54.271  13.257  57.830  1.00  0.00     0.072 C 
HETATM    6  C9  UNL     1      52.894  13.304  57.449  1.00  0.00     0.040 C 
HETATM    7  C10 UNL     1      53.509  12.894  56.075  1.00  0.00     0.021 C 
HETATM    8  C11 UNL     1      54.438  12.064  56.932  1.00  0.00     0.023 C 
HETATM    9  O4  UNL     1      57.084  11.892  59.258  1.00  0.00    -0.380 OA
HETATM   10  C18 UNL     1      56.728  10.706  58.711  1.00  0.00     0.130 C 
HETATM   11  C23 UNL     1      56.353  10.606  57.292  1.00  0.00     0.051 C 
ENDROOT
BRANCH   8  12
HETATM   12  C12 UNL     1      53.762  10.818  57.171  1.00  0.00    -0.016 C 
HETATM   13  C13 UNL     1      53.104   9.959  56.462  1.00  0.00    -0.019 C 
BRANCH  13  14
HETATM   14  C14 UNL     1      52.489   8.709  56.984  1.00  0.00    -0.009 C 
HETATM   15  C15 UNL     1      51.158   9.012  57.656  1.00  0.00     0.021 C 
HETATM   16  C16 UNL     1      53.340   7.995  57.997  1.00  0.00     0.021 C 
BRANCH  14  17
HETATM   17  C17 UNL     1      52.198   7.724  55.870  1.00  0.00     0.176 C 
BRANCH  17  18
HETATM   18  O3  UNL     1      52.828   6.496  56.073  1.00  0.00    -0.400 OA
ATOM     19  H3  UNL     1      52.511   5.826  55.479  1.00  0.00     0.209 HD
ENDBRANCH  17  18
ENDBRANCH  14  17
ENDBRANCH  13  14
ENDBRANCH   8  12
BRANCH   1  20
HETATM   20  C3  UNL     1      56.102  11.744  55.170  1.00  0.00     0.136 C 
HETATM   21  O1  UNL     1      56.071  10.589  54.705  1.00  0.00    -0.297 OA
BRANCH  20  22
HETATM   22  C2  UNL     1      56.377  12.828  54.209  1.00  0.00     0.074 C 
HETATM   23  C1  UNL     1      56.812  12.273  52.852  1.00  0.00     0.013 C 
ENDBRANCH  20  22
ENDBRANCH   1  20
BRANCH   5  24
HETATM   24  O2  UNL     1      54.788  14.464  57.262  1.00  0.00    -0.389 OA
ATOM     25  H2  UNL     1      54.619  14.418  56.329  1.00  0.00     0.210 HD
ENDBRANCH   5  24
BRANCH  10  26
HETATM   26  C19 UNL     1      57.821   9.678  59.038  1.00  0.00    -0.025 C 
HETATM   27  C20 UNL     1      59.108  10.012  58.321  1.00  0.00     0.017 C 
HETATM   28  C21 UNL     1      57.357   8.321  58.487  1.00  0.00     0.017 C 
HETATM   29  C22 UNL     1      58.089   9.501  60.482  1.00  0.00     0.017 C 
ENDBRANCH  10  26
TORSDOF 8
ENDMDL
MODEL 2
REMARK VINA RESULT: -5.376877020      2.631      5.833
REMARK  8 active torsions:
REMARK  status: ('A' for Active; 'I' for Inactive)
REMARK    1  A    between atoms: C2_2  and  C3_3 
REMARK    2  A    between atoms: C3_3  and  C4_5 
REMARK    3  A    between atoms: C8_9  and  O2_10 
REMARK    4  A    between atoms: C11_14  and  C12_15 
REMARK    5  A    between atoms: C13_16  and  C14_17 
REMARK    6  A    between atoms: C14_17  and  C17_20 
REMARK    7  A    between atoms: C17_20  and  O3_21 
REMARK    8  A    between atoms: C18_24  and  C19_25 
ROOT
HETATM    1  C4  UNL     1      57.690  11.732  59.419  1.00  0.00     0.039 C 
HETATM    2  C5  UNL     1      58.083  13.041  58.760  1.00  0.00     0.050 C 
HETATM    3  C6  UNL     1      58.821  12.720  57.527  1.00  0.00     0.126 C 
HETATM    4  C7  UNL     1      59.830  11.562  57.652  1.00  0.00     0.071 C 
HETATM    5  C8  UNL     1      60.033  11.300  59.039  1.00  0.00     0.072 C 
HETATM    6  C9  UNL     1      60.749  10.348  59.828  1.00  0.00     0.040 C 
HETATM    7  C10 UNL     1      59.614  10.694  60.842  1.00  0.00     0.021 C 
HETATM    8  C11 UNL     1      58.754  10.744  59.599  1.00  0.00     0.023 C 
HETATM    9  O4  UNL     1      57.865  12.340  56.582  1.00  0.00    -0.380 OA
HETATM   10  C18 UNL     1      57.021  11.357  56.978  1.00  0.00     0.130 C 
HETATM   11  C23 UNL     1      56.682  11.173  58.397  1.00  0.00     0.051 C 
ENDROOT
BRANCH   8  12
HETATM   12  C12 UNL     1      58.325   9.394  59.350  1.00  0.00    -0.016 C 
HETATM   13  C13 UNL     1      58.000   8.368  60.067  1.00  0.00    -0.019 C 
BRANCH  13  14
HETATM   14  C14 UNL     1      57.578   7.047  59.529  1.00  0.00    -0.009 C 
HETATM   15  C15 UNL     1      56.728   7.227  58.281  1.00  0.00     0.021 C 
HETATM   16  C16 UNL     1      56.767   6.232  60.498  1.00  0.00     0.021 C 
BRANCH  14  17
HETATM   17  C17 UNL     1      58.770   6.204  59.124  1.00  0.00     0.176 C 
BRANCH  17  18
HETATM   18  O3  UNL     1      59.838   6.335  60.012  1.00  0.00    -0.400 OA
ATOM     19  H3  UNL     1      60.605   5.853  59.727  1.00  0.00     0.209 HD
ENDBRANCH  17  18
ENDBRANCH  14  17
ENDBRANCH  13  14
ENDBRANCH   8  12
BRANCH   1  20
HETATM   20  C3  UNL     1      56.932  11.974  60.668  1.00  0.00     0.136 C 
HETATM   21  O1  UNL     1      57.256  12.962  61.353  1.00  0.00    -0.297 OA
BRANCH  20  22
HETATM   22  C2  UNL     1      55.820  11.155  61.186  1.00  0.00     0.074 C 
HETATM   23  C1  UNL     1      56.186  10.499  62.518  1.00  0.00     0.013 C 
ENDBRANCH  20  22
ENDBRANCH   1  20
BRANCH   5  24
HETATM   24  O2  UNL     1      60.414  12.543  59.638  1.00  0.00    -0.389 OA
ATOM     25  H2  UNL     1      59.697  13.148  59.486  1.00  0.00     0.210 HD
ENDBRANCH   5  24
BRANCH  10  26
HETATM   26  C19 UNL     1      55.738  11.460  56.141  1.00  0.00    -0.025 C 
HETATM   27  C20 UNL     1      56.013  11.147  54.689  1.00  0.00     0.017 C 
HETATM   28  C21 UNL     1      55.272  12.923  56.190  1.00  0.00     0.017 C 
HETATM   29  C22 UNL     1      54.618  10.622  56.625  1.00  0.00     0.017 C 
ENDBRANCH  10  26
TORSDOF 8
ENDMDL
MODEL 3
REMARK VINA RESULT: -5.358496451      2.091      5.609
REMARK  8 active torsions:
REMARK  status: ('A' for Active; 'I' for Inactive)
REMARK    1  A    between atoms: C2_2  and  C3_3 
REMARK    2  A    between atoms: C3_3  and  C4_5 
REMARK    3  A    between atoms: C8_9  and  O2_10 
REMARK    4  A    between atoms: C11_14  and  C12_15 
REMARK    5  A    between atoms: C13_16  and  C14_17 
REMARK    6  A    between atoms: C14_17  and  C17_20 
REMARK    7  A    between atoms: C17_20  and  O3_21 
REMARK    8  A    between atoms: C18_24  and  C19_25 
ROOT
HETATM    1  C4  UNL     1      55.423  12.293  56.984  1.00  0.00     0.039 C 
HETATM    2  C5  UNL     1      53.974  12.185  56.545  1.00  0.00     0.050 C 
HETATM    3  C6  UNL     1      53.184  11.750  57.708  1.00  0.00     0.126 C 
HETATM    4  C7  UNL     1      53.834  10.648  58.567  1.00  0.00     0.071 C 
HETATM    5  C8  UNL     1      54.914  10.088  57.822  1.00  0.00     0.072 C 
HETATM    6  C9  UNL     1      55.945   9.122  58.043  1.00  0.00     0.040 C 
HETATM    7  C10 UNL     1      56.663   9.997  56.968  1.00  0.00     0.021 C 
HETATM    8  C11 UNL     1      55.982  11.138  57.689  1.00  0.00     0.023 C 
HETATM    9  O4  UNL     1      53.026  12.875  58.522  1.00  0.00    -0.380 OA
HETATM   10  C18 UNL     1      54.174  13.509  58.857  1.00  0.00     0.130 C 
HETATM   11  C23 UNL     1      55.349  13.471  57.973  1.00  0.00     0.051 C 
ENDROOT
BRANCH   8  12
HETATM   12  C12 UNL     1      56.847  11.501  58.779  1.00  0.00    -0.016 C 
HETATM   13  C13 UNL     1      58.093  11.818  58.919  1.00  0.00    -0.019 C 
BRANCH  13  14
HETATM   14  C14 UNL     1      58.749  12.162  60.208  1.00  0.00    -0.009 C 
HETATM   15  C15 UNL     1      58.460  11.095  61.253  1.00  0.00     0.021 C 
HETATM   16  C16 UNL     1      58.297  13.475  60.786  1.00  0.00     0.021 C 
BRANCH  14  17
HETATM   17  C17 UNL     1      60.256  12.232  60.066  1.00  0.00     0.176 C 
BRANCH  17  18
HETATM   18  O3  UNL     1      60.651  12.532  58.763  1.00  0.00    -0.400 OA
ATOM     19  H3  UNL     1      61.337  13.189  58.736  1.00  0.00     0.209 HD
ENDBRANCH  17  18
ENDBRANCH  14  17
ENDBRANCH  13  14
ENDBRANCH   8  12
BRANCH   1  20
HETATM   20  C3  UNL     1      56.285  12.736  55.864  1.00  0.00     0.136 C 
HETATM   21  O1  UNL     1      57.156  13.589  56.114  1.00  0.00    -0.297 OA
BRANCH  20  22
HETATM   22  C2  UNL     1      56.214  12.262  54.469  1.00  0.00     0.074 C 
HETATM   23  C1  UNL     1      57.014  13.167  53.532  1.00  0.00     0.013 C 
ENDBRANCH  20  22
ENDBRANCH   1  20
BRANCH   5  24
HETATM   24  O2  UNL     1      54.373   9.676  56.563  1.00  0.00    -0.389 OA
ATOM     25  H2  UNL     1      53.597  10.205  56.416  1.00  0.00     0.210 HD
ENDBRANCH   5  24
BRANCH  10  26
HETATM   26  C19 UNL     1      53.833  14.964  59.212  1.00  0.00    -0.025 C 
HETATM   27  C20 UNL     1      53.811  15.831  57.975  1.00  0.00     0.017 C 
HETATM   28  C21 UNL     1      54.967  15.500  60.098  1.00  0.00     0.017 C 
HETATM   29  C22 UNL     1      52.568  15.135  59.959  1.00  0.00     0.017 C 
ENDBRANCH  10  26
TORSDOF 8
ENDMDL
MODEL 4
REMARK VINA RESULT: -5.342504704      1.656      2.005
REMARK  8 active torsions:
REMARK  status: ('A' for Active; 'I' for Inactive)
REMARK    1  A    between atoms: C2_2  and  C3_3 
REMARK    2  A    between atoms: C3_3  and  C4_5 
REMARK    3  A    between atoms: C8_9  and  O2_10 
REMARK    4  A    between atoms: C11_14  and  C12_15 
REMARK    5  A    between atoms: C13_16  and  C14_17 
REMARK    6  A    between atoms: C14_17  and  C17_20 
REMARK    7  A    between atoms: C17_20  and  O3_21 
REMARK    8  A    between atoms: C18_24  and  C19_25 
ROOT
HETATM    1  C4  UNL     1      55.724  12.497  57.427  1.00  0.00     0.039 C 
HETATM    2  C5  UNL     1      56.798  13.087  58.321  1.00  0.00     0.050 C 
HETATM    3  C6  UNL     1      56.428  12.799  59.717  1.00  0.00     0.126 C 
HETATM    4  C7  UNL     1      54.935  12.980  60.049  1.00  0.00     0.071 C 
HETATM    5  C8  UNL     1      54.330  13.706  58.980  1.00  0.00     0.072 C 
HETATM    6  C9  UNL     1      53.013  14.131  58.621  1.00  0.00     0.040 C 
HETATM    7  C10 UNL     1      53.635  14.044  57.192  1.00  0.00     0.021 C 
HETATM    8  C11 UNL     1      54.338  12.830  57.759  1.00  0.00     0.023 C 
HETATM    9  O4  UNL     1      56.746  11.457  59.941  1.00  0.00    -0.380 OA
HETATM   10  C18 UNL     1      56.218  10.583  59.051  1.00  0.00     0.130 C 
HETATM   11  C23 UNL     1      55.928  10.990  57.668  1.00  0.00     0.051 C 
ENDROOT
BRANCH   8  12
HETATM   12  C12 UNL     1      53.433  11.725  57.596  1.00  0.00    -0.016 C 
HETATM   13  C13 UNL     1      52.757  11.205  56.623  1.00  0.00    -0.019 C 
BRANCH  13  14
HETATM   14  C14 UNL     1      51.867  10.019  56.737  1.00  0.00    -0.009 C 
HETATM   15  C15 UNL     1      51.661   9.647  58.198  1.00  0.00     0.021 C 
HETATM   16  C16 UNL     1      52.400   8.795  56.045  1.00  0.00     0.021 C 
BRANCH  14  17
HETATM   17  C17 UNL     1      50.493  10.295  56.162  1.00  0.00     0.176 C 
BRANCH  17  18
HETATM   18  O3  UNL     1      50.038  11.577  56.471  1.00  0.00    -0.400 OA
ATOM     19  H3  UNL     1      50.665  12.249  56.230  1.00  0.00     0.209 HD
ENDBRANCH  17  18
ENDBRANCH  14  17
ENDBRANCH  13  14
ENDBRANCH   8  12
BRANCH   1  20
HETATM   20  C3  UNL     1      56.032  12.741  55.999  1.00  0.00     0.136 C 
HETATM   21  O1  UNL     1      56.490  13.857  55.692  1.00  0.00    -0.297 OA
BRANCH  20  22
HETATM   22  C2  UNL     1      55.849  11.783  54.892  1.00  0.00     0.074 C 
HETATM   23  C1  UNL     1      56.513  12.281  53.608  1.00  0.00     0.013 C 
ENDBRANCH  20  22
ENDBRANCH   1  20
BRANCH   5  24
HETATM   24  O2  UNL     1      55.094  14.905  58.817  1.00  0.00    -0.389 OA
ATOM     25  H2  UNL     1      54.661  15.575  59.331  1.00  0.00     0.210 HD
ENDBRANCH   5  24
BRANCH  10  26
HETATM   26  C19 UNL     1      57.082   9.314  59.054  1.00  0.00    -0.025 C 
HETATM   27  C20 UNL     1      57.379   8.867  60.466  1.00  0.00     0.017 C 
HETATM   28  C21 UNL     1      58.433   9.674  58.419  1.00  0.00     0.017 C 
HETATM   29  C22 UNL     1      56.518   8.183  58.285  1.00  0.00     0.017 C 
ENDBRANCH  10  26
TORSDOF 8
ENDMDL
MODEL 5
REMARK VINA RESULT: -5.334098503      1.838      5.382
REMARK  8 active torsions:
REMARK  status: ('A' for Active; 'I' for Inactive)
REMARK    1  A    between atoms: C2_2  and  C3_3 
REMARK    2  A    between atoms: C3_3  and  C4_5 
REMARK    3  A    between atoms: C8_9  and  O2_10 
REMARK    4  A    between atoms: C11_14  and  C12_15 
REMARK    5  A    between atoms: C13_16  and  C14_17 
REMARK    6  A    between atoms: C14_17  and  C17_20 
REMARK    7  A    between atoms: C17_20  and  O3_21 
REMARK    8  A    between atoms: C18_24  and  C19_25 
ROOT
HETATM    1  C4  UNL     1      56.241  11.943  57.081  1.00  0.00     0.039 C 
HETATM    2  C5  UNL     1      56.473  10.532  56.575  1.00  0.00     0.050 C 
HETATM    3  C6  UNL     1      56.183   9.605  57.681  1.00  0.00     0.126 C 
HETATM    4  C7  UNL     1      56.706  10.046  59.061  1.00  0.00     0.071 C 
HETATM    5  C8  UNL     1      57.639  11.107  58.860  1.00  0.00     0.072 C 
HETATM    6  C9  UNL     1      58.405  11.992  59.680  1.00  0.00     0.040 C 
HETATM    7  C10 UNL     1      58.273  12.893  58.413  1.00  0.00     0.021 C 
HETATM    8  C11 UNL     1      56.883  12.300  58.346  1.00  0.00     0.023 C 
HETATM    9  O4  UNL     1      54.791   9.520  57.770  1.00  0.00    -0.380 OA
HETATM   10  C18 UNL     1      54.147  10.706  57.877  1.00  0.00     0.130 C 
HETATM   11  C23 UNL     1      54.716  11.934  57.302  1.00  0.00     0.051 C 
ENDROOT
BRANCH   8  12
HETATM   12  C12 UNL     1      56.056  13.114  59.196  1.00  0.00    -0.016 C 
HETATM   13  C13 UNL     1      55.616  14.330  59.187  1.00  0.00    -0.019 C 
BRANCH  13  14
HETATM   14  C14 UNL     1      54.744  14.933  60.229  1.00  0.00    -0.009 C 
HETATM   15  C15 UNL     1      55.583  15.653  61.274  1.00  0.00     0.021 C 
HETATM   16  C16 UNL     1      53.898  13.929  60.963  1.00  0.00     0.021 C 
BRANCH  14  17
HETATM   17  C17 UNL     1      53.803  15.965  59.641  1.00  0.00     0.176 C 
BRANCH  17  18
HETATM   18  O3  UNL     1      54.458  16.849  58.785  1.00  0.00    -0.400 OA
ATOM     19  H3  UNL     1      54.373  16.597  57.873  1.00  0.00     0.209 HD
ENDBRANCH  17  18
ENDBRANCH  14  17
ENDBRANCH  13  14
ENDBRANCH   8  12
BRANCH   1  20
HETATM   20  C3  UNL     1      56.506  12.938  56.017  1.00  0.00     0.136 C 
HETATM   21  O1  UNL     1      55.790  13.956  55.992  1.00  0.00    -0.297 OA
BRANCH  20  22
HETATM   22  C2  UNL     1      57.545  12.844  54.975  1.00  0.00     0.074 C 
HETATM   23  C1  UNL     1      56.982  13.183  53.594  1.00  0.00     0.013 C 
ENDBRANCH  20  22
ENDBRANCH   1  20
BRANCH   5  24
HETATM   24  O2  UNL     1      58.617  10.621  57.935  1.00  0.00    -0.389 OA
ATOM     25  H2  UNL     1      59.394  10.421  58.443  1.00  0.00     0.210 HD
ENDBRANCH   5  24
BRANCH  10  26
HETATM   26  C19 UNL     1      52.705  10.516  57.384  1.00  0.00    -0.025 C 
HETATM   27  C20 UNL     1      52.604   9.328  56.456  1.00  0.00     0.017 C 
HETATM   28  C21 UNL     1      52.337  11.752  56.548  1.00  0.00     0.017 C 
HETATM   29  C22 UNL     1      51.697  10.392  58.459  1.00  0.00     0.017 C 
ENDBRANCH  10  26
TORSDOF 8
ENDMDL
