MODEL 1
REMARK VINA RESULT: -6.094878886      0.000      0.000
REMARK  7 active torsions:
REMARK  status: ('A' for Active; 'I' for Inactive)
REMARK    1  A    between atoms: C2_2  and  C3_3 
REMARK    2  A    between atoms: C3_3  and  C4_4 
REMARK    3  A    between atoms: C4_4  and  C5_5 
REMARK    4  A    between atoms: C5_5  and  O1_6 
REMARK    5  A    between atoms: C6_8  and  O2_9 
REMARK    6  A    between atoms: C15_19  and  C16_20 
REMARK    7  A    between atoms: C16_20  and  C17_21 
ROOT
HETATM    1  C5  UNL     1      63.126  24.448  47.350  1.00  0.00     0.091 C 
HETATM    2  C6  UNL     1      62.337  24.057  48.534  1.00  0.00     0.153 C 
HETATM    3  C7  UNL     1      61.034  24.730  48.743  1.00  0.00     0.039 C 
HETATM    4  C8  UNL     1      60.501  25.440  47.547  1.00  0.00    -0.011 C 
HETATM    5  C9  UNL     1      59.811  24.461  46.667  1.00  0.00     0.010 C 
HETATM    6  C10 UNL     1      61.505  26.341  46.992  1.00  0.00     0.001 C 
HETATM    7  C11 UNL     1      61.112  26.928  45.623  1.00  0.00     0.011 C 
HETATM    8  C12 UNL     1      62.443  27.436  45.288  1.00  0.00    -0.009 C 
HETATM    9  C13 UNL     1      62.783  27.740  43.877  1.00  0.00     0.005 C 
HETATM   10  C14 UNL     1      64.304  27.755  44.123  1.00  0.00     0.005 C 
HETATM   11  C15 UNL     1      64.502  26.435  44.889  1.00  0.00    -0.006 C 
HETATM   12  C22 UNL     1      63.201  26.094  45.449  1.00  0.00     0.005 C 
HETATM   13  C23 UNL     1      62.935  25.878  46.890  1.00  0.00    -0.002 C 
HETATM   14  C24 UNL     1      63.831  26.707  47.791  1.00  0.00     0.019 C 
ENDROOT
BRANCH  11  15
HETATM   15  C16 UNL     1      65.048  25.376  43.965  1.00  0.00     0.041 C 
BRANCH  15  16
HETATM   16  C17 UNL     1      66.424  24.921  44.118  1.00  0.00     0.154 C 
HETATM   17  C18 UNL     1      67.112  25.689  45.208  1.00  0.00     0.002 C 
HETATM   18  C19 UNL     1      68.097  25.187  45.907  1.00  0.00    -0.018 C 
HETATM   19  C20 UNL     1      68.559  23.818  45.623  1.00  0.00     0.138 C 
HETATM   20  C21 UNL     1      67.540  22.961  44.986  1.00  0.00     0.262 C 
HETATM   21  O3  UNL     1      67.799  21.737  44.873  1.00  0.00    -0.265 OA
HETATM   22  O4  UNL     1      66.377  23.564  44.561  1.00  0.00    -0.312 OA
ENDBRANCH  15  16
ENDBRANCH  11  15
BRANCH   1  23
HETATM   23  C4  UNL     1      64.573  24.178  47.704  1.00  0.00     0.041 C 
BRANCH  23  24
HETATM   24  C3  UNL     1      64.985  22.756  47.514  1.00  0.00     0.003 C 
BRANCH  24  25
HETATM   25  C2  UNL     1      66.188  22.442  48.382  1.00  0.00    -0.004 C 
HETATM   26  C1  UNL     1      66.729  23.670  49.058  1.00  0.00     0.005 C 
ENDBRANCH  24  25
ENDBRANCH  23  24
ENDBRANCH   1  23
BRANCH   1  27
HETATM   27  O1  UNL     1      62.762  23.635  46.267  1.00  0.00    -0.386 OA
ATOM     28  H1  UNL     1      63.452  23.661  45.615  1.00  0.00     0.210 HD
ENDBRANCH   1  27
BRANCH   2  29
HETATM   29  O2  UNL     1      63.023  24.233  49.767  1.00  0.00    -0.393 OA
ATOM     30  H2  UNL     1      63.507  23.465  50.052  1.00  0.00     0.210 HD
ENDBRANCH   2  29
TORSDOF 7
ENDMDL
MODEL 2
REMARK VINA RESULT: -5.833449808      6.938      9.602
REMARK  7 active torsions:
REMARK  status: ('A' for Active; 'I' for Inactive)
REMARK    1  A    between atoms: C2_2  and  C3_3 
REMARK    2  A    between atoms: C3_3  and  C4_4 
REMARK    3  A    between atoms: C4_4  and  C5_5 
REMARK    4  A    between atoms: C5_5  and  O1_6 
REMARK    5  A    between atoms: C6_8  and  O2_9 
REMARK    6  A    between atoms: C15_19  and  C16_20 
REMARK    7  A    between atoms: C16_20  and  C17_21 
ROOT
HETATM    1  C5  UNL     1      60.382  17.466  48.535  1.00  0.00     0.091 C 
HETATM    2  C6  UNL     1      59.012  17.197  48.058  1.00  0.00     0.153 C 
HETATM    3  C7  UNL     1      58.428  15.870  48.362  1.00  0.00     0.039 C 
HETATM    4  C8  UNL     1      59.136  15.108  49.428  1.00  0.00    -0.011 C 
HETATM    5  C9  UNL     1      58.665  15.576  50.757  1.00  0.00     0.010 C 
HETATM    6  C10 UNL     1      60.564  15.029  49.144  1.00  0.00     0.001 C 
HETATM    7  C11 UNL     1      61.392  14.465  50.314  1.00  0.00     0.011 C 
HETATM    8  C12 UNL     1      62.696  14.874  49.790  1.00  0.00    -0.009 C 
HETATM    9  C13 UNL     1      63.860  14.972  50.701  1.00  0.00     0.005 C 
HETATM   10  C14 UNL     1      64.698  15.829  49.732  1.00  0.00     0.005 C 
HETATM   11  C15 UNL     1      63.690  16.928  49.350  1.00  0.00    -0.006 C 
HETATM   12  C22 UNL     1      62.369  16.380  49.631  1.00  0.00     0.005 C 
HETATM   13  C23 UNL     1      61.282  16.252  48.633  1.00  0.00    -0.002 C 
HETATM   14  C24 UNL     1      61.792  16.023  47.223  1.00  0.00     0.019 C 
ENDROOT
BRANCH  11  15
HETATM   15  C16 UNL     1      63.985  18.193  50.116  1.00  0.00     0.041 C 
BRANCH  15  16
HETATM   16  C17 UNL     1      65.324  18.425  50.641  1.00  0.00     0.154 C 
HETATM   17  C18 UNL     1      65.668  19.884  50.573  1.00  0.00     0.002 C 
HETATM   18  C19 UNL     1      66.508  20.447  51.403  1.00  0.00    -0.018 C 
HETATM   19  C20 UNL     1      67.148  19.629  52.447  1.00  0.00     0.138 C 
HETATM   20  C21 UNL     1      66.388  18.418  52.811  1.00  0.00     0.262 C 
HETATM   21  O3  UNL     1      66.779  17.765  53.810  1.00  0.00    -0.265 OA
HETATM   22  O4  UNL     1      65.303  18.089  52.028  1.00  0.00    -0.312 OA
ENDBRANCH  15  16
ENDBRANCH  11  15
BRANCH   1  23
HETATM   23  C4  UNL     1      60.959  18.498  47.590  1.00  0.00     0.041 C 
BRANCH  23  24
HETATM   24  C3  UNL     1      61.403  19.753  48.264  1.00  0.00     0.003 C 
BRANCH  24  25
HETATM   25  C2  UNL     1      62.806  20.116  47.820  1.00  0.00    -0.004 C 
HETATM   26  C1  UNL     1      63.167  21.526  48.193  1.00  0.00     0.005 C 
ENDBRANCH  24  25
ENDBRANCH  23  24
ENDBRANCH   1  23
BRANCH   1  27
HETATM   27  O1  UNL     1      60.319  18.014  49.825  1.00  0.00    -0.386 OA
ATOM     28  H1  UNL     1      59.431  17.933  50.151  1.00  0.00     0.210 HD
ENDBRANCH   1  27
BRANCH   2  29
HETATM   29  O2  UNL     1      58.854  17.335  46.652  1.00  0.00    -0.393 OA
ATOM     30  H2  UNL     1      57.949  17.313  46.362  1.00  0.00     0.210 HD
ENDBRANCH   2  29
TORSDOF 7
ENDMDL
MODEL 3
REMARK VINA RESULT: -5.775273062     16.996     19.958
REMARK  7 active torsions:
REMARK  status: ('A' for Active; 'I' for Inactive)
REMARK    1  A    between atoms: C2_2  and  C3_3 
REMARK    2  A    between atoms: C3_3  and  C4_4 
REMARK    3  A    between atoms: C4_4  and  C5_5 
REMARK    4  A    between atoms: C5_5  and  O1_6 
REMARK    5  A    between atoms: C6_8  and  O2_9 
REMARK    6  A    between atoms: C15_19  and  C16_20 
REMARK    7  A    between atoms: C16_20  and  C17_21 
ROOT
HETATM    1  C5  UNL     1      54.630  13.183  57.652  1.00  0.00     0.091 C 
HETATM    2  C6  UNL     1      53.884  14.438  57.867  1.00  0.00     0.153 C 
HETATM    3  C7  UNL     1      53.118  14.573  59.127  1.00  0.00     0.039 C 
HETATM    4  C8  UNL     1      53.490  13.597  60.190  1.00  0.00    -0.011 C 
HETATM    5  C9  UNL     1      54.690  14.096  60.910  1.00  0.00     0.010 C 
HETATM    6  C10 UNL     1      53.462  12.234  59.671  1.00  0.00     0.001 C 
HETATM    7  C11 UNL     1      54.063  11.197  60.639  1.00  0.00     0.011 C 
HETATM    8  C12 UNL     1      54.168  10.116  59.659  1.00  0.00    -0.009 C 
HETATM    9  C13 UNL     1      55.080   8.976  59.913  1.00  0.00     0.005 C 
HETATM   10  C14 UNL     1      55.090   8.503  58.446  1.00  0.00     0.005 C 
HETATM   11  C15 UNL     1      55.390   9.819  57.705  1.00  0.00    -0.006 C 
HETATM   12  C22 UNL     1      55.012  10.891  58.616  1.00  0.00     0.005 C 
HETATM   13  C23 UNL     1      54.030  11.954  58.304  1.00  0.00    -0.002 C 
HETATM   14  C24 UNL     1      52.939  11.496  57.355  1.00  0.00     0.019 C 
ENDROOT
BRANCH  11  15
HETATM   15  C16 UNL     1      56.842   9.867  57.298  1.00  0.00     0.041 C 
BRANCH  15  16
HETATM   16  C17 UNL     1      57.814  10.524  58.161  1.00  0.00     0.154 C 
HETATM   17  C18 UNL     1      58.539   9.513  58.999  1.00  0.00     0.002 C 
HETATM   18  C19 UNL     1      59.755   9.708  59.440  1.00  0.00    -0.018 C 
HETATM   19  C20 UNL     1      60.450  10.964  59.108  1.00  0.00     0.138 C 
HETATM   20  C21 UNL     1      59.949  11.622  57.886  1.00  0.00     0.262 C 
HETATM   21  O3  UNL     1      60.602  12.599  57.443  1.00  0.00    -0.265 OA
HETATM   22  O4  UNL     1      58.800  11.117  57.317  1.00  0.00    -0.312 OA
ENDBRANCH  15  16
ENDBRANCH  11  15
BRANCH   1  23
HETATM   23  C4  UNL     1      54.733  13.009  56.152  1.00  0.00     0.041 C 
BRANCH  23  24
HETATM   24  C3  UNL     1      56.121  13.145  55.622  1.00  0.00     0.003 C 
BRANCH  24  25
HETATM   25  C2  UNL     1      56.300  12.271  54.396  1.00  0.00    -0.004 C 
HETATM   26  C1  UNL     1      57.036  12.988  53.298  1.00  0.00     0.005 C 
ENDBRANCH  24  25
ENDBRANCH  23  24
ENDBRANCH   1  23
BRANCH   1  27
HETATM   27  O1  UNL     1      55.920  13.320  58.184  1.00  0.00    -0.386 OA
ATOM     28  H1  UNL     1      55.935  14.069  58.768  1.00  0.00     0.210 HD
ENDBRANCH   1  27
BRANCH   2  29
HETATM   29  O2  UNL     1      52.934  14.725  56.848  1.00  0.00    -0.393 OA
ATOM     30  H2  UNL     1      52.064  14.919  57.176  1.00  0.00     0.210 HD
ENDBRANCH   2  29
TORSDOF 7
ENDMDL
MODEL 4
REMARK VINA RESULT: -5.774371264      5.147      9.021
REMARK  7 active torsions:
REMARK  status: ('A' for Active; 'I' for Inactive)
REMARK    1  A    between atoms: C2_2  and  C3_3 
REMARK    2  A    between atoms: C3_3  and  C4_4 
REMARK    3  A    between atoms: C4_4  and  C5_5 
REMARK    4  A    between atoms: C5_5  and  O1_6 
REMARK    5  A    between atoms: C6_8  and  O2_9 
REMARK    6  A    between atoms: C15_19  and  C16_20 
REMARK    7  A    between atoms: C16_20  and  C17_21 
ROOT
HETATM    1  C5  UNL     1      66.629  21.891  50.058  1.00  0.00     0.091 C 
HETATM    2  C6  UNL     1      67.431  23.126  49.968  1.00  0.00     0.153 C 
HETATM    3  C7  UNL     1      68.611  23.244  50.856  1.00  0.00     0.039 C 
HETATM    4  C8  UNL     1      69.067  21.961  51.459  1.00  0.00    -0.011 C 
HETATM    5  C9  UNL     1      69.923  21.240  50.482  1.00  0.00     0.010 C 
HETATM    6  C10 UNL     1      67.956  21.271  52.106  1.00  0.00     0.001 C 
HETATM    7  C11 UNL     1      68.298  19.833  52.542  1.00  0.00     0.011 C 
HETATM    8  C12 UNL     1      66.917  19.416  52.785  1.00  0.00    -0.009 C 
HETATM    9  C13 UNL     1      66.578  17.973  52.826  1.00  0.00     0.005 C 
HETATM   10  C14 UNL     1      65.065  18.201  52.642  1.00  0.00     0.005 C 
HETATM   11  C15 UNL     1      65.046  19.152  51.432  1.00  0.00    -0.006 C 
HETATM   12  C22 UNL     1      66.366  19.767  51.380  1.00  0.00     0.005 C 
HETATM   13  C23 UNL     1      66.616  21.226  51.418  1.00  0.00    -0.002 C 
HETATM   14  C24 UNL     1      65.578  21.987  52.221  1.00  0.00     0.019 C 
ENDROOT
BRANCH  11  15
HETATM   15  C16 UNL     1      64.694  18.390  50.179  1.00  0.00     0.041 C 
BRANCH  15  16
HETATM   16  C17 UNL     1      63.657  17.368  50.220  1.00  0.00     0.154 C 
HETATM   17  C18 UNL     1      62.602  17.649  49.191  1.00  0.00     0.002 C 
HETATM   18  C19 UNL     1      61.883  16.703  48.645  1.00  0.00    -0.018 C 
HETATM   19  C20 UNL     1      62.106  15.304  49.048  1.00  0.00     0.138 C 
HETATM   20  C21 UNL     1      63.453  15.044  49.591  1.00  0.00     0.262 C 
HETATM   21  O3  UNL     1      63.777  13.847  49.791  1.00  0.00    -0.265 OA
HETATM   22  O4  UNL     1      64.261  16.132  49.838  1.00  0.00    -0.312 OA
ENDBRANCH  15  16
ENDBRANCH  11  15
BRANCH   1  23
HETATM   23  C4  UNL     1      65.230  22.268  49.622  1.00  0.00     0.041 C 
BRANCH  23  24
HETATM   24  C3  UNL     1      64.865  21.768  48.264  1.00  0.00     0.003 C 
BRANCH  24  25
HETATM   25  C2  UNL     1      63.395  21.399  48.221  1.00  0.00    -0.004 C 
HETATM   26  C1  UNL     1      62.512  22.614  48.159  1.00  0.00     0.005 C 
ENDBRANCH  24  25
ENDBRANCH  23  24
ENDBRANCH   1  23
BRANCH   1  27
HETATM   27  O1  UNL     1      67.145  20.943  49.162  1.00  0.00    -0.386 OA
ATOM     28  H1  UNL     1      67.814  21.355  48.628  1.00  0.00     0.210 HD
ENDBRANCH   1  27
BRANCH   2  29
HETATM   29  O2  UNL     1      66.689  24.314  50.212  1.00  0.00    -0.393 OA
ATOM     30  H2  UNL     1      67.192  25.112  50.100  1.00  0.00     0.210 HD
ENDBRANCH   2  29
TORSDOF 7
ENDMDL
MODEL 5
REMARK VINA RESULT: -5.544697193      2.536      5.602
REMARK  7 active torsions:
REMARK  status: ('A' for Active; 'I' for Inactive)
REMARK    1  A    between atoms: C2_2  and  C3_3 
REMARK    2  A    between atoms: C3_3  and  C4_4 
REMARK    3  A    between atoms: C4_4  and  C5_5 
REMARK    4  A    between atoms: C5_5  and  O1_6 
REMARK    5  A    between atoms: C6_8  and  O2_9 
REMARK    6  A    between atoms: C15_19  and  C16_20 
REMARK    7  A    between atoms: C16_20  and  C17_21 
ROOT
HETATM    1  C5  UNL     1      62.850  25.268  45.610  1.00  0.00     0.091 C 
HETATM    2  C6  UNL     1      62.556  26.493  44.842  1.00  0.00     0.153 C 
HETATM    3  C7  UNL     1      63.642  27.057  44.009  1.00  0.00     0.039 C 
HETATM    4  C8  UNL     1      64.774  26.125  43.746  1.00  0.00    -0.011 C 
HETATM    5  C9  UNL     1      64.419  25.234  42.611  1.00  0.00     0.010 C 
HETATM    6  C10 UNL     1      65.274  25.557  44.993  1.00  0.00     0.001 C 
HETATM    7  C11 UNL     1      66.281  24.409  44.783  1.00  0.00     0.011 C 
HETATM    8  C12 UNL     1      66.246  23.923  46.163  1.00  0.00    -0.009 C 
HETATM    9  C13 UNL     1      66.707  22.548  46.472  1.00  0.00     0.005 C 
HETATM   10  C14 UNL     1      66.022  22.502  47.852  1.00  0.00     0.005 C 
HETATM   11  C15 UNL     1      64.600  22.975  47.502  1.00  0.00    -0.006 C 
HETATM   12  C22 UNL     1      64.715  23.702  46.245  1.00  0.00     0.005 C 
HETATM   13  C23 UNL     1      64.293  25.107  46.044  1.00  0.00    -0.002 C 
HETATM   14  C24 UNL     1      64.425  25.953  47.296  1.00  0.00     0.019 C 
ENDROOT
BRANCH  11  15
HETATM   15  C16 UNL     1      63.664  21.795  47.424  1.00  0.00     0.041 C 
BRANCH  15  16
HETATM   16  C17 UNL     1      63.399  21.001  48.616  1.00  0.00     0.154 C 
HETATM   17  C18 UNL     1      62.581  19.792  48.270  1.00  0.00     0.002 C 
HETATM   18  C19 UNL     1      62.636  18.685  48.963  1.00  0.00    -0.018 C 
HETATM   19  C20 UNL     1      63.532  18.607  50.130  1.00  0.00     0.138 C 
HETATM   20  C21 UNL     1      64.664  19.553  50.081  1.00  0.00     0.262 C 
HETATM   21  O3  UNL     1      65.563  19.427  50.948  1.00  0.00    -0.265 OA
HETATM   22  O4  UNL     1      64.653  20.506  49.086  1.00  0.00    -0.312 OA
ENDBRANCH  15  16
ENDBRANCH  11  15
BRANCH   1  23
HETATM   23  C4  UNL     1      61.921  25.289  46.805  1.00  0.00     0.041 C 
BRANCH  23  24
HETATM   24  C3  UNL     1      60.678  24.484  46.617  1.00  0.00     0.003 C 
BRANCH  24  25
HETATM   25  C2  UNL     1      60.386  23.677  47.868  1.00  0.00    -0.004 C 
HETATM   26  C1  UNL     1      61.329  24.018  48.988  1.00  0.00     0.005 C 
ENDBRANCH  24  25
ENDBRANCH  23  24
ENDBRANCH   1  23
BRANCH   1  27
HETATM   27  O1  UNL     1      62.551  24.148  44.820  1.00  0.00    -0.386 OA
ATOM     28  H1  UNL     1      63.032  24.210  44.003  1.00  0.00     0.210 HD
ENDBRANCH   1  27
BRANCH   2  29
HETATM   29  O2  UNL     1      62.126  27.586  45.644  1.00  0.00    -0.393 OA
ATOM     30  H2  UNL     1      61.873  27.340  46.526  1.00  0.00     0.210 HD
ENDBRANCH   2  29
TORSDOF 7
ENDMDL
