MODEL 1
REMARK VINA RESULT: -8.235660290      0.000      0.000
REMARK  4 active torsions:
REMARK  status: ('A' for Active; 'I' for Inactive)
REMARK    1  A    between atoms: C2_2  and  C4_5 
REMARK    2  A    between atoms: C4_5  and  N2_6 
REMARK    3  A    between atoms: C8_10  and  O1_11 
REMARK    4  A    between atoms: C11_15  and  C12_16 
ROOT
HETATM    1  C1  UNL     1      15.032  37.343  73.821  1.00  0.00     0.027 C 
HETATM    2  C2  UNL     1      14.306  36.497  72.796  1.00  0.00     0.107 C 
HETATM    3  C3  UNL     1      13.058  37.213  72.478  1.00  0.00     0.065 C 
HETATM    4  N1  UNL     1      12.074  37.774  72.229  1.00  0.00    -0.197 NA
ENDROOT
BRANCH   2   5
HETATM    5  C4  UNL     1      13.925  35.145  73.302  1.00  0.00     0.149 C 
BRANCH   5   6
HETATM    6  N2  UNL     1      14.993  34.429  73.943  1.00  0.00    -0.335 N 
HETATM    7  C5  UNL     1      15.043  34.097  75.258  1.00  0.00     0.106 A 
HETATM    8  C6  UNL     1      16.195  33.416  75.547  1.00  0.00    -0.002 A 
HETATM    9  C7  UNL     1      16.895  33.322  74.352  1.00  0.00     0.005 A 
HETATM   10  C11 UNL     1      16.972  32.761  76.588  1.00  0.00    -0.014 C 
HETATM   11  C8  UNL     1      16.126  33.953  73.397  1.00  0.00     0.149 A 
HETATM   12  C9  UNL     1      18.181  32.587  74.571  1.00  0.00     0.048 C 
HETATM   13  C10 UNL     1      18.335  32.559  76.054  1.00  0.00     0.046 C 
BRANCH  11  14
HETATM   14  O1  UNL     1      16.451  34.095  72.051  1.00  0.00    -0.346 OA
ATOM     15  H1  UNL     1      16.515  34.934  71.611  1.00  0.00     0.219 HD
ENDBRANCH  11  14
BRANCH  10  16
HETATM   16  C12 UNL     1      16.570  32.406  77.780  1.00  0.00     0.131 C 
HETATM   17  C13 UNL     1      15.726  33.266  78.589  1.00  0.00     0.111 C 
HETATM   18  N3  UNL     1      15.050  33.941  79.250  1.00  0.00    -0.191 NA
HETATM   19  C14 UNL     1      16.971  31.136  78.302  1.00  0.00     0.111 C 
HETATM   20  N4  UNL     1      17.302  30.107  78.743  1.00  0.00    -0.191 NA
ENDBRANCH  10  16
ENDBRANCH   5   6
ENDBRANCH   2   5
TORSDOF 4
ENDMDL
MODEL 2
REMARK VINA RESULT: -8.167808563      0.052      1.661
REMARK  4 active torsions:
REMARK  status: ('A' for Active; 'I' for Inactive)
REMARK    1  A    between atoms: C2_2  and  C4_5 
REMARK    2  A    between atoms: C4_5  and  N2_6 
REMARK    3  A    between atoms: C8_10  and  O1_11 
REMARK    4  A    between atoms: C11_15  and  C12_16 
ROOT
HETATM    1  C1  UNL     1      15.023  37.331  73.781  1.00  0.00     0.027 C 
HETATM    2  C2  UNL     1      14.283  36.482  72.769  1.00  0.00     0.107 C 
HETATM    3  C3  UNL     1      13.031  37.197  72.467  1.00  0.00     0.065 C 
HETATM    4  N1  UNL     1      12.043  37.756  72.230  1.00  0.00    -0.197 NA
ENDROOT
BRANCH   2   5
HETATM    5  C4  UNL     1      13.911  35.131  73.284  1.00  0.00     0.149 C 
BRANCH   5   6
HETATM    6  N2  UNL     1      14.986  34.420  73.918  1.00  0.00    -0.335 N 
HETATM    7  C5  UNL     1      15.040  34.077  75.231  1.00  0.00     0.106 A 
HETATM    8  C6  UNL     1      16.199  33.406  75.513  1.00  0.00    -0.002 A 
HETATM    9  C7  UNL     1      16.900  33.329  74.317  1.00  0.00     0.005 A 
HETATM   10  C11 UNL     1      16.983  32.751  76.548  1.00  0.00    -0.014 C 
HETATM   11  C8  UNL     1      16.123  33.961  73.368  1.00  0.00     0.149 A 
HETATM   12  C9  UNL     1      18.193  32.606  74.529  1.00  0.00     0.048 C 
HETATM   13  C10 UNL     1      18.348  32.566  76.012  1.00  0.00     0.046 C 
BRANCH  11  14
HETATM   14  O1  UNL     1      16.446  34.117  72.023  1.00  0.00    -0.346 OA
ATOM     15  H1  UNL     1      17.305  33.928  71.663  1.00  0.00     0.219 HD
ENDBRANCH  11  14
BRANCH  10  16
HETATM   16  C12 UNL     1      16.586  32.381  77.738  1.00  0.00     0.131 C 
HETATM   17  C13 UNL     1      16.964  31.099  78.304  1.00  0.00     0.111 C 
HETATM   18  N3  UNL     1      17.259  30.078  78.774  1.00  0.00    -0.191 NA
HETATM   19  C14 UNL     1      15.758  33.261  78.502  1.00  0.00     0.111 C 
HETATM   20  N4  UNL     1      15.072  33.966  79.130  1.00  0.00    -0.191 NA
ENDBRANCH  10  16
ENDBRANCH   5   6
ENDBRANCH   2   5
TORSDOF 4
ENDMDL
MODEL 3
REMARK VINA RESULT: -8.160528297      1.125      1.351
REMARK  4 active torsions:
REMARK  status: ('A' for Active; 'I' for Inactive)
REMARK    1  A    between atoms: C2_2  and  C4_5 
REMARK    2  A    between atoms: C4_5  and  N2_6 
REMARK    3  A    between atoms: C8_10  and  O1_11 
REMARK    4  A    between atoms: C11_15  and  C12_16 
ROOT
HETATM    1  C1  UNL     1      12.154  37.132  72.856  1.00  0.00     0.027 C 
HETATM    2  C2  UNL     1      13.352  36.529  73.558  1.00  0.00     0.107 C 
HETATM    3  C3  UNL     1      14.447  37.506  73.419  1.00  0.00     0.065 C 
HETATM    4  N1  UNL     1      15.310  38.272  73.308  1.00  0.00    -0.197 NA
ENDROOT
BRANCH   2   5
HETATM    5  C4  UNL     1      13.819  35.249  72.947  1.00  0.00     0.149 C 
BRANCH   5   6
HETATM    6  N2  UNL     1      14.785  34.534  73.734  1.00  0.00    -0.335 N 
HETATM    7  C5  UNL     1      14.643  34.195  75.041  1.00  0.00     0.106 A 
HETATM    8  C6  UNL     1      15.744  33.517  75.493  1.00  0.00    -0.002 A 
HETATM    9  C7  UNL     1      16.612  33.433  74.412  1.00  0.00     0.005 A 
HETATM   10  C11 UNL     1      16.363  32.860  76.632  1.00  0.00    -0.014 C 
HETATM   11  C8  UNL     1      15.988  34.066  73.358  1.00  0.00     0.149 A 
HETATM   12  C9  UNL     1      17.856  32.702  74.814  1.00  0.00     0.048 C 
HETATM   13  C10 UNL     1      17.790  32.666  76.303  1.00  0.00     0.046 C 
BRANCH  11  14
HETATM   14  O1  UNL     1      16.506  34.216  72.075  1.00  0.00    -0.346 OA
ATOM     15  H1  UNL     1      16.742  33.486  71.515  1.00  0.00     0.219 HD
ENDBRANCH  11  14
BRANCH  10  16
HETATM   16  C12 UNL     1      15.793  32.497  77.752  1.00  0.00     0.131 C 
HETATM   17  C13 UNL     1      15.417  33.465  78.766  1.00  0.00     0.111 C 
HETATM   18  N3  UNL     1      15.108  34.225  79.588  1.00  0.00    -0.191 NA
HETATM   19  C14 UNL     1      15.531  31.110  77.984  1.00  0.00     0.111 C 
HETATM   20  N4  UNL     1      15.323  29.980  78.189  1.00  0.00    -0.191 NA
ENDBRANCH  10  16
ENDBRANCH   5   6
ENDBRANCH   2   5
TORSDOF 4
ENDMDL
MODEL 4
REMARK VINA RESULT: -8.133310039      1.099      2.053
REMARK  4 active torsions:
REMARK  status: ('A' for Active; 'I' for Inactive)
REMARK    1  A    between atoms: C2_2  and  C4_5 
REMARK    2  A    between atoms: C4_5  and  N2_6 
REMARK    3  A    between atoms: C8_10  and  O1_11 
REMARK    4  A    between atoms: C11_15  and  C12_16 
ROOT
HETATM    1  C1  UNL     1      12.172  37.118  72.847  1.00  0.00     0.027 C 
HETATM    2  C2  UNL     1      13.373  36.514  73.543  1.00  0.00     0.107 C 
HETATM    3  C3  UNL     1      14.480  37.470  73.362  1.00  0.00     0.065 C 
HETATM    4  N1  UNL     1      15.352  38.221  73.218  1.00  0.00    -0.197 NA
ENDROOT
BRANCH   2   5
HETATM    5  C4  UNL     1      13.811  35.213  72.956  1.00  0.00     0.149 C 
BRANCH   5   6
HETATM    6  N2  UNL     1      14.789  34.508  73.737  1.00  0.00    -0.335 N 
HETATM    7  C5  UNL     1      14.655  34.160  75.042  1.00  0.00     0.106 A 
HETATM    8  C6  UNL     1      15.767  33.497  75.488  1.00  0.00    -0.002 A 
HETATM    9  C7  UNL     1      16.634  33.431  74.405  1.00  0.00     0.005 A 
HETATM   10  C11 UNL     1      16.398  32.844  76.623  1.00  0.00    -0.014 C 
HETATM   11  C8  UNL     1      15.998  34.061  73.356  1.00  0.00     0.149 A 
HETATM   12  C9  UNL     1      17.889  32.718  74.800  1.00  0.00     0.048 C 
HETATM   13  C10 UNL     1      17.828  32.673  76.290  1.00  0.00     0.046 C 
BRANCH  11  14
HETATM   14  O1  UNL     1      16.511  34.225  72.073  1.00  0.00    -0.346 OA
ATOM     15  H1  UNL     1      17.150  33.640  71.683  1.00  0.00     0.219 HD
ENDBRANCH  11  14
BRANCH  10  16
HETATM   16  C12 UNL     1      15.836  32.466  77.742  1.00  0.00     0.131 C 
HETATM   17  C13 UNL     1      15.604  31.065  78.043  1.00  0.00     0.111 C 
HETATM   18  N3  UNL     1      15.412  29.949  78.302  1.00  0.00    -0.191 NA
HETATM   19  C14 UNL     1      15.440  33.456  78.694  1.00  0.00     0.111 C 
HETATM   20  N4  UNL     1      15.102  34.257  79.473  1.00  0.00    -0.191 NA
ENDBRANCH  10  16
ENDBRANCH   5   6
ENDBRANCH   2   5
TORSDOF 4
ENDMDL
MODEL 5
REMARK VINA RESULT: -8.131640191      2.665      5.019
REMARK  4 active torsions:
REMARK  status: ('A' for Active; 'I' for Inactive)
REMARK    1  A    between atoms: C2_2  and  C4_5 
REMARK    2  A    between atoms: C4_5  and  N2_6 
REMARK    3  A    between atoms: C8_10  and  O1_11 
REMARK    4  A    between atoms: C11_15  and  C12_16 
ROOT
HETATM    1  C1  UNL     1      20.569  33.580  74.471  1.00  0.00     0.027 C 
HETATM    2  C2  UNL     1      20.774  32.516  73.413  1.00  0.00     0.107 C 
HETATM    3  C3  UNL     1      20.972  33.232  72.141  1.00  0.00     0.065 C 
HETATM    4  N1  UNL     1      21.125  33.794  71.137  1.00  0.00    -0.197 NA
ENDROOT
BRANCH   2   5
HETATM    5  C4  UNL     1      19.596  31.616  73.237  1.00  0.00     0.149 C 
BRANCH   5   6
HETATM    6  N2  UNL     1      18.324  32.281  73.309  1.00  0.00    -0.335 N 
HETATM    7  C5  UNL     1      17.726  32.718  74.447  1.00  0.00     0.106 A 
HETATM    8  C6  UNL     1      16.523  33.310  74.169  1.00  0.00    -0.002 A 
HETATM    9  C7  UNL     1      16.367  33.235  72.792  1.00  0.00     0.005 A 
HETATM   10  C11 UNL     1      15.357  33.975  74.728  1.00  0.00    -0.014 C 
HETATM   11  C8  UNL     1      17.490  32.600  72.305  1.00  0.00     0.149 A 
HETATM   12  C9  UNL     1      15.068  33.862  72.391  1.00  0.00     0.048 C 
HETATM   13  C10 UNL     1      14.322  34.003  73.675  1.00  0.00     0.046 C 
BRANCH  11  14
HETATM   14  O1  UNL     1      17.750  32.314  70.968  1.00  0.00    -0.346 OA
ATOM     15  H1  UNL     1      18.317  31.607  70.682  1.00  0.00     0.219 HD
ENDBRANCH  11  14
BRANCH  10  16
HETATM   16  C12 UNL     1      15.219  34.468  75.932  1.00  0.00     0.131 C 
HETATM   17  C13 UNL     1      15.110  35.897  76.164  1.00  0.00     0.111 C 
HETATM   18  N3  UNL     1      15.020  37.037  76.368  1.00  0.00    -0.191 NA
HETATM   19  C14 UNL     1      15.172  33.577  77.050  1.00  0.00     0.111 C 
HETATM   20  N4  UNL     1      15.145  32.861  77.971  1.00  0.00    -0.191 NA
ENDBRANCH  10  16
ENDBRANCH   5   6
ENDBRANCH   2   5
TORSDOF 4
ENDMDL
