MODEL 1
REMARK VINA RESULT: -8.224945234      0.000      0.000
REMARK  4 active torsions:
REMARK  status: ('A' for Active; 'I' for Inactive)
REMARK    1  A    between atoms: C2_5  and  C3_6 
REMARK    2  A    between atoms: C11_15  and  N4_16 
REMARK    3  A    between atoms: N4_16  and  C12_18 
REMARK    4  A    between atoms: C12_18  and  O1_19 
ROOT
HETATM    1  C1  UNL     1      14.495  33.854  72.484  1.00  0.00     0.179 C 
HETATM    2  N1  UNL     1      15.500  33.407  73.412  1.00  0.00    -0.280 N 
HETATM    3  N2  UNL     1      15.343  33.623  74.734  1.00  0.00    -0.299 N 
ATOM      4  H2  UNL     1      14.528  34.059  75.167  1.00  0.00     0.187 HD
HETATM    5  C2  UNL     1      16.406  33.183  75.386  1.00  0.00     0.054 A 
HETATM    6  C9  UNL     1      17.276  32.668  74.464  1.00  0.00     0.114 A 
HETATM    7  C10 UNL     1      18.556  32.078  74.737  1.00  0.00     0.105 C 
HETATM    8  N3  UNL     1      19.595  31.611  74.939  1.00  0.00    -0.191 NA
HETATM    9  C11 UNL     1      16.663  32.822  73.166  1.00  0.00     0.147 A 
ENDROOT
BRANCH   5  10
HETATM   10  C3  UNL     1      16.687  33.208  76.865  1.00  0.00     0.039 C 
HETATM   11  C4  UNL     1      15.969  32.064  77.528  1.00  0.00     0.011 C 
HETATM   12  C5  UNL     1      16.373  32.084  78.988  1.00  0.00     0.001 C 
HETATM   13  C6  UNL     1      15.860  33.327  79.623  1.00  0.00     0.000 C 
HETATM   14  C7  UNL     1      15.409  34.398  78.661  1.00  0.00     0.001 C 
HETATM   15  C8  UNL     1      16.330  34.536  77.478  1.00  0.00     0.011 C 
ENDBRANCH   5  10
BRANCH   9  16
HETATM   16  N4  UNL     1      17.286  32.318  72.028  1.00  0.00    -0.312 N 
ATOM     17  H4  UNL     1      16.708  31.620  71.559  1.00  0.00     0.170 HD
BRANCH  16  18
HETATM   18  C12 UNL     1      18.455  32.511  71.383  1.00  0.00     0.225 C 
HETATM   19  C13 UNL     1      19.651  33.172  71.679  1.00  0.00     0.144 C 
HETATM   20  N5  UNL     1      20.670  33.733  71.890  1.00  0.00    -0.188 NA
BRANCH  18  21
HETATM   21  O1  UNL     1      18.518  31.957  70.169  1.00  0.00    -0.338 OA
ATOM     22  H1  UNL     1      19.107  31.214  70.103  1.00  0.00     0.220 HD
ENDBRANCH  18  21
ENDBRANCH  16  18
ENDBRANCH   9  16
TORSDOF 4
ENDMDL
MODEL 2
REMARK VINA RESULT: -8.135007406      3.234      4.918
REMARK  4 active torsions:
REMARK  status: ('A' for Active; 'I' for Inactive)
REMARK    1  A    between atoms: C2_5  and  C3_6 
REMARK    2  A    between atoms: C11_15  and  N4_16 
REMARK    3  A    between atoms: N4_16  and  C12_18 
REMARK    4  A    between atoms: C12_18  and  O1_19 
ROOT
HETATM    1  C1  UNL     1      15.845  33.588  72.486  1.00  0.00     0.179 C 
HETATM    2  N1  UNL     1      15.585  34.187  73.768  1.00  0.00    -0.280 N 
HETATM    3  N2  UNL     1      15.576  33.425  74.881  1.00  0.00    -0.299 N 
ATOM      4  H2  UNL     1      15.781  32.426  74.912  1.00  0.00     0.187 HD
HETATM    5  C2  UNL     1      15.262  34.170  75.928  1.00  0.00     0.054 A 
HETATM    6  C9  UNL     1      15.061  35.449  75.484  1.00  0.00     0.114 A 
HETATM    7  C10 UNL     1      14.706  36.583  76.288  1.00  0.00     0.105 C 
HETATM    8  N3  UNL     1      14.409  37.505  76.920  1.00  0.00    -0.191 NA
HETATM    9  C11 UNL     1      15.279  35.444  74.057  1.00  0.00     0.147 A 
ENDROOT
BRANCH   5  10
HETATM   10  C3  UNL     1      15.126  33.765  77.372  1.00  0.00     0.039 C 
HETATM   11  C4  UNL     1      16.390  34.117  78.108  1.00  0.00     0.011 C 
HETATM   12  C5  UNL     1      16.152  33.780  79.566  1.00  0.00     0.001 C 
HETATM   13  C6  UNL     1      15.977  32.310  79.709  1.00  0.00     0.000 C 
HETATM   14  C7  UNL     1      15.717  31.568  78.422  1.00  0.00     0.001 C 
HETATM   15  C8  UNL     1      14.773  32.307  77.511  1.00  0.00     0.011 C 
ENDBRANCH   5  10
BRANCH   9  16
HETATM   16  N4  UNL     1      15.219  36.630  73.331  1.00  0.00    -0.312 N 
ATOM     17  H4  UNL     1      16.095  36.821  72.846  1.00  0.00     0.170 HD
BRANCH  16  18
HETATM   18  C12 UNL     1      14.303  37.593  73.101  1.00  0.00     0.225 C 
HETATM   19  C13 UNL     1      13.000  37.619  72.593  1.00  0.00     0.144 C 
HETATM   20  N5  UNL     1      11.904  37.681  72.155  1.00  0.00    -0.188 NA
BRANCH  18  21
HETATM   21  O1  UNL     1      14.703  38.828  73.418  1.00  0.00    -0.338 OA
ATOM     22  H1  UNL     1      15.642  38.963  73.374  1.00  0.00     0.220 HD
ENDBRANCH  18  21
ENDBRANCH  16  18
ENDBRANCH   9  16
TORSDOF 4
ENDMDL
MODEL 3
REMARK VINA RESULT: -7.992253947      0.949      1.457
REMARK  4 active torsions:
REMARK  status: ('A' for Active; 'I' for Inactive)
REMARK    1  A    between atoms: C2_5  and  C3_6 
REMARK    2  A    between atoms: C11_15  and  N4_16 
REMARK    3  A    between atoms: N4_16  and  C12_18 
REMARK    4  A    between atoms: C12_18  and  O1_19 
ROOT
HETATM    1  C1  UNL     1      15.469  33.929  72.125  1.00  0.00     0.179 C 
HETATM    2  N1  UNL     1      15.901  33.532  73.438  1.00  0.00    -0.280 N 
HETATM    3  N2  UNL     1      15.147  33.827  74.516  1.00  0.00    -0.299 N 
ATOM      4  H2  UNL     1      14.239  34.293  74.490  1.00  0.00     0.187 HD
HETATM    5  C2  UNL     1      15.761  33.420  75.614  1.00  0.00     0.054 A 
HETATM    6  C9  UNL     1      16.946  32.845  75.240  1.00  0.00     0.114 A 
HETATM    7  C10 UNL     1      17.924  32.266  76.115  1.00  0.00     0.105 C 
HETATM    8  N3  UNL     1      18.729  31.805  76.807  1.00  0.00    -0.191 NA
HETATM    9  C11 UNL     1      17.022  32.926  73.801  1.00  0.00     0.147 A 
ENDROOT
BRANCH   5  10
HETATM   10  C3  UNL     1      15.312  33.531  77.047  1.00  0.00     0.039 C 
HETATM   11  C4  UNL     1      16.330  34.316  77.829  1.00  0.00     0.011 C 
HETATM   12  C5  UNL     1      15.773  34.479  79.228  1.00  0.00     0.001 C 
HETATM   13  C6  UNL     1      15.680  33.145  79.879  1.00  0.00     0.000 C 
HETATM   14  C7  UNL     1      15.794  31.967  78.944  1.00  0.00     0.001 C 
HETATM   15  C8  UNL     1      15.046  32.179  77.655  1.00  0.00     0.011 C 
ENDBRANCH   5  10
BRANCH   9  16
HETATM   16  N4  UNL     1      18.092  32.351  73.119  1.00  0.00    -0.312 N 
ATOM     17  H4  UNL     1      18.471  31.548  73.621  1.00  0.00     0.170 HD
BRANCH  16  18
HETATM   18  C12 UNL     1      18.757  32.578  71.968  1.00  0.00     0.225 C 
HETATM   19  C13 UNL     1      19.992  33.144  71.634  1.00  0.00     0.144 C 
HETATM   20  N5  UNL     1      21.021  33.630  71.314  1.00  0.00    -0.188 NA
BRANCH  18  21
HETATM   21  O1  UNL     1      18.112  32.186  70.866  1.00  0.00    -0.338 OA
ATOM     22  H1  UNL     1      17.560  31.421  70.982  1.00  0.00     0.220 HD
ENDBRANCH  18  21
ENDBRANCH  16  18
ENDBRANCH   9  16
TORSDOF 4
ENDMDL
MODEL 4
REMARK VINA RESULT: -7.964969317      0.929      2.745
REMARK  4 active torsions:
REMARK  status: ('A' for Active; 'I' for Inactive)
REMARK    1  A    between atoms: C2_5  and  C3_6 
REMARK    2  A    between atoms: C11_15  and  N4_16 
REMARK    3  A    between atoms: N4_16  and  C12_18 
REMARK    4  A    between atoms: C12_18  and  O1_19 
ROOT
HETATM    1  C1  UNL     1      20.215  31.694  74.535  1.00  0.00     0.179 C 
HETATM    2  N1  UNL     1      18.895  32.235  74.715  1.00  0.00    -0.280 N 
HETATM    3  N2  UNL     1      18.393  32.395  75.956  1.00  0.00    -0.299 N 
ATOM      4  H2  UNL     1      18.893  32.196  76.823  1.00  0.00     0.187 HD
HETATM    5  C2  UNL     1      17.153  32.849  75.880  1.00  0.00     0.054 A 
HETATM    6  C9  UNL     1      16.841  32.988  74.555  1.00  0.00     0.114 A 
HETATM    7  C10 UNL     1      15.596  33.458  74.019  1.00  0.00     0.105 C 
HETATM    8  N3  UNL     1      14.594  33.824  73.569  1.00  0.00    -0.191 NA
HETATM    9  C11 UNL     1      18.001  32.580  73.799  1.00  0.00     0.147 A 
ENDROOT
BRANCH   5  10
HETATM   10  C3  UNL     1      16.195  33.176  76.995  1.00  0.00     0.039 C 
HETATM   11  C4  UNL     1      16.796  34.238  77.873  1.00  0.00     0.011 C 
HETATM   12  C5  UNL     1      15.748  34.593  78.907  1.00  0.00     0.001 C 
HETATM   13  C6  UNL     1      15.500  33.415  79.781  1.00  0.00     0.000 C 
HETATM   14  C7  UNL     1      16.027  32.105  79.253  1.00  0.00     0.001 C 
HETATM   15  C8  UNL     1      15.804  31.947  77.773  1.00  0.00     0.011 C 
ENDBRANCH   5  10
BRANCH   9  16
HETATM   16  N4  UNL     1      18.009  32.684  72.410  1.00  0.00    -0.312 N 
ATOM     17  H4  UNL     1      17.066  32.770  72.033  1.00  0.00     0.170 HD
BRANCH  16  18
HETATM   18  C12 UNL     1      18.939  32.700  71.434  1.00  0.00     0.225 C 
HETATM   19  C13 UNL     1      20.226  33.233  71.301  1.00  0.00     0.144 C 
HETATM   20  N5  UNL     1      21.309  33.681  71.148  1.00  0.00    -0.188 NA
BRANCH  18  21
HETATM   21  O1  UNL     1      18.577  32.073  70.311  1.00  0.00    -0.338 OA
ATOM     22  H1  UNL     1      19.146  31.355  70.059  1.00  0.00     0.220 HD
ENDBRANCH  18  21
ENDBRANCH  16  18
ENDBRANCH   9  16
TORSDOF 4
ENDMDL
MODEL 5
REMARK VINA RESULT: -7.902449774      3.854      6.987
REMARK  4 active torsions:
REMARK  status: ('A' for Active; 'I' for Inactive)
REMARK    1  A    between atoms: C2_5  and  C3_6 
REMARK    2  A    between atoms: C11_15  and  N4_16 
REMARK    3  A    between atoms: N4_16  and  C12_18 
REMARK    4  A    between atoms: C12_18  and  O1_19 
ROOT
HETATM    1  C1  UNL     1      16.911  31.258  78.090  1.00  0.00     0.179 C 
HETATM    2  N1  UNL     1      16.405  32.485  77.535  1.00  0.00    -0.280 N 
HETATM    3  N2  UNL     1      16.152  32.575  76.213  1.00  0.00    -0.299 N 
ATOM      4  H2  UNL     1      16.254  31.814  75.541  1.00  0.00     0.187 HD
HETATM    5  C2  UNL     1      15.752  33.801  75.919  1.00  0.00     0.054 A 
HETATM    6  C9  UNL     1      15.744  34.526  77.080  1.00  0.00     0.114 A 
HETATM    7  C10 UNL     1      15.369  35.904  77.220  1.00  0.00     0.105 C 
HETATM    8  N3  UNL     1      15.082  37.017  77.348  1.00  0.00    -0.191 NA
HETATM    9  C11 UNL     1      16.176  33.643  78.137  1.00  0.00     0.147 A 
ENDROOT
BRANCH   5  10
HETATM   10  C3  UNL     1      15.361  34.374  74.583  1.00  0.00     0.039 C 
HETATM   11  C4  UNL     1      13.918  34.051  74.305  1.00  0.00     0.011 C 
HETATM   12  C5  UNL     1      13.561  34.738  73.003  1.00  0.00     0.001 C 
HETATM   13  C6  UNL     1      14.348  34.134  71.896  1.00  0.00     0.000 C 
HETATM   14  C7  UNL     1      15.520  33.290  72.330  1.00  0.00     0.001 C 
HETATM   15  C8  UNL     1      16.273  33.897  73.483  1.00  0.00     0.011 C 
ENDBRANCH   5  10
BRANCH   9  16
HETATM   16  N4  UNL     1      16.197  34.083  79.458  1.00  0.00    -0.312 N 
ATOM     17  H4  UNL     1      16.739  34.940  79.561  1.00  0.00     0.170 HD
BRANCH  16  18
HETATM   18  C12 UNL     1      15.688  33.671  80.637  1.00  0.00     0.225 C 
HETATM   19  C13 UNL     1      16.022  32.682  81.568  1.00  0.00     0.144 C 
HETATM   20  N5  UNL     1      16.266  31.847  82.368  1.00  0.00    -0.188 NA
BRANCH  18  21
HETATM   21  O1  UNL     1      14.605  34.342  81.040  1.00  0.00    -0.338 OA
ATOM     22  H1  UNL     1      14.439  34.300  81.974  1.00  0.00     0.220 HD
ENDBRANCH  18  21
ENDBRANCH  16  18
ENDBRANCH   9  16
TORSDOF 4
ENDMDL
