MODEL 1
REMARK VINA RESULT: -7.369598659      0.000      0.000
REMARK  7 active torsions:
REMARK  status: ('A' for Active; 'I' for Inactive)
REMARK    1  A    between atoms: C2_2  and  C3_3 
REMARK    2  A    between atoms: C8_8  and  N1_9 
REMARK       I    between atoms: N1_9  and  C9_11 
REMARK    3  A    between atoms: C9_11  and  C10_13 
REMARK    4  A    between atoms: C10_13  and  N2_14 
REMARK       I    between atoms: N2_14  and  C11_16 
REMARK    5  A    between atoms: C11_16  and  O3_18 
REMARK    6  A    between atoms: O3_18  and  C12_19 
REMARK    7  A    between atoms: C12_19  and  C13_20 
ROOT
HETATM    1  N1  UNL     1      38.399  19.235  21.505  1.00  0.00    -0.355 N 
ATOM      2  H1  UNL     1      38.152  18.517  22.186  1.00  0.00     0.162 HD
HETATM    3  C9  UNL     1      38.236  20.573  21.830  1.00  0.00     0.235 C 
HETATM    4  O1  UNL     1      38.552  21.463  20.989  1.00  0.00    -0.272 OA
ENDROOT
BRANCH   3   5
HETATM    5  C10 UNL     1      37.714  21.044  23.114  1.00  0.00     0.227 C 
BRANCH   5   6
HETATM    6  N2  UNL     1      38.644  21.751  23.948  1.00  0.00    -0.328 N 
HETATM    7  C11 UNL     1      38.646  23.168  24.010  1.00  0.00     0.360 C 
HETATM    8  O2  UNL     1      37.825  23.815  23.313  1.00  0.00    -0.239 OA
ATOM      9  H2  UNL     1      39.315  21.225  24.507  1.00  0.00     0.165 HD
BRANCH   7  10
HETATM   10  O3  UNL     1      39.507  23.891  24.804  1.00  0.00    -0.304 OA
BRANCH  10  11
HETATM   11  C12 UNL     1      39.383  24.126  26.172  1.00  0.00     0.185 C 
BRANCH  11  12
HETATM   12  C13 UNL     1      39.596  25.553  26.578  1.00  0.00     0.010 C 
HETATM   13  C14 UNL     1      39.739  25.600  28.089  1.00  0.00     0.007 C 
HETATM   14  C15 UNL     1      40.485  26.929  28.260  1.00  0.00     0.000 C 
HETATM   15  C16 UNL     1      41.601  26.749  27.242  1.00  0.00     0.000 C 
HETATM   16  C17 UNL     1      40.923  26.081  26.079  1.00  0.00     0.007 C 
ENDBRANCH  11  12
ENDBRANCH  10  11
ENDBRANCH   7  10
ENDBRANCH   5   6
ENDBRANCH   3   5
BRANCH   1  17
HETATM   17  C8  UNL     1      38.914  18.848  20.213  1.00  0.00     0.088 C 
HETATM   18  C3  UNL     1      39.837  17.652  20.302  1.00  0.00     0.012 C 
HETATM   19  C4  UNL     1      38.992  16.423  20.224  1.00  0.00    -0.013 C 
HETATM   20  C5  UNL     1      38.810  15.743  21.556  1.00  0.00     0.010 C 
HETATM   21  C6  UNL     1      37.663  16.852  19.639  1.00  0.00     0.007 C 
HETATM   22  C7  UNL     1      37.803  18.314  19.314  1.00  0.00     0.026 C 
BRANCH  18  23
HETATM   23  C2  UNL     1      40.712  17.698  19.050  1.00  0.00     0.002 C 
HETATM   24  C1  UNL     1      41.099  16.337  18.577  1.00  0.00     0.005 C 
ENDBRANCH  18  23
ENDBRANCH   1  17
TORSDOF 7
ENDMDL
MODEL 2
REMARK VINA RESULT: -7.213144217      3.645      5.754
REMARK  7 active torsions:
REMARK  status: ('A' for Active; 'I' for Inactive)
REMARK    1  A    between atoms: C2_2  and  C3_3 
REMARK    2  A    between atoms: C8_8  and  N1_9 
REMARK       I    between atoms: N1_9  and  C9_11 
REMARK    3  A    between atoms: C9_11  and  C10_13 
REMARK    4  A    between atoms: C10_13  and  N2_14 
REMARK       I    between atoms: N2_14  and  C11_16 
REMARK    5  A    between atoms: C11_16  and  O3_18 
REMARK    6  A    between atoms: O3_18  and  C12_19 
REMARK    7  A    between atoms: C12_19  and  C13_20 
ROOT
HETATM    1  N1  UNL     1      35.916  22.642  22.649  1.00  0.00    -0.355 N 
ATOM      2  H1  UNL     1      36.218  23.368  23.299  1.00  0.00     0.162 HD
HETATM    3  C9  UNL     1      36.621  21.451  22.575  1.00  0.00     0.235 C 
HETATM    4  O1  UNL     1      36.239  20.548  21.776  1.00  0.00    -0.272 OA
ENDROOT
BRANCH   3   5
HETATM    5  C10 UNL     1      37.806  21.151  23.381  1.00  0.00     0.227 C 
BRANCH   5   6
HETATM    6  N2  UNL     1      37.775  21.614  24.739  1.00  0.00    -0.328 N 
HETATM    7  C11 UNL     1      38.144  22.942  25.072  1.00  0.00     0.360 C 
HETATM    8  O2  UNL     1      38.514  23.724  24.161  1.00  0.00    -0.239 OA
ATOM      9  H2  UNL     1      37.483  20.975  25.478  1.00  0.00     0.165 HD
BRANCH   7  10
HETATM   10  O3  UNL     1      38.119  23.437  26.356  1.00  0.00    -0.304 OA
BRANCH  10  11
HETATM   11  C12 UNL     1      39.211  23.879  27.101  1.00  0.00     0.185 C 
BRANCH  11  12
HETATM   12  C13 UNL     1      39.454  25.356  27.029  1.00  0.00     0.010 C 
HETATM   13  C14 UNL     1      39.786  25.852  28.424  1.00  0.00     0.007 C 
HETATM   14  C15 UNL     1      40.530  27.151  28.093  1.00  0.00     0.000 C 
HETATM   15  C16 UNL     1      41.510  26.646  27.046  1.00  0.00     0.000 C 
HETATM   16  C17 UNL     1      40.700  25.676  26.232  1.00  0.00     0.007 C 
ENDBRANCH  11  12
ENDBRANCH  10  11
ENDBRANCH   7  10
ENDBRANCH   5   6
ENDBRANCH   3   5
BRANCH   1  17
HETATM   17  C8  UNL     1      34.759  22.867  21.815  1.00  0.00     0.088 C 
HETATM   18  C3  UNL     1      33.471  22.484  22.510  1.00  0.00     0.012 C 
HETATM   19  C4  UNL     1      33.012  23.669  23.296  1.00  0.00    -0.013 C 
HETATM   20  C5  UNL     1      33.260  23.531  24.776  1.00  0.00     0.010 C 
HETATM   21  C6  UNL     1      33.739  24.869  22.727  1.00  0.00     0.007 C 
HETATM   22  C7  UNL     1      34.543  24.357  21.562  1.00  0.00     0.026 C 
BRANCH  18  23
HETATM   23  C2  UNL     1      32.449  22.235  21.402  1.00  0.00     0.002 C 
HETATM   24  C1  UNL     1      31.044  22.330  21.893  1.00  0.00     0.005 C 
ENDBRANCH  18  23
ENDBRANCH   1  17
TORSDOF 7
ENDMDL
MODEL 3
REMARK VINA RESULT: -7.154907830      1.190      2.150
REMARK  7 active torsions:
REMARK  status: ('A' for Active; 'I' for Inactive)
REMARK    1  A    between atoms: C2_2  and  C3_3 
REMARK    2  A    between atoms: C8_8  and  N1_9 
REMARK       I    between atoms: N1_9  and  C9_11 
REMARK    3  A    between atoms: C9_11  and  C10_13 
REMARK    4  A    between atoms: C10_13  and  N2_14 
REMARK       I    between atoms: N2_14  and  C11_16 
REMARK    5  A    between atoms: C11_16  and  O3_18 
REMARK    6  A    between atoms: O3_18  and  C12_19 
REMARK    7  A    between atoms: C12_19  and  C13_20 
ROOT
HETATM    1  N1  UNL     1      38.547  19.176  21.541  1.00  0.00    -0.355 N 
ATOM      2  H1  UNL     1      38.853  19.886  20.876  1.00  0.00     0.162 HD
HETATM    3  C9  UNL     1      37.824  19.554  22.662  1.00  0.00     0.235 C 
HETATM    4  O1  UNL     1      37.435  18.672  23.481  1.00  0.00    -0.272 OA
ENDROOT
BRANCH   3   5
HETATM    5  C10 UNL     1      37.463  20.938  22.974  1.00  0.00     0.227 C 
BRANCH   5   6
HETATM    6  N2  UNL     1      37.783  21.388  24.298  1.00  0.00    -0.328 N 
HETATM    7  C11 UNL     1      38.253  22.705  24.535  1.00  0.00     0.360 C 
HETATM    8  O2  UNL     1      38.402  23.487  23.563  1.00  0.00    -0.239 OA
ATOM      9  H2  UNL     1      37.671  20.748  25.085  1.00  0.00     0.165 HD
BRANCH   7  10
HETATM   10  O3  UNL     1      38.561  23.188  25.786  1.00  0.00    -0.304 OA
BRANCH  10  11
HETATM   11  C12 UNL     1      39.771  23.750  26.190  1.00  0.00     0.185 C 
BRANCH  11  12
HETATM   12  C13 UNL     1      39.697  25.211  26.515  1.00  0.00     0.010 C 
HETATM   13  C14 UNL     1      39.638  25.359  28.025  1.00  0.00     0.007 C 
HETATM   14  C15 UNL     1      40.132  26.801  28.186  1.00  0.00     0.000 C 
HETATM   15  C16 UNL     1      41.382  26.762  27.321  1.00  0.00     0.000 C 
HETATM   16  C17 UNL     1      40.974  25.931  26.138  1.00  0.00     0.007 C 
ENDBRANCH  11  12
ENDBRANCH  10  11
ENDBRANCH   7  10
ENDBRANCH   5   6
ENDBRANCH   3   5
BRANCH   1  17
HETATM   17  C8  UNL     1      38.871  17.789  21.306  1.00  0.00     0.088 C 
HETATM   18  C3  UNL     1      37.805  17.084  20.497  1.00  0.00     0.012 C 
HETATM   19  C4  UNL     1      38.117  17.300  19.052  1.00  0.00    -0.013 C 
HETATM   20  C5  UNL     1      37.223  18.321  18.397  1.00  0.00     0.010 C 
HETATM   21  C6  UNL     1      39.571  17.720  18.985  1.00  0.00     0.007 C 
HETATM   22  C7  UNL     1      40.089  17.654  20.396  1.00  0.00     0.026 C 
BRANCH  18  23
HETATM   23  C2  UNL     1      37.966  15.593  20.791  1.00  0.00     0.002 C 
HETATM   24  C1  UNL     1      38.077  15.311  22.251  1.00  0.00     0.005 C 
ENDBRANCH  18  23
ENDBRANCH   1  17
TORSDOF 7
ENDMDL
MODEL 4
REMARK VINA RESULT: -7.108381257      1.317      2.100
REMARK  7 active torsions:
REMARK  status: ('A' for Active; 'I' for Inactive)
REMARK    1  A    between atoms: C2_2  and  C3_3 
REMARK    2  A    between atoms: C8_8  and  N1_9 
REMARK       I    between atoms: N1_9  and  C9_11 
REMARK    3  A    between atoms: C9_11  and  C10_13 
REMARK    4  A    between atoms: C10_13  and  N2_14 
REMARK       I    between atoms: N2_14  and  C11_16 
REMARK    5  A    between atoms: C11_16  and  O3_18 
REMARK    6  A    between atoms: O3_18  and  C12_19 
REMARK    7  A    between atoms: C12_19  and  C13_20 
ROOT
HETATM    1  N1  UNL     1      38.049  19.381  21.530  1.00  0.00    -0.355 N 
ATOM      2  H1  UNL     1      38.349  20.103  20.874  1.00  0.00     0.162 HD
HETATM    3  C9  UNL     1      37.641  19.740  22.804  1.00  0.00     0.235 C 
HETATM    4  O1  UNL     1      37.259  18.846  23.613  1.00  0.00    -0.272 OA
ENDROOT
BRANCH   3   5
HETATM    5  C10 UNL     1      37.613  21.119  23.296  1.00  0.00     0.227 C 
BRANCH   5   6
HETATM    6  N2  UNL     1      38.397  21.385  24.468  1.00  0.00    -0.328 N 
HETATM    7  C11 UNL     1      38.751  22.709  24.831  1.00  0.00     0.360 C 
HETATM    8  O2  UNL     1      38.378  23.666  24.106  1.00  0.00    -0.239 OA
ATOM      9  H2  UNL     1      38.706  20.607  25.050  1.00  0.00     0.165 HD
BRANCH   7  10
HETATM   10  O3  UNL     1      39.490  23.017  25.951  1.00  0.00    -0.304 OA
BRANCH  10  11
HETATM   11  C12 UNL     1      39.050  23.712  27.076  1.00  0.00     0.185 C 
BRANCH  11  12
HETATM   12  C13 UNL     1      39.311  25.187  27.035  1.00  0.00     0.010 C 
HETATM   13  C14 UNL     1      39.662  25.647  28.438  1.00  0.00     0.007 C 
HETATM   14  C15 UNL     1      40.419  26.944  28.129  1.00  0.00     0.000 C 
HETATM   15  C16 UNL     1      41.384  26.450  27.062  1.00  0.00     0.000 C 
HETATM   16  C17 UNL     1      40.554  25.510  26.234  1.00  0.00     0.007 C 
ENDBRANCH  11  12
ENDBRANCH  10  11
ENDBRANCH   7  10
ENDBRANCH   5   6
ENDBRANCH   3   5
BRANCH   1  17
HETATM   17  C8  UNL     1      38.056  17.996  21.120  1.00  0.00     0.088 C 
HETATM   18  C3  UNL     1      37.893  17.843  19.624  1.00  0.00     0.012 C 
HETATM   19  C4  UNL     1      39.253  17.928  19.011  1.00  0.00    -0.013 C 
HETATM   20  C5  UNL     1      39.518  19.250  18.337  1.00  0.00     0.010 C 
HETATM   21  C6  UNL     1      40.244  17.672  20.127  1.00  0.00     0.007 C 
HETATM   22  C7  UNL     1      39.423  17.360  21.350  1.00  0.00     0.026 C 
BRANCH  18  23
HETATM   23  C2  UNL     1      37.367  16.427  19.398  1.00  0.00     0.002 C 
HETATM   24  C1  UNL     1      37.849  15.840  18.114  1.00  0.00     0.005 C 
ENDBRANCH  18  23
ENDBRANCH   1  17
TORSDOF 7
ENDMDL
MODEL 5
REMARK VINA RESULT: -7.101535235      4.145      6.073
REMARK  7 active torsions:
REMARK  status: ('A' for Active; 'I' for Inactive)
REMARK    1  A    between atoms: C2_2  and  C3_3 
REMARK    2  A    between atoms: C8_8  and  N1_9 
REMARK       I    between atoms: N1_9  and  C9_11 
REMARK    3  A    between atoms: C9_11  and  C10_13 
REMARK    4  A    between atoms: C10_13  and  N2_14 
REMARK       I    between atoms: N2_14  and  C11_16 
REMARK    5  A    between atoms: C11_16  and  O3_18 
REMARK    6  A    between atoms: O3_18  and  C12_19 
REMARK    7  A    between atoms: C12_19  and  C13_20 
ROOT
HETATM    1  N1  UNL     1      34.652  22.515  23.483  1.00  0.00    -0.355 N 
ATOM      2  H1  UNL     1      34.513  21.605  23.923  1.00  0.00     0.162 HD
HETATM    3  C9  UNL     1      35.917  22.881  23.051  1.00  0.00     0.235 C 
HETATM    4  O1  UNL     1      36.087  24.004  22.495  1.00  0.00    -0.272 OA
ENDROOT
BRANCH   3   5
HETATM    5  C10 UNL     1      37.105  22.037  23.192  1.00  0.00     0.227 C 
BRANCH   5   6
HETATM    6  N2  UNL     1      37.798  22.132  24.445  1.00  0.00    -0.328 N 
HETATM    7  C11 UNL     1      38.834  23.081  24.642  1.00  0.00     0.360 C 
HETATM    8  O2  UNL     1      39.157  23.843  23.698  1.00  0.00    -0.239 OA
ATOM      9  H2  UNL     1      37.541  21.507  25.208  1.00  0.00     0.165 HD
BRANCH   7  10
HETATM   10  O3  UNL     1      39.520  23.220  25.828  1.00  0.00    -0.304 OA
BRANCH  10  11
HETATM   11  C12 UNL     1      39.108  23.935  26.951  1.00  0.00     0.185 C 
BRANCH  11  12
HETATM   12  C13 UNL     1      39.465  25.390  26.926  1.00  0.00     0.010 C 
HETATM   13  C14 UNL     1      39.749  25.834  28.350  1.00  0.00     0.007 C 
HETATM   14  C15 UNL     1      40.607  27.078  28.092  1.00  0.00     0.000 C 
HETATM   15  C16 UNL     1      41.608  26.518  27.094  1.00  0.00     0.000 C 
HETATM   16  C17 UNL     1      40.778  25.628  26.212  1.00  0.00     0.007 C 
ENDBRANCH  11  12
ENDBRANCH  10  11
ENDBRANCH   7  10
ENDBRANCH   5   6
ENDBRANCH   3   5
BRANCH   1  17
HETATM   17  C8  UNL     1      33.529  23.406  23.314  1.00  0.00     0.088 C 
HETATM   18  C3  UNL     1      32.800  23.166  22.011  1.00  0.00     0.012 C 
HETATM   19  C4  UNL     1      31.787  22.094  22.250  1.00  0.00    -0.013 C 
HETATM   20  C5  UNL     1      32.193  20.758  21.685  1.00  0.00     0.010 C 
HETATM   21  C6  UNL     1      31.588  22.020  23.749  1.00  0.00     0.007 C 
HETATM   22  C7  UNL     1      32.435  23.115  24.338  1.00  0.00     0.026 C 
BRANCH  18  23
HETATM   23  C2  UNL     1      32.047  24.459  21.701  1.00  0.00     0.002 C 
HETATM   24  C1  UNL     1      32.940  25.654  21.714  1.00  0.00     0.005 C 
ENDBRANCH  18  23
ENDBRANCH   1  17
TORSDOF 7
ENDMDL
