MODEL 1
REMARK VINA RESULT: -7.737459214      0.000      0.000
REMARK  6 active torsions:
REMARK  status: ('A' for Active; 'I' for Inactive)
REMARK    1  A    between atoms: C1_2  and  C2_3 
REMARK       I    between atoms: C1_2  and  N1_16 
REMARK    2  A    between atoms: C2_3  and  C3_4 
REMARK    3  A    between atoms: C3_4  and  C4_5 
REMARK    4  A    between atoms: C4_5  and  C5_6 
REMARK    5  A    between atoms: C4_5  and  C6_9 
REMARK    6  A    between atoms: N1_16  and  C12_18 
ROOT
HETATM    1  C3  UNL     1      38.405  22.908  22.476  1.00  0.00     0.027 C 
ENDROOT
BRANCH   1   2
HETATM    2  C2  UNL     1      37.670  23.069  23.767  1.00  0.00     0.103 C 
BRANCH   2   3
HETATM    3  C1  UNL     1      38.662  23.294  24.881  1.00  0.00     0.217 C 
HETATM    4  O1  UNL     1      39.179  22.305  25.450  1.00  0.00    -0.274 OA
HETATM    5  N1  UNL     1      39.021  24.591  25.296  1.00  0.00    -0.356 N 
ATOM      6  H1  UNL     1      38.593  25.388  24.824  1.00  0.00     0.162 HD
BRANCH   5   7
HETATM    7  C12 UNL     1      39.968  24.850  26.361  1.00  0.00     0.084 C 
HETATM    8  C13 UNL     1      40.806  26.025  25.965  1.00  0.00     0.025 C 
HETATM    9  C14 UNL     1      40.269  27.250  26.716  1.00  0.00     0.002 C 
HETATM   10  C15 UNL     1      40.643  27.030  28.181  1.00  0.00     0.000 C 
HETATM   11  C16 UNL     1      39.976  25.777  28.694  1.00  0.00     0.002 C 
HETATM   12  C17 UNL     1      39.169  25.084  27.622  1.00  0.00     0.025 C 
ENDBRANCH   5   7
ENDBRANCH   2   3
ENDBRANCH   1   2
BRANCH   1  13
HETATM   13  C4  UNL     1      37.610  23.065  21.235  1.00  0.00     0.116 C 
BRANCH  13  14
HETATM   14  C5  UNL     1      37.938  24.294  20.520  1.00  0.00     0.179 C 
HETATM   15  O2  UNL     1      39.030  24.880  20.682  1.00  0.00    -0.648 OA
HETATM   16  O3  UNL     1      37.065  24.898  19.608  1.00  0.00    -0.648 OA
ENDBRANCH  13  14
BRANCH  13  17
HETATM   17  C6  UNL     1      37.683  21.836  20.341  1.00  0.00     0.135 C 
HETATM   18  C7  UNL     1      37.026  20.657  21.023  1.00  0.00     0.033 C 
HETATM   19  C8  UNL     1      37.383  19.367  20.346  1.00  0.00     0.002 C 
HETATM   20  C9  UNL     1      38.837  19.032  20.424  1.00  0.00     0.002 C 
HETATM   21  C10 UNL     1      39.608  19.487  19.202  1.00  0.00     0.026 C 
HETATM   22  C11 UNL     1      39.110  20.853  18.819  1.00  0.00     0.168 C 
HETATM   23  O4  UNL     1      38.988  21.608  19.984  1.00  0.00    -0.385 OA
ENDBRANCH  13  17
ENDBRANCH   1  13
TORSDOF 6
ENDMDL
MODEL 2
REMARK VINA RESULT: -7.543784432      2.000      3.705
REMARK  6 active torsions:
REMARK  status: ('A' for Active; 'I' for Inactive)
REMARK    1  A    between atoms: C1_2  and  C2_3 
REMARK       I    between atoms: C1_2  and  N1_16 
REMARK    2  A    between atoms: C2_3  and  C3_4 
REMARK    3  A    between atoms: C3_4  and  C4_5 
REMARK    4  A    between atoms: C4_5  and  C5_6 
REMARK    5  A    between atoms: C4_5  and  C6_9 
REMARK    6  A    between atoms: N1_16  and  C12_18 
ROOT
HETATM    1  C3  UNL     1      37.967  21.301  23.979  1.00  0.00     0.027 C 
ENDROOT
BRANCH   1   2
HETATM    2  C2  UNL     1      39.066  21.737  24.893  1.00  0.00     0.103 C 
BRANCH   2   3
HETATM    3  C1  UNL     1      38.956  23.223  25.131  1.00  0.00     0.217 C 
HETATM    4  O1  UNL     1      38.238  23.914  24.372  1.00  0.00    -0.274 OA
HETATM    5  N1  UNL     1      39.645  23.852  26.187  1.00  0.00    -0.356 N 
ATOM      6  H1  UNL     1      40.227  23.278  26.797  1.00  0.00     0.162 HD
BRANCH   5   7
HETATM    7  C12 UNL     1      39.567  25.274  26.448  1.00  0.00     0.084 C 
HETATM    8  C13 UNL     1      39.215  25.465  27.891  1.00  0.00     0.025 C 
HETATM    9  C14 UNL     1      40.505  25.825  28.637  1.00  0.00     0.002 C 
HETATM   10  C15 UNL     1      40.867  27.236  28.175  1.00  0.00     0.000 C 
HETATM   11  C16 UNL     1      41.115  27.236  26.687  1.00  0.00     0.002 C 
HETATM   12  C17 UNL     1      40.904  25.871  26.076  1.00  0.00     0.025 C 
ENDBRANCH   5   7
ENDBRANCH   2   3
ENDBRANCH   1   2
BRANCH   1  13
HETATM   13  C4  UNL     1      38.364  20.886  22.614  1.00  0.00     0.116 C 
BRANCH  13  14
HETATM   14  C5  UNL     1      38.188  19.454  22.397  1.00  0.00     0.179 C 
HETATM   15  O2  UNL     1      38.705  18.866  21.422  1.00  0.00    -0.648 OA
HETATM   16  O3  UNL     1      37.438  18.641  23.255  1.00  0.00    -0.648 OA
ENDBRANCH  13  14
BRANCH  13  17
HETATM   17  C6  UNL     1      37.693  21.723  21.535  1.00  0.00     0.135 C 
HETATM   18  C7  UNL     1      38.537  22.936  21.217  1.00  0.00     0.033 C 
HETATM   19  C8  UNL     1      37.759  23.953  20.435  1.00  0.00     0.002 C 
HETATM   20  C9  UNL     1      36.607  24.534  21.188  1.00  0.00     0.002 C 
HETATM   21  C10 UNL     1      35.302  23.821  20.901  1.00  0.00     0.026 C 
HETATM   22  C11 UNL     1      35.579  22.344  20.855  1.00  0.00     0.168 C 
HETATM   23  O4  UNL     1      36.414  22.030  21.925  1.00  0.00    -0.385 OA
ENDBRANCH  13  17
ENDBRANCH   1  13
TORSDOF 6
ENDMDL
MODEL 3
REMARK VINA RESULT: -7.492576425      1.369      2.440
REMARK  6 active torsions:
REMARK  status: ('A' for Active; 'I' for Inactive)
REMARK    1  A    between atoms: C1_2  and  C2_3 
REMARK       I    between atoms: C1_2  and  N1_16 
REMARK    2  A    between atoms: C2_3  and  C3_4 
REMARK    3  A    between atoms: C3_4  and  C4_5 
REMARK    4  A    between atoms: C4_5  and  C5_6 
REMARK    5  A    between atoms: C4_5  and  C6_9 
REMARK    6  A    between atoms: N1_16  and  C12_18 
ROOT
HETATM    1  C3  UNL     1      38.539  22.663  22.534  1.00  0.00     0.027 C 
ENDROOT
BRANCH   1   2
HETATM    2  C2  UNL     1      37.761  23.049  23.750  1.00  0.00     0.103 C 
BRANCH   2   3
HETATM    3  C1  UNL     1      38.713  23.289  24.895  1.00  0.00     0.217 C 
HETATM    4  O1  UNL     1      39.166  22.310  25.531  1.00  0.00    -0.274 OA
HETATM    5  N1  UNL     1      39.103  24.591  25.267  1.00  0.00    -0.356 N 
ATOM      6  H1  UNL     1      38.726  25.380  24.741  1.00  0.00     0.162 HD
BRANCH   5   7
HETATM    7  C12 UNL     1      40.013  24.864  26.360  1.00  0.00     0.084 C 
HETATM    8  C13 UNL     1      40.831  26.064  25.998  1.00  0.00     0.025 C 
HETATM    9  C14 UNL     1      40.242  27.268  26.743  1.00  0.00     0.002 C 
HETATM   10  C15 UNL     1      40.581  27.044  28.216  1.00  0.00     0.000 C 
HETATM   11  C16 UNL     1      39.933  25.770  28.700  1.00  0.00     0.002 C 
HETATM   12  C17 UNL     1      39.174  25.066  27.600  1.00  0.00     0.025 C 
ENDBRANCH   5   7
ENDBRANCH   2   3
ENDBRANCH   1   2
BRANCH   1  13
HETATM   13  C4  UNL     1      38.442  21.248  22.105  1.00  0.00     0.116 C 
BRANCH  13  14
HETATM   14  C5  UNL     1      37.385  20.528  22.806  1.00  0.00     0.179 C 
HETATM   15  O2  UNL     1      36.203  20.531  22.397  1.00  0.00    -0.648 OA
HETATM   16  O3  UNL     1      37.612  19.787  23.971  1.00  0.00    -0.648 OA
ENDBRANCH  13  14
BRANCH  13  17
HETATM   17  C6  UNL     1      38.338  21.107  20.594  1.00  0.00     0.135 C 
HETATM   18  C7  UNL     1      38.797  19.731  20.167  1.00  0.00     0.033 C 
HETATM   19  C8  UNL     1      39.045  19.671  18.689  1.00  0.00     0.002 C 
HETATM   20  C9  UNL     1      40.161  20.554  18.232  1.00  0.00     0.002 C 
HETATM   21  C10 UNL     1      39.677  21.905  17.749  1.00  0.00     0.026 C 
HETATM   22  C11 UNL     1      38.601  22.378  18.687  1.00  0.00     0.168 C 
HETATM   23  O4  UNL     1      39.027  22.128  19.990  1.00  0.00    -0.385 OA
ENDBRANCH  13  17
ENDBRANCH   1  13
TORSDOF 6
ENDMDL
MODEL 4
REMARK VINA RESULT: -7.407529475      1.694      2.839
REMARK  6 active torsions:
REMARK  status: ('A' for Active; 'I' for Inactive)
REMARK    1  A    between atoms: C1_2  and  C2_3 
REMARK       I    between atoms: C1_2  and  N1_16 
REMARK    2  A    between atoms: C2_3  and  C3_4 
REMARK    3  A    between atoms: C3_4  and  C4_5 
REMARK    4  A    between atoms: C4_5  and  C5_6 
REMARK    5  A    between atoms: C4_5  and  C6_9 
REMARK    6  A    between atoms: N1_16  and  C12_18 
ROOT
HETATM    1  C3  UNL     1      38.256  21.227  24.028  1.00  0.00     0.027 C 
ENDROOT
BRANCH   1   2
HETATM    2  C2  UNL     1      38.166  22.713  24.162  1.00  0.00     0.103 C 
BRANCH   2   3
HETATM    3  C1  UNL     1      39.065  23.168  25.284  1.00  0.00     0.217 C 
HETATM    4  O1  UNL     1      39.555  22.316  26.061  1.00  0.00    -0.274 OA
HETATM    5  N1  UNL     1      39.367  24.530  25.479  1.00  0.00    -0.356 N 
ATOM      6  H1  UNL     1      38.962  25.214  24.839  1.00  0.00     0.162 HD
BRANCH   5   7
HETATM    7  C12 UNL     1      40.225  25.007  26.544  1.00  0.00     0.084 C 
HETATM    8  C13 UNL     1      40.929  26.237  26.061  1.00  0.00     0.025 C 
HETATM    9  C14 UNL     1      40.211  27.449  26.665  1.00  0.00     0.002 C 
HETATM   10  C15 UNL     1      40.541  27.420  28.157  1.00  0.00     0.000 C 
HETATM   11  C16 UNL     1      40.011  26.148  28.771  1.00  0.00     0.002 C 
HETATM   12  C17 UNL     1      39.346  25.258  27.748  1.00  0.00     0.025 C 
ENDBRANCH   5   7
ENDBRANCH   2   3
ENDBRANCH   1   2
BRANCH   1  13
HETATM   13  C4  UNL     1      38.520  20.698  22.670  1.00  0.00     0.116 C 
BRANCH  13  14
HETATM   14  C5  UNL     1      38.152  19.292  22.543  1.00  0.00     0.179 C 
HETATM   15  O2  UNL     1      37.356  18.744  23.337  1.00  0.00    -0.648 OA
HETATM   16  O3  UNL     1      38.653  18.463  21.533  1.00  0.00    -0.648 OA
ENDBRANCH  13  14
BRANCH  13  17
HETATM   17  C6  UNL     1      37.901  21.561  21.581  1.00  0.00     0.135 C 
HETATM   18  C7  UNL     1      36.553  21.006  21.180  1.00  0.00     0.033 C 
HETATM   19  C8  UNL     1      36.078  21.604  19.889  1.00  0.00     0.002 C 
HETATM   20  C9  UNL     1      36.942  21.265  18.718  1.00  0.00     0.002 C 
HETATM   21  C10 UNL     1      37.980  22.329  18.431  1.00  0.00     0.026 C 
HETATM   22  C11 UNL     1      38.542  22.799  19.744  1.00  0.00     0.168 C 
HETATM   23  O4  UNL     1      38.781  21.677  20.535  1.00  0.00    -0.385 OA
ENDBRANCH  13  17
ENDBRANCH   1  13
TORSDOF 6
ENDMDL
MODEL 5
REMARK VINA RESULT: -7.390017746      1.169      1.423
REMARK  6 active torsions:
REMARK  status: ('A' for Active; 'I' for Inactive)
REMARK    1  A    between atoms: C1_2  and  C2_3 
REMARK       I    between atoms: C1_2  and  N1_16 
REMARK    2  A    between atoms: C2_3  and  C3_4 
REMARK    3  A    between atoms: C3_4  and  C4_5 
REMARK    4  A    between atoms: C4_5  and  C5_6 
REMARK    5  A    between atoms: C4_5  and  C6_9 
REMARK    6  A    between atoms: N1_16  and  C12_18 
ROOT
HETATM    1  C3  UNL     1      38.340  21.995  22.828  1.00  0.00     0.027 C 
ENDROOT
BRANCH   1   2
HETATM    2  C2  UNL     1      37.745  22.983  23.777  1.00  0.00     0.103 C 
BRANCH   2   3
HETATM    3  C1  UNL     1      38.711  23.235  24.907  1.00  0.00     0.217 C 
HETATM    4  O1  UNL     1      39.208  22.261  25.517  1.00  0.00    -0.274 OA
HETATM    5  N1  UNL     1      39.068  24.542  25.293  1.00  0.00    -0.356 N 
ATOM      6  H1  UNL     1      38.656  25.327  24.788  1.00  0.00     0.162 HD
BRANCH   5   7
HETATM    7  C12 UNL     1      39.990  24.826  26.372  1.00  0.00     0.084 C 
HETATM    8  C13 UNL     1      40.807  26.020  25.987  1.00  0.00     0.025 C 
HETATM    9  C14 UNL     1      40.229  27.234  26.724  1.00  0.00     0.002 C 
HETATM   10  C15 UNL     1      40.583  27.028  28.196  1.00  0.00     0.000 C 
HETATM   11  C16 UNL     1      39.938  25.761  28.702  1.00  0.00     0.002 C 
HETATM   12  C17 UNL     1      39.166  25.045  27.620  1.00  0.00     0.025 C 
ENDBRANCH   5   7
ENDBRANCH   2   3
ENDBRANCH   1   2
BRANCH   1  13
HETATM   13  C4  UNL     1      37.548  21.673  21.619  1.00  0.00     0.116 C 
BRANCH  13  14
HETATM   14  C5  UNL     1      37.919  22.502  20.477  1.00  0.00     0.179 C 
HETATM   15  O2  UNL     1      38.989  23.147  20.451  1.00  0.00    -0.648 OA
HETATM   16  O3  UNL     1      37.116  22.631  19.338  1.00  0.00    -0.648 OA
ENDBRANCH  13  14
BRANCH  13  17
HETATM   17  C6  UNL     1      37.570  20.188  21.290  1.00  0.00     0.135 C 
HETATM   18  C7  UNL     1      37.744  19.377  22.554  1.00  0.00     0.033 C 
HETATM   19  C8  UNL     1      38.122  17.958  22.245  1.00  0.00     0.002 C 
HETATM   20  C9  UNL     1      39.451  17.825  21.575  1.00  0.00     0.002 C 
HETATM   21  C10 UNL     1      39.341  17.761  20.066  1.00  0.00     0.026 C 
HETATM   22  C11 UNL     1      38.311  18.766  19.631  1.00  0.00     0.168 C 
HETATM   23  O4  UNL     1      38.532  19.944  20.343  1.00  0.00    -0.385 OA
ENDBRANCH  13  17
ENDBRANCH   1  13
TORSDOF 6
ENDMDL
