MODEL 1
REMARK VINA RESULT: -6.307051609      0.000      0.000
REMARK  8 active torsions:
REMARK  status: ('A' for Active; 'I' for Inactive)
REMARK    1  A    between atoms: C2_2  and  C3_3 
REMARK    2  A    between atoms: C2_2  and  C15_21 
REMARK    3  A    between atoms: C3_3  and  N1_4 
REMARK    4  A    between atoms: C3_3  and  C9_11 
REMARK    5  A    between atoms: N1_4  and  C4_6 
REMARK    6  A    between atoms: C4_6  and  C5_7 
REMARK    7  A    between atoms: C5_7  and  C6_8 
REMARK    8  A    between atoms: C9_11  and  O1_12 
REMARK       I    between atoms: N2_17  and  C13_18 
ROOT
HETATM    1  C3  UNL     1      37.831  21.526  22.029  1.00  0.00     0.067 C 
ENDROOT
BRANCH   1   2
HETATM    2  C2  UNL     1      37.335  20.439  21.183  1.00  0.00    -0.033 C 
HETATM    3  C1  UNL     1      36.039  20.402  20.783  1.00  0.00     0.022 C 
BRANCH   2   4
HETATM    4  C15 UNL     1      38.136  19.265  20.757  1.00  0.00    -0.023 C 
HETATM    5  C16 UNL     1      38.711  18.418  21.826  1.00  0.00     0.019 C 
HETATM    6  C17 UNL     1      37.316  18.364  19.812  1.00  0.00     0.019 C 
HETATM    7  C18 UNL     1      39.311  19.715  19.869  1.00  0.00     0.019 C 
ENDBRANCH   2   4
ENDBRANCH   1   2
BRANCH   1   8
HETATM    8  N1  UNL     1      37.492  21.400  23.424  1.00  0.00    -0.389 N 
ATOM      9  H1  UNL     1      36.533  21.223  23.726  1.00  0.00     0.159 HD
BRANCH   8  10
HETATM   10  C4  UNL     1      38.551  21.533  24.359  1.00  0.00     0.120 C 
BRANCH  10  11
HETATM   11  C5  UNL     1      38.165  22.705  25.286  1.00  0.00     0.023 C 
BRANCH  11  12
HETATM   12  C6  UNL     1      39.292  23.067  26.189  1.00  0.00    -0.021 C 
HETATM   13  C7  UNL     1      38.666  23.520  27.511  1.00  0.00     0.009 C 
HETATM   14  C8  UNL     1      40.049  24.288  25.680  1.00  0.00     0.009 C 
ENDBRANCH  11  12
ENDBRANCH  10  11
ENDBRANCH   8  10
ENDBRANCH   1   8
BRANCH   1  15
HETATM   15  C9  UNL     1      37.776  22.913  21.561  1.00  0.00     0.180 C 
HETATM   16  C10 UNL     1      38.501  23.048  20.179  1.00  0.00     0.070 C 
HETATM   17  C11 UNL     1      38.333  24.545  20.005  1.00  0.00     0.025 C 
HETATM   18  C12 UNL     1      36.843  24.651  20.330  1.00  0.00     0.129 C 
HETATM   19  N2  UNL     1      36.674  23.746  21.516  1.00  0.00    -0.315 N 
HETATM   20  C13 UNL     1      35.539  23.917  22.318  1.00  0.00     0.218 C 
HETATM   21  C14 UNL     1      34.453  24.912  22.038  1.00  0.00     0.117 C 
HETATM   22  O2  UNL     1      35.347  23.241  23.341  1.00  0.00    -0.274 OA
BRANCH  15  23
HETATM   23  O1  UNL     1      38.749  23.623  22.386  1.00  0.00    -0.365 OA
ATOM     24  H1  UNL     1      38.716  24.522  22.081  1.00  0.00     0.213 HD
ENDBRANCH  15  23
ENDBRANCH   1  15
TORSDOF 8
ENDMDL
MODEL 2
REMARK VINA RESULT: -6.300419796      1.728      4.286
REMARK  8 active torsions:
REMARK  status: ('A' for Active; 'I' for Inactive)
REMARK    1  A    between atoms: C2_2  and  C3_3 
REMARK    2  A    between atoms: C2_2  and  C15_21 
REMARK    3  A    between atoms: C3_3  and  N1_4 
REMARK    4  A    between atoms: C3_3  and  C9_11 
REMARK    5  A    between atoms: N1_4  and  C4_6 
REMARK    6  A    between atoms: C4_6  and  C5_7 
REMARK    7  A    between atoms: C5_7  and  C6_8 
REMARK    8  A    between atoms: C9_11  and  O1_12 
REMARK       I    between atoms: N2_17  and  C13_18 
ROOT
HETATM    1  C3  UNL     1      37.454  22.331  21.771  1.00  0.00     0.067 C 
ENDROOT
BRANCH   1   2
HETATM    2  C2  UNL     1      36.613  23.477  21.421  1.00  0.00    -0.033 C 
HETATM    3  C1  UNL     1      37.100  24.498  20.671  1.00  0.00     0.022 C 
BRANCH   2   4
HETATM    4  C15 UNL     1      35.223  23.682  21.897  1.00  0.00    -0.023 C 
HETATM    5  C16 UNL     1      34.132  23.213  21.013  1.00  0.00     0.019 C 
HETATM    6  C17 UNL     1      35.028  23.047  23.288  1.00  0.00     0.019 C 
HETATM    7  C18 UNL     1      34.965  25.177  22.162  1.00  0.00     0.019 C 
ENDBRANCH   2   4
ENDBRANCH   1   2
BRANCH   1   8
HETATM    8  N1  UNL     1      38.610  22.659  22.567  1.00  0.00    -0.389 N 
ATOM      9  H1  UNL     1      39.387  23.198  22.183  1.00  0.00     0.159 HD
BRANCH   8  10
HETATM   10  C4  UNL     1      38.620  22.197  23.909  1.00  0.00     0.120 C 
BRANCH  10  11
HETATM   11  C5  UNL     1      38.437  23.446  24.797  1.00  0.00     0.023 C 
BRANCH  11  12
HETATM   12  C6  UNL     1      39.445  23.476  25.892  1.00  0.00    -0.021 C 
HETATM   13  C7  UNL     1      38.663  23.464  27.208  1.00  0.00     0.009 C 
HETATM   14  C8  UNL     1      40.214  24.792  25.911  1.00  0.00     0.009 C 
ENDBRANCH  11  12
ENDBRANCH  10  11
ENDBRANCH   8  10
ENDBRANCH   1   8
BRANCH   1  15
HETATM   15  C9  UNL     1      37.733  21.288  20.781  1.00  0.00     0.180 C 
HETATM   16  C10 UNL     1      38.672  21.844  19.656  1.00  0.00     0.070 C 
HETATM   17  C11 UNL     1      38.717  20.599  18.793  1.00  0.00     0.025 C 
HETATM   18  C12 UNL     1      39.020  19.571  19.883  1.00  0.00     0.129 C 
HETATM   19  N2  UNL     1      38.124  19.983  21.015  1.00  0.00    -0.315 N 
HETATM   20  C13 UNL     1      37.842  19.036  22.009  1.00  0.00     0.218 C 
HETATM   21  C14 UNL     1      38.419  17.654  22.042  1.00  0.00     0.117 C 
HETATM   22  O2  UNL     1      37.076  19.282  22.954  1.00  0.00    -0.274 OA
BRANCH  15  23
HETATM   23  O1  UNL     1      36.504  21.176  20.002  1.00  0.00    -0.365 OA
ATOM     24  H1  UNL     1      36.765  20.744  19.197  1.00  0.00     0.213 HD
ENDBRANCH  15  23
ENDBRANCH   1  15
TORSDOF 8
ENDMDL
MODEL 3
REMARK VINA RESULT: -6.289759904      1.794      3.013
REMARK  8 active torsions:
REMARK  status: ('A' for Active; 'I' for Inactive)
REMARK    1  A    between atoms: C2_2  and  C3_3 
REMARK    2  A    between atoms: C2_2  and  C15_21 
REMARK    3  A    between atoms: C3_3  and  N1_4 
REMARK    4  A    between atoms: C3_3  and  C9_11 
REMARK    5  A    between atoms: N1_4  and  C4_6 
REMARK    6  A    between atoms: C4_6  and  C5_7 
REMARK    7  A    between atoms: C5_7  and  C6_8 
REMARK    8  A    between atoms: C9_11  and  O1_12 
REMARK       I    between atoms: N2_17  and  C13_18 
ROOT
HETATM    1  C3  UNL     1      36.404  23.651  22.156  1.00  0.00     0.067 C 
ENDROOT
BRANCH   1   2
HETATM    2  C2  UNL     1      36.765  22.324  21.653  1.00  0.00    -0.033 C 
HETATM    3  C1  UNL     1      36.321  21.200  22.270  1.00  0.00     0.022 C 
BRANCH   2   4
HETATM    4  C15 UNL     1      37.683  22.071  20.516  1.00  0.00    -0.023 C 
HETATM    5  C16 UNL     1      38.509  23.207  20.050  1.00  0.00     0.019 C 
HETATM    6  C17 UNL     1      38.619  20.886  20.829  1.00  0.00     0.019 C 
HETATM    7  C18 UNL     1      36.892  21.570  19.294  1.00  0.00     0.019 C 
ENDBRANCH   2   4
ENDBRANCH   1   2
BRANCH   1   8
HETATM    8  N1  UNL     1      36.978  23.982  23.436  1.00  0.00    -0.389 N 
ATOM      9  H1  UNL     1      36.491  24.586  24.098  1.00  0.00     0.159 HD
BRANCH   8  10
HETATM   10  C4  UNL     1      38.251  23.429  23.733  1.00  0.00     0.120 C 
BRANCH  10  11
HETATM   11  C5  UNL     1      38.117  22.754  25.114  1.00  0.00     0.023 C 
BRANCH  11  12
HETATM   12  C6  UNL     1      39.251  23.126  26.004  1.00  0.00    -0.021 C 
HETATM   13  C7  UNL     1      38.644  23.475  27.366  1.00  0.00     0.009 C 
HETATM   14  C8  UNL     1      39.929  24.411  25.542  1.00  0.00     0.009 C 
ENDBRANCH  11  12
ENDBRANCH  10  11
ENDBRANCH   8  10
ENDBRANCH   1   8
BRANCH   1  15
HETATM   15  C9  UNL     1      35.035  24.152  22.009  1.00  0.00     0.180 C 
HETATM   16  C10 UNL     1      34.619  24.155  20.498  1.00  0.00     0.070 C 
HETATM   17  C11 UNL     1      33.239  24.759  20.668  1.00  0.00     0.025 C 
HETATM   18  C12 UNL     1      32.735  23.874  21.807  1.00  0.00     0.129 C 
HETATM   19  N2  UNL     1      33.917  23.778  22.729  1.00  0.00    -0.315 N 
HETATM   20  C13 UNL     1      33.687  23.390  24.055  1.00  0.00     0.218 C 
HETATM   21  C14 UNL     1      32.343  23.014  24.601  1.00  0.00     0.117 C 
HETATM   22  O2  UNL     1      34.602  23.330  24.892  1.00  0.00    -0.274 OA
BRANCH  15  23
HETATM   23  O1  UNL     1      35.143  25.594  22.207  1.00  0.00    -0.365 OA
ATOM     24  H1  UNL     1      35.190  25.707  23.149  1.00  0.00     0.213 HD
ENDBRANCH  15  23
ENDBRANCH   1  15
TORSDOF 8
ENDMDL
MODEL 4
REMARK VINA RESULT: -6.227709144      1.730      4.337
REMARK  8 active torsions:
REMARK  status: ('A' for Active; 'I' for Inactive)
REMARK    1  A    between atoms: C2_2  and  C3_3 
REMARK    2  A    between atoms: C2_2  and  C15_21 
REMARK    3  A    between atoms: C3_3  and  N1_4 
REMARK    4  A    between atoms: C3_3  and  C9_11 
REMARK    5  A    between atoms: N1_4  and  C4_6 
REMARK    6  A    between atoms: C4_6  and  C5_7 
REMARK    7  A    between atoms: C5_7  and  C6_8 
REMARK    8  A    between atoms: C9_11  and  O1_12 
REMARK       I    between atoms: N2_17  and  C13_18 
ROOT
HETATM    1  C3  UNL     1      36.118  23.497  22.327  1.00  0.00     0.067 C 
ENDROOT
BRANCH   1   2
HETATM    2  C2  UNL     1      34.827  24.185  22.398  1.00  0.00    -0.033 C 
HETATM    3  C1  UNL     1      34.739  25.525  22.201  1.00  0.00     0.022 C 
BRANCH   2   4
HETATM    4  C15 UNL     1      33.543  23.538  22.760  1.00  0.00    -0.023 C 
HETATM    5  C16 UNL     1      33.301  22.176  22.233  1.00  0.00     0.019 C 
HETATM    6  C17 UNL     1      33.366  23.504  24.292  1.00  0.00     0.019 C 
HETATM    7  C18 UNL     1      32.359  24.407  22.297  1.00  0.00     0.019 C 
ENDBRANCH   2   4
ENDBRANCH   1   2
BRANCH   1   8
HETATM    8  N1  UNL     1      37.076  23.921  23.317  1.00  0.00    -0.389 N 
ATOM      9  H1  UNL     1      37.414  24.883  23.354  1.00  0.00     0.159 HD
BRANCH   8  10
HETATM   10  C4  UNL     1      37.528  22.940  24.237  1.00  0.00     0.120 C 
BRANCH  10  11
HETATM   11  C5  UNL     1      38.966  23.343  24.628  1.00  0.00     0.023 C 
BRANCH  11  12
HETATM   12  C6  UNL     1      38.966  24.242  25.815  1.00  0.00    -0.021 C 
HETATM   13  C7  UNL     1      40.375  24.832  25.917  1.00  0.00     0.009 C 
HETATM   14  C8  UNL     1      38.778  23.461  27.110  1.00  0.00     0.009 C 
ENDBRANCH  11  12
ENDBRANCH  10  11
ENDBRANCH   8  10
ENDBRANCH   1   8
BRANCH   1  15
HETATM   15  C9  UNL     1      36.738  23.217  21.030  1.00  0.00     0.180 C 
HETATM   16  C10 UNL     1      37.520  24.476  20.521  1.00  0.00     0.070 C 
HETATM   17  C11 UNL     1      37.972  23.910  19.189  1.00  0.00     0.025 C 
HETATM   18  C12 UNL     1      38.515  22.568  19.677  1.00  0.00     0.129 C 
HETATM   19  N2  UNL     1      37.487  22.112  20.672  1.00  0.00    -0.315 N 
HETATM   20  C13 UNL     1      37.452  20.752  21.006  1.00  0.00     0.218 C 
HETATM   21  C14 UNL     1      38.410  19.730  20.474  1.00  0.00     0.117 C 
HETATM   22  O2  UNL     1      36.605  20.286  21.785  1.00  0.00    -0.274 OA
BRANCH  15  23
HETATM   23  O1  UNL     1      35.634  23.247  20.076  1.00  0.00    -0.365 OA
ATOM     24  H1  UNL     1      34.923  22.794  20.513  1.00  0.00     0.213 HD
ENDBRANCH  15  23
ENDBRANCH   1  15
TORSDOF 8
ENDMDL
MODEL 5
REMARK VINA RESULT: -6.217026854      1.641      3.157
REMARK  8 active torsions:
REMARK  status: ('A' for Active; 'I' for Inactive)
REMARK    1  A    between atoms: C2_2  and  C3_3 
REMARK    2  A    between atoms: C2_2  and  C15_21 
REMARK    3  A    between atoms: C3_3  and  N1_4 
REMARK    4  A    between atoms: C3_3  and  C9_11 
REMARK    5  A    between atoms: N1_4  and  C4_6 
REMARK    6  A    between atoms: C4_6  and  C5_7 
REMARK    7  A    between atoms: C5_7  and  C6_8 
REMARK    8  A    between atoms: C9_11  and  O1_12 
REMARK       I    between atoms: N2_17  and  C13_18 
ROOT
HETATM    1  C3  UNL     1      36.872  22.846  22.355  1.00  0.00     0.067 C 
ENDROOT
BRANCH   1   2
HETATM    2  C2  UNL     1      37.453  22.341  21.110  1.00  0.00    -0.033 C 
HETATM    3  C1  UNL     1      37.632  21.010  20.913  1.00  0.00     0.022 C 
BRANCH   2   4
HETATM    4  C15 UNL     1      37.966  23.192  20.009  1.00  0.00    -0.023 C 
HETATM    5  C16 UNL     1      38.650  24.448  20.391  1.00  0.00     0.019 C 
HETATM    6  C17 UNL     1      38.908  22.384  19.094  1.00  0.00     0.019 C 
HETATM    7  C18 UNL     1      36.819  23.585  19.060  1.00  0.00     0.019 C 
ENDBRANCH   2   4
ENDBRANCH   1   2
BRANCH   1   8
HETATM    8  N1  UNL     1      37.086  21.999  23.502  1.00  0.00    -0.389 N 
ATOM      9  H1  UNL     1      36.351  21.389  23.859  1.00  0.00     0.159 HD
BRANCH   8  10
HETATM   10  C4  UNL     1      38.366  22.053  24.112  1.00  0.00     0.120 C 
BRANCH  10  11
HETATM   11  C5  UNL     1      38.520  23.484  24.669  1.00  0.00     0.023 C 
BRANCH  11  12
HETATM   12  C6  UNL     1      39.474  23.514  25.812  1.00  0.00    -0.021 C 
HETATM   13  C7  UNL     1      38.634  23.399  27.086  1.00  0.00     0.009 C 
HETATM   14  C8  UNL     1      40.171  24.864  25.926  1.00  0.00     0.009 C 
ENDBRANCH  11  12
ENDBRANCH  10  11
ENDBRANCH   8  10
ENDBRANCH   1   8
BRANCH   1  15
HETATM   15  C9  UNL     1      35.544  23.465  22.356  1.00  0.00     0.180 C 
HETATM   16  C10 UNL     1      35.670  25.018  22.191  1.00  0.00     0.070 C 
HETATM   17  C11 UNL     1      34.195  25.354  22.290  1.00  0.00     0.025 C 
HETATM   18  C12 UNL     1      33.653  24.318  21.304  1.00  0.00     0.129 C 
HETATM   19  N2  UNL     1      34.431  23.077  21.634  1.00  0.00    -0.315 N 
HETATM   20  C13 UNL     1      33.913  21.845  21.213  1.00  0.00     0.218 C 
HETATM   21  C14 UNL     1      32.658  21.690  20.410  1.00  0.00     0.117 C 
HETATM   22  O2  UNL     1      34.471  20.770  21.483  1.00  0.00    -0.274 OA
BRANCH  15  23
HETATM   23  O1  UNL     1      35.117  23.429  23.751  1.00  0.00    -0.365 OA
ATOM     24  H1  UNL     1      34.215  23.727  23.736  1.00  0.00     0.213 HD
ENDBRANCH  15  23
ENDBRANCH   1  15
TORSDOF 8
ENDMDL
