MODEL 1
REMARK VINA RESULT: -6.957008090      0.000      0.000
REMARK  7 active torsions:
REMARK  status: ('A' for Active; 'I' for Inactive)
REMARK    1  A    between atoms: C4_4  and  C5_5 
REMARK    2  A    between atoms: C5_5  and  C6_6 
REMARK    3  A    between atoms: C6_6  and  N1_7 
REMARK    4  A    between atoms: C9_10  and  C10_11 
REMARK    5  A    between atoms: C9_10  and  N2_14 
REMARK    6  A    between atoms: C10_11  and  O1_12 
REMARK       I    between atoms: N2_14  and  C11_16 
REMARK    7  A    between atoms: C11_16  and  C12_18 
ROOT
HETATM    1  N1  UNL     1      38.425  22.394  25.059  1.00  0.00     0.088 N 
HETATM    2  C7  UNL     1      37.978  23.326  24.085  1.00  0.00     0.275 C 
HETATM    3  C8  UNL     1      38.506  22.992  22.712  1.00  0.00     0.063 C 
HETATM    4  C9  UNL     1      37.839  21.713  22.253  1.00  0.00     0.057 C 
HETATM    5  C17 UNL     1      37.864  20.682  23.389  1.00  0.00     0.063 C 
HETATM    6  C18 UNL     1      38.752  21.097  24.527  1.00  0.00     0.275 C 
ENDROOT
BRANCH   4   7
HETATM    7  C10 UNL     1      36.390  21.905  21.931  1.00  0.00     0.195 C 
BRANCH   7   8
HETATM    8  O1  UNL     1      35.539  20.892  22.234  1.00  0.00    -0.398 OA
ATOM      9  H1  UNL     1      34.816  21.085  22.820  1.00  0.00     0.209 HD
ENDBRANCH   7   8
ENDBRANCH   4   7
BRANCH   4  10
HETATM   10  N2  UNL     1      38.568  21.227  21.126  1.00  0.00    -0.349 N 
HETATM   11  C11 UNL     1      38.412  20.019  20.472  1.00  0.00     0.222 C 
HETATM   12  O2  UNL     1      37.568  19.159  20.791  1.00  0.00    -0.273 OA
ATOM     13  H2  UNL     1      39.291  21.846  20.760  1.00  0.00     0.163 HD
BRANCH  11  14
HETATM   14  C12 UNL     1      39.285  19.663  19.295  1.00  0.00     0.078 C 
HETATM   15  C13 UNL     1      39.450  20.825  18.344  1.00  0.00     0.014 C 
HETATM   16  C14 UNL     1      38.191  20.675  17.493  1.00  0.00     0.001 C 
HETATM   17  C15 UNL     1      38.275  19.198  17.133  1.00  0.00     0.001 C 
HETATM   18  C16 UNL     1      38.577  18.574  18.477  1.00  0.00     0.014 C 
ENDBRANCH  11  14
ENDBRANCH   4  10
BRANCH   1  19
HETATM   19  C6  UNL     1      39.474  22.846  25.927  1.00  0.00     0.276 C 
BRANCH  19  20
HETATM   20  C5  UNL     1      39.090  24.145  26.594  1.00  0.00     0.057 C 
BRANCH  20  21
HETATM   21  C4  UNL     1      40.039  25.195  26.185  1.00  0.00    -0.023 C 
HETATM   22  C2  UNL     1      40.420  26.130  27.032  1.00  0.00    -0.091 C 
HETATM   23  C1  UNL     1      41.389  27.187  26.583  1.00  0.00     0.042 C 
HETATM   24  C3  UNL     1      39.881  26.115  28.415  1.00  0.00     0.042 C 
ENDBRANCH  20  21
ENDBRANCH  19  20
ENDBRANCH   1  19
TORSDOF 7
ENDMDL
MODEL 2
REMARK VINA RESULT: -6.836113861      1.814      2.264
REMARK  7 active torsions:
REMARK  status: ('A' for Active; 'I' for Inactive)
REMARK    1  A    between atoms: C4_4  and  C5_5 
REMARK    2  A    between atoms: C5_5  and  C6_6 
REMARK    3  A    between atoms: C6_6  and  N1_7 
REMARK    4  A    between atoms: C9_10  and  C10_11 
REMARK    5  A    between atoms: C9_10  and  N2_14 
REMARK    6  A    between atoms: C10_11  and  O1_12 
REMARK       I    between atoms: N2_14  and  C11_16 
REMARK    7  A    between atoms: C11_16  and  C12_18 
ROOT
HETATM    1  N1  UNL     1      38.423  22.837  24.188  1.00  0.00     0.088 N 
HETATM    2  C7  UNL     1      38.061  23.086  22.838  1.00  0.00     0.275 C 
HETATM    3  C8  UNL     1      38.576  22.008  21.917  1.00  0.00     0.063 C 
HETATM    4  C9  UNL     1      37.817  20.734  22.216  1.00  0.00     0.057 C 
HETATM    5  C17 UNL     1      37.748  20.519  23.733  1.00  0.00     0.063 C 
HETATM    6  C18 UNL     1      38.654  21.448  24.491  1.00  0.00     0.275 C 
ENDROOT
BRANCH   4   7
HETATM    7  C10 UNL     1      36.391  20.796  21.765  1.00  0.00     0.195 C 
BRANCH   7   8
HETATM    8  O1  UNL     1      35.495  21.394  22.594  1.00  0.00    -0.398 OA
ATOM      9  H1  UNL     1      34.614  21.039  22.617  1.00  0.00     0.209 HD
ENDBRANCH   7   8
ENDBRANCH   4   7
BRANCH   4  10
HETATM   10  N2  UNL     1      38.518  19.658  21.593  1.00  0.00    -0.349 N 
HETATM   11  C11 UNL     1      38.446  18.310  21.898  1.00  0.00     0.222 C 
HETATM   12  O2  UNL     1      37.719  17.837  22.792  1.00  0.00    -0.273 OA
ATOM     13  H2  UNL     1      39.147  19.913  20.833  1.00  0.00     0.163 HD
BRANCH  11  14
HETATM   14  C12 UNL     1      39.274  17.305  21.138  1.00  0.00     0.078 C 
HETATM   15  C13 UNL     1      39.018  17.375  19.650  1.00  0.00     0.014 C 
HETATM   16  C14 UNL     1      37.780  16.487  19.535  1.00  0.00     0.001 C 
HETATM   17  C15 UNL     1      38.244  15.263  20.312  1.00  0.00     0.001 C 
HETATM   18  C16 UNL     1      38.831  15.896  21.554  1.00  0.00     0.014 C 
ENDBRANCH  11  14
ENDBRANCH   4  10
BRANCH   1  19
HETATM   19  C6  UNL     1      39.494  23.635  24.710  1.00  0.00     0.276 C 
BRANCH  19  20
HETATM   20  C5  UNL     1      39.096  24.266  26.024  1.00  0.00     0.057 C 
BRANCH  20  21
HETATM   21  C4  UNL     1      39.956  25.435  26.278  1.00  0.00    -0.023 C 
HETATM   22  C2  UNL     1      40.046  25.960  27.483  1.00  0.00    -0.091 C 
HETATM   23  C1  UNL     1      40.931  27.153  27.708  1.00  0.00     0.042 C 
HETATM   24  C3  UNL     1      39.267  25.357  28.593  1.00  0.00     0.042 C 
ENDBRANCH  20  21
ENDBRANCH  19  20
ENDBRANCH   1  19
TORSDOF 7
ENDMDL
MODEL 3
REMARK VINA RESULT: -6.795662734      0.946      1.135
REMARK  7 active torsions:
REMARK  status: ('A' for Active; 'I' for Inactive)
REMARK    1  A    between atoms: C4_4  and  C5_5 
REMARK    2  A    between atoms: C5_5  and  C6_6 
REMARK    3  A    between atoms: C6_6  and  N1_7 
REMARK    4  A    between atoms: C9_10  and  C10_11 
REMARK    5  A    between atoms: C9_10  and  N2_14 
REMARK    6  A    between atoms: C10_11  and  O1_12 
REMARK       I    between atoms: N2_14  and  C11_16 
REMARK    7  A    between atoms: C11_16  and  C12_18 
ROOT
HETATM    1  N1  UNL     1      38.427  22.360  24.989  1.00  0.00     0.088 N 
HETATM    2  C7  UNL     1      37.944  23.281  24.022  1.00  0.00     0.275 C 
HETATM    3  C8  UNL     1      38.418  22.929  22.633  1.00  0.00     0.063 C 
HETATM    4  C9  UNL     1      37.732  21.646  22.216  1.00  0.00     0.057 C 
HETATM    5  C17 UNL     1      37.798  20.629  23.363  1.00  0.00     0.063 C 
HETATM    6  C18 UNL     1      38.731  21.055  24.461  1.00  0.00     0.275 C 
ENDROOT
BRANCH   4   7
HETATM    7  C10 UNL     1      36.272  21.837  21.948  1.00  0.00     0.195 C 
BRANCH   7   8
HETATM    8  O1  UNL     1      35.484  20.730  21.936  1.00  0.00    -0.398 OA
ATOM      9  H1  UNL     1      35.532  20.164  21.175  1.00  0.00     0.209 HD
ENDBRANCH   7   8
ENDBRANCH   4   7
BRANCH   4  10
HETATM   10  N2  UNL     1      38.415  21.144  21.068  1.00  0.00    -0.349 N 
HETATM   11  C11 UNL     1      38.455  21.692  19.799  1.00  0.00     0.222 C 
HETATM   12  O2  UNL     1      37.878  22.749  19.479  1.00  0.00    -0.273 OA
ATOM     13  H2  UNL     1      38.937  20.279  21.200  1.00  0.00     0.163 HD
BRANCH  11  14
HETATM   14  C12 UNL     1      39.225  21.016  18.693  1.00  0.00     0.078 C 
HETATM   15  C13 UNL     1      38.382  20.830  17.453  1.00  0.00     0.014 C 
HETATM   16  C14 UNL     1      37.664  19.525  17.792  1.00  0.00     0.001 C 
HETATM   17  C15 UNL     1      38.844  18.662  18.215  1.00  0.00     0.001 C 
HETATM   18  C16 UNL     1      39.583  19.595  19.149  1.00  0.00     0.014 C 
ENDBRANCH  11  14
ENDBRANCH   4  10
BRANCH   1  19
HETATM   19  C6  UNL     1      39.509  22.820  25.810  1.00  0.00     0.276 C 
BRANCH  19  20
HETATM   20  C5  UNL     1      39.126  24.089  26.533  1.00  0.00     0.057 C 
BRANCH  20  21
HETATM   21  C4  UNL     1      40.060  25.162  26.151  1.00  0.00    -0.023 C 
HETATM   22  C2  UNL     1      40.423  26.086  27.018  1.00  0.00    -0.091 C 
HETATM   23  C1  UNL     1      41.377  27.166  26.596  1.00  0.00     0.042 C 
HETATM   24  C3  UNL     1      39.878  26.033  28.398  1.00  0.00     0.042 C 
ENDBRANCH  20  21
ENDBRANCH  19  20
ENDBRANCH   1  19
TORSDOF 7
ENDMDL
MODEL 4
REMARK VINA RESULT: -6.721625753      1.823      2.648
REMARK  7 active torsions:
REMARK  status: ('A' for Active; 'I' for Inactive)
REMARK    1  A    between atoms: C4_4  and  C5_5 
REMARK    2  A    between atoms: C5_5  and  C6_6 
REMARK    3  A    between atoms: C6_6  and  N1_7 
REMARK    4  A    between atoms: C9_10  and  C10_11 
REMARK    5  A    between atoms: C9_10  and  N2_14 
REMARK    6  A    between atoms: C10_11  and  O1_12 
REMARK       I    between atoms: N2_14  and  C11_16 
REMARK    7  A    between atoms: C11_16  and  C12_18 
ROOT
HETATM    1  N1  UNL     1      37.407  23.153  23.659  1.00  0.00     0.088 N 
HETATM    2  C7  UNL     1      38.555  23.253  22.829  1.00  0.00     0.275 C 
HETATM    3  C8  UNL     1      38.769  21.997  22.023  1.00  0.00     0.063 C 
HETATM    4  C9  UNL     1      37.653  21.897  21.006  1.00  0.00     0.057 C 
HETATM    5  C17 UNL     1      36.309  22.188  21.685  1.00  0.00     0.063 C 
HETATM    6  C18 UNL     1      36.414  22.226  23.182  1.00  0.00     0.275 C 
ENDROOT
BRANCH   4   7
HETATM    7  C10 UNL     1      37.773  22.921  19.921  1.00  0.00     0.195 C 
BRANCH   7   8
HETATM    8  O1  UNL     1      39.023  23.307  19.556  1.00  0.00    -0.398 OA
ATOM      9  H1  UNL     1      39.250  24.224  19.666  1.00  0.00     0.209 HD
ENDBRANCH   7   8
ENDBRANCH   4   7
BRANCH   4  10
HETATM   10  N2  UNL     1      37.666  20.570  20.479  1.00  0.00    -0.349 N 
HETATM   11  C11 UNL     1      38.627  19.987  19.673  1.00  0.00     0.222 C 
HETATM   12  O2  UNL     1      39.660  20.570  19.289  1.00  0.00    -0.273 OA
ATOM     13  H2  UNL     1      36.871  19.982  20.728  1.00  0.00     0.163 HD
BRANCH  11  14
HETATM   14  C12 UNL     1      38.471  18.566  19.196  1.00  0.00     0.078 C 
HETATM   15  C13 UNL     1      38.049  17.640  20.314  1.00  0.00     0.014 C 
HETATM   16  C14 UNL     1      39.404  17.314  20.938  1.00  0.00     0.001 C 
HETATM   17  C15 UNL     1      40.193  16.924  19.697  1.00  0.00     0.001 C 
HETATM   18  C16 UNL     1      39.845  18.050  18.749  1.00  0.00     0.014 C 
ENDBRANCH  11  14
ENDBRANCH   4  10
BRANCH   1  19
HETATM   19  C6  UNL     1      37.657  22.929  25.054  1.00  0.00     0.276 C 
BRANCH  19  20
HETATM   20  C5  UNL     1      39.021  23.448  25.440  1.00  0.00     0.057 C 
BRANCH  20  21
HETATM   21  C4  UNL     1      38.970  23.958  26.821  1.00  0.00    -0.023 C 
HETATM   22  C2  UNL     1      39.609  25.059  27.161  1.00  0.00    -0.091 C 
HETATM   23  C1  UNL     1      39.537  25.552  28.578  1.00  0.00     0.042 C 
HETATM   24  C3  UNL     1      40.387  25.790  26.129  1.00  0.00     0.042 C 
ENDBRANCH  20  21
ENDBRANCH  19  20
ENDBRANCH   1  19
TORSDOF 7
ENDMDL
MODEL 5
REMARK VINA RESULT: -6.678129400      2.143      7.594
REMARK  7 active torsions:
REMARK  status: ('A' for Active; 'I' for Inactive)
REMARK    1  A    between atoms: C4_4  and  C5_5 
REMARK    2  A    between atoms: C5_5  and  C6_6 
REMARK    3  A    between atoms: C6_6  and  N1_7 
REMARK    4  A    between atoms: C9_10  and  C10_11 
REMARK    5  A    between atoms: C9_10  and  N2_14 
REMARK    6  A    between atoms: C10_11  and  O1_12 
REMARK       I    between atoms: N2_14  and  C11_16 
REMARK    7  A    between atoms: C11_16  and  C12_18 
ROOT
HETATM    1  N1  UNL     1      37.252  21.385  19.792  1.00  0.00     0.088 N 
HETATM    2  C7  UNL     1      36.383  21.553  20.902  1.00  0.00     0.275 C 
HETATM    3  C8  UNL     1      37.145  21.898  22.157  1.00  0.00     0.063 C 
HETATM    4  C9  UNL     1      37.715  23.290  21.991  1.00  0.00     0.057 C 
HETATM    5  C17 UNL     1      38.361  23.420  20.605  1.00  0.00     0.063 C 
HETATM    6  C18 UNL     1      38.498  22.099  19.905  1.00  0.00     0.275 C 
ENDROOT
BRANCH   4   7
HETATM    7  C10 UNL     1      36.661  24.351  22.032  1.00  0.00     0.195 C 
BRANCH   7   8
HETATM    8  O1  UNL     1      35.684  24.231  22.969  1.00  0.00    -0.398 OA
ATOM      9  H1  UNL     1      35.508  24.985  23.519  1.00  0.00     0.209 HD
ENDBRANCH   7   8
ENDBRANCH   4   7
BRANCH   4  10
HETATM   10  N2  UNL     1      38.692  23.481  23.014  1.00  0.00    -0.349 N 
HETATM   11  C11 UNL     1      38.520  23.371  24.382  1.00  0.00     0.222 C 
HETATM   12  O2  UNL     1      37.440  23.068  24.925  1.00  0.00    -0.273 OA
ATOM     13  H2  UNL     1      39.630  23.728  22.698  1.00  0.00     0.163 HD
BRANCH  11  14
HETATM   14  C12 UNL     1      39.670  23.621  25.324  1.00  0.00     0.078 C 
HETATM   15  C13 UNL     1      39.621  22.708  26.527  1.00  0.00     0.014 C 
HETATM   16  C14 UNL     1      38.669  23.486  27.434  1.00  0.00     0.001 C 
HETATM   17  C15 UNL     1      39.304  24.869  27.379  1.00  0.00     0.001 C 
HETATM   18  C16 UNL     1      39.532  25.039  25.893  1.00  0.00     0.014 C 
ENDBRANCH  11  14
ENDBRANCH   4  10
BRANCH   1  19
HETATM   19  C6  UNL     1      37.499  20.032  19.385  1.00  0.00     0.276 C 
BRANCH  19  20
HETATM   20  C5  UNL     1      38.800  19.531  19.963  1.00  0.00     0.057 C 
BRANCH  20  21
HETATM   21  C4  UNL     1      38.530  18.367  20.824  1.00  0.00    -0.023 C 
HETATM   22  C2  UNL     1      39.230  17.257  20.703  1.00  0.00    -0.091 C 
HETATM   23  C1  UNL     1      38.928  16.088  21.596  1.00  0.00     0.042 C 
HETATM   24  C3  UNL     1      40.306  17.191  19.682  1.00  0.00     0.042 C 
ENDBRANCH  20  21
ENDBRANCH  19  20
ENDBRANCH   1  19
TORSDOF 7
ENDMDL
