MODEL 1
REMARK VINA RESULT: -6.600321397      0.000      0.000
REMARK  8 active torsions:
REMARK  status: ('A' for Active; 'I' for Inactive)
REMARK    1  A    between atoms: C2_2  and  C3_3 
REMARK    2  A    between atoms: C3_3  and  C4_4 
REMARK    3  A    between atoms: C4_4  and  C5_5 
REMARK    4  A    between atoms: C5_5  and  C6_6 
REMARK    5  A    between atoms: C6_6  and  C7_7 
REMARK    6  A    between atoms: C9_12  and  C10_13 
REMARK    7  A    between atoms: C10_13  and  C11_14 
REMARK    8  A    between atoms: C21_30  and  C22_31 
ROOT
HETATM    1  C7  UNL     1      41.151 -21.696  28.979  1.00  0.00     0.176 C 
HETATM    2  N1  UNL     1      40.075 -20.715  28.876  1.00  0.00    -0.346 N 
ATOM      3  H1  UNL     1      40.110 -19.910  29.502  1.00  0.00     0.163 HD
HETATM    4  C8  UNL     1      38.986 -20.794  27.975  1.00  0.00     0.241 C 
HETATM    5  O1  UNL     1      37.850 -20.430  28.377  1.00  0.00    -0.271 OA
HETATM    6  C9  UNL     1      39.054 -21.275  26.571  1.00  0.00     0.177 C 
HETATM    7  N2  UNL     1      37.865 -22.006  26.190  1.00  0.00    -0.348 N 
ATOM      8  H2  UNL     1      36.965 -21.546  26.329  1.00  0.00     0.163 HD
HETATM    9  C14 UNL     1      37.851 -23.295  25.645  1.00  0.00     0.218 C 
HETATM   10  O2  UNL     1      36.739 -23.771  25.224  1.00  0.00    -0.274 OA
HETATM   11  C15 UNL     1      39.028 -24.192  25.501  1.00  0.00     0.103 C 
HETATM   12  C16 UNL     1      38.886 -25.291  26.528  1.00  0.00     0.009 C 
HETATM   13  C17 UNL     1      39.777 -26.468  26.244  1.00  0.00     0.002 C 
HETATM   14  C18 UNL     1      40.993 -26.123  25.438  1.00  0.00     0.020 C 
HETATM   15  C19 UNL     1      42.159 -25.673  26.280  1.00  0.00     0.122 C 
HETATM   16  N3  UNL     1      42.186 -26.401  27.529  1.00  0.00    -0.359 N 
ATOM     17  H3  UNL     1      42.282 -27.415  27.481  1.00  0.00     0.162 HD
HETATM   18  C20 UNL     1      42.090 -25.823  28.795  1.00  0.00     0.240 C 
HETATM   19  O3  UNL     1      41.495 -26.420  29.728  1.00  0.00    -0.271 OA
HETATM   20  C21 UNL     1      42.672 -24.476  29.149  1.00  0.00     0.176 C 
HETATM   21  N4  UNL     1      41.788 -23.843  30.108  1.00  0.00    -0.346 N 
ATOM     22  H4  UNL     1      41.860 -24.137  31.082  1.00  0.00     0.163 HD
HETATM   23  C24 UNL     1      40.837 -22.851  29.797  1.00  0.00     0.241 C 
HETATM   24  O4  UNL     1      39.664 -22.998  30.261  1.00  0.00    -0.271 OA
ENDROOT
BRANCH   1  25
HETATM   25  C6  UNL     1      42.456 -21.011  29.261  1.00  0.00     0.035 C 
BRANCH  25  26
HETATM   26  C5  UNL     1      43.432 -20.933  28.152  1.00  0.00     0.002 C 
BRANCH  26  27
HETATM   27  C4  UNL     1      44.847 -21.277  28.469  1.00  0.00     0.000 C 
BRANCH  27  28
HETATM   28  C3  UNL     1      45.579 -20.030  28.962  1.00  0.00    -0.000 C 
BRANCH  28  29
HETATM   29  C2  UNL     1      45.683 -19.941  30.446  1.00  0.00    -0.005 C 
HETATM   30  C1  UNL     1      46.780 -20.913  30.868  1.00  0.00     0.005 C 
ENDBRANCH  28  29
ENDBRANCH  27  28
ENDBRANCH  26  27
ENDBRANCH  25  26
ENDBRANCH   1  25
BRANCH   6  31
HETATM   31  C10 UNL     1      39.031 -19.998  25.717  1.00  0.00     0.038 C 
BRANCH  31  32
HETATM   32  C11 UNL     1      40.220 -19.129  25.944  1.00  0.00    -0.020 C 
HETATM   33  C12 UNL     1      41.389 -19.828  25.235  1.00  0.00     0.009 C 
HETATM   34  C13 UNL     1      40.121 -17.767  25.328  1.00  0.00     0.009 C 
ENDBRANCH  31  32
ENDBRANCH   6  31
BRANCH  20  35
HETATM   35  C22 UNL     1      44.019 -24.811  29.806  1.00  0.00     0.030 C 
HETATM   36  C23 UNL     1      44.242 -23.951  31.019  1.00  0.00     0.007 C 
ENDBRANCH  20  35
TORSDOF 8
ENDMDL
MODEL 2
REMARK VINA RESULT: -6.591447517      3.584      7.696
REMARK  8 active torsions:
REMARK  status: ('A' for Active; 'I' for Inactive)
REMARK    1  A    between atoms: C2_2  and  C3_3 
REMARK    2  A    between atoms: C3_3  and  C4_4 
REMARK    3  A    between atoms: C4_4  and  C5_5 
REMARK    4  A    between atoms: C5_5  and  C6_6 
REMARK    5  A    between atoms: C6_6  and  C7_7 
REMARK    6  A    between atoms: C9_12  and  C10_13 
REMARK    7  A    between atoms: C10_13  and  C11_14 
REMARK    8  A    between atoms: C21_30  and  C22_31 
ROOT
HETATM    1  C7  UNL     1      38.105 -22.587  25.814  1.00  0.00     0.176 C 
HETATM    2  N1  UNL     1      38.525 -22.007  27.086  1.00  0.00    -0.346 N 
ATOM      3  H1  UNL     1      38.746 -22.649  27.846  1.00  0.00     0.163 HD
HETATM    4  C8  UNL     1      38.650 -20.620  27.345  1.00  0.00     0.241 C 
HETATM    5  O1  UNL     1      38.297 -20.190  28.474  1.00  0.00    -0.271 OA
HETATM    6  C9  UNL     1      39.167 -19.602  26.395  1.00  0.00     0.177 C 
HETATM    7  N2  UNL     1      38.471 -18.339  26.521  1.00  0.00    -0.348 N 
ATOM      8  H2  UNL     1      38.425 -17.919  27.450  1.00  0.00     0.163 HD
HETATM    9  C14 UNL     1      37.856 -17.649  25.471  1.00  0.00     0.218 C 
HETATM   10  O2  UNL     1      37.396 -16.475  25.695  1.00  0.00    -0.274 OA
HETATM   11  C15 UNL     1      37.679 -18.153  24.083  1.00  0.00     0.103 C 
HETATM   12  C16 UNL     1      36.215 -18.482  23.906  1.00  0.00     0.009 C 
HETATM   13  C17 UNL     1      35.824 -18.624  22.462  1.00  0.00     0.002 C 
HETATM   14  C18 UNL     1      36.961 -19.009  21.564  1.00  0.00     0.020 C 
HETATM   15  C19 UNL     1      37.168 -20.499  21.469  1.00  0.00     0.122 C 
HETATM   16  N3  UNL     1      35.896 -21.186  21.517  1.00  0.00    -0.359 N 
ATOM     17  H3  UNL     1      35.219 -20.974  20.784  1.00  0.00     0.162 HD
HETATM   18  C20 UNL     1      35.524 -22.115  22.488  1.00  0.00     0.240 C 
HETATM   19  O3  UNL     1      34.331 -22.186  22.882  1.00  0.00    -0.271 OA
HETATM   20  C21 UNL     1      36.482 -23.086  23.132  1.00  0.00     0.176 C 
HETATM   21  N4  UNL     1      36.075 -23.272  24.511  1.00  0.00    -0.346 N 
ATOM     22  H4  UNL     1      35.299 -23.909  24.691  1.00  0.00     0.163 HD
HETATM   23  C24 UNL     1      36.669 -22.641  25.621  1.00  0.00     0.241 C 
HETATM   24  O4  UNL     1      35.896 -22.103  26.472  1.00  0.00    -0.271 OA
ENDROOT
BRANCH   1  25
HETATM   25  C6  UNL     1      38.865 -23.852  25.541  1.00  0.00     0.035 C 
BRANCH  25  26
HETATM   26  C5  UNL     1      38.556 -25.023  26.393  1.00  0.00     0.002 C 
BRANCH  26  27
HETATM   27  C4  UNL     1      38.531 -26.356  25.728  1.00  0.00     0.000 C 
BRANCH  27  28
HETATM   28  C3  UNL     1      37.095 -26.711  25.347  1.00  0.00    -0.000 C 
BRANCH  28  29
HETATM   29  C2  UNL     1      36.983 -27.482  24.076  1.00  0.00    -0.005 C 
HETATM   30  C1  UNL     1      38.370 -27.482  23.440  1.00  0.00     0.005 C 
ENDBRANCH  28  29
ENDBRANCH  27  28
ENDBRANCH  26  27
ENDBRANCH  25  26
ENDBRANCH   1  25
BRANCH   6  31
HETATM   31  C10 UNL     1      40.602 -19.319  26.865  1.00  0.00     0.038 C 
BRANCH  31  32
HETATM   32  C11 UNL     1      41.621 -19.607  25.817  1.00  0.00    -0.020 C 
HETATM   33  C12 UNL     1      42.323 -20.898  26.261  1.00  0.00     0.009 C 
HETATM   34  C13 UNL     1      41.052 -19.892  24.460  1.00  0.00     0.009 C 
ENDBRANCH  31  32
ENDBRANCH   6  31
BRANCH  20  35
HETATM   35  C22 UNL     1      36.289 -24.386  22.338  1.00  0.00     0.030 C 
HETATM   36  C23 UNL     1      37.412 -24.577  21.358  1.00  0.00     0.007 C 
ENDBRANCH  20  35
TORSDOF 8
ENDMDL
MODEL 3
REMARK VINA RESULT: -6.468549041      3.944      7.089
REMARK  8 active torsions:
REMARK  status: ('A' for Active; 'I' for Inactive)
REMARK    1  A    between atoms: C2_2  and  C3_3 
REMARK    2  A    between atoms: C3_3  and  C4_4 
REMARK    3  A    between atoms: C4_4  and  C5_5 
REMARK    4  A    between atoms: C5_5  and  C6_6 
REMARK    5  A    between atoms: C6_6  and  C7_7 
REMARK    6  A    between atoms: C9_12  and  C10_13 
REMARK    7  A    between atoms: C10_13  and  C11_14 
REMARK    8  A    between atoms: C21_30  and  C22_31 
ROOT
HETATM    1  C7  UNL     1      38.443 -17.235  25.608  1.00  0.00     0.176 C 
HETATM    2  N1  UNL     1      37.980 -17.036  24.238  1.00  0.00    -0.346 N 
ATOM      3  H1  UNL     1      37.284 -16.309  24.078  1.00  0.00     0.163 HD
HETATM    4  C8  UNL     1      38.425 -17.775  23.115  1.00  0.00     0.241 C 
HETATM    5  O1  UNL     1      37.582 -18.083  22.233  1.00  0.00    -0.271 OA
HETATM    6  C9  UNL     1      39.817 -18.230  22.870  1.00  0.00     0.177 C 
HETATM    7  N2  UNL     1      39.859 -19.527  22.230  1.00  0.00    -0.348 N 
ATOM      8  H2  UNL     1      39.326 -19.642  21.367  1.00  0.00     0.163 HD
HETATM    9  C14 UNL     1      40.572 -20.636  22.699  1.00  0.00     0.218 C 
HETATM   10  O2  UNL     1      40.634 -21.682  21.962  1.00  0.00    -0.274 OA
HETATM   11  C15 UNL     1      41.283 -20.726  24.002  1.00  0.00     0.103 C 
HETATM   12  C16 UNL     1      40.477 -21.641  24.894  1.00  0.00     0.009 C 
HETATM   13  C17 UNL     1      41.260 -22.132  26.079  1.00  0.00     0.002 C 
HETATM   14  C18 UNL     1      42.381 -21.222  26.480  1.00  0.00     0.020 C 
HETATM   15  C19 UNL     1      41.957 -20.138  27.437  1.00  0.00     0.122 C 
HETATM   16  N3  UNL     1      40.945 -20.636  28.342  1.00  0.00    -0.359 N 
ATOM     17  H3  UNL     1      41.197 -21.423  28.942  1.00  0.00     0.162 HD
HETATM   18  C20 UNL     1      39.653 -20.125  28.459  1.00  0.00     0.240 C 
HETATM   19  O3  UNL     1      38.683 -20.887  28.706  1.00  0.00    -0.271 OA
HETATM   20  C21 UNL     1      39.311 -18.664  28.306  1.00  0.00     0.176 C 
HETATM   21  N4  UNL     1      38.004 -18.570  27.685  1.00  0.00    -0.346 N 
ATOM     22  H4  UNL     1      37.188 -18.705  28.281  1.00  0.00     0.163 HD
HETATM   23  C24 UNL     1      37.776 -18.307  26.321  1.00  0.00     0.241 C 
HETATM   24  O4  UNL     1      36.950 -19.054  25.710  1.00  0.00    -0.271 OA
ENDROOT
BRANCH   1  25
HETATM   25  C6  UNL     1      38.542 -15.918  26.322  1.00  0.00     0.035 C 
BRANCH  25  26
HETATM   26  C5  UNL     1      37.275 -15.283  26.747  1.00  0.00     0.002 C 
BRANCH  26  27
HETATM   27  C4  UNL     1      37.378 -14.119  27.672  1.00  0.00     0.000 C 
BRANCH  27  28
HETATM   28  C3  UNL     1      35.997 -13.790  28.236  1.00  0.00    -0.000 C 
BRANCH  28  29
HETATM   29  C2  UNL     1      35.456 -14.835  29.151  1.00  0.00    -0.005 C 
HETATM   30  C1  UNL     1      34.230 -14.231  29.830  1.00  0.00     0.005 C 
ENDBRANCH  28  29
ENDBRANCH  27  28
ENDBRANCH  26  27
ENDBRANCH  25  26
ENDBRANCH   1  25
BRANCH   6  31
HETATM   31  C10 UNL     1      40.374 -17.249  21.828  1.00  0.00     0.038 C 
BRANCH  31  32
HETATM   32  C11 UNL     1      41.476 -16.401  22.364  1.00  0.00    -0.020 C 
HETATM   33  C12 UNL     1      42.176 -15.801  21.137  1.00  0.00     0.009 C 
HETATM   34  C13 UNL     1      41.018 -15.235  23.187  1.00  0.00     0.009 C 
ENDBRANCH  31  32
ENDBRANCH   6  31
BRANCH  20  35
HETATM   35  C22 UNL     1      39.255 -18.139  29.748  1.00  0.00     0.030 C 
HETATM   36  C23 UNL     1      38.114 -17.175  29.914  1.00  0.00     0.007 C 
ENDBRANCH  20  35
TORSDOF 8
ENDMDL
MODEL 4
REMARK VINA RESULT: -6.378609753      2.587      7.796
REMARK  8 active torsions:
REMARK  status: ('A' for Active; 'I' for Inactive)
REMARK    1  A    between atoms: C2_2  and  C3_3 
REMARK    2  A    between atoms: C3_3  and  C4_4 
REMARK    3  A    between atoms: C4_4  and  C5_5 
REMARK    4  A    between atoms: C5_5  and  C6_6 
REMARK    5  A    between atoms: C6_6  and  C7_7 
REMARK    6  A    between atoms: C9_12  and  C10_13 
REMARK    7  A    between atoms: C10_13  and  C11_14 
REMARK    8  A    between atoms: C21_30  and  C22_31 
ROOT
HETATM    1  C7  UNL     1      39.366 -21.812  25.917  1.00  0.00     0.176 C 
HETATM    2  N1  UNL     1      39.627 -22.514  27.171  1.00  0.00    -0.346 N 
ATOM      3  H1  UNL     1      39.651 -23.533  27.144  1.00  0.00     0.163 HD
HETATM    4  C8  UNL     1      39.850 -21.887  28.421  1.00  0.00     0.241 C 
HETATM    5  O1  UNL     1      39.361 -22.422  29.451  1.00  0.00    -0.271 OA
HETATM    6  C9  UNL     1      40.620 -20.637  28.642  1.00  0.00     0.177 C 
HETATM    7  N2  UNL     1      40.047 -19.826  29.694  1.00  0.00    -0.348 N 
ATOM      8  H2  UNL     1      39.891 -20.271  30.599  1.00  0.00     0.163 HD
HETATM    9  C14 UNL     1      39.690 -18.478  29.570  1.00  0.00     0.218 C 
HETATM   10  O2  UNL     1      39.322 -17.842  30.620  1.00  0.00    -0.274 OA
HETATM   11  C15 UNL     1      39.694 -17.689  28.310  1.00  0.00     0.103 C 
HETATM   12  C16 UNL     1      38.254 -17.469  27.910  1.00  0.00     0.009 C 
HETATM   13  C17 UNL     1      38.095 -16.374  26.893  1.00  0.00     0.002 C 
HETATM   14  C18 UNL     1      39.319 -16.143  26.060  1.00  0.00     0.020 C 
HETATM   15  C19 UNL     1      39.384 -17.021  24.837  1.00  0.00     0.122 C 
HETATM   16  N3  UNL     1      38.058 -17.231  24.301  1.00  0.00    -0.359 N 
ATOM     17  H3  UNL     1      37.537 -16.408  23.997  1.00  0.00     0.162 HD
HETATM   18  C20 UNL     1      37.436 -18.472  24.166  1.00  0.00     0.240 C 
HETATM   19  O3  UNL     1      36.193 -18.586  24.329  1.00  0.00    -0.271 OA
HETATM   20  C21 UNL     1      38.168 -19.746  23.826  1.00  0.00     0.176 C 
HETATM   21  N4  UNL     1      37.520 -20.838  24.526  1.00  0.00    -0.346 N 
ATOM     22  H4  UNL     1      36.664 -21.215  24.122  1.00  0.00     0.163 HD
HETATM   23  C24 UNL     1      37.984 -21.418  25.723  1.00  0.00     0.241 C 
HETATM   24  O4  UNL     1      37.140 -21.591  26.656  1.00  0.00    -0.271 OA
ENDROOT
BRANCH   1  25
HETATM   25  C6  UNL     1      40.026 -22.525  24.773  1.00  0.00     0.035 C 
BRANCH  25  26
HETATM   26  C5  UNL     1      39.709 -23.960  24.599  1.00  0.00     0.002 C 
BRANCH  26  27
HETATM   27  C4  UNL     1      38.763 -24.317  23.504  1.00  0.00     0.000 C 
BRANCH  27  28
HETATM   28  C3  UNL     1      37.416 -24.720  24.102  1.00  0.00    -0.000 C 
BRANCH  28  29
HETATM   29  C2  UNL     1      37.508 -25.237  25.497  1.00  0.00    -0.005 C 
HETATM   30  C1  UNL     1      37.339 -26.751  25.414  1.00  0.00     0.005 C 
ENDBRANCH  28  29
ENDBRANCH  27  28
ENDBRANCH  26  27
ENDBRANCH  25  26
ENDBRANCH   1  25
BRANCH   6  31
HETATM   31  C10 UNL     1      41.978 -21.103  29.188  1.00  0.00     0.038 C 
BRANCH  31  32
HETATM   32  C11 UNL     1      43.127 -20.375  28.578  1.00  0.00    -0.020 C 
HETATM   33  C12 UNL     1      44.363 -20.796  29.383  1.00  0.00     0.009 C 
HETATM   34  C13 UNL     1      43.414 -20.750  27.155  1.00  0.00     0.009 C 
ENDBRANCH  31  32
ENDBRANCH   6  31
BRANCH  20  35
HETATM   35  C22 UNL     1      37.976 -19.896  22.310  1.00  0.00     0.030 C 
HETATM   36  C23 UNL     1      37.271 -21.185  21.994  1.00  0.00     0.007 C 
ENDBRANCH  20  35
TORSDOF 8
ENDMDL
MODEL 5
REMARK VINA RESULT: -6.350676063      2.541      4.107
REMARK  8 active torsions:
REMARK  status: ('A' for Active; 'I' for Inactive)
REMARK    1  A    between atoms: C2_2  and  C3_3 
REMARK    2  A    between atoms: C3_3  and  C4_4 
REMARK    3  A    between atoms: C4_4  and  C5_5 
REMARK    4  A    between atoms: C5_5  and  C6_6 
REMARK    5  A    between atoms: C6_6  and  C7_7 
REMARK    6  A    between atoms: C9_12  and  C10_13 
REMARK    7  A    between atoms: C10_13  and  C11_14 
REMARK    8  A    between atoms: C21_30  and  C22_31 
ROOT
HETATM    1  C7  UNL     1      39.704 -19.742  27.418  1.00  0.00     0.176 C 
HETATM    2  N1  UNL     1      39.087 -18.458  27.735  1.00  0.00    -0.346 N 
ATOM      3  H1  UNL     1      39.301 -18.043  28.641  1.00  0.00     0.163 HD
HETATM    4  C8  UNL     1      38.214 -17.743  26.879  1.00  0.00     0.241 C 
HETATM    5  O1  UNL     1      37.234 -17.143  27.392  1.00  0.00    -0.271 OA
HETATM    6  C9  UNL     1      38.345 -17.629  25.403  1.00  0.00     0.177 C 
HETATM    7  N2  UNL     1      37.057 -17.618  24.744  1.00  0.00    -0.348 N 
ATOM      8  H2  UNL     1      36.373 -16.930  25.061  1.00  0.00     0.163 HD
HETATM    9  C14 UNL     1      36.675 -18.475  23.706  1.00  0.00     0.218 C 
HETATM   10  O2  UNL     1      35.556 -18.267  23.119  1.00  0.00    -0.274 OA
HETATM   11  C15 UNL     1      37.457 -19.635  23.203  1.00  0.00     0.103 C 
HETATM   12  C16 UNL     1      36.756 -20.889  23.669  1.00  0.00     0.009 C 
HETATM   13  C17 UNL     1      37.199 -22.114  22.919  1.00  0.00     0.002 C 
HETATM   14  C18 UNL     1      38.577 -22.000  22.340  1.00  0.00     0.020 C 
HETATM   15  C19 UNL     1      39.664 -22.414  23.298  1.00  0.00     0.122 C 
HETATM   16  N3  UNL     1      39.213 -23.512  24.124  1.00  0.00    -0.359 N 
ATOM     17  H3  UNL     1      38.945 -24.376  23.652  1.00  0.00     0.162 HD
HETATM   18  C20 UNL     1      39.116 -23.481  25.515  1.00  0.00     0.240 C 
HETATM   19  O3  UNL     1      38.194 -24.100  26.106  1.00  0.00    -0.271 OA
HETATM   20  C21 UNL     1      40.072 -22.728  26.406  1.00  0.00     0.176 C 
HETATM   21  N4  UNL     1      39.324 -22.218  27.539  1.00  0.00    -0.346 N 
ATOM     22  H4  UNL     1      39.117 -22.867  28.298  1.00  0.00     0.163 HD
HETATM   23  C24 UNL     1      38.861 -20.895  27.671  1.00  0.00     0.241 C 
HETATM   24  O4  UNL     1      37.652 -20.729  28.024  1.00  0.00    -0.271 OA
ENDROOT
BRANCH   1  25
HETATM   25  C6  UNL     1      41.099 -19.801  27.969  1.00  0.00     0.035 C 
BRANCH  25  26
HETATM   26  C5  UNL     1      42.200 -20.000  27.001  1.00  0.00     0.002 C 
BRANCH  26  27
HETATM   27  C4  UNL     1      43.400 -20.740  27.483  1.00  0.00     0.000 C 
BRANCH  27  28
HETATM   28  C3  UNL     1      43.450 -20.697  29.009  1.00  0.00    -0.000 C 
BRANCH  28  29
HETATM   29  C2  UNL     1      44.790 -20.347  29.558  1.00  0.00    -0.005 C 
HETATM   30  C1  UNL     1      45.708 -20.118  28.361  1.00  0.00     0.005 C 
ENDBRANCH  28  29
ENDBRANCH  27  28
ENDBRANCH  26  27
ENDBRANCH  25  26
ENDBRANCH   1  25
BRANCH   6  31
HETATM   31  C10 UNL     1      38.929 -16.228  25.168  1.00  0.00     0.038 C 
BRANCH  31  32
HETATM   32  C11 UNL     1      40.390 -16.252  24.878  1.00  0.00    -0.020 C 
HETATM   33  C12 UNL     1      40.645 -17.565  24.125  1.00  0.00     0.009 C 
HETATM   34  C13 UNL     1      40.861 -15.158  23.967  1.00  0.00     0.009 C 
ENDBRANCH  31  32
ENDBRANCH   6  31
BRANCH  20  35
HETATM   35  C22 UNL     1      41.075 -23.796  26.867  1.00  0.00     0.030 C 
HETATM   36  C23 UNL     1      41.264 -23.733  28.356  1.00  0.00     0.007 C 
ENDBRANCH  20  35
TORSDOF 8
ENDMDL
