MODEL 1
REMARK VINA RESULT: -8.138810093      0.000      0.000
REMARK  10 active torsions:
REMARK  status: ('A' for Active; 'I' for Inactive)
REMARK    1  A    between atoms: C2_2  and  C3_3 
REMARK    2  A    between atoms: C3_3  and  C4_4 
REMARK    3  A    between atoms: C5_7  and  C6_8 
REMARK    4  A    between atoms: C6_8  and  C8_10 
REMARK    5  A    between atoms: C10_12  and  O1_13 
REMARK    6  A    between atoms: C13_17  and  C14_18 
REMARK    7  A    between atoms: C14_18  and  N2_19 
REMARK       I    between atoms: N2_19  and  C15_20 
REMARK    8  A    between atoms: C15_20  and  C16_22 
REMARK    9  A    between atoms: C16_22  and  C17_23 
REMARK   10  A    between atoms: C17_23  and  N3_24 
ROOT
HETATM    1  C4  UNL     1      38.194 -16.446  26.397  1.00  0.00     0.169 C 
HETATM    2  N1  UNL     1      37.106 -16.973  27.103  1.00  0.00    -0.402 N 
ATOM      3  H1  UNL     1      36.569 -17.730  26.680  1.00  0.00     0.154 HD
HETATM    4  C5  UNL     1      36.724 -16.507  28.361  1.00  0.00     0.109 C 
HETATM    5  C10 UNL     1      37.387 -17.309  29.466  1.00  0.00     0.140 C 
HETATM    6  C11 UNL     1      37.855 -18.648  28.976  1.00  0.00     0.036 C 
HETATM    7  C12 UNL     1      39.330 -18.772  29.091  1.00  0.00     0.034 C 
HETATM    8  C13 UNL     1      39.887 -19.019  27.649  1.00  0.00     0.137 C 
HETATM    9  N4  UNL     1      40.305 -17.753  27.137  1.00  0.00    -0.349 N 
ATOM     10  H4  UNL     1      41.288 -17.682  26.873  1.00  0.00     0.163 HD
HETATM   11  C25 UNL     1      39.532 -16.588  26.949  1.00  0.00     0.240 C 
HETATM   12  O3  UNL     1      40.117 -15.505  27.332  1.00  0.00    -0.271 OA
ENDROOT
BRANCH   8  13
HETATM   13  C14 UNL     1      41.026 -19.979  27.906  1.00  0.00     0.184 C 
BRANCH  13  14
HETATM   14  N2  UNL     1      40.881 -21.078  28.691  1.00  0.00    -0.386 NA
HETATM   15  C15 UNL     1      40.735 -22.201  29.492  1.00  0.00     0.292 C 
HETATM   16  O2  UNL     1      39.655 -22.645  29.901  1.00  0.00    -0.257 OA
BRANCH  15  17
HETATM   17  C16 UNL     1      41.985 -22.941  29.881  1.00  0.00     0.147 C 
BRANCH  17  18
HETATM   18  C17 UNL     1      43.043 -22.245  30.587  1.00  0.00     0.247 C 
BRANCH  18  19
HETATM   19  N3  UNL     1      44.348 -22.623  30.893  1.00  0.00    -0.070 N 
HETATM   20  C18 UNL     1      44.659 -24.013  31.082  1.00  0.00     0.272 C 
HETATM   21  C19 UNL     1      45.173 -22.283  29.674  1.00  0.00     0.237 C 
HETATM   22  C20 UNL     1      44.969 -20.891  29.214  1.00  0.00     0.028 C 
HETATM   23  C21 UNL     1      45.601 -19.910  30.181  1.00  0.00     0.002 C 
HETATM   24  C22 UNL     1      46.795 -20.565  30.843  1.00  0.00     0.002 C 
HETATM   25  C23 UNL     1      46.387 -21.595  31.855  1.00  0.00     0.028 C 
HETATM   26  C24 UNL     1      44.917 -21.814  31.984  1.00  0.00     0.237 C 
ENDBRANCH  18  19
ENDBRANCH  17  18
ENDBRANCH  15  17
ENDBRANCH  13  14
ENDBRANCH   8  13
BRANCH   5  27
HETATM   27  O1  UNL     1      38.430 -16.598  30.060  1.00  0.00    -0.394 OA
ATOM     28  H1  UNL     1      39.034 -17.176  30.512  1.00  0.00     0.210 HD
ENDBRANCH   5  27
BRANCH   1  29
HETATM   29  C3  UNL     1      38.203 -17.113  25.007  1.00  0.00     0.034 C 
BRANCH  29  30
HETATM   30  C2  UNL     1      37.258 -18.295  25.031  1.00  0.00    -0.002 C 
HETATM   31  C1  UNL     1      36.711 -18.601  23.653  1.00  0.00     0.005 C 
ENDBRANCH  29  30
ENDBRANCH   1  29
BRANCH   4  32
HETATM   32  C6  UNL     1      36.743 -15.034  28.622  1.00  0.00     0.006 C 
HETATM   33  C7  UNL     1      35.427 -14.605  29.291  1.00  0.00     0.012 C 
BRANCH  32  34
HETATM   34  C8  UNL     1      36.740 -14.309  27.279  1.00  0.00     0.002 C 
HETATM   35  C9  UNL     1      35.989 -12.996  27.427  1.00  0.00     0.005 C 
ENDBRANCH  32  34
ENDBRANCH   4  32
TORSDOF 10
ENDMDL
MODEL 2
REMARK VINA RESULT: -7.704856330      2.176      9.888
REMARK  10 active torsions:
REMARK  status: ('A' for Active; 'I' for Inactive)
REMARK    1  A    between atoms: C2_2  and  C3_3 
REMARK    2  A    between atoms: C3_3  and  C4_4 
REMARK    3  A    between atoms: C5_7  and  C6_8 
REMARK    4  A    between atoms: C6_8  and  C8_10 
REMARK    5  A    between atoms: C10_12  and  O1_13 
REMARK    6  A    between atoms: C13_17  and  C14_18 
REMARK    7  A    between atoms: C14_18  and  N2_19 
REMARK       I    between atoms: N2_19  and  C15_20 
REMARK    8  A    between atoms: C15_20  and  C16_22 
REMARK    9  A    between atoms: C16_22  and  C17_23 
REMARK   10  A    between atoms: C17_23  and  N3_24 
ROOT
HETATM    1  C4  UNL     1      45.738 -23.313  31.536  1.00  0.00     0.169 C 
HETATM    2  N1  UNL     1      46.468 -22.992  30.384  1.00  0.00    -0.402 N 
ATOM      3  H1  UNL     1      46.555 -23.694  29.650  1.00  0.00     0.154 HD
HETATM    4  C5  UNL     1      47.081 -21.753  30.200  1.00  0.00     0.109 C 
HETATM    5  C10 UNL     1      46.162 -20.792  29.467  1.00  0.00     0.140 C 
HETATM    6  C11 UNL     1      45.087 -21.518  28.713  1.00  0.00     0.036 C 
HETATM    7  C12 UNL     1      43.741 -21.159  29.226  1.00  0.00     0.034 C 
HETATM    8  C13 UNL     1      43.072 -22.481  29.731  1.00  0.00     0.137 C 
HETATM    9  N4  UNL     1      43.292 -22.553  31.141  1.00  0.00    -0.349 N 
ATOM     10  H4  UNL     1      42.455 -22.596  31.721  1.00  0.00     0.163 HD
HETATM   11  C25 UNL     1      44.523 -22.572  31.833  1.00  0.00     0.240 C 
HETATM   12  O3  UNL     1      44.547 -21.813  32.874  1.00  0.00    -0.271 OA
ENDROOT
BRANCH   8  13
HETATM   13  C14 UNL     1      41.624 -22.272  29.351  1.00  0.00     0.184 C 
BRANCH  13  14
HETATM   14  N2  UNL     1      41.035 -21.050  29.391  1.00  0.00    -0.386 NA
HETATM   15  C15 UNL     1      40.434 -19.799  29.431  1.00  0.00     0.292 C 
HETATM   16  O2  UNL     1      40.055 -19.227  30.460  1.00  0.00    -0.257 OA
BRANCH  15  17
HETATM   17  C16 UNL     1      40.243 -19.082  28.122  1.00  0.00     0.147 C 
BRANCH  17  18
HETATM   18  C17 UNL     1      39.626 -17.770  28.105  1.00  0.00     0.247 C 
BRANCH  18  19
HETATM   19  N3  UNL     1      38.581 -17.255  27.342  1.00  0.00    -0.070 N 
HETATM   20  C18 UNL     1      38.222 -17.895  26.106  1.00  0.00     0.272 C 
HETATM   21  C19 UNL     1      37.332 -17.452  28.168  1.00  0.00     0.237 C 
HETATM   22  C20 UNL     1      37.470 -16.937  29.549  1.00  0.00     0.028 C 
HETATM   23  C21 UNL     1      37.495 -15.421  29.554  1.00  0.00     0.002 C 
HETATM   24  C22 UNL     1      36.678 -14.908  28.387  1.00  0.00     0.002 C 
HETATM   25  C23 UNL     1      37.379 -15.105  27.075  1.00  0.00     0.028 C 
HETATM   26  C24 UNL     1      38.697 -15.800  27.155  1.00  0.00     0.237 C 
ENDBRANCH  18  19
ENDBRANCH  17  18
ENDBRANCH  15  17
ENDBRANCH  13  14
ENDBRANCH   8  13
BRANCH   5  27
HETATM   27  O1  UNL     1      45.617 -19.844  30.333  1.00  0.00    -0.394 OA
ATOM     28  H1  UNL     1      44.810 -19.479  29.988  1.00  0.00     0.210 HD
ENDBRANCH   5  27
BRANCH   1  29
HETATM   29  C3  UNL     1      45.349 -24.801  31.430  1.00  0.00     0.034 C 
BRANCH  29  30
HETATM   30  C2  UNL     1      45.545 -25.252  29.998  1.00  0.00    -0.002 C 
HETATM   31  C1  UNL     1      44.326 -25.979  29.469  1.00  0.00     0.005 C 
ENDBRANCH  29  30
ENDBRANCH   1  29
BRANCH   4  32
HETATM   32  C6  UNL     1      47.784 -21.116  31.356  1.00  0.00     0.006 C 
HETATM   33  C7  UNL     1      49.065 -20.419  30.869  1.00  0.00     0.012 C 
BRANCH  32  34
HETATM   34  C8  UNL     1      48.283 -22.220  32.283  1.00  0.00     0.002 C 
HETATM   35  C9  UNL     1      49.753 -21.985  32.589  1.00  0.00     0.005 C 
ENDBRANCH  32  34
ENDBRANCH   4  32
TORSDOF 10
ENDMDL
MODEL 3
REMARK VINA RESULT: -7.539426267      2.293      8.170
REMARK  10 active torsions:
REMARK  status: ('A' for Active; 'I' for Inactive)
REMARK    1  A    between atoms: C2_2  and  C3_3 
REMARK    2  A    between atoms: C3_3  and  C4_4 
REMARK    3  A    between atoms: C5_7  and  C6_8 
REMARK    4  A    between atoms: C6_8  and  C8_10 
REMARK    5  A    between atoms: C10_12  and  O1_13 
REMARK    6  A    between atoms: C13_17  and  C14_18 
REMARK    7  A    between atoms: C14_18  and  N2_19 
REMARK       I    between atoms: N2_19  and  C15_20 
REMARK    8  A    between atoms: C15_20  and  C16_22 
REMARK    9  A    between atoms: C16_22  and  C17_23 
REMARK   10  A    between atoms: C17_23  and  N3_24 
ROOT
HETATM    1  C4  UNL     1      41.579 -21.932  29.921  1.00  0.00     0.169 C 
HETATM    2  N1  UNL     1      42.510 -22.497  29.039  1.00  0.00    -0.402 N 
ATOM      3  H1  UNL     1      42.492 -23.507  28.892  1.00  0.00     0.154 HD
HETATM    4  C5  UNL     1      43.459 -21.739  28.354  1.00  0.00     0.109 C 
HETATM    5  C10 UNL     1      42.941 -21.318  26.991  1.00  0.00     0.140 C 
HETATM    6  C11 UNL     1      41.812 -22.193  26.530  1.00  0.00     0.036 C 
HETATM    7  C12 UNL     1      40.563 -21.408  26.364  1.00  0.00     0.034 C 
HETATM    8  C13 UNL     1      39.497 -22.024  27.330  1.00  0.00     0.137 C 
HETATM    9  N4  UNL     1      39.509 -21.241  28.525  1.00  0.00    -0.349 N 
ATOM     10  H4  UNL     1      38.625 -20.798  28.775  1.00  0.00     0.163 HD
HETATM   11  C25 UNL     1      40.588 -21.003  29.403  1.00  0.00     0.240 C 
HETATM   12  O3  UNL     1      40.688 -19.777  29.786  1.00  0.00    -0.271 OA
ENDROOT
BRANCH   8  13
HETATM   13  C14 UNL     1      38.223 -21.893  26.527  1.00  0.00     0.184 C 
BRANCH  13  14
HETATM   14  N2  UNL     1      38.012 -20.860  25.672  1.00  0.00    -0.386 NA
HETATM   15  C15 UNL     1      37.796 -19.804  24.797  1.00  0.00     0.292 C 
HETATM   16  O2  UNL     1      38.174 -19.769  23.620  1.00  0.00    -0.257 OA
BRANCH  15  17
HETATM   17  C16 UNL     1      37.031 -18.619  25.320  1.00  0.00     0.147 C 
BRANCH  17  18
HETATM   18  C17 UNL     1      37.750 -17.482  25.861  1.00  0.00     0.247 C 
BRANCH  18  19
HETATM   19  N3  UNL     1      38.515 -17.343  27.016  1.00  0.00    -0.070 N 
HETATM   20  C18 UNL     1      39.880 -17.794  27.023  1.00  0.00     0.272 C 
HETATM   21  C19 UNL     1      38.679 -15.856  27.226  1.00  0.00     0.237 C 
HETATM   22  C20 UNL     1      37.393 -15.125  27.183  1.00  0.00     0.028 C 
HETATM   23  C21 UNL     1      36.566 -15.427  28.418  1.00  0.00     0.002 C 
HETATM   24  C22 UNL     1      37.494 -15.722  29.577  1.00  0.00     0.002 C 
HETATM   25  C23 UNL     1      38.146 -17.068  29.451  1.00  0.00     0.028 C 
HETATM   26  C24 UNL     1      37.807 -17.827  28.212  1.00  0.00     0.237 C 
ENDBRANCH  18  19
ENDBRANCH  17  18
ENDBRANCH  15  17
ENDBRANCH  13  14
ENDBRANCH   8  13
BRANCH   5  27
HETATM   27  O1  UNL     1      42.573 -19.972  26.977  1.00  0.00    -0.394 OA
ATOM     28  H1  UNL     1      41.793 -19.829  26.452  1.00  0.00     0.210 HD
ENDBRANCH   5  27
BRANCH   1  29
HETATM   29  C3  UNL     1      40.812 -23.094  30.583  1.00  0.00     0.034 C 
BRANCH  29  30
HETATM   30  C2  UNL     1      41.284 -24.396  29.971  1.00  0.00    -0.002 C 
HETATM   31  C1  UNL     1      40.122 -25.256  29.521  1.00  0.00     0.005 C 
ENDBRANCH  29  30
ENDBRANCH   1  29
BRANCH   4  32
HETATM   32  C6  UNL     1      44.158 -20.632  29.077  1.00  0.00     0.006 C 
HETATM   33  C7  UNL     1      45.460 -20.271  28.346  1.00  0.00     0.012 C 
BRANCH  32  34
HETATM   34  C8  UNL     1      44.617 -21.159  30.433  1.00  0.00     0.002 C 
HETATM   35  C9  UNL     1      45.847 -20.384  30.876  1.00  0.00     0.005 C 
ENDBRANCH  32  34
ENDBRANCH   4  32
TORSDOF 10
ENDMDL
MODEL 4
REMARK VINA RESULT: -7.453284815      1.991      3.474
REMARK  10 active torsions:
REMARK  status: ('A' for Active; 'I' for Inactive)
REMARK    1  A    between atoms: C2_2  and  C3_3 
REMARK    2  A    between atoms: C3_3  and  C4_4 
REMARK    3  A    between atoms: C5_7  and  C6_8 
REMARK    4  A    between atoms: C6_8  and  C8_10 
REMARK    5  A    between atoms: C10_12  and  O1_13 
REMARK    6  A    between atoms: C13_17  and  C14_18 
REMARK    7  A    between atoms: C14_18  and  N2_19 
REMARK       I    between atoms: N2_19  and  C15_20 
REMARK    8  A    between atoms: C15_20  and  C16_22 
REMARK    9  A    between atoms: C16_22  and  C17_23 
REMARK   10  A    between atoms: C17_23  and  N3_24 
ROOT
HETATM    1  C4  UNL     1      38.213 -16.513  26.353  1.00  0.00     0.169 C 
HETATM    2  N1  UNL     1      37.142 -17.075  27.060  1.00  0.00    -0.402 N 
ATOM      3  H1  UNL     1      36.615 -17.833  26.626  1.00  0.00     0.154 HD
HETATM    4  C5  UNL     1      36.766 -16.642  28.331  1.00  0.00     0.109 C 
HETATM    5  C10 UNL     1      37.456 -17.455  29.411  1.00  0.00     0.140 C 
HETATM    6  C11 UNL     1      37.943 -18.774  28.889  1.00  0.00     0.036 C 
HETATM    7  C12 UNL     1      39.421 -18.873  28.985  1.00  0.00     0.034 C 
HETATM    8  C13 UNL     1      39.967 -19.079  27.532  1.00  0.00     0.137 C 
HETATM    9  N4  UNL     1      40.356 -17.795  27.043  1.00  0.00    -0.349 N 
ATOM     10  H4  UNL     1      41.334 -17.700  26.770  1.00  0.00     0.163 HD
HETATM   11  C25 UNL     1      39.559 -16.641  26.888  1.00  0.00     0.240 C 
HETATM   12  O3  UNL     1      40.128 -15.556  27.288  1.00  0.00    -0.271 OA
ENDROOT
BRANCH   8  13
HETATM   13  C14 UNL     1      41.126 -20.023  27.757  1.00  0.00     0.184 C 
BRANCH  13  14
HETATM   14  N2  UNL     1      41.285 -20.709  28.918  1.00  0.00    -0.386 NA
HETATM   15  C15 UNL     1      41.448 -21.410  30.104  1.00  0.00     0.292 C 
HETATM   16  O2  UNL     1      40.881 -21.143  31.170  1.00  0.00    -0.257 OA
BRANCH  15  17
HETATM   17  C16 UNL     1      42.376 -22.594  30.085  1.00  0.00     0.147 C 
BRANCH  17  18
HETATM   18  C17 UNL     1      42.149 -23.671  29.141  1.00  0.00     0.247 C 
BRANCH  18  19
HETATM   19  N3  UNL     1      41.306 -24.778  29.194  1.00  0.00    -0.070 N 
HETATM   20  C18 UNL     1      40.741 -25.181  30.452  1.00  0.00     0.272 C 
HETATM   21  C19 UNL     1      40.074 -24.396  28.408  1.00  0.00     0.237 C 
HETATM   22  C20 UNL     1      40.392 -23.861  27.066  1.00  0.00     0.028 C 
HETATM   23  C21 UNL     1      40.894 -24.965  26.155  1.00  0.00     0.002 C 
HETATM   24  C22 UNL     1      40.260 -26.276  26.570  1.00  0.00     0.002 C 
HETATM   25  C23 UNL     1      40.839 -26.806  27.849  1.00  0.00     0.028 C 
HETATM   26  C24 UNL     1      41.872 -25.939  28.488  1.00  0.00     0.237 C 
ENDBRANCH  18  19
ENDBRANCH  17  18
ENDBRANCH  15  17
ENDBRANCH  13  14
ENDBRANCH   8  13
BRANCH   5  27
HETATM   27  O1  UNL     1      38.492 -16.737  30.010  1.00  0.00    -0.394 OA
ATOM     28  H1  UNL     1      39.294 -17.246  30.045  1.00  0.00     0.210 HD
ENDBRANCH   5  27
BRANCH   1  29
HETATM   29  C3  UNL     1      38.219 -17.150  24.949  1.00  0.00     0.034 C 
BRANCH  29  30
HETATM   30  C2  UNL     1      37.219 -18.287  24.929  1.00  0.00    -0.002 C 
HETATM   31  C1  UNL     1      37.866 -19.592  24.517  1.00  0.00     0.005 C 
ENDBRANCH  29  30
ENDBRANCH   1  29
BRANCH   4  32
HETATM   32  C6  UNL     1      36.761 -15.175  28.623  1.00  0.00     0.006 C 
HETATM   33  C7  UNL     1      35.437 -14.782  29.298  1.00  0.00     0.012 C 
BRANCH  32  34
HETATM   34  C8  UNL     1      36.748 -14.422  27.296  1.00  0.00     0.002 C 
HETATM   35  C9  UNL     1      35.995 -13.114  27.475  1.00  0.00     0.005 C 
ENDBRANCH  32  34
ENDBRANCH   4  32
TORSDOF 10
ENDMDL
MODEL 5
REMARK VINA RESULT: -7.442811626      2.700      4.841
REMARK  10 active torsions:
REMARK  status: ('A' for Active; 'I' for Inactive)
REMARK    1  A    between atoms: C2_2  and  C3_3 
REMARK    2  A    between atoms: C3_3  and  C4_4 
REMARK    3  A    between atoms: C5_7  and  C6_8 
REMARK    4  A    between atoms: C6_8  and  C8_10 
REMARK    5  A    between atoms: C10_12  and  O1_13 
REMARK    6  A    between atoms: C13_17  and  C14_18 
REMARK    7  A    between atoms: C14_18  and  N2_19 
REMARK       I    between atoms: N2_19  and  C15_20 
REMARK    8  A    between atoms: C15_20  and  C16_22 
REMARK    9  A    between atoms: C16_22  and  C17_23 
REMARK   10  A    between atoms: C17_23  and  N3_24 
ROOT
HETATM    1  C4  UNL     1      38.171 -16.456  26.415  1.00  0.00     0.169 C 
HETATM    2  N1  UNL     1      37.078 -16.970  27.123  1.00  0.00    -0.402 N 
ATOM      3  H1  UNL     1      36.535 -17.724  26.702  1.00  0.00     0.154 HD
HETATM    4  C5  UNL     1      36.700 -16.495  28.379  1.00  0.00     0.109 C 
HETATM    5  C10 UNL     1      37.355 -17.300  29.487  1.00  0.00     0.140 C 
HETATM    6  C11 UNL     1      37.811 -18.645  29.003  1.00  0.00     0.036 C 
HETATM    7  C12 UNL     1      39.285 -18.782  29.119  1.00  0.00     0.034 C 
HETATM    8  C13 UNL     1      39.841 -19.039  27.678  1.00  0.00     0.137 C 
HETATM    9  N4  UNL     1      40.270 -17.779  27.161  1.00  0.00    -0.349 N 
ATOM     10  H4  UNL     1      41.254 -17.718  26.897  1.00  0.00     0.163 HD
HETATM   11  C25 UNL     1      39.507 -16.607  26.969  1.00  0.00     0.240 C 
HETATM   12  O3  UNL     1      40.102 -15.528  27.348  1.00  0.00    -0.271 OA
ENDROOT
BRANCH   8  13
HETATM   13  C14 UNL     1      40.971 -20.008  27.939  1.00  0.00     0.184 C 
BRANCH  13  14
HETATM   14  N2  UNL     1      40.770 -21.203  28.552  1.00  0.00    -0.386 NA
HETATM   15  C15 UNL     1      40.565 -22.425  29.178  1.00  0.00     0.292 C 
HETATM   16  O2  UNL     1      40.487 -22.591  30.401  1.00  0.00    -0.257 OA
BRANCH  15  17
HETATM   17  C16 UNL     1      40.415 -23.636  28.298  1.00  0.00     0.147 C 
BRANCH  17  18
HETATM   18  C17 UNL     1      39.440 -23.628  27.225  1.00  0.00     0.247 C 
BRANCH  18  19
HETATM   19  N3  UNL     1      39.527 -23.186  25.907  1.00  0.00    -0.070 N 
HETATM   20  C18 UNL     1      40.818 -23.026  25.295  1.00  0.00     0.272 C 
HETATM   21  C19 UNL     1      38.917 -24.281  25.064  1.00  0.00     0.237 C 
HETATM   22  C20 UNL     1      37.581 -24.697  25.544  1.00  0.00     0.028 C 
HETATM   23  C21 UNL     1      36.554 -23.616  25.268  1.00  0.00     0.002 C 
HETATM   24  C22 UNL     1      36.962 -22.848  24.029  1.00  0.00     0.002 C 
HETATM   25  C23 UNL     1      38.130 -21.941  24.284  1.00  0.00     0.028 C 
HETATM   26  C24 UNL     1      38.692 -21.999  25.664  1.00  0.00     0.237 C 
ENDBRANCH  18  19
ENDBRANCH  17  18
ENDBRANCH  15  17
ENDBRANCH  13  14
ENDBRANCH   8  13
BRANCH   5  27
HETATM   27  O1  UNL     1      38.405 -16.596  30.079  1.00  0.00    -0.394 OA
ATOM     28  H1  UNL     1      38.084 -15.922  30.667  1.00  0.00     0.210 HD
ENDBRANCH   5  27
BRANCH   1  29
HETATM   29  C3  UNL     1      38.175 -17.127  25.028  1.00  0.00     0.034 C 
BRANCH  29  30
HETATM   30  C2  UNL     1      37.258 -18.332  25.071  1.00  0.00    -0.002 C 
HETATM   31  C1  UNL     1      36.625 -18.601  23.722  1.00  0.00     0.005 C 
ENDBRANCH  29  30
ENDBRANCH   1  29
BRANCH   4  32
HETATM   32  C6  UNL     1      36.732 -15.022  28.634  1.00  0.00     0.006 C 
HETATM   33  C7  UNL     1      35.421 -14.579  29.304  1.00  0.00     0.012 C 
BRANCH  32  34
HETATM   34  C8  UNL     1      36.733 -14.302  27.289  1.00  0.00     0.002 C 
HETATM   35  C9  UNL     1      35.982 -12.988  27.430  1.00  0.00     0.005 C 
ENDBRANCH  32  34
ENDBRANCH   4  32
TORSDOF 10
ENDMDL
