MODEL 1
REMARK VINA RESULT: -7.604582069      0.000      0.000
REMARK  9 active torsions:
REMARK  status: ('A' for Active; 'I' for Inactive)
REMARK    1  A    between atoms: C2_2  and  C4_4 
REMARK    2  A    between atoms: C4_4  and  N1_5 
REMARK    3  A    between atoms: C4_4  and  C19_32 
REMARK       I    between atoms: N1_5  and  C5_7 
REMARK    4  A    between atoms: C5_7  and  C6_9 
REMARK    5  A    between atoms: C6_9  and  C7_10 
REMARK    6  A    between atoms: C6_9  and  N4_23 
REMARK    7  A    between atoms: C7_10  and  C8_11 
REMARK       I    between atoms: N4_23  and  C15_25 
REMARK    8  A    between atoms: C15_25  and  C16_27 
REMARK    9  A    between atoms: C16_27  and  O3_30 
ROOT
HETATM    1  C6  UNL     1      39.729 -19.891  27.571  1.00  0.00     0.182 C 
ENDROOT
BRANCH   1   2
HETATM    2  C5  UNL     1      39.320 -20.401  26.196  1.00  0.00     0.245 C 
HETATM    3  N1  UNL     1      38.061 -20.148  25.711  1.00  0.00    -0.328 N 
ATOM      4  H1  UNL     1      37.488 -19.600  26.351  1.00  0.00     0.168 HD
HETATM    5  O1  UNL     1      40.187 -21.027  25.606  1.00  0.00    -0.271 OA
BRANCH   3   6
HETATM    6  C4  UNL     1      37.371 -20.492  24.485  1.00  0.00     0.021 C 
BRANCH   6   7
HETATM    7  C2  UNL     1      36.431 -21.623  24.696  1.00  0.00    -0.064 C 
HETATM    8  C1  UNL     1      36.760 -22.914  24.066  1.00  0.00     0.045 C 
HETATM    9  C3  UNL     1      35.903 -21.840  26.076  1.00  0.00     0.045 C 
ENDBRANCH   6   7
BRANCH   6  10
HETATM   10  C19 UNL     1      36.969 -19.387  23.592  1.00  0.00    -0.009 C 
HETATM   11  C20 UNL     1      36.900 -18.133  24.449  1.00  0.00     0.021 C 
HETATM   12  C21 UNL     1      35.726 -19.475  22.810  1.00  0.00     0.021 C 
HETATM   13  C22 UNL     1      38.125 -19.067  22.607  1.00  0.00     0.021 C 
ENDBRANCH   6  10
ENDBRANCH   3   6
ENDBRANCH   1   2
BRANCH   1  14
HETATM   14  C7  UNL     1      40.165 -18.488  27.428  1.00  0.00     0.092 C 
BRANCH  14  15
HETATM   15  C8  UNL     1      39.205 -17.436  27.708  1.00  0.00     0.014 A 
HETATM   16  C9  UNL     1      37.979 -17.619  28.364  1.00  0.00     0.040 A 
HETATM   17  C10 UNL     1      37.350 -16.424  28.472  1.00  0.00     0.011 A 
HETATM   18  C11 UNL     1      36.118 -16.099  29.041  1.00  0.00     0.035 A 
HETATM   19  C14 UNL     1      38.157 -15.489  27.894  1.00  0.00     0.115 A 
HETATM   20  C12 UNL     1      35.707 -14.793  29.017  1.00  0.00     0.027 A 
HETATM   21 BR1  UNL     1      34.032 -14.352  29.790  1.00  0.00    -0.050 Br
HETATM   22  C13 UNL     1      36.539 -13.849  28.425  1.00  0.00     0.108 A 
HETATM   23  N2  UNL     1      37.730 -14.213  27.884  1.00  0.00    -0.350 N 
ATOM     24  H2  UNL     1      38.318 -13.498  27.457  1.00  0.00     0.166 HD
HETATM   25  N3  UNL     1      39.263 -16.138  27.448  1.00  0.00    -0.345 N 
ATOM     26  H3  UNL     1      40.041 -15.683  26.971  1.00  0.00     0.167 HD
ENDBRANCH  14  15
ENDBRANCH   1  14
BRANCH   1  27
HETATM   27  N4  UNL     1      40.832 -20.733  28.055  1.00  0.00    -0.345 N 
HETATM   28  C15 UNL     1      41.142 -20.880  29.429  1.00  0.00     0.252 C 
HETATM   29  O2  UNL     1      40.414 -20.242  30.251  1.00  0.00    -0.270 OA
ATOM     30  H4  UNL     1      41.399 -21.233  27.371  1.00  0.00     0.163 HD
BRANCH  28  31
HETATM   31  C16 UNL     1      42.234 -21.712  29.933  1.00  0.00     0.131 C 
HETATM   32  C17 UNL     1      42.181 -23.134  29.409  1.00  0.00     0.056 C 
HETATM   33  C18 UNL     1      43.551 -21.124  29.553  1.00  0.00     0.056 C 
BRANCH  31  34
HETATM   34  O3  UNL     1      42.174 -21.790  31.328  1.00  0.00    -0.381 OA
ATOM     35  H3  UNL     1      42.423 -22.660  31.618  1.00  0.00     0.211 HD
ENDBRANCH  31  34
ENDBRANCH  28  31
ENDBRANCH   1  27
TORSDOF 9
ENDMDL
MODEL 2
REMARK VINA RESULT: -7.437871486      1.304      2.033
REMARK  9 active torsions:
REMARK  status: ('A' for Active; 'I' for Inactive)
REMARK    1  A    between atoms: C2_2  and  C4_4 
REMARK    2  A    between atoms: C4_4  and  N1_5 
REMARK    3  A    between atoms: C4_4  and  C19_32 
REMARK       I    between atoms: N1_5  and  C5_7 
REMARK    4  A    between atoms: C5_7  and  C6_9 
REMARK    5  A    between atoms: C6_9  and  C7_10 
REMARK    6  A    between atoms: C6_9  and  N4_23 
REMARK    7  A    between atoms: C7_10  and  C8_11 
REMARK       I    between atoms: N4_23  and  C15_25 
REMARK    8  A    between atoms: C15_25  and  C16_27 
REMARK    9  A    between atoms: C16_27  and  O3_30 
ROOT
HETATM    1  C6  UNL     1      40.071 -19.678  28.458  1.00  0.00     0.182 C 
ENDROOT
BRANCH   1   2
HETATM    2  C5  UNL     1      39.174 -20.675  27.738  1.00  0.00     0.245 C 
HETATM    3  N1  UNL     1      39.151 -20.718  26.366  1.00  0.00    -0.328 N 
ATOM      4  H1  UNL     1      39.783 -20.044  25.934  1.00  0.00     0.168 HD
HETATM    5  O1  UNL     1      38.514 -21.392  28.474  1.00  0.00    -0.271 OA
BRANCH   3   6
HETATM    6  C4  UNL     1      38.423 -21.514  25.399  1.00  0.00     0.021 C 
BRANCH   6   7
HETATM    7  C2  UNL     1      37.044 -20.996  25.205  1.00  0.00    -0.064 C 
HETATM    8  C1  UNL     1      35.966 -21.598  26.010  1.00  0.00     0.045 C 
HETATM    9  C3  UNL     1      36.862 -19.516  25.123  1.00  0.00     0.045 C 
ENDBRANCH   6   7
BRANCH   6  10
HETATM   10  C19 UNL     1      39.166 -22.019  24.228  1.00  0.00    -0.009 C 
HETATM   11  C20 UNL     1      39.873 -23.290  24.673  1.00  0.00     0.021 C 
HETATM   12  C21 UNL     1      40.150 -21.165  23.544  1.00  0.00     0.021 C 
HETATM   13  C22 UNL     1      38.166 -22.538  23.161  1.00  0.00     0.021 C 
ENDBRANCH   6  10
ENDBRANCH   3   6
ENDBRANCH   1   2
BRANCH   1  14
HETATM   14  C7  UNL     1      40.146 -18.453  27.639  1.00  0.00     0.092 C 
BRANCH  14  15
HETATM   15  C8  UNL     1      39.168 -17.406  27.874  1.00  0.00     0.014 A 
HETATM   16  C9  UNL     1      37.945 -17.581  28.536  1.00  0.00     0.040 A 
HETATM   17  C10 UNL     1      37.296 -16.394  28.592  1.00  0.00     0.011 A 
HETATM   18  C11 UNL     1      36.057 -16.065  29.146  1.00  0.00     0.035 A 
HETATM   19  C14 UNL     1      38.088 -15.471  27.976  1.00  0.00     0.115 A 
HETATM   20  C12 UNL     1      35.625 -14.768  29.066  1.00  0.00     0.027 A 
HETATM   21 BR1  UNL     1      33.942 -14.322  29.819  1.00  0.00    -0.050 Br
HETATM   22  C13 UNL     1      36.442 -13.836  28.436  1.00  0.00     0.108 A 
HETATM   23  N2  UNL     1      37.640 -14.203  27.912  1.00  0.00    -0.350 N 
ATOM     24  H2  UNL     1      38.217 -13.497  27.455  1.00  0.00     0.166 HD
HETATM   25  N3  UNL     1      39.205 -16.120  27.559  1.00  0.00    -0.345 N 
ATOM     26  H3  UNL     1      39.976 -15.673  27.064  1.00  0.00     0.167 HD
ENDBRANCH  14  15
ENDBRANCH   1  14
BRANCH   1  27
HETATM   27  N4  UNL     1      41.399 -20.290  28.605  1.00  0.00    -0.345 N 
HETATM   28  C15 UNL     1      41.822 -20.938  29.791  1.00  0.00     0.252 C 
HETATM   29  O2  UNL     1      40.990 -20.973  30.751  1.00  0.00    -0.270 OA
ATOM     30  H4  UNL     1      42.045 -20.245  27.817  1.00  0.00     0.163 HD
BRANCH  28  31
HETATM   31  C16 UNL     1      43.138 -21.553  29.958  1.00  0.00     0.131 C 
HETATM   32  C17 UNL     1      43.297 -22.831  29.158  1.00  0.00     0.056 C 
HETATM   33  C18 UNL     1      44.210 -20.604  29.540  1.00  0.00     0.056 C 
BRANCH  31  34
HETATM   34  O3  UNL     1      43.346 -21.885  31.301  1.00  0.00    -0.381 OA
ATOM     35  H3  UNL     1      43.682 -22.771  31.371  1.00  0.00     0.211 HD
ENDBRANCH  31  34
ENDBRANCH  28  31
ENDBRANCH   1  27
TORSDOF 9
ENDMDL
MODEL 3
REMARK VINA RESULT: -7.401469893      3.826      6.869
REMARK  9 active torsions:
REMARK  status: ('A' for Active; 'I' for Inactive)
REMARK    1  A    between atoms: C2_2  and  C4_4 
REMARK    2  A    between atoms: C4_4  and  N1_5 
REMARK    3  A    between atoms: C4_4  and  C19_32 
REMARK       I    between atoms: N1_5  and  C5_7 
REMARK    4  A    between atoms: C5_7  and  C6_9 
REMARK    5  A    between atoms: C6_9  and  C7_10 
REMARK    6  A    between atoms: C6_9  and  N4_23 
REMARK    7  A    between atoms: C7_10  and  C8_11 
REMARK       I    between atoms: N4_23  and  C15_25 
REMARK    8  A    between atoms: C15_25  and  C16_27 
REMARK    9  A    between atoms: C16_27  and  O3_30 
ROOT
HETATM    1  C6  UNL     1      39.714 -21.179  28.471  1.00  0.00     0.182 C 
ENDROOT
BRANCH   1   2
HETATM    2  C5  UNL     1      38.577 -20.288  27.991  1.00  0.00     0.245 C 
HETATM    3  N1  UNL     1      38.758 -18.931  27.889  1.00  0.00    -0.328 N 
ATOM      4  H1  UNL     1      39.697 -18.632  28.151  1.00  0.00     0.168 HD
HETATM    5  O1  UNL     1      37.544 -20.880  27.721  1.00  0.00    -0.271 OA
BRANCH   3   6
HETATM    6  C4  UNL     1      37.903 -17.831  27.491  1.00  0.00     0.021 C 
BRANCH   6   7
HETATM    7  C2  UNL     1      37.665 -16.898  28.621  1.00  0.00    -0.064 C 
HETATM    8  C1  UNL     1      36.270 -16.529  28.924  1.00  0.00     0.045 C 
HETATM    9  C3  UNL     1      38.424 -17.130  29.886  1.00  0.00     0.045 C 
ENDBRANCH   6   7
BRANCH   6  10
HETATM   10  C19 UNL     1      38.086 -17.278  26.135  1.00  0.00    -0.009 C 
HETATM   11  C20 UNL     1      39.493 -17.652  25.694  1.00  0.00     0.021 C 
HETATM   12  C21 UNL     1      37.895 -15.841  25.884  1.00  0.00     0.021 C 
HETATM   13  C22 UNL     1      37.195 -18.056  25.130  1.00  0.00     0.021 C 
ENDBRANCH   6  10
ENDBRANCH   3   6
ENDBRANCH   1   2
BRANCH   1  14
HETATM   14  C7  UNL     1      40.988 -20.498  28.171  1.00  0.00     0.092 C 
BRANCH  14  15
HETATM   15  C8  UNL     1      42.142 -20.799  28.999  1.00  0.00     0.014 A 
HETATM   16  C9  UNL     1      43.458 -20.410  28.718  1.00  0.00     0.040 A 
HETATM   17  C10 UNL     1      44.272 -20.843  29.710  1.00  0.00     0.011 A 
HETATM   18  C11 UNL     1      45.651 -20.701  29.876  1.00  0.00     0.035 A 
HETATM   19  C14 UNL     1      43.492 -21.499  30.614  1.00  0.00     0.115 A 
HETATM   20  C12 UNL     1      46.238 -21.242  30.988  1.00  0.00     0.027 A 
HETATM   21 BR1  UNL     1      48.112 -21.050  31.212  1.00  0.00    -0.050 Br
HETATM   22  C13 UNL     1      45.432 -21.910  31.903  1.00  0.00     0.108 A 
HETATM   23  N2  UNL     1      44.094 -22.022  31.699  1.00  0.00    -0.350 N 
ATOM     24  H2  UNL     1      43.528 -22.517  32.388  1.00  0.00     0.166 HD
HETATM   25  N3  UNL     1      42.217 -21.450  30.151  1.00  0.00    -0.345 N 
ATOM     26  H3  UNL     1      41.417 -21.864  30.629  1.00  0.00     0.167 HD
ENDBRANCH  14  15
ENDBRANCH   1  14
BRANCH   1  27
HETATM   27  N4  UNL     1      39.622 -22.456  27.748  1.00  0.00    -0.345 N 
HETATM   28  C15 UNL     1      39.896 -23.706  28.355  1.00  0.00     0.252 C 
HETATM   29  O2  UNL     1      40.234 -23.684  29.580  1.00  0.00    -0.270 OA
ATOM     30  H4  UNL     1      39.348 -22.441  26.766  1.00  0.00     0.163 HD
BRANCH  28  31
HETATM   31  C16 UNL     1      39.811 -24.987  27.656  1.00  0.00     0.131 C 
HETATM   32  C17 UNL     1      38.691 -25.028  26.636  1.00  0.00     0.056 C 
HETATM   33  C18 UNL     1      41.093 -25.279  26.953  1.00  0.00     0.056 C 
BRANCH  31  34
HETATM   34  O3  UNL     1      39.567 -26.018  28.570  1.00  0.00    -0.381 OA
ATOM     35  H3  UNL     1      39.657 -26.861  28.143  1.00  0.00     0.211 HD
ENDBRANCH  31  34
ENDBRANCH  28  31
ENDBRANCH   1  27
TORSDOF 9
ENDMDL
MODEL 4
REMARK VINA RESULT: -7.383907162      1.916      6.041
REMARK  9 active torsions:
REMARK  status: ('A' for Active; 'I' for Inactive)
REMARK    1  A    between atoms: C2_2  and  C4_4 
REMARK    2  A    between atoms: C4_4  and  N1_5 
REMARK    3  A    between atoms: C4_4  and  C19_32 
REMARK       I    between atoms: N1_5  and  C5_7 
REMARK    4  A    between atoms: C5_7  and  C6_9 
REMARK    5  A    between atoms: C6_9  and  C7_10 
REMARK    6  A    between atoms: C6_9  and  N4_23 
REMARK    7  A    between atoms: C7_10  and  C8_11 
REMARK       I    between atoms: N4_23  and  C15_25 
REMARK    8  A    between atoms: C15_25  and  C16_27 
REMARK    9  A    between atoms: C16_27  and  O3_30 
ROOT
HETATM    1  C6  UNL     1      40.145 -21.071  26.977  1.00  0.00     0.182 C 
ENDROOT
BRANCH   1   2
HETATM    2  C5  UNL     1      40.393 -21.785  28.298  1.00  0.00     0.245 C 
HETATM    3  N1  UNL     1      41.563 -22.476  28.501  1.00  0.00    -0.328 N 
ATOM      4  H1  UNL     1      42.196 -22.433  27.703  1.00  0.00     0.168 HD
HETATM    5  O1  UNL     1      39.489 -21.682  29.112  1.00  0.00    -0.271 OA
BRANCH   3   6
HETATM    6  C4  UNL     1      42.091 -23.251  29.604  1.00  0.00     0.021 C 
BRANCH   6   7
HETATM    7  C2  UNL     1      41.710 -24.683  29.486  1.00  0.00    -0.064 C 
HETATM    8  C1  UNL     1      40.521 -25.140  30.227  1.00  0.00     0.045 C 
HETATM    9  C3  UNL     1      41.742 -25.300  28.126  1.00  0.00     0.045 C 
ENDBRANCH   6   7
BRANCH   6  10
HETATM   10  C19 UNL     1      43.438 -22.910  30.099  1.00  0.00    -0.009 C 
HETATM   11  C20 UNL     1      43.975 -24.148  30.800  1.00  0.00     0.021 C 
HETATM   12  C21 UNL     1      43.635 -21.757  30.993  1.00  0.00     0.021 C 
HETATM   13  C22 UNL     1      44.409 -22.748  28.899  1.00  0.00     0.021 C 
ENDBRANCH   6  10
ENDBRANCH   3   6
ENDBRANCH   1   2
BRANCH   1  14
HETATM   14  C7  UNL     1      40.744 -19.725  27.063  1.00  0.00     0.092 C 
BRANCH  14  15
HETATM   15  C8  UNL     1      39.923 -18.635  27.558  1.00  0.00     0.014 A 
HETATM   16  C9  UNL     1      39.341 -17.639  26.762  1.00  0.00     0.040 A 
HETATM   17  C10 UNL     1      38.630 -16.799  27.550  1.00  0.00     0.011 A 
HETATM   18  C11 UNL     1      37.881 -15.667  27.222  1.00  0.00     0.035 A 
HETATM   19  C14 UNL     1      38.752 -17.246  28.832  1.00  0.00     0.115 A 
HETATM   20  C12 UNL     1      37.248 -14.984  28.225  1.00  0.00     0.027 A 
HETATM   21 BR1  UNL     1      36.231 -13.446  27.779  1.00  0.00    -0.050 Br
HETATM   22  C13 UNL     1      37.380 -15.450  29.528  1.00  0.00     0.108 A 
HETATM   23  N2  UNL     1      38.119 -16.557  29.799  1.00  0.00    -0.350 N 
ATOM     24  H2  UNL     1      38.198 -16.875  30.765  1.00  0.00     0.166 HD
HETATM   25  N3  UNL     1      39.537 -18.353  28.794  1.00  0.00    -0.345 N 
ATOM     26  H3  UNL     1      39.798 -18.899  29.615  1.00  0.00     0.167 HD
ENDBRANCH  14  15
ENDBRANCH   1  14
BRANCH   1  27
HETATM   27  N4  UNL     1      38.691 -20.983  26.779  1.00  0.00    -0.345 N 
HETATM   28  C15 UNL     1      37.980 -21.840  25.903  1.00  0.00     0.252 C 
HETATM   29  O2  UNL     1      38.662 -22.711  25.277  1.00  0.00    -0.270 OA
ATOM     30  H4  UNL     1      38.171 -20.274  27.294  1.00  0.00     0.163 HD
BRANCH  28  31
HETATM   31  C16 UNL     1      36.535 -21.771  25.691  1.00  0.00     0.131 C 
HETATM   32  C17 UNL     1      36.142 -20.754  24.638  1.00  0.00     0.056 C 
HETATM   33  C18 UNL     1      36.010 -23.102  25.272  1.00  0.00     0.056 C 
BRANCH  31  34
HETATM   34  O3  UNL     1      35.893 -21.399  26.877  1.00  0.00    -0.381 OA
ATOM     35  H3  UNL     1      35.278 -22.073  27.141  1.00  0.00     0.211 HD
ENDBRANCH  31  34
ENDBRANCH  28  31
ENDBRANCH   1  27
TORSDOF 9
ENDMDL
MODEL 5
REMARK VINA RESULT: -7.334204710      2.868      4.638
REMARK  9 active torsions:
REMARK  status: ('A' for Active; 'I' for Inactive)
REMARK    1  A    between atoms: C2_2  and  C4_4 
REMARK    2  A    between atoms: C4_4  and  N1_5 
REMARK    3  A    between atoms: C4_4  and  C19_32 
REMARK       I    between atoms: N1_5  and  C5_7 
REMARK    4  A    between atoms: C5_7  and  C6_9 
REMARK    5  A    between atoms: C6_9  and  C7_10 
REMARK    6  A    between atoms: C6_9  and  N4_23 
REMARK    7  A    between atoms: C7_10  and  C8_11 
REMARK       I    between atoms: N4_23  and  C15_25 
REMARK    8  A    between atoms: C15_25  and  C16_27 
REMARK    9  A    between atoms: C16_27  and  O3_30 
ROOT
HETATM    1  C6  UNL     1      40.937 -20.317  28.815  1.00  0.00     0.182 C 
ENDROOT
BRANCH   1   2
HETATM    2  C5  UNL     1      40.186 -21.628  28.630  1.00  0.00     0.245 C 
HETATM    3  N1  UNL     1      40.869 -22.779  28.321  1.00  0.00    -0.328 N 
ATOM      4  H1  UNL     1      41.876 -22.639  28.251  1.00  0.00     0.168 HD
HETATM    5  O1  UNL     1      38.977 -21.548  28.778  1.00  0.00    -0.271 OA
BRANCH   3   6
HETATM    6  C4  UNL     1      40.467 -24.148  28.073  1.00  0.00     0.021 C 
BRANCH   6   7
HETATM    7  C2  UNL     1      40.160 -24.367  26.636  1.00  0.00    -0.064 C 
HETATM    8  C1  UNL     1      38.747 -24.315  26.221  1.00  0.00     0.045 C 
HETATM    9  C3  UNL     1      41.021 -23.677  25.629  1.00  0.00     0.045 C 
ENDBRANCH   6   7
BRANCH   6  10
HETATM   10  C19 UNL     1      41.159 -25.212  28.825  1.00  0.00    -0.009 C 
HETATM   11  C20 UNL     1      42.591 -24.744  29.030  1.00  0.00     0.021 C 
HETATM   12  C21 UNL     1      41.198 -26.588  28.305  1.00  0.00     0.021 C 
HETATM   13  C22 UNL     1      40.607 -25.270  30.275  1.00  0.00     0.021 C 
ENDBRANCH   6  10
ENDBRANCH   3   6
ENDBRANCH   1   2
BRANCH   1  14
HETATM   14  C7  UNL     1      40.561 -19.413  27.711  1.00  0.00     0.092 C 
BRANCH  14  15
HETATM   15  C8  UNL     1      39.502 -18.448  27.941  1.00  0.00     0.014 A 
HETATM   16  C9  UNL     1      39.473 -17.145  27.423  1.00  0.00     0.040 A 
HETATM   17  C10 UNL     1      38.333 -16.533  27.822  1.00  0.00     0.011 A 
HETATM   18  C11 UNL     1      37.860 -15.246  27.564  1.00  0.00     0.035 A 
HETATM   19  C14 UNL     1      37.641 -17.426  28.584  1.00  0.00     0.115 A 
HETATM   20  C12 UNL     1      36.656 -14.869  28.096  1.00  0.00     0.027 A 
HETATM   21 BR1  UNL     1      36.013 -13.119  27.745  1.00  0.00    -0.050 Br
HETATM   22  C13 UNL     1      35.959 -15.788  28.872  1.00  0.00     0.108 A 
HETATM   23  N2  UNL     1      36.460 -17.031  29.096  1.00  0.00    -0.350 N 
ATOM     24  H2  UNL     1      35.926 -17.683  29.668  1.00  0.00     0.166 HD
HETATM   25  N3  UNL     1      38.377 -18.566  28.631  1.00  0.00    -0.345 N 
ATOM     26  H3  UNL     1      38.099 -19.407  29.135  1.00  0.00     0.167 HD
ENDBRANCH  14  15
ENDBRANCH   1  14
BRANCH   1  27
HETATM   27  N4  UNL     1      42.376 -20.613  28.780  1.00  0.00    -0.345 N 
HETATM   28  C15 UNL     1      43.081 -21.141  29.889  1.00  0.00     0.252 C 
HETATM   29  O2  UNL     1      42.408 -21.355  30.945  1.00  0.00    -0.270 OA
ATOM     30  H4  UNL     1      42.890 -20.431  27.918  1.00  0.00     0.163 HD
BRANCH  28  31
HETATM   31  C16 UNL     1      44.512 -21.443  29.876  1.00  0.00     0.131 C 
HETATM   32  C17 UNL     1      45.375 -20.214  30.079  1.00  0.00     0.056 C 
HETATM   33  C18 UNL     1      44.842 -22.427  30.947  1.00  0.00     0.056 C 
BRANCH  31  34
HETATM   34  O3  UNL     1      44.874 -21.997  28.644  1.00  0.00    -0.381 OA
ATOM     35  H3  UNL     1      45.799 -21.853  28.480  1.00  0.00     0.211 HD
ENDBRANCH  31  34
ENDBRANCH  28  31
ENDBRANCH   1  27
TORSDOF 9
ENDMDL
