MODEL 1
REMARK VINA RESULT: -8.743017955      0.000      0.000
REMARK  11 active torsions:
REMARK  status: ('A' for Active; 'I' for Inactive)
REMARK    1  A    between atoms: C2_4  and  O1_5 
REMARK    2  A    between atoms: C2_4  and  N2_7 
REMARK    3  A    between atoms: N2_7  and  C3_9 
REMARK    4  A    between atoms: N3_11  and  C5_13 
REMARK    5  A    between atoms: C5_13  and  C6_14 
REMARK    6  A    between atoms: C6_14  and  N4_15 
REMARK       I    between atoms: N4_15  and  C7_17 
REMARK       I    between atoms: C7_17  and  N5_19 
REMARK    7  A    between atoms: N5_19  and  C8_21 
REMARK    8  A    between atoms: C11_25  and  C12_26 
REMARK    9  A    between atoms: C15_29  and  C16_30 
REMARK   10  A    between atoms: C16_30  and  O3_31 
REMARK   11  A    between atoms: C16_30  and  C17_33 
ROOT
HETATM    1  C8  UNL     1      40.765 -20.795  28.978  1.00  0.00     0.038 A 
HETATM    2  C9  UNL     1      40.490 -21.255  27.701  1.00  0.00     0.054 A 
HETATM    3  C10 UNL     1      39.739 -20.491  26.841  1.00  0.00     0.047 A 
HETATM    4 CL1  UNL     1      39.576 -21.128  25.198  1.00  0.00    -0.083 Cl
HETATM    5  C11 UNL     1      39.208 -19.245  27.166  1.00  0.00     0.000 A 
HETATM    6  C15 UNL     1      39.465 -18.761  28.416  1.00  0.00     0.012 A 
HETATM    7  C24 UNL     1      40.241 -19.564  29.285  1.00  0.00     0.044 A 
ENDROOT
BRANCH   1   8
HETATM    8  N5  UNL     1      41.444 -21.623  29.895  1.00  0.00    -0.309 N 
HETATM    9  C7  UNL     1      42.825 -21.681  30.157  1.00  0.00     0.324 C 
HETATM   10  N4  UNL     1      43.336 -22.683  31.024  1.00  0.00    -0.321 N 
HETATM   11  O2  UNL     1      43.591 -20.862  29.634  1.00  0.00    -0.247 OA
ATOM     12  H4  UNL     1      42.660 -23.344  31.408  1.00  0.00     0.169 HD
ATOM     13  H5  UNL     1      40.861 -22.261  30.437  1.00  0.00     0.170 HD
BRANCH  10  14
HETATM   14  C6  UNL     1      44.679 -22.858  31.409  1.00  0.00     0.085 C 
BRANCH  14  15
HETATM   15  C5  UNL     1      45.292 -21.773  32.246  1.00  0.00     0.165 C 
BRANCH  15  16
HETATM   16  N3  UNL     1      46.633 -22.159  32.674  1.00  0.00    -0.375 N 
HETATM   17  C3  UNL     1      47.732 -21.792  32.067  1.00  0.00     0.076 C 
HETATM   18  C4  UNL     1      47.680 -20.910  30.877  1.00  0.00     0.089 C 
ATOM     19  H3  UNL     1      46.719 -22.754  33.498  1.00  0.00     0.161 HD
BRANCH  17  20
HETATM   20  N2  UNL     1      48.962 -22.250  32.597  1.00  0.00    -0.313 N 
ATOM     21  H2  UNL     1      49.604 -22.688  31.937  1.00  0.00     0.170 HD
BRANCH  20  22
HETATM   22  C2  UNL     1      49.396 -22.169  33.937  1.00  0.00     0.217 C 
HETATM   23  N1  UNL     1      50.548 -21.729  34.434  1.00  0.00    -0.361 N 
HETATM   24  C1  UNL     1      50.986 -21.673  35.797  1.00  0.00     0.150 C 
ATOM     25  H1  UNL     1      51.216 -21.381  33.747  1.00  0.00     0.162 HD
BRANCH  22  26
HETATM   26  O1  UNL     1      48.460 -22.614  34.779  1.00  0.00    -0.333 OA
ATOM     27  H1  UNL     1      47.620 -22.884  34.428  1.00  0.00     0.220 HD
ENDBRANCH  22  26
ENDBRANCH  20  22
ENDBRANCH  17  20
ENDBRANCH  15  16
ENDBRANCH  14  15
ENDBRANCH  10  14
ENDBRANCH   1   8
BRANCH   6  28
HETATM   28  C16 UNL     1      38.940 -17.552  28.967  1.00  0.00     0.093 C 
BRANCH  28  29
HETATM   29  O3  UNL     1      39.252 -17.498  30.273  1.00  0.00    -0.359 OA
ATOM     30  H3  UNL     1      38.627 -16.935  30.715  1.00  0.00     0.217 HD
ENDBRANCH  28  29
BRANCH  28  31
HETATM   31  C17 UNL     1      38.206 -16.431  28.546  1.00  0.00     0.072 A 
HETATM   32  C18 UNL     1      36.883 -16.232  28.925  1.00  0.00    -0.042 A 
HETATM   33  C19 UNL     1      36.236 -17.291  29.728  1.00  0.00     0.049 C 
HETATM   34  C20 UNL     1      36.177 -15.099  28.522  1.00  0.00     0.032 A 
HETATM   35  C21 UNL     1      36.758 -14.133  27.728  1.00  0.00     0.009 A 
HETATM   36  C22 UNL     1      36.009 -12.907  27.311  1.00  0.00     0.068 C 
HETATM   37  N6  UNL     1      38.022 -14.339  27.364  1.00  0.00    -0.327 N 
HETATM   38  C23 UNL     1      38.703 -15.409  27.742  1.00  0.00     0.259 A 
ATOM     39  H6  UNL     1      38.483 -13.648  26.773  1.00  0.00     0.169 HD
HETATM   40  O4  UNL     1      39.893 -15.531  27.357  1.00  0.00    -0.267 OA
ENDBRANCH  28  31
ENDBRANCH   6  28
BRANCH   5  41
HETATM   41  C12 UNL     1      38.196 -18.719  26.222  1.00  0.00    -0.075 C 
HETATM   42  C13 UNL     1      38.694 -17.957  25.077  1.00  0.00     0.044 C 
HETATM   43  C14 UNL     1      36.923 -19.472  26.072  1.00  0.00     0.044 C 
ENDBRANCH   5  41
TORSDOF 11
ENDMDL
MODEL 2
REMARK VINA RESULT: -8.508574429      1.324      1.370
REMARK  11 active torsions:
REMARK  status: ('A' for Active; 'I' for Inactive)
REMARK    1  A    between atoms: C2_4  and  O1_5 
REMARK    2  A    between atoms: C2_4  and  N2_7 
REMARK    3  A    between atoms: N2_7  and  C3_9 
REMARK    4  A    between atoms: N3_11  and  C5_13 
REMARK    5  A    between atoms: C5_13  and  C6_14 
REMARK    6  A    between atoms: C6_14  and  N4_15 
REMARK       I    between atoms: N4_15  and  C7_17 
REMARK       I    between atoms: C7_17  and  N5_19 
REMARK    7  A    between atoms: N5_19  and  C8_21 
REMARK    8  A    between atoms: C11_25  and  C12_26 
REMARK    9  A    between atoms: C15_29  and  C16_30 
REMARK   10  A    between atoms: C16_30  and  O3_31 
REMARK   11  A    between atoms: C16_30  and  C17_33 
ROOT
HETATM    1  C8  UNL     1      40.579 -20.906  28.785  1.00  0.00     0.038 A 
HETATM    2  C9  UNL     1      40.281 -21.328  27.500  1.00  0.00     0.054 A 
HETATM    3  C10 UNL     1      39.572 -20.509  26.655  1.00  0.00     0.047 A 
HETATM    4 CL1  UNL     1      39.376 -21.108  25.000  1.00  0.00    -0.083 Cl
HETATM    5  C11 UNL     1      39.108 -19.243  27.002  1.00  0.00     0.000 A 
HETATM    6  C15 UNL     1      39.390 -18.795  28.260  1.00  0.00     0.012 A 
HETATM    7  C24 UNL     1      40.121 -19.654  29.114  1.00  0.00     0.044 A 
ENDROOT
BRANCH   1   8
HETATM    8  N5  UNL     1      41.212 -21.785  29.687  1.00  0.00    -0.309 N 
HETATM    9  C7  UNL     1      42.589 -21.946  29.923  1.00  0.00     0.324 C 
HETATM   10  N4  UNL     1      43.041 -22.986  30.778  1.00  0.00    -0.321 N 
HETATM   11  O2  UNL     1      43.403 -21.183  29.387  1.00  0.00    -0.247 OA
ATOM     12  H4  UNL     1      42.325 -23.596  31.173  1.00  0.00     0.169 HD
ATOM     13  H5  UNL     1      40.593 -22.380  30.238  1.00  0.00     0.170 HD
BRANCH  10  14
HETATM   14  C6  UNL     1      44.374 -23.261  31.136  1.00  0.00     0.085 C 
BRANCH  14  15
HETATM   15  C5  UNL     1      45.041 -22.289  32.067  1.00  0.00     0.165 C 
BRANCH  15  16
HETATM   16  N3  UNL     1      46.375 -21.953  31.579  1.00  0.00    -0.375 N 
HETATM   17  C3  UNL     1      46.672 -20.841  30.958  1.00  0.00     0.076 C 
HETATM   18  C4  UNL     1      45.636 -19.808  30.722  1.00  0.00     0.089 C 
ATOM     19  H3  UNL     1      47.124 -22.629  31.733  1.00  0.00     0.161 HD
BRANCH  17  20
HETATM   20  N2  UNL     1      48.010 -20.658  30.539  1.00  0.00    -0.313 N 
ATOM     21  H2  UNL     1      48.154 -20.486  29.544  1.00  0.00     0.170 HD
BRANCH  20  22
HETATM   22  C2  UNL     1      49.168 -20.687  31.345  1.00  0.00     0.217 C 
HETATM   23  N1  UNL     1      50.047 -19.724  31.610  1.00  0.00    -0.361 N 
HETATM   24  C1  UNL     1      51.232 -19.774  32.413  1.00  0.00     0.150 C 
ATOM     25  H1  UNL     1      49.848 -18.822  31.180  1.00  0.00     0.162 HD
BRANCH  22  26
HETATM   26  O1  UNL     1      49.346 -21.890  31.896  1.00  0.00    -0.333 OA
ATOM     27  H1  UNL     1      48.646 -22.262  32.419  1.00  0.00     0.220 HD
ENDBRANCH  22  26
ENDBRANCH  20  22
ENDBRANCH  17  20
ENDBRANCH  15  16
ENDBRANCH  14  15
ENDBRANCH  10  14
ENDBRANCH   1   8
BRANCH   6  28
HETATM   28  C16 UNL     1      38.929 -17.570  28.832  1.00  0.00     0.093 C 
BRANCH  28  29
HETATM   29  O3  UNL     1      39.317 -17.518  30.117  1.00  0.00    -0.359 OA
ATOM     30  H3  UNL     1      38.546 -17.466  30.670  1.00  0.00     0.217 HD
ENDBRANCH  28  29
BRANCH  28  31
HETATM   31  C17 UNL     1      38.203 -16.432  28.447  1.00  0.00     0.072 A 
HETATM   32  C18 UNL     1      36.886 -16.228  28.846  1.00  0.00    -0.042 A 
HETATM   33  C19 UNL     1      36.237 -17.299  29.631  1.00  0.00     0.049 C 
HETATM   34  C20 UNL     1      36.188 -15.079  28.478  1.00  0.00     0.032 A 
HETATM   35  C21 UNL     1      36.770 -14.100  27.701  1.00  0.00     0.009 A 
HETATM   36  C22 UNL     1      36.029 -12.856  27.322  1.00  0.00     0.068 C 
HETATM   37  N6  UNL     1      38.028 -14.310  27.317  1.00  0.00    -0.327 N 
HETATM   38  C23 UNL     1      38.701 -15.396  27.662  1.00  0.00     0.259 A 
ATOM     39  H6  UNL     1      38.489 -13.610  26.737  1.00  0.00     0.169 HD
HETATM   40  O4  UNL     1      39.885 -15.521  27.260  1.00  0.00    -0.267 OA
ENDBRANCH  28  31
ENDBRANCH   6  28
BRANCH   5  41
HETATM   41  C12 UNL     1      38.126 -18.647  26.067  1.00  0.00    -0.075 C 
HETATM   42  C13 UNL     1      38.664 -17.865  24.954  1.00  0.00     0.044 C 
HETATM   43  C14 UNL     1      36.828 -19.346  25.879  1.00  0.00     0.044 C 
ENDBRANCH   5  41
TORSDOF 11
ENDMDL
MODEL 3
REMARK VINA RESULT: -8.364348450      1.121      1.581
REMARK  11 active torsions:
REMARK  status: ('A' for Active; 'I' for Inactive)
REMARK    1  A    between atoms: C2_4  and  O1_5 
REMARK    2  A    between atoms: C2_4  and  N2_7 
REMARK    3  A    between atoms: N2_7  and  C3_9 
REMARK    4  A    between atoms: N3_11  and  C5_13 
REMARK    5  A    between atoms: C5_13  and  C6_14 
REMARK    6  A    between atoms: C6_14  and  N4_15 
REMARK       I    between atoms: N4_15  and  C7_17 
REMARK       I    between atoms: C7_17  and  N5_19 
REMARK    7  A    between atoms: N5_19  and  C8_21 
REMARK    8  A    between atoms: C11_25  and  C12_26 
REMARK    9  A    between atoms: C15_29  and  C16_30 
REMARK   10  A    between atoms: C16_30  and  O3_31 
REMARK   11  A    between atoms: C16_30  and  C17_33 
ROOT
HETATM    1  C8  UNL     1      41.397 -20.519  27.747  1.00  0.00     0.038 A 
HETATM    2  C9  UNL     1      40.813 -21.027  26.598  1.00  0.00     0.054 A 
HETATM    3  C10 UNL     1      39.662 -20.462  26.104  1.00  0.00     0.047 A 
HETATM    4 CL1  UNL     1      39.094 -21.114  24.559  1.00  0.00    -0.083 Cl
HETATM    5  C11 UNL     1      39.010 -19.380  26.691  1.00  0.00     0.000 A 
HETATM    6  C15 UNL     1      39.563 -18.853  27.822  1.00  0.00     0.012 A 
HETATM    7  C24 UNL     1      40.748 -19.450  28.313  1.00  0.00     0.044 A 
ENDROOT
BRANCH   1   8
HETATM    8  N5  UNL     1      42.515 -21.163  28.314  1.00  0.00    -0.309 N 
HETATM    9  C7  UNL     1      42.732 -21.506  29.661  1.00  0.00     0.324 C 
HETATM   10  N4  UNL     1      43.988 -22.032  30.061  1.00  0.00    -0.321 N 
HETATM   11  O2  UNL     1      41.829 -21.349  30.493  1.00  0.00    -0.247 OA
ATOM     12  H4  UNL     1      44.700 -22.118  29.335  1.00  0.00     0.169 HD
ATOM     13  H5  UNL     1      43.262 -21.413  27.665  1.00  0.00     0.170 HD
BRANCH  10  14
HETATM   14  C6  UNL     1      44.352 -22.448  31.356  1.00  0.00     0.085 C 
BRANCH  14  15
HETATM   15  C5  UNL     1      45.173 -21.490  32.170  1.00  0.00     0.165 C 
BRANCH  15  16
HETATM   16  N3  UNL     1      46.444 -22.102  32.545  1.00  0.00    -0.375 N 
HETATM   17  C3  UNL     1      47.599 -21.775  32.025  1.00  0.00     0.076 C 
HETATM   18  C4  UNL     1      47.691 -20.708  31.000  1.00  0.00     0.089 C 
ATOM     19  H3  UNL     1      46.431 -22.831  33.258  1.00  0.00     0.161 HD
BRANCH  17  20
HETATM   20  N2  UNL     1      48.747 -22.461  32.486  1.00  0.00    -0.313 N 
ATOM     21  H2  UNL     1      49.190 -23.098  31.825  1.00  0.00     0.170 HD
BRANCH  20  22
HETATM   22  C2  UNL     1      49.346 -22.360  33.759  1.00  0.00     0.217 C 
HETATM   23  N1  UNL     1      50.615 -22.135  34.089  1.00  0.00    -0.361 N 
HETATM   24  C1  UNL     1      51.214 -22.058  35.388  1.00  0.00     0.150 C 
ATOM     25  H1  UNL     1      51.252 -21.996  33.305  1.00  0.00     0.162 HD
BRANCH  22  26
HETATM   26  O1  UNL     1      48.447 -22.523  34.734  1.00  0.00    -0.333 OA
ATOM     27  H1  UNL     1      47.859 -21.806  34.937  1.00  0.00     0.220 HD
ENDBRANCH  22  26
ENDBRANCH  20  22
ENDBRANCH  17  20
ENDBRANCH  15  16
ENDBRANCH  14  15
ENDBRANCH  10  14
ENDBRANCH   1   8
BRANCH   6  28
HETATM   28  C16 UNL     1      39.001 -17.807  28.616  1.00  0.00     0.093 C 
BRANCH  28  29
HETATM   29  O3  UNL     1      39.375 -17.983  29.894  1.00  0.00    -0.359 OA
ATOM     30  H3  UNL     1      38.931 -17.341  30.436  1.00  0.00     0.217 HD
ENDBRANCH  28  29
BRANCH  28  31
HETATM   31  C17 UNL     1      38.189 -16.674  28.448  1.00  0.00     0.072 A 
HETATM   32  C18 UNL     1      38.544 -15.632  27.598  1.00  0.00    -0.042 A 
HETATM   33  C19 UNL     1      39.861 -15.714  26.931  1.00  0.00     0.049 C 
HETATM   34  C20 UNL     1      37.713 -14.527  27.421  1.00  0.00     0.032 A 
HETATM   35  C21 UNL     1      36.508 -14.418  28.083  1.00  0.00     0.009 A 
HETATM   36  C22 UNL     1      35.606 -13.242  27.878  1.00  0.00     0.068 C 
HETATM   37  N6  UNL     1      36.183 -15.417  28.900  1.00  0.00    -0.327 N 
HETATM   38  C23 UNL     1      36.962 -16.472  29.075  1.00  0.00     0.259 A 
ATOM     39  H6  UNL     1      35.301 -15.369  29.410  1.00  0.00     0.169 HD
HETATM   40  O4  UNL     1      36.584 -17.374  29.864  1.00  0.00    -0.267 OA
ENDBRANCH  28  31
ENDBRANCH   6  28
BRANCH   5  41
HETATM   41  C12 UNL     1      37.646 -19.109  26.183  1.00  0.00    -0.075 C 
HETATM   42  C13 UNL     1      37.525 -18.127  25.106  1.00  0.00     0.044 C 
HETATM   43  C14 UNL     1      36.641 -20.202  26.260  1.00  0.00     0.044 C 
ENDBRANCH   5  41
TORSDOF 11
ENDMDL
MODEL 4
REMARK VINA RESULT: -8.271761805      3.281      4.665
REMARK  11 active torsions:
REMARK  status: ('A' for Active; 'I' for Inactive)
REMARK    1  A    between atoms: C2_4  and  O1_5 
REMARK    2  A    between atoms: C2_4  and  N2_7 
REMARK    3  A    between atoms: N2_7  and  C3_9 
REMARK    4  A    between atoms: N3_11  and  C5_13 
REMARK    5  A    between atoms: C5_13  and  C6_14 
REMARK    6  A    between atoms: C6_14  and  N4_15 
REMARK       I    between atoms: N4_15  and  C7_17 
REMARK       I    between atoms: C7_17  and  N5_19 
REMARK    7  A    between atoms: N5_19  and  C8_21 
REMARK    8  A    between atoms: C11_25  and  C12_26 
REMARK    9  A    between atoms: C15_29  and  C16_30 
REMARK   10  A    between atoms: C16_30  and  O3_31 
REMARK   11  A    between atoms: C16_30  and  C17_33 
ROOT
HETATM    1  C8  UNL     1      41.861 -19.920  26.058  1.00  0.00     0.038 A 
HETATM    2  C9  UNL     1      41.192 -20.386  24.937  1.00  0.00     0.054 A 
HETATM    3  C10 UNL     1      39.879 -20.044  24.728  1.00  0.00     0.047 A 
HETATM    4 CL1  UNL     1      39.183 -20.589  23.194  1.00  0.00    -0.083 Cl
HETATM    5  C11 UNL     1      39.136 -19.238  25.587  1.00  0.00     0.000 A 
HETATM    6  C15 UNL     1      39.767 -18.759  26.698  1.00  0.00     0.012 A 
HETATM    7  C24 UNL     1      41.120 -19.123  26.894  1.00  0.00     0.044 A 
ENDROOT
BRANCH   1   8
HETATM    8  N5  UNL     1      43.173 -20.357  26.329  1.00  0.00    -0.309 N 
HETATM    9  C7  UNL     1      43.585 -21.581  26.888  1.00  0.00     0.324 C 
HETATM   10  N4  UNL     1      44.952 -21.783  27.211  1.00  0.00    -0.321 N 
HETATM   11  O2  UNL     1      42.757 -22.477  27.096  1.00  0.00    -0.247 OA
ATOM     12  H4  UNL     1      45.584 -21.001  27.038  1.00  0.00     0.169 HD
ATOM     13  H5  UNL     1      43.919 -19.704  26.090  1.00  0.00     0.170 HD
BRANCH  10  14
HETATM   14  C6  UNL     1      45.526 -22.952  27.746  1.00  0.00     0.085 C 
BRANCH  14  15
HETATM   15  C5  UNL     1      45.553 -23.071  29.243  1.00  0.00     0.165 C 
BRANCH  15  16
HETATM   16  N3  UNL     1      44.207 -22.922  29.788  1.00  0.00    -0.375 N 
HETATM   17  C3  UNL     1      43.828 -21.929  30.549  1.00  0.00     0.076 C 
HETATM   18  C4  UNL     1      44.773 -20.842  30.900  1.00  0.00     0.089 C 
ATOM     19  H3  UNL     1      43.518 -23.639  29.560  1.00  0.00     0.161 HD
BRANCH  17  20
HETATM   20  N2  UNL     1      42.489 -21.923  31.007  1.00  0.00    -0.313 N 
ATOM     21  H2  UNL     1      42.348 -22.122  31.997  1.00  0.00     0.170 HD
BRANCH  20  22
HETATM   22  C2  UNL     1      41.328 -21.673  30.244  1.00  0.00     0.217 C 
HETATM   23  N1  UNL     1      40.791 -22.378  29.253  1.00  0.00    -0.361 N 
HETATM   24  C1  UNL     1      39.623 -22.100  28.471  1.00  0.00     0.150 C 
ATOM     25  H1  UNL     1      41.280 -23.241  29.016  1.00  0.00     0.162 HD
BRANCH  22  26
HETATM   26  O1  UNL     1      40.727 -20.545  30.631  1.00  0.00    -0.333 OA
ATOM     27  H1  UNL     1      40.252 -20.035  29.985  1.00  0.00     0.220 HD
ENDBRANCH  22  26
ENDBRANCH  20  22
ENDBRANCH  17  20
ENDBRANCH  15  16
ENDBRANCH  14  15
ENDBRANCH  10  14
ENDBRANCH   1   8
BRANCH   6  28
HETATM   28  C16 UNL     1      39.157 -17.995  27.740  1.00  0.00     0.093 C 
BRANCH  28  29
HETATM   29  O3  UNL     1      39.468 -18.548  28.924  1.00  0.00    -0.359 OA
ATOM     30  H3  UNL     1      38.870 -18.218  29.585  1.00  0.00     0.217 HD
ENDBRANCH  28  29
BRANCH  28  31
HETATM   31  C17 UNL     1      38.343 -16.859  27.879  1.00  0.00     0.072 A 
HETATM   32  C18 UNL     1      38.643 -15.656  27.246  1.00  0.00    -0.042 A 
HETATM   33  C19 UNL     1      39.905 -15.584  26.481  1.00  0.00     0.049 C 
HETATM   34  C20 UNL     1      37.811 -14.546  27.371  1.00  0.00     0.032 A 
HETATM   35  C21 UNL     1      36.659 -14.590  28.128  1.00  0.00     0.009 A 
HETATM   36  C22 UNL     1      35.753 -13.405  28.247  1.00  0.00     0.068 C 
HETATM   37  N6  UNL     1      36.387 -15.743  28.736  1.00  0.00    -0.327 N 
HETATM   38  C23 UNL     1      37.169 -16.804  28.623  1.00  0.00     0.259 A 
ATOM     39  H6  UNL     1      35.546 -15.811  29.308  1.00  0.00     0.169 HD
HETATM   40  O4  UNL     1      36.842 -17.857  29.228  1.00  0.00    -0.267 OA
ENDBRANCH  28  31
ENDBRANCH   6  28
BRANCH   5  41
HETATM   41  C12 UNL     1      37.676 -19.226  25.344  1.00  0.00    -0.075 C 
HETATM   42  C13 UNL     1      36.851 -20.036  26.239  1.00  0.00     0.044 C 
HETATM   43  C14 UNL     1      37.078 -18.006  24.741  1.00  0.00     0.044 C 
ENDBRANCH   5  41
TORSDOF 11
ENDMDL
MODEL 5
REMARK VINA RESULT: -8.250218270      3.129      4.931
REMARK  11 active torsions:
REMARK  status: ('A' for Active; 'I' for Inactive)
REMARK    1  A    between atoms: C2_4  and  O1_5 
REMARK    2  A    between atoms: C2_4  and  N2_7 
REMARK    3  A    between atoms: N2_7  and  C3_9 
REMARK    4  A    between atoms: N3_11  and  C5_13 
REMARK    5  A    between atoms: C5_13  and  C6_14 
REMARK    6  A    between atoms: C6_14  and  N4_15 
REMARK       I    between atoms: N4_15  and  C7_17 
REMARK       I    between atoms: C7_17  and  N5_19 
REMARK    7  A    between atoms: N5_19  and  C8_21 
REMARK    8  A    between atoms: C11_25  and  C12_26 
REMARK    9  A    between atoms: C15_29  and  C16_30 
REMARK   10  A    between atoms: C16_30  and  O3_31 
REMARK   11  A    between atoms: C16_30  and  C17_33 
ROOT
HETATM    1  C8  UNL     1      41.520 -20.023  27.384  1.00  0.00     0.038 A 
HETATM    2  C9  UNL     1      40.958 -20.553  26.234  1.00  0.00     0.054 A 
HETATM    3  C10 UNL     1      39.746 -20.088  25.784  1.00  0.00     0.047 A 
HETATM    4 CL1  UNL     1      39.204 -20.749  24.233  1.00  0.00    -0.083 Cl
HETATM    5  C11 UNL     1      39.008 -19.092  26.419  1.00  0.00     0.000 A 
HETATM    6  C15 UNL     1      39.536 -18.546  27.552  1.00  0.00     0.012 A 
HETATM    7  C24 UNL     1      40.786 -19.039  27.997  1.00  0.00     0.044 A 
ENDROOT
BRANCH   1   8
HETATM    8  N5  UNL     1      42.709 -20.571  27.905  1.00  0.00    -0.309 N 
HETATM    9  C7  UNL     1      42.985 -20.949  29.232  1.00  0.00     0.324 C 
HETATM   10  N4  UNL     1      44.297 -21.358  29.589  1.00  0.00    -0.321 N 
HETATM   11  O2  UNL     1      42.087 -20.924  30.083  1.00  0.00    -0.247 OA
ATOM     12  H4  UNL     1      45.000 -21.336  28.851  1.00  0.00     0.169 HD
ATOM     13  H5  UNL     1      43.466 -20.712  27.235  1.00  0.00     0.170 HD
BRANCH  10  14
HETATM   14  C6  UNL     1      44.727 -21.790  30.859  1.00  0.00     0.085 C 
BRANCH  14  15
HETATM   15  C5  UNL     1      44.489 -23.233  31.200  1.00  0.00     0.165 C 
BRANCH  15  16
HETATM   16  N3  UNL     1      43.100 -23.595  30.936  1.00  0.00    -0.375 N 
HETATM   17  C3  UNL     1      42.730 -24.537  30.108  1.00  0.00     0.076 C 
HETATM   18  C4  UNL     1      43.740 -25.340  29.378  1.00  0.00     0.089 C 
ATOM     19  H3  UNL     1      42.370 -23.079  31.429  1.00  0.00     0.161 HD
BRANCH  17  20
HETATM   20  N2  UNL     1      41.344 -24.771  29.952  1.00  0.00    -0.313 N 
ATOM     21  H2  UNL     1      40.950 -25.540  30.493  1.00  0.00     0.170 HD
BRANCH  20  22
HETATM   22  C2  UNL     1      40.445 -24.056  29.132  1.00  0.00     0.217 C 
HETATM   23  N1  UNL     1      40.024 -24.319  27.898  1.00  0.00    -0.361 N 
HETATM   24  C1  UNL     1      39.128 -23.571  27.067  1.00  0.00     0.150 C 
ATOM     25  H1  UNL     1      40.390 -25.175  27.485  1.00  0.00     0.162 HD
BRANCH  22  26
HETATM   26  O1  UNL     1      39.986 -22.965  29.750  1.00  0.00    -0.333 OA
ATOM     27  H1  UNL     1      40.606 -22.304  30.033  1.00  0.00     0.220 HD
ENDBRANCH  22  26
ENDBRANCH  20  22
ENDBRANCH  17  20
ENDBRANCH  15  16
ENDBRANCH  14  15
ENDBRANCH  10  14
ENDBRANCH   1   8
BRANCH   6  28
HETATM   28  C16 UNL     1      38.897 -17.583  28.391  1.00  0.00     0.093 C 
BRANCH  28  29
HETATM   29  O3  UNL     1      39.196 -17.855  29.672  1.00  0.00    -0.359 OA
ATOM     30  H3  UNL     1      40.122 -17.696  29.812  1.00  0.00     0.217 HD
ENDBRANCH  28  29
BRANCH  28  31
HETATM   31  C17 UNL     1      38.063 -16.460  28.264  1.00  0.00     0.072 A 
HETATM   32  C18 UNL     1      38.407 -15.373  27.467  1.00  0.00    -0.042 A 
HETATM   33  C19 UNL     1      39.733 -15.399  26.814  1.00  0.00     0.049 C 
HETATM   34  C20 UNL     1      37.556 -14.279  27.329  1.00  0.00     0.032 A 
HETATM   35  C21 UNL     1      36.341 -14.224  27.979  1.00  0.00     0.009 A 
HETATM   36  C22 UNL     1      35.417 -13.059  27.816  1.00  0.00     0.068 C 
HETATM   37  N6  UNL     1      36.026 -15.266  28.746  1.00  0.00    -0.327 N 
HETATM   38  C23 UNL     1      36.825 -16.311  28.883  1.00  0.00     0.259 A 
ATOM     39  H6  UNL     1      35.137 -15.258  29.246  1.00  0.00     0.169 HD
HETATM   40  O4  UNL     1      36.456 -17.256  29.626  1.00  0.00    -0.267 OA
ENDBRANCH  28  31
ENDBRANCH   6  28
BRANCH   5  41
HETATM   41  C12 UNL     1      37.611 -18.941  25.951  1.00  0.00    -0.075 C 
HETATM   42  C13 UNL     1      37.367 -17.942  24.911  1.00  0.00     0.044 C 
HETATM   43  C14 UNL     1      36.720 -20.130  26.013  1.00  0.00     0.044 C 
ENDBRANCH   5  41
TORSDOF 11
ENDMDL
