MODEL 1
REMARK VINA RESULT: -7.556353144      0.000      0.000
REMARK  9 active torsions:
REMARK  status: ('A' for Active; 'I' for Inactive)
REMARK       I    between atoms: N1_2  and  C2_4 
REMARK    1  A    between atoms: C2_4  and  C3_6 
REMARK    2  A    between atoms: C6_9  and  N2_10 
REMARK    3  A    between atoms: N2_10  and  C7_12 
REMARK    4  A    between atoms: C7_12  and  N3_14 
REMARK    5  A    between atoms: N3_14  and  C8_16 
REMARK    6  A    between atoms: C11_19  and  S2_20 
REMARK    7  A    between atoms: S2_20  and  N4_23 
REMARK    8  A    between atoms: N4_23  and  C12_25 
REMARK    9  A    between atoms: C15_28  and  C16_29 
ROOT
HETATM    1  C8  UNL     1      35.762 -21.185  22.391  1.00  0.00     0.034 A 
HETATM    2  C9  UNL     1      37.122 -21.431  22.210  1.00  0.00     0.031 A 
HETATM    3  C10 UNL     1      38.015 -20.424  22.362  1.00  0.00     0.027 A 
HETATM    4  C11 UNL     1      37.604 -19.152  22.696  1.00  0.00     0.080 A 
HETATM    5  C19 UNL     1      36.265 -18.922  22.874  1.00  0.00     0.027 A 
HETATM    6  C20 UNL     1      35.329 -19.916  22.727  1.00  0.00     0.031 A 
ENDROOT
BRANCH   1   7
HETATM    7  N3  UNL     1      34.903 -22.277  22.166  1.00  0.00    -0.333 N 
ATOM      8  H3  UNL     1      34.183 -22.175  21.452  1.00  0.00     0.168 HD
BRANCH   7   9
HETATM    9  C7  UNL     1      34.972 -23.487  22.854  1.00  0.00     0.176 C 
HETATM   10  S1  UNL     1      34.852 -24.875  21.950  1.00  0.00    -0.041 SA
BRANCH   9  11
HETATM   11  N2  UNL     1      35.090 -23.654  24.238  1.00  0.00    -0.333 N 
ATOM     12  H2  UNL     1      34.430 -24.294  24.682  1.00  0.00     0.168 HD
BRANCH  11  13
HETATM   13  C6  UNL     1      36.034 -23.024  25.086  1.00  0.00     0.034 A 
HETATM   14  C5  UNL     1      35.829 -21.875  25.805  1.00  0.00     0.030 A 
HETATM   15  C4  UNL     1      36.836 -21.296  26.593  1.00  0.00     0.019 A 
HETATM   16  C3  UNL     1      38.090 -21.855  26.687  1.00  0.00     0.032 A 
HETATM   17  C22 UNL     1      38.298 -23.010  25.967  1.00  0.00     0.019 A 
HETATM   18  C21 UNL     1      37.323 -23.586  25.194  1.00  0.00     0.030 A 
BRANCH  16  19
HETATM   19  C2  UNL     1      39.143 -21.262  27.501  1.00  0.00     0.251 C 
HETATM   20  N1  UNL     1      40.231 -20.548  26.964  1.00  0.00    -0.361 N 
HETATM   21  C1  UNL     1      41.234 -19.990  27.844  1.00  0.00     0.149 C 
ATOM     22  H1  UNL     1      40.313 -20.425  25.954  1.00  0.00     0.162 HD
HETATM   23  O1  UNL     1      39.046 -21.413  28.759  1.00  0.00    -0.268 OA
ENDBRANCH  16  19
ENDBRANCH  11  13
ENDBRANCH   9  11
ENDBRANCH   7   9
ENDBRANCH   1   7
BRANCH   4  24
HETATM   24  S2  UNL     1      38.733 -17.829  22.901  1.00  0.00     0.263 S 
HETATM   25  O2  UNL     1      40.011 -18.433  23.459  1.00  0.00    -0.200 OA
HETATM   26  O3  UNL     1      38.959 -17.218  21.569  1.00  0.00    -0.200 OA
BRANCH  24  27
HETATM   27  N4  UNL     1      38.151 -16.678  24.037  1.00  0.00    -0.281 N 
ATOM     28  H4  UNL     1      37.686 -15.837  23.697  1.00  0.00     0.179 HD
BRANCH  27  29
HETATM   29  C12 UNL     1      38.300 -16.867  25.445  1.00  0.00     0.042 A 
HETATM   30  C13 UNL     1      37.387 -17.690  26.114  1.00  0.00     0.031 A 
HETATM   31  C14 UNL     1      37.523 -17.873  27.467  1.00  0.00     0.020 A 
HETATM   32  C15 UNL     1      38.541 -17.265  28.190  1.00  0.00     0.041 A 
HETATM   33  C17 UNL     1      39.447 -16.453  27.547  1.00  0.00     0.020 A 
HETATM   34  C18 UNL     1      39.301 -16.272  26.174  1.00  0.00     0.031 A 
BRANCH  32  35
HETATM   35  C16 UNL     1      38.657 -17.476  29.605  1.00  0.00     0.209 C 
HETATM   36  O4  UNL     1      37.904 -16.870  30.399  1.00  0.00    -0.644 OA
HETATM   37  O5  UNL     1      39.599 -18.349  30.107  1.00  0.00    -0.644 OA
ENDBRANCH  32  35
ENDBRANCH  27  29
ENDBRANCH  24  27
ENDBRANCH   4  24
TORSDOF 9
ENDMDL
MODEL 2
REMARK VINA RESULT: -7.525001530      2.935      4.880
REMARK  9 active torsions:
REMARK  status: ('A' for Active; 'I' for Inactive)
REMARK       I    between atoms: N1_2  and  C2_4 
REMARK    1  A    between atoms: C2_4  and  C3_6 
REMARK    2  A    between atoms: C6_9  and  N2_10 
REMARK    3  A    between atoms: N2_10  and  C7_12 
REMARK    4  A    between atoms: C7_12  and  N3_14 
REMARK    5  A    between atoms: N3_14  and  C8_16 
REMARK    6  A    between atoms: C11_19  and  S2_20 
REMARK    7  A    between atoms: S2_20  and  N4_23 
REMARK    8  A    between atoms: N4_23  and  C12_25 
REMARK    9  A    between atoms: C15_28  and  C16_29 
ROOT
HETATM    1  C8  UNL     1      37.673 -18.517  23.690  1.00  0.00     0.034 A 
HETATM    2  C9  UNL     1      39.037 -18.454  23.965  1.00  0.00     0.031 A 
HETATM    3  C10 UNL     1      39.493 -18.786  25.196  1.00  0.00     0.027 A 
HETATM    4  C11 UNL     1      38.629 -19.189  26.191  1.00  0.00     0.080 A 
HETATM    5  C19 UNL     1      37.289 -19.249  25.909  1.00  0.00     0.027 A 
HETATM    6  C20 UNL     1      36.788 -18.919  24.673  1.00  0.00     0.031 A 
ENDROOT
BRANCH   1   7
HETATM    7  N3  UNL     1      37.284 -18.109  22.400  1.00  0.00    -0.333 N 
ATOM      8  H3  UNL     1      37.726 -17.275  22.013  1.00  0.00     0.168 HD
BRANCH   7   9
HETATM    9  C7  UNL     1      36.338 -18.767  21.618  1.00  0.00     0.176 C 
HETATM   10  S1  UNL     1      34.959 -17.925  21.236  1.00  0.00    -0.041 SA
BRANCH   9  11
HETATM   11  N2  UNL     1      36.410 -20.085  21.153  1.00  0.00    -0.333 N 
ATOM     12  H2  UNL     1      36.730 -20.217  20.193  1.00  0.00     0.168 HD
BRANCH  11  13
HETATM   13  C6  UNL     1      36.084 -21.255  21.883  1.00  0.00     0.034 A 
HETATM   14  C5  UNL     1      35.028 -21.396  22.746  1.00  0.00     0.030 A 
HETATM   15  C4  UNL     1      34.799 -22.583  23.459  1.00  0.00     0.019 A 
HETATM   16  C3  UNL     1      35.627 -23.675  23.329  1.00  0.00     0.032 A 
HETATM   17  C22 UNL     1      36.687 -23.536  22.462  1.00  0.00     0.019 A 
HETATM   18  C21 UNL     1      36.922 -22.382  21.759  1.00  0.00     0.030 A 
BRANCH  16  19
HETATM   19  C2  UNL     1      35.400 -24.912  24.065  1.00  0.00     0.251 C 
HETATM   20  N1  UNL     1      36.384 -25.904  24.240  1.00  0.00    -0.361 N 
HETATM   21  C1  UNL     1      36.074 -27.103  24.987  1.00  0.00     0.149 C 
ATOM     22  H1  UNL     1      37.314 -25.777  23.840  1.00  0.00     0.162 HD
HETATM   23  O1  UNL     1      34.243 -25.075  24.565  1.00  0.00    -0.268 OA
ENDBRANCH  16  19
ENDBRANCH  11  13
ENDBRANCH   9  11
ENDBRANCH   7   9
ENDBRANCH   1   7
BRANCH   4  24
HETATM   24  S2  UNL     1      39.185 -19.625  27.792  1.00  0.00     0.263 S 
HETATM   25  O2  UNL     1      38.135 -20.554  28.378  1.00  0.00    -0.200 OA
HETATM   26  O3  UNL     1      40.492 -20.311  27.646  1.00  0.00    -0.200 OA
BRANCH  24  27
HETATM   27  N4  UNL     1      39.302 -18.247  28.813  1.00  0.00    -0.281 N 
ATOM     28  H4  UNL     1      40.020 -18.225  29.537  1.00  0.00     0.179 HD
BRANCH  27  29
HETATM   29  C12 UNL     1      38.422 -17.131  28.675  1.00  0.00     0.042 A 
HETATM   30  C13 UNL     1      37.149 -17.202  29.253  1.00  0.00     0.031 A 
HETATM   31  C14 UNL     1      36.298 -16.135  29.123  1.00  0.00     0.020 A 
HETATM   32  C15 UNL     1      36.663 -14.986  28.433  1.00  0.00     0.041 A 
HETATM   33  C17 UNL     1      37.910 -14.900  27.859  1.00  0.00     0.020 A 
HETATM   34  C18 UNL     1      38.768 -15.988  27.996  1.00  0.00     0.031 A 
BRANCH  32  35
HETATM   35  C16 UNL     1      35.749 -13.886  28.313  1.00  0.00     0.209 C 
HETATM   36  O4  UNL     1      34.805 -13.756  29.125  1.00  0.00    -0.644 OA
HETATM   37  O5  UNL     1      35.898 -12.959  27.304  1.00  0.00    -0.644 OA
ENDBRANCH  32  35
ENDBRANCH  27  29
ENDBRANCH  24  27
ENDBRANCH   4  24
TORSDOF 9
ENDMDL
MODEL 3
REMARK VINA RESULT: -7.432298675      3.936      7.666
REMARK  9 active torsions:
REMARK  status: ('A' for Active; 'I' for Inactive)
REMARK       I    between atoms: N1_2  and  C2_4 
REMARK    1  A    between atoms: C2_4  and  C3_6 
REMARK    2  A    between atoms: C6_9  and  N2_10 
REMARK    3  A    between atoms: N2_10  and  C7_12 
REMARK    4  A    between atoms: C7_12  and  N3_14 
REMARK    5  A    between atoms: N3_14  and  C8_16 
REMARK    6  A    between atoms: C11_19  and  S2_20 
REMARK    7  A    between atoms: S2_20  and  N4_23 
REMARK    8  A    between atoms: N4_23  and  C12_25 
REMARK    9  A    between atoms: C15_28  and  C16_29 
ROOT
HETATM    1  C8  UNL     1      39.829 -17.677  27.225  1.00  0.00     0.034 A 
HETATM    2  C9  UNL     1      39.338 -17.813  28.522  1.00  0.00     0.031 A 
HETATM    3  C10 UNL     1      39.593 -18.943  29.224  1.00  0.00     0.027 A 
HETATM    4  C11 UNL     1      40.334 -19.970  28.678  1.00  0.00     0.080 A 
HETATM    5  C19 UNL     1      40.812 -19.825  27.402  1.00  0.00     0.027 A 
HETATM    6  C20 UNL     1      40.574 -18.695  26.658  1.00  0.00     0.031 A 
ENDROOT
BRANCH   1   7
HETATM    7  N3  UNL     1      39.476 -16.492  26.554  1.00  0.00    -0.333 N 
ATOM      8  H3  UNL     1      40.189 -15.770  26.456  1.00  0.00     0.168 HD
BRANCH   7   9
HETATM    9  C7  UNL     1      38.216 -16.238  26.014  1.00  0.00     0.176 C 
HETATM   10  S1  UNL     1      37.212 -15.240  26.882  1.00  0.00    -0.041 SA
BRANCH   9  11
HETATM   11  N2  UNL     1      37.691 -16.774  24.832  1.00  0.00    -0.333 N 
ATOM     12  H2  UNL     1      37.724 -16.179  24.004  1.00  0.00     0.168 HD
BRANCH  11  13
HETATM   13  C6  UNL     1      37.119 -18.060  24.672  1.00  0.00     0.034 A 
HETATM   14  C5  UNL     1      37.063 -19.040  25.627  1.00  0.00     0.030 A 
HETATM   15  C4  UNL     1      36.508 -20.304  25.370  1.00  0.00     0.019 A 
HETATM   16  C3  UNL     1      35.987 -20.627  24.138  1.00  0.00     0.032 A 
HETATM   17  C22 UNL     1      36.041 -19.643  23.177  1.00  0.00     0.019 A 
HETATM   18  C21 UNL     1      36.580 -18.404  23.415  1.00  0.00     0.030 A 
BRANCH  16  19
HETATM   19  C2  UNL     1      35.410 -21.936  23.860  1.00  0.00     0.251 C 
HETATM   20  N1  UNL     1      34.542 -22.188  22.780  1.00  0.00    -0.361 N 
HETATM   21  C1  UNL     1      34.014 -23.519  22.575  1.00  0.00     0.149 C 
ATOM     22  H1  UNL     1      34.286 -21.433  22.143  1.00  0.00     0.162 HD
HETATM   23  O1  UNL     1      35.725 -22.879  24.650  1.00  0.00    -0.268 OA
ENDBRANCH  16  19
ENDBRANCH  11  13
ENDBRANCH   9  11
ENDBRANCH   7   9
ENDBRANCH   1   7
BRANCH   4  24
HETATM   24  S2  UNL     1      40.681 -21.442  29.558  1.00  0.00     0.263 S 
HETATM   25  O2  UNL     1      40.924 -21.037  31.002  1.00  0.00    -0.200 OA
HETATM   26  O3  UNL     1      39.500 -22.331  29.437  1.00  0.00    -0.200 OA
BRANCH  24  27
HETATM   27  N4  UNL     1      42.109 -22.201  28.973  1.00  0.00    -0.281 N 
ATOM     28  H4  UNL     1      42.042 -22.837  28.180  1.00  0.00     0.179 HD
BRANCH  27  29
HETATM   29  C12 UNL     1      43.385 -21.964  29.568  1.00  0.00     0.042 A 
HETATM   30  C13 UNL     1      43.943 -22.957  30.382  1.00  0.00     0.031 A 
HETATM   31  C14 UNL     1      45.167 -22.735  30.959  1.00  0.00     0.020 A 
HETATM   32  C15 UNL     1      45.869 -21.554  30.758  1.00  0.00     0.041 A 
HETATM   33  C17 UNL     1      45.335 -20.568  29.960  1.00  0.00     0.020 A 
HETATM   34  C18 UNL     1      44.091 -20.801  29.379  1.00  0.00     0.031 A 
BRANCH  32  35
HETATM   35  C16 UNL     1      47.148 -21.351  31.375  1.00  0.00     0.209 C 
HETATM   36  O4  UNL     1      47.569 -22.153  32.238  1.00  0.00    -0.644 OA
HETATM   37  O5  UNL     1      47.931 -20.271  31.026  1.00  0.00    -0.644 OA
ENDBRANCH  32  35
ENDBRANCH  27  29
ENDBRANCH  24  27
ENDBRANCH   4  24
TORSDOF 9
ENDMDL
MODEL 4
REMARK VINA RESULT: -7.418517748      8.056     11.587
REMARK  9 active torsions:
REMARK  status: ('A' for Active; 'I' for Inactive)
REMARK       I    between atoms: N1_2  and  C2_4 
REMARK    1  A    between atoms: C2_4  and  C3_6 
REMARK    2  A    between atoms: C6_9  and  N2_10 
REMARK    3  A    between atoms: N2_10  and  C7_12 
REMARK    4  A    between atoms: C7_12  and  N3_14 
REMARK    5  A    between atoms: N3_14  and  C8_16 
REMARK    6  A    between atoms: C11_19  and  S2_20 
REMARK    7  A    between atoms: S2_20  and  N4_23 
REMARK    8  A    between atoms: N4_23  and  C12_25 
REMARK    9  A    between atoms: C15_28  and  C16_29 
ROOT
HETATM    1  C8  UNL     1      46.051 -20.891  30.584  1.00  0.00     0.034 A 
HETATM    2  C9  UNL     1      45.337 -20.302  29.542  1.00  0.00     0.031 A 
HETATM    3  C10 UNL     1      44.019 -20.575  29.390  1.00  0.00     0.027 A 
HETATM    4  C11 UNL     1      43.363 -21.430  30.250  1.00  0.00     0.080 A 
HETATM    5  C19 UNL     1      44.075 -22.002  31.271  1.00  0.00     0.027 A 
HETATM    6  C20 UNL     1      45.412 -21.751  31.458  1.00  0.00     0.031 A 
ENDROOT
BRANCH   1   7
HETATM    7  N3  UNL     1      47.424 -20.589  30.638  1.00  0.00    -0.333 N 
ATOM      8  H3  UNL     1      47.692 -19.645  30.917  1.00  0.00     0.168 HD
BRANCH   7   9
HETATM    9  C7  UNL     1      48.441 -21.491  30.334  1.00  0.00     0.176 C 
HETATM   10  S1  UNL     1      48.193 -22.499  29.038  1.00  0.00    -0.041 SA
BRANCH   9  11
HETATM   11  N2  UNL     1      49.638 -21.666  31.038  1.00  0.00    -0.333 N 
ATOM     12  H2  UNL     1      50.486 -21.782  30.481  1.00  0.00     0.168 HD
BRANCH  11  13
HETATM   13  C6  UNL     1      49.791 -21.699  32.446  1.00  0.00     0.034 A 
HETATM   14  C5  UNL     1      49.029 -22.429  33.321  1.00  0.00     0.030 A 
HETATM   15  C4  UNL     1      49.226 -22.374  34.709  1.00  0.00     0.019 A 
HETATM   16  C3  UNL     1      50.200 -21.579  35.270  1.00  0.00     0.032 A 
HETATM   17  C22 UNL     1      50.968 -20.846  34.393  1.00  0.00     0.019 A 
HETATM   18  C21 UNL     1      50.786 -20.892  33.034  1.00  0.00     0.030 A 
BRANCH  16  19
HETATM   19  C2  UNL     1      50.412 -21.514  36.710  1.00  0.00     0.251 C 
HETATM   20  N1  UNL     1      51.082 -20.452  37.348  1.00  0.00    -0.361 N 
HETATM   21  C1  UNL     1      51.249 -20.464  38.785  1.00  0.00     0.149 C 
ATOM     22  H1  UNL     1      51.449 -19.675  36.798  1.00  0.00     0.162 HD
HETATM   23  O1  UNL     1      49.958 -22.479  37.399  1.00  0.00    -0.268 OA
ENDBRANCH  16  19
ENDBRANCH  11  13
ENDBRANCH   9  11
ENDBRANCH   7   9
ENDBRANCH   1   7
BRANCH   4  24
HETATM   24  S2  UNL     1      41.662 -21.803  30.080  1.00  0.00     0.263 S 
HETATM   25  O2  UNL     1      41.517 -23.293  30.343  1.00  0.00    -0.200 OA
HETATM   26  O3  UNL     1      40.920 -21.002  31.084  1.00  0.00    -0.200 OA
BRANCH  24  27
HETATM   27  N4  UNL     1      41.107 -21.490  28.483  1.00  0.00    -0.281 N 
ATOM     28  H4  UNL     1      41.449 -22.070  27.717  1.00  0.00     0.179 HD
BRANCH  27  29
HETATM   29  C12 UNL     1      40.182 -20.440  28.199  1.00  0.00     0.042 A 
HETATM   30  C13 UNL     1      38.823 -20.754  28.084  1.00  0.00     0.031 A 
HETATM   31  C14 UNL     1      37.929 -19.751  27.808  1.00  0.00     0.020 A 
HETATM   32  C15 UNL     1      38.335 -18.433  27.639  1.00  0.00     0.041 A 
HETATM   33  C17 UNL     1      39.667 -18.108  27.749  1.00  0.00     0.020 A 
HETATM   34  C18 UNL     1      40.568 -19.133  28.029  1.00  0.00     0.031 A 
BRANCH  32  35
HETATM   35  C16 UNL     1      37.375 -17.406  27.351  1.00  0.00     0.209 C 
HETATM   36  O4  UNL     1      36.732 -16.863  28.277  1.00  0.00    -0.644 OA
HETATM   37  O5  UNL     1      37.150 -17.004  26.052  1.00  0.00    -0.644 OA
ENDBRANCH  32  35
ENDBRANCH  27  29
ENDBRANCH  24  27
ENDBRANCH   4  24
TORSDOF 9
ENDMDL
MODEL 5
REMARK VINA RESULT: -7.365867098      8.087     11.659
REMARK  9 active torsions:
REMARK  status: ('A' for Active; 'I' for Inactive)
REMARK       I    between atoms: N1_2  and  C2_4 
REMARK    1  A    between atoms: C2_4  and  C3_6 
REMARK    2  A    between atoms: C6_9  and  N2_10 
REMARK    3  A    between atoms: N2_10  and  C7_12 
REMARK    4  A    between atoms: C7_12  and  N3_14 
REMARK    5  A    between atoms: N3_14  and  C8_16 
REMARK    6  A    between atoms: C11_19  and  S2_20 
REMARK    7  A    between atoms: S2_20  and  N4_23 
REMARK    8  A    between atoms: N4_23  and  C12_25 
REMARK    9  A    between atoms: C15_28  and  C16_29 
ROOT
HETATM    1  C8  UNL     1      46.093 -20.937  30.658  1.00  0.00     0.034 A 
HETATM    2  C9  UNL     1      45.391 -20.315  29.626  1.00  0.00     0.031 A 
HETATM    3  C10 UNL     1      44.073 -20.576  29.456  1.00  0.00     0.027 A 
HETATM    4  C11 UNL     1      43.405 -21.449  30.286  1.00  0.00     0.080 A 
HETATM    5  C19 UNL     1      44.105 -22.054  31.298  1.00  0.00     0.027 A 
HETATM    6  C20 UNL     1      45.442 -21.816  31.503  1.00  0.00     0.031 A 
ENDROOT
BRANCH   1   7
HETATM    7  N3  UNL     1      47.467 -20.644  30.731  1.00  0.00    -0.333 N 
ATOM      8  H3  UNL     1      47.739 -19.720  31.065  1.00  0.00     0.168 HD
BRANCH   7   9
HETATM    9  C7  UNL     1      48.481 -21.532  30.377  1.00  0.00     0.176 C 
HETATM   10  S1  UNL     1      48.216 -22.486  29.044  1.00  0.00    -0.041 SA
BRANCH   9  11
HETATM   11  N2  UNL     1      49.688 -21.735  31.057  1.00  0.00    -0.333 N 
ATOM     12  H2  UNL     1      50.494 -22.003  30.492  1.00  0.00     0.168 HD
BRANCH  11  13
HETATM   13  C6  UNL     1      49.901 -21.604  32.451  1.00  0.00     0.034 A 
HETATM   14  C5  UNL     1      50.826 -20.789  33.050  1.00  0.00     0.030 A 
HETATM   15  C4  UNL     1      50.997 -20.749  34.443  1.00  0.00     0.019 A 
HETATM   16  C3  UNL     1      50.239 -21.530  35.286  1.00  0.00     0.032 A 
HETATM   17  C22 UNL     1      49.308 -22.348  34.686  1.00  0.00     0.019 A 
HETATM   18  C21 UNL     1      49.131 -22.396  33.327  1.00  0.00     0.030 A 
BRANCH  16  19
HETATM   19  C2  UNL     1      50.408 -21.497  36.733  1.00  0.00     0.251 C 
HETATM   20  N1  UNL     1      51.097 -20.474  37.411  1.00  0.00    -0.361 N 
HETATM   21  C1  UNL     1      51.219 -20.517  38.852  1.00  0.00     0.149 C 
ATOM     22  H1  UNL     1      51.511 -19.702  36.887  1.00  0.00     0.162 HD
HETATM   23  O1  UNL     1      49.895 -22.456  37.391  1.00  0.00    -0.268 OA
ENDBRANCH  16  19
ENDBRANCH  11  13
ENDBRANCH   9  11
ENDBRANCH   7   9
ENDBRANCH   1   7
BRANCH   4  24
HETATM   24  S2  UNL     1      41.703 -21.807  30.093  1.00  0.00     0.263 S 
HETATM   25  O2  UNL     1      41.540 -23.295  30.357  1.00  0.00    -0.200 OA
HETATM   26  O3  UNL     1      40.954 -20.997  31.083  1.00  0.00    -0.200 OA
BRANCH  24  27
HETATM   27  N4  UNL     1      41.175 -21.494  28.487  1.00  0.00    -0.281 N 
ATOM     28  H4  UNL     1      41.569 -22.038  27.720  1.00  0.00     0.179 HD
BRANCH  27  29
HETATM   29  C12 UNL     1      40.200 -20.492  28.196  1.00  0.00     0.042 A 
HETATM   30  C13 UNL     1      40.627 -19.173  28.004  1.00  0.00     0.031 A 
HETATM   31  C14 UNL     1      39.695 -18.205  27.728  1.00  0.00     0.020 A 
HETATM   32  C15 UNL     1      38.340 -18.498  27.633  1.00  0.00     0.041 A 
HETATM   33  C17 UNL     1      37.904 -19.789  27.819  1.00  0.00     0.020 A 
HETATM   34  C18 UNL     1      38.857 -20.765  28.100  1.00  0.00     0.031 A 
BRANCH  32  35
HETATM   35  C16 UNL     1      37.389 -17.463  27.343  1.00  0.00     0.209 C 
HETATM   36  O4  UNL     1      36.769 -16.895  28.269  1.00  0.00    -0.644 OA
HETATM   37  O5  UNL     1      37.147 -17.082  26.040  1.00  0.00    -0.644 OA
ENDBRANCH  32  35
ENDBRANCH  27  29
ENDBRANCH  24  27
ENDBRANCH   4  24
TORSDOF 9
ENDMDL
