MODEL 1
REMARK VINA RESULT: -8.560437586      0.000      0.000
REMARK  8 active torsions:
REMARK  status: ('A' for Active; 'I' for Inactive)
REMARK    1  A    between atoms: C2_2  and  C3_3 
REMARK    2  A    between atoms: C2_2  and  C4_5 
REMARK       I    between atoms: C4_5  and  N1_7 
REMARK    3  A    between atoms: N1_7  and  C5_9 
REMARK    4  A    between atoms: C5_9  and  C6_10 
REMARK    5  A    between atoms: C5_9  and  C7_13 
REMARK       I    between atoms: C7_13  and  N2_15 
REMARK    6  A    between atoms: N2_15  and  C8_17 
REMARK    7  A    between atoms: C11_20  and  N3_21 
REMARK       I    between atoms: N3_21  and  C12_23 
REMARK       I    between atoms: C12_23  and  N4_25 
REMARK    8  A    between atoms: N4_25  and  C13_27 
ROOT
HETATM    1  C8  UNL     1      42.371 -20.681  29.099  1.00  0.00     0.034 A 
HETATM    2  C9  UNL     1      43.645 -20.231  28.705  1.00  0.00     0.032 A 
HETATM    3  C10 UNL     1      44.787 -20.590  29.384  1.00  0.00     0.032 A 
HETATM    4  C11 UNL     1      44.747 -21.401  30.476  1.00  0.00     0.036 A 
HETATM    5  C23 UNL     1      43.500 -21.859  30.883  1.00  0.00     0.032 A 
HETATM    6  C24 UNL     1      42.354 -21.493  30.195  1.00  0.00     0.032 A 
ENDROOT
BRANCH   1   7
HETATM    7  N2  UNL     1      41.254 -20.286  28.355  1.00  0.00    -0.325 N 
HETATM    8  C7  UNL     1      40.191 -19.491  28.784  1.00  0.00     0.255 C 
HETATM    9  O4  UNL     1      40.096 -18.997  29.935  1.00  0.00    -0.270 OA
ATOM     10  H2  UNL     1      41.212 -20.616  27.391  1.00  0.00     0.169 HD
BRANCH   8  11
HETATM   11  C5  UNL     1      39.046 -19.154  27.867  1.00  0.00     0.279 C 
BRANCH  11  12
HETATM   12  N1  UNL     1      38.267 -18.100  28.470  1.00  0.00    -0.339 N 
HETATM   13  C4  UNL     1      38.526 -16.755  28.120  1.00  0.00     0.223 C 
HETATM   14  O1  UNL     1      39.433 -16.478  27.284  1.00  0.00    -0.273 OA
ATOM     15  H1  UNL     1      37.536 -18.323  29.145  1.00  0.00     0.163 HD
BRANCH  13  16
HETATM   16  C2  UNL     1      37.732 -15.659  28.732  1.00  0.00     0.087 C 
HETATM   17  C1  UNL     1      36.326 -16.166  28.917  1.00  0.00     0.021 C 
BRANCH  16  18
HETATM   18  C3  UNL     1      37.807 -14.441  27.871  1.00  0.00     0.128 C 
HETATM   19 CL1  UNL     1      36.302 -13.513  28.038  1.00  0.00    -0.130 Cl
ENDBRANCH  16  18
ENDBRANCH  13  16
ENDBRANCH  11  12
BRANCH  11  20
HETATM   20  C6  UNL     1      38.208 -20.366  27.666  1.00  0.00     0.206 C 
HETATM   21  O2  UNL     1      38.445 -21.380  28.392  1.00  0.00    -0.646 OA
HETATM   22  O3  UNL     1      37.196 -20.417  26.728  1.00  0.00    -0.646 OA
ENDBRANCH  11  20
ENDBRANCH   8  11
ENDBRANCH   1   7
BRANCH   4  23
HETATM   23  N3  UNL     1      45.861 -21.804  31.238  1.00  0.00    -0.309 N 
HETATM   24  C12 UNL     1      47.188 -21.369  31.162  1.00  0.00     0.321 C 
HETATM   25  O5  UNL     1      47.561 -20.507  30.357  1.00  0.00    -0.247 OA
HETATM   26  N4  UNL     1      48.168 -21.914  32.026  1.00  0.00    -0.334 N 
ATOM     27  H4  UNL     1      47.860 -22.623  32.690  1.00  0.00     0.165 HD
ATOM     28  H3  UNL     1      45.673 -22.515  31.946  1.00  0.00     0.170 HD
BRANCH  26  29
HETATM   29  C13 UNL     1      49.553 -21.557  32.048  1.00  0.00     0.035 C 
HETATM   30  C14 UNL     1      49.804 -20.083  31.816  1.00  0.00     0.035 C 
HETATM   31  C15 UNL     1      51.301 -19.856  31.884  1.00  0.00    -0.012 C 
HETATM   32  C16 UNL     1      52.058 -20.706  30.890  1.00  0.00     0.009 C 
HETATM   33  C20 UNL     1      51.858 -20.187  33.257  1.00  0.00     0.009 C 
HETATM   34  C17 UNL     1      51.805 -22.177  31.180  1.00  0.00    -0.012 C 
HETATM   35  C18 UNL     1      52.202 -22.575  32.561  1.00  0.00     0.009 C 
HETATM   36  C22 UNL     1      50.295 -22.369  31.035  1.00  0.00     0.035 C 
HETATM   37  C19 UNL     1      51.552 -21.635  33.547  1.00  0.00    -0.012 C 
HETATM   38  C21 UNL     1      50.074 -21.829  33.465  1.00  0.00     0.035 C 
ENDBRANCH  26  29
ENDBRANCH   4  23
TORSDOF 8
ENDMDL
MODEL 2
REMARK VINA RESULT: -8.544411317      0.181      1.267
REMARK  8 active torsions:
REMARK  status: ('A' for Active; 'I' for Inactive)
REMARK    1  A    between atoms: C2_2  and  C3_3 
REMARK    2  A    between atoms: C2_2  and  C4_5 
REMARK       I    between atoms: C4_5  and  N1_7 
REMARK    3  A    between atoms: N1_7  and  C5_9 
REMARK    4  A    between atoms: C5_9  and  C6_10 
REMARK    5  A    between atoms: C5_9  and  C7_13 
REMARK       I    between atoms: C7_13  and  N2_15 
REMARK    6  A    between atoms: N2_15  and  C8_17 
REMARK    7  A    between atoms: C11_20  and  N3_21 
REMARK       I    between atoms: N3_21  and  C12_23 
REMARK       I    between atoms: C12_23  and  N4_25 
REMARK    8  A    between atoms: N4_25  and  C13_27 
ROOT
HETATM    1  C8  UNL     1      42.306 -20.657  29.104  1.00  0.00     0.034 A 
HETATM    2  C9  UNL     1      43.581 -20.197  28.728  1.00  0.00     0.032 A 
HETATM    3  C10 UNL     1      44.718 -20.559  29.414  1.00  0.00     0.032 A 
HETATM    4  C11 UNL     1      44.672 -21.384  30.495  1.00  0.00     0.036 A 
HETATM    5  C23 UNL     1      43.423 -21.853  30.884  1.00  0.00     0.032 A 
HETATM    6  C24 UNL     1      42.282 -21.484  30.189  1.00  0.00     0.032 A 
ENDROOT
BRANCH   1   7
HETATM    7  N2  UNL     1      41.195 -20.258  28.353  1.00  0.00    -0.325 N 
HETATM    8  C7  UNL     1      40.130 -19.463  28.778  1.00  0.00     0.255 C 
HETATM    9  O4  UNL     1      40.028 -18.972  29.930  1.00  0.00    -0.270 OA
ATOM     10  H2  UNL     1      41.158 -20.585  27.388  1.00  0.00     0.169 HD
BRANCH   8  11
HETATM   11  C5  UNL     1      38.992 -19.121  27.855  1.00  0.00     0.279 C 
BRANCH  11  12
HETATM   12  N1  UNL     1      38.222 -18.054  28.447  1.00  0.00    -0.339 N 
HETATM   13  C4  UNL     1      38.508 -16.714  28.100  1.00  0.00     0.223 C 
HETATM   14  O1  UNL     1      39.431 -16.452  27.277  1.00  0.00    -0.273 OA
ATOM     15  H1  UNL     1      37.478 -18.266  29.111  1.00  0.00     0.163 HD
BRANCH  13  16
HETATM   16  C2  UNL     1      37.724 -15.605  28.701  1.00  0.00     0.087 C 
HETATM   17  C1  UNL     1      36.318 -16.104  28.909  1.00  0.00     0.021 C 
BRANCH  16  18
HETATM   18  C3  UNL     1      37.794 -14.402  27.819  1.00  0.00     0.128 C 
HETATM   19 CL1  UNL     1      36.309 -13.447  28.013  1.00  0.00    -0.130 Cl
ENDBRANCH  16  18
ENDBRANCH  13  16
ENDBRANCH  11  12
BRANCH  11  20
HETATM   20  C6  UNL     1      38.142 -20.326  27.660  1.00  0.00     0.206 C 
HETATM   21  O2  UNL     1      38.361 -21.334  28.401  1.00  0.00    -0.646 OA
HETATM   22  O3  UNL     1      37.138 -20.376  26.713  1.00  0.00    -0.646 OA
ENDBRANCH  11  20
ENDBRANCH   8  11
ENDBRANCH   1   7
BRANCH   4  23
HETATM   23  N3  UNL     1      45.780 -21.792  31.263  1.00  0.00    -0.309 N 
HETATM   24  C12 UNL     1      47.116 -21.391  31.169  1.00  0.00     0.321 C 
HETATM   25  O5  UNL     1      47.506 -20.562  30.336  1.00  0.00    -0.247 OA
HETATM   26  N4  UNL     1      48.088 -21.934  32.043  1.00  0.00    -0.334 N 
ATOM     27  H4  UNL     1      47.766 -22.616  32.729  1.00  0.00     0.165 HD
ATOM     28  H3  UNL     1      45.579 -22.476  31.993  1.00  0.00     0.170 HD
BRANCH  26  29
HETATM   29  C13 UNL     1      49.482 -21.610  32.048  1.00  0.00     0.035 C 
HETATM   30  C14 UNL     1      50.271 -22.309  30.963  1.00  0.00     0.035 C 
HETATM   31  C15 UNL     1      51.714 -21.860  31.082  1.00  0.00    -0.012 C 
HETATM   32  C16 UNL     1      52.292 -22.138  32.450  1.00  0.00     0.009 C 
HETATM   33  C20 UNL     1      51.859 -20.368  30.842  1.00  0.00     0.009 C 
HETATM   34  C17 UNL     1      51.491 -21.391  33.505  1.00  0.00    -0.012 C 
HETATM   35  C18 UNL     1      51.464 -19.917  33.280  1.00  0.00     0.009 C 
HETATM   36  C22 UNL     1      50.063 -21.926  33.389  1.00  0.00     0.035 C 
HETATM   37  C19 UNL     1      51.017 -19.646  31.863  1.00  0.00    -0.012 C 
HETATM   38  C21 UNL     1      49.606 -20.115  31.727  1.00  0.00     0.035 C 
ENDBRANCH  26  29
ENDBRANCH   4  23
TORSDOF 8
ENDMDL
MODEL 3
REMARK VINA RESULT: -8.447268182      0.204      1.290
REMARK  8 active torsions:
REMARK  status: ('A' for Active; 'I' for Inactive)
REMARK    1  A    between atoms: C2_2  and  C3_3 
REMARK    2  A    between atoms: C2_2  and  C4_5 
REMARK       I    between atoms: C4_5  and  N1_7 
REMARK    3  A    between atoms: N1_7  and  C5_9 
REMARK    4  A    between atoms: C5_9  and  C6_10 
REMARK    5  A    between atoms: C5_9  and  C7_13 
REMARK       I    between atoms: C7_13  and  N2_15 
REMARK    6  A    between atoms: N2_15  and  C8_17 
REMARK    7  A    between atoms: C11_20  and  N3_21 
REMARK       I    between atoms: N3_21  and  C12_23 
REMARK       I    between atoms: C12_23  and  N4_25 
REMARK    8  A    between atoms: N4_25  and  C13_27 
ROOT
HETATM    1  C8  UNL     1      42.333 -20.651  29.089  1.00  0.00     0.034 A 
HETATM    2  C9  UNL     1      43.608 -20.206  28.697  1.00  0.00     0.032 A 
HETATM    3  C10 UNL     1      44.748 -20.571  29.376  1.00  0.00     0.032 A 
HETATM    4  C11 UNL     1      44.705 -21.385  30.466  1.00  0.00     0.036 A 
HETATM    5  C23 UNL     1      43.456 -21.839  30.871  1.00  0.00     0.032 A 
HETATM    6  C24 UNL     1      42.312 -21.467  30.183  1.00  0.00     0.032 A 
ENDROOT
BRANCH   1   7
HETATM    7  N2  UNL     1      41.218 -20.250  28.345  1.00  0.00    -0.325 N 
HETATM    8  C7  UNL     1      40.149 -19.466  28.781  1.00  0.00     0.255 C 
HETATM    9  O4  UNL     1      40.046 -18.989  29.938  1.00  0.00    -0.270 OA
ATOM     10  H2  UNL     1      41.182 -20.566  27.376  1.00  0.00     0.169 HD
BRANCH   8  11
HETATM   11  C5  UNL     1      39.007 -19.120  27.863  1.00  0.00     0.279 C 
BRANCH  11  12
HETATM   12  N1  UNL     1      38.245 -18.050  28.458  1.00  0.00    -0.339 N 
HETATM   13  C4  UNL     1      38.519 -16.713  28.092  1.00  0.00     0.223 C 
HETATM   14  O1  UNL     1      39.425 -16.456  27.249  1.00  0.00    -0.273 OA
ATOM     15  H1  UNL     1      37.515 -18.257  29.139  1.00  0.00     0.163 HD
BRANCH  13  16
HETATM   16  C2  UNL     1      37.742 -15.600  28.696  1.00  0.00     0.087 C 
HETATM   17  C1  UNL     1      36.331 -16.087  28.895  1.00  0.00     0.021 C 
BRANCH  16  18
HETATM   18  C3  UNL     1      37.827 -14.393  27.822  1.00  0.00     0.128 C 
HETATM   19 CL1  UNL     1      36.348 -13.427  28.012  1.00  0.00    -0.130 Cl
ENDBRANCH  16  18
ENDBRANCH  13  16
ENDBRANCH  11  12
BRANCH  11  20
HETATM   20  C6  UNL     1      38.152 -20.322  27.673  1.00  0.00     0.206 C 
HETATM   21  O2  UNL     1      38.374 -21.332  28.410  1.00  0.00    -0.646 OA
HETATM   22  O3  UNL     1      37.140 -20.367  26.735  1.00  0.00    -0.646 OA
ENDBRANCH  11  20
ENDBRANCH   8  11
ENDBRANCH   1   7
BRANCH   4  23
HETATM   23  N3  UNL     1      45.817 -21.794  31.228  1.00  0.00    -0.309 N 
HETATM   24  C12 UNL     1      47.140 -21.347  31.170  1.00  0.00     0.321 C 
HETATM   25  O5  UNL     1      47.512 -20.467  30.384  1.00  0.00    -0.247 OA
HETATM   26  N4  UNL     1      48.119 -21.902  32.029  1.00  0.00    -0.334 N 
ATOM     27  H4  UNL     1      47.811 -22.626  32.678  1.00  0.00     0.165 HD
ATOM     28  H3  UNL     1      45.629 -22.519  31.920  1.00  0.00     0.170 HD
BRANCH  26  29
HETATM   29  C13 UNL     1      49.501 -21.535  32.069  1.00  0.00     0.035 C 
HETATM   30  C14 UNL     1      50.184 -21.879  33.374  1.00  0.00     0.035 C 
HETATM   31  C15 UNL     1      51.633 -21.450  33.262  1.00  0.00    -0.012 C 
HETATM   32  C16 UNL     1      51.776 -19.982  32.936  1.00  0.00     0.009 C 
HETATM   33  C20 UNL     1      52.361 -22.213  32.169  1.00  0.00     0.009 C 
HETATM   34  C17 UNL     1      51.106 -19.687  31.604  1.00  0.00    -0.012 C 
HETATM   35  C18 UNL     1      51.668 -20.490  30.479  1.00  0.00     0.009 C 
HETATM   36  C22 UNL     1      49.638 -20.073  31.788  1.00  0.00     0.035 C 
HETATM   37  C19 UNL     1      51.652 -21.950  30.865  1.00  0.00    -0.012 C 
HETATM   38  C21 UNL     1      50.228 -22.373  31.009  1.00  0.00     0.035 C 
ENDBRANCH  26  29
ENDBRANCH   4  23
TORSDOF 8
ENDMDL
MODEL 4
REMARK VINA RESULT: -7.837180157      1.200      1.919
REMARK  8 active torsions:
REMARK  status: ('A' for Active; 'I' for Inactive)
REMARK    1  A    between atoms: C2_2  and  C3_3 
REMARK    2  A    between atoms: C2_2  and  C4_5 
REMARK       I    between atoms: C4_5  and  N1_7 
REMARK    3  A    between atoms: N1_7  and  C5_9 
REMARK    4  A    between atoms: C5_9  and  C6_10 
REMARK    5  A    between atoms: C5_9  and  C7_13 
REMARK       I    between atoms: C7_13  and  N2_15 
REMARK    6  A    between atoms: N2_15  and  C8_17 
REMARK    7  A    between atoms: C11_20  and  N3_21 
REMARK       I    between atoms: N3_21  and  C12_23 
REMARK       I    between atoms: C12_23  and  N4_25 
REMARK    8  A    between atoms: N4_25  and  C13_27 
ROOT
HETATM    1  C8  UNL     1      42.728 -20.594  28.756  1.00  0.00     0.034 A 
HETATM    2  C9  UNL     1      43.001 -21.470  29.823  1.00  0.00     0.032 A 
HETATM    3  C10 UNL     1      44.275 -21.917  30.090  1.00  0.00     0.032 A 
HETATM    4  C11 UNL     1      45.342 -21.538  29.335  1.00  0.00     0.036 A 
HETATM    5  C23 UNL     1      45.096 -20.673  28.277  1.00  0.00     0.032 A 
HETATM    6  C24 UNL     1      43.811 -20.226  28.013  1.00  0.00     0.032 A 
ENDROOT
BRANCH   1   7
HETATM    7  N2  UNL     1      41.411 -20.170  28.550  1.00  0.00    -0.325 N 
HETATM    8  C7  UNL     1      40.724 -20.104  27.338  1.00  0.00     0.255 C 
HETATM    9  O4  UNL     1      41.210 -20.439  26.229  1.00  0.00    -0.270 OA
ATOM     10  H2  UNL     1      40.895 -19.875  29.379  1.00  0.00     0.169 HD
BRANCH   8  11
HETATM   11  C5  UNL     1      39.302 -19.614  27.269  1.00  0.00     0.279 C 
BRANCH  11  12
HETATM   12  N1  UNL     1      39.193 -18.406  28.050  1.00  0.00    -0.339 N 
HETATM   13  C4  UNL     1      38.288 -17.397  27.651  1.00  0.00     0.223 C 
HETATM   14  O1  UNL     1      37.579 -17.552  26.616  1.00  0.00    -0.273 OA
ATOM     15  H1  UNL     1      39.766 -18.281  28.885  1.00  0.00     0.163 HD
BRANCH  13  16
HETATM   16  C2  UNL     1      38.164 -16.149  28.445  1.00  0.00     0.087 C 
HETATM   17  C1  UNL     1      37.740 -16.537  29.837  1.00  0.00     0.021 C 
BRANCH  16  18
HETATM   18  C3  UNL     1      37.204 -15.220  27.778  1.00  0.00     0.128 C 
HETATM   19 CL1  UNL     1      35.767 -15.028  28.804  1.00  0.00    -0.130 Cl
ENDBRANCH  16  18
ENDBRANCH  13  16
ENDBRANCH  11  12
BRANCH  11  20
HETATM   20  C6  UNL     1      38.397 -20.663  27.808  1.00  0.00     0.206 C 
HETATM   21  O2  UNL     1      38.806 -21.353  28.792  1.00  0.00    -0.646 OA
HETATM   22  O3  UNL     1      37.144 -20.901  27.279  1.00  0.00    -0.646 OA
ENDBRANCH  11  20
ENDBRANCH   8  11
ENDBRANCH   1   7
BRANCH   4  23
HETATM   23  N3  UNL     1      46.672 -21.959  29.526  1.00  0.00    -0.309 N 
HETATM   24  C12 UNL     1      47.615 -21.516  30.460  1.00  0.00     0.321 C 
HETATM   25  O5  UNL     1      47.363 -20.636  31.293  1.00  0.00    -0.247 OA
HETATM   26  N4  UNL     1      48.916 -22.072  30.479  1.00  0.00    -0.334 N 
ATOM     27  H4  UNL     1      49.122 -22.797  29.793  1.00  0.00     0.165 HD
ATOM     28  H3  UNL     1      46.994 -22.693  28.895  1.00  0.00     0.170 HD
BRANCH  26  29
HETATM   29  C13 UNL     1      49.967 -21.706  31.378  1.00  0.00     0.035 C 
HETATM   30  C14 UNL     1      49.718 -22.129  32.809  1.00  0.00     0.035 C 
HETATM   31  C15 UNL     1      50.913 -21.692  33.633  1.00  0.00    -0.012 C 
HETATM   32  C16 UNL     1      51.167 -20.206  33.534  1.00  0.00     0.009 C 
HETATM   33  C20 UNL     1      52.188 -22.384  33.184  1.00  0.00     0.009 C 
HETATM   34  C17 UNL     1      51.446 -19.830  32.088  1.00  0.00    -0.012 C 
HETATM   35  C18 UNL     1      52.611 -20.561  31.510  1.00  0.00     0.009 C 
HETATM   36  C22 UNL     1      50.190 -20.229  31.311  1.00  0.00     0.035 C 
HETATM   37  C19 UNL     1      52.419 -22.042  31.734  1.00  0.00    -0.012 C 
HETATM   38  C21 UNL     1      51.224 -22.476  30.951  1.00  0.00     0.035 C 
ENDBRANCH  26  29
ENDBRANCH   4  23
TORSDOF 8
ENDMDL
MODEL 5
REMARK VINA RESULT: -7.829887016      1.276      1.596
REMARK  8 active torsions:
REMARK  status: ('A' for Active; 'I' for Inactive)
REMARK    1  A    between atoms: C2_2  and  C3_3 
REMARK    2  A    between atoms: C2_2  and  C4_5 
REMARK       I    between atoms: C4_5  and  N1_7 
REMARK    3  A    between atoms: N1_7  and  C5_9 
REMARK    4  A    between atoms: C5_9  and  C6_10 
REMARK    5  A    between atoms: C5_9  and  C7_13 
REMARK       I    between atoms: C7_13  and  N2_15 
REMARK    6  A    between atoms: N2_15  and  C8_17 
REMARK    7  A    between atoms: C11_20  and  N3_21 
REMARK       I    between atoms: N3_21  and  C12_23 
REMARK       I    between atoms: C12_23  and  N4_25 
REMARK    8  A    between atoms: N4_25  and  C13_27 
ROOT
HETATM    1  C8  UNL     1      42.948 -20.578  28.802  1.00  0.00     0.034 A 
HETATM    2  C9  UNL     1      43.231 -21.479  29.845  1.00  0.00     0.032 A 
HETATM    3  C10 UNL     1      44.511 -21.905  30.113  1.00  0.00     0.032 A 
HETATM    4  C11 UNL     1      45.577 -21.478  29.382  1.00  0.00     0.036 A 
HETATM    5  C23 UNL     1      45.322 -20.587  28.348  1.00  0.00     0.032 A 
HETATM    6  C24 UNL     1      44.030 -20.162  28.083  1.00  0.00     0.032 A 
ENDROOT
BRANCH   1   7
HETATM    7  N2  UNL     1      41.623 -20.178  28.594  1.00  0.00    -0.325 N 
HETATM    8  C7  UNL     1      40.888 -20.271  27.412  1.00  0.00     0.255 C 
HETATM    9  O4  UNL     1      41.330 -20.752  26.340  1.00  0.00    -0.270 OA
ATOM     10  H2  UNL     1      41.141 -19.774  29.397  1.00  0.00     0.169 HD
BRANCH   8  11
HETATM   11  C5  UNL     1      39.465 -19.787  27.336  1.00  0.00     0.279 C 
BRANCH  11  12
HETATM   12  N1  UNL     1      39.342 -18.591  28.133  1.00  0.00    -0.339 N 
HETATM   13  C4  UNL     1      38.453 -17.571  27.725  1.00  0.00     0.223 C 
HETATM   14  O1  UNL     1      37.772 -17.705  26.668  1.00  0.00    -0.273 OA
ATOM     15  H1  UNL     1      39.892 -18.483  28.985  1.00  0.00     0.163 HD
BRANCH  13  16
HETATM   16  C2  UNL     1      38.315 -16.333  28.534  1.00  0.00     0.087 C 
HETATM   17  C1  UNL     1      37.910 -16.745  29.926  1.00  0.00     0.021 C 
BRANCH  16  18
HETATM   18  C3  UNL     1      37.333 -15.414  27.887  1.00  0.00     0.128 C 
HETATM   19 CL1  UNL     1      35.837 -15.386  28.845  1.00  0.00    -0.130 Cl
ENDBRANCH  16  18
ENDBRANCH  13  16
ENDBRANCH  11  12
BRANCH  11  20
HETATM   20  C6  UNL     1      38.560 -20.848  27.851  1.00  0.00     0.206 C 
HETATM   21  O2  UNL     1      39.031 -21.676  28.691  1.00  0.00    -0.646 OA
HETATM   22  O3  UNL     1      37.243 -20.954  27.450  1.00  0.00    -0.646 OA
ENDBRANCH  11  20
ENDBRANCH   8  11
ENDBRANCH   1   7
BRANCH   4  23
HETATM   23  N3  UNL     1      46.915 -21.874  29.576  1.00  0.00    -0.309 N 
HETATM   24  C12 UNL     1      47.853 -21.400  30.498  1.00  0.00     0.321 C 
HETATM   25  O5  UNL     1      47.589 -20.512  31.319  1.00  0.00    -0.247 OA
HETATM   26  N4  UNL     1      49.163 -21.934  30.523  1.00  0.00    -0.334 N 
ATOM     27  H4  UNL     1      49.379 -22.667  29.848  1.00  0.00     0.165 HD
ATOM     28  H3  UNL     1      47.247 -22.612  28.955  1.00  0.00     0.170 HD
BRANCH  26  29
HETATM   29  C13 UNL     1      50.211 -21.536  31.412  1.00  0.00     0.035 C 
HETATM   30  C14 UNL     1      50.317 -20.038  31.593  1.00  0.00     0.035 C 
HETATM   31  C15 UNL     1      51.450 -19.772  32.565  1.00  0.00    -0.012 C 
HETATM   32  C16 UNL     1      52.759 -20.364  32.099  1.00  0.00     0.009 C 
HETATM   33  C20 UNL     1      51.165 -20.363  33.934  1.00  0.00     0.009 C 
HETATM   34  C17 UNL     1      52.618 -21.872  31.963  1.00  0.00    -0.012 C 
HETATM   35  C18 UNL     1      52.210 -22.536  33.234  1.00  0.00     0.009 C 
HETATM   36  C22 UNL     1      51.514 -22.088  30.927  1.00  0.00     0.035 C 
HETATM   37  C19 UNL     1      50.976 -21.850  33.771  1.00  0.00    -0.012 C 
HETATM   38  C21 UNL     1      49.863 -22.080  32.804  1.00  0.00     0.035 C 
ENDBRANCH  26  29
ENDBRANCH   4  23
TORSDOF 8
ENDMDL
