MODEL 1
REMARK VINA RESULT: -8.550364411      0.000      0.000
REMARK  3 active torsions:
REMARK  status: ('A' for Active; 'I' for Inactive)
REMARK    1  A    between atoms: C2_7  and  C3_8 
REMARK    2  A    between atoms: C4_9  and  C5_10 
REMARK    3  A    between atoms: C14_19  and  N3_20 
ROOT
HETATM    1  N1  UNL     1      19.248 -43.021  10.039  1.00  0.00    -0.387 N 
ATOM      2  H11 UNL     1      18.508 -43.282   9.388  1.00  0.00     0.157 HD
ATOM      3  H12 UNL     1      18.856 -42.383  10.731  1.00  0.00     0.157 HD
HETATM    4  C1  UNL     1      20.483 -43.447   9.976  1.00  0.00     0.106 A 
HETATM    5  N2  UNL     1      21.495 -43.090  10.866  1.00  0.00    -0.348 N 
ATOM      6  H2  UNL     1      21.365 -42.437  11.639  1.00  0.00     0.167 HD
HETATM    7  C2  UNL     1      22.637 -43.691  10.600  1.00  0.00     0.012 A 
HETATM    8  C13 UNL     1      22.475 -44.549   9.427  1.00  0.00     0.097 A 
HETATM    9  C14 UNL     1      21.049 -44.367   8.978  1.00  0.00     0.255 A 
ENDROOT
BRANCH   7  10
HETATM   10  C3  UNL     1      23.789 -43.423  11.439  1.00  0.00     0.021 C 
HETATM   11  C4  UNL     1      24.765 -44.161  11.809  1.00  0.00    -0.020 C 
BRANCH  11  12
HETATM   12  C5  UNL     1      25.041 -45.550  11.501  1.00  0.00     0.008 C 
HETATM   13  C6  UNL     1      25.811 -45.699  10.198  1.00  0.00     0.008 C 
HETATM   14  C7  UNL     1      25.739 -47.160   9.809  1.00  0.00     0.001 C 
HETATM   15  C8  UNL     1      27.160 -47.690   9.856  1.00  0.00     0.000 C 
HETATM   16  C9  UNL     1      27.530 -48.103  11.289  1.00  0.00     0.000 C 
HETATM   17  C10 UNL     1      28.137 -46.986  12.052  1.00  0.00     0.000 C 
HETATM   18  C11 UNL     1      27.242 -45.983  12.638  1.00  0.00     0.001 C 
HETATM   19  C12 UNL     1      25.792 -46.251  12.642  1.00  0.00     0.008 C 
ENDBRANCH  11  12
ENDBRANCH   7  10
BRANCH   9  20
HETATM   20  N3  UNL     1      20.331 -45.628   8.930  1.00  0.00    -0.068 N 
ATOM     21  H33 UNL     1      20.819 -46.352   9.458  1.00  0.00     0.275 HD
ATOM     22  H32 UNL     1      19.469 -45.584   9.473  1.00  0.00     0.275 HD
ATOM     23  H31 UNL     1      20.149 -45.930   7.972  1.00  0.00     0.275 HD
ENDBRANCH   9  20
TORSDOF 3
ENDMDL
MODEL 2
REMARK VINA RESULT: -7.623757050      1.571      2.134
REMARK  3 active torsions:
REMARK  status: ('A' for Active; 'I' for Inactive)
REMARK    1  A    between atoms: C2_7  and  C3_8 
REMARK    2  A    between atoms: C4_9  and  C5_10 
REMARK    3  A    between atoms: C14_19  and  N3_20 
ROOT
HETATM    1  N1  UNL     1      21.637 -46.288   7.883  1.00  0.00    -0.387 N 
ATOM      2  H11 UNL     1      20.679 -46.638   7.873  1.00  0.00     0.157 HD
ATOM      3  H12 UNL     1      22.177 -46.814   7.196  1.00  0.00     0.157 HD
HETATM    4  C1  UNL     1      22.074 -45.328   8.655  1.00  0.00     0.106 A 
HETATM    5  N2  UNL     1      23.384 -44.851   8.670  1.00  0.00    -0.348 N 
ATOM      6  H2  UNL     1      24.132 -45.232   8.090  1.00  0.00     0.167 HD
HETATM    7  C2  UNL     1      23.549 -43.853   9.514  1.00  0.00     0.012 A 
HETATM    8  C13 UNL     1      22.281 -43.567  10.185  1.00  0.00     0.097 A 
HETATM    9  C14 UNL     1      21.297 -44.570   9.647  1.00  0.00     0.255 A 
ENDROOT
BRANCH   7  10
HETATM   10  C3  UNL     1      24.861 -43.246   9.644  1.00  0.00     0.021 C 
HETATM   11  C4  UNL     1      25.912 -43.613  10.272  1.00  0.00    -0.020 C 
BRANCH  11  12
HETATM   12  C5  UNL     1      26.139 -44.791  11.085  1.00  0.00     0.008 C 
HETATM   13  C6  UNL     1      26.366 -46.031  10.233  1.00  0.00     0.008 C 
HETATM   14  C7  UNL     1      26.246 -47.225  11.156  1.00  0.00     0.001 C 
HETATM   15  C8  UNL     1      27.610 -47.890  11.182  1.00  0.00     0.000 C 
HETATM   16  C9  UNL     1      28.520 -47.203  12.211  1.00  0.00     0.000 C 
HETATM   17  C10 UNL     1      29.298 -46.091  11.613  1.00  0.00     0.000 C 
HETATM   18  C11 UNL     1      28.630 -44.799  11.433  1.00  0.00     0.001 C 
HETATM   19  C12 UNL     1      27.310 -44.597  12.058  1.00  0.00     0.008 C 
ENDBRANCH  11  12
ENDBRANCH   7  10
BRANCH   9  20
HETATM   20  N3  UNL     1      20.137 -43.926   9.054  1.00  0.00    -0.068 N 
ATOM     21  H33 UNL     1      20.092 -42.940   9.310  1.00  0.00     0.275 HD
ATOM     22  H32 UNL     1      20.245 -43.827   8.045  1.00  0.00     0.275 HD
ATOM     23  H31 UNL     1      19.269 -44.409   9.287  1.00  0.00     0.275 HD
ENDBRANCH   9  20
TORSDOF 3
ENDMDL
MODEL 3
REMARK VINA RESULT: -7.604852290      0.991      1.199
REMARK  3 active torsions:
REMARK  status: ('A' for Active; 'I' for Inactive)
REMARK    1  A    between atoms: C2_7  and  C3_8 
REMARK    2  A    between atoms: C4_9  and  C5_10 
REMARK    3  A    between atoms: C14_19  and  N3_20 
ROOT
HETATM    1  N1  UNL     1      19.149 -43.132  10.118  1.00  0.00    -0.387 N 
ATOM      2  H11 UNL     1      18.329 -43.662   9.822  1.00  0.00     0.157 HD
ATOM      3  H12 UNL     1      18.831 -42.255  10.531  1.00  0.00     0.157 HD
HETATM    4  C1  UNL     1      20.386 -43.531   9.981  1.00  0.00     0.106 A 
HETATM    5  N2  UNL     1      21.506 -42.806  10.385  1.00  0.00    -0.348 N 
ATOM      6  H2  UNL     1      21.459 -41.878  10.804  1.00  0.00     0.167 HD
HETATM    7  C2  UNL     1      22.633 -43.452  10.165  1.00  0.00     0.012 A 
HETATM    8  C13 UNL     1      22.341 -44.746   9.547  1.00  0.00     0.097 A 
HETATM    9  C14 UNL     1      20.845 -44.795   9.385  1.00  0.00     0.255 A 
ENDROOT
BRANCH   7  10
HETATM   10  C3  UNL     1      23.890 -42.829  10.533  1.00  0.00     0.021 C 
HETATM   11  C4  UNL     1      25.080 -43.288  10.610  1.00  0.00    -0.020 C 
BRANCH  11  12
HETATM   12  C5  UNL     1      25.573 -44.626  10.347  1.00  0.00     0.008 C 
HETATM   13  C6  UNL     1      27.082 -44.647  10.157  1.00  0.00     0.008 C 
HETATM   14  C7  UNL     1      27.431 -45.993   9.560  1.00  0.00     0.001 C 
HETATM   15  C8  UNL     1      28.287 -46.712  10.586  1.00  0.00     0.000 C 
HETATM   16  C9  UNL     1      27.399 -47.418  11.623  1.00  0.00     0.000 C 
HETATM   17  C10 UNL     1      27.098 -46.546  12.784  1.00  0.00     0.000 C 
HETATM   18  C11 UNL     1      26.033 -45.549  12.641  1.00  0.00     0.001 C 
HETATM   19  C12 UNL     1      25.165 -45.612  11.450  1.00  0.00     0.008 C 
ENDBRANCH  11  12
ENDBRANCH   7  10
BRANCH   9  20
HETATM   20  N3  UNL     1      20.266 -45.951  10.046  1.00  0.00    -0.068 N 
ATOM     21  H33 UNL     1      20.500 -45.965  11.038  1.00  0.00     0.275 HD
ATOM     22  H32 UNL     1      19.252 -45.866  10.119  1.00  0.00     0.275 HD
ATOM     23  H31 UNL     1      20.531 -46.826   9.591  1.00  0.00     0.275 HD
ENDBRANCH   9  20
TORSDOF 3
ENDMDL
MODEL 4
REMARK VINA RESULT: -7.524778055      1.454      1.963
REMARK  3 active torsions:
REMARK  status: ('A' for Active; 'I' for Inactive)
REMARK    1  A    between atoms: C2_7  and  C3_8 
REMARK    2  A    between atoms: C4_9  and  C5_10 
REMARK    3  A    between atoms: C14_19  and  N3_20 
ROOT
HETATM    1  N1  UNL     1      19.794 -45.829  10.332  1.00  0.00    -0.387 N 
ATOM      2  H11 UNL     1      19.187 -46.498   9.858  1.00  0.00     0.157 HD
ATOM      3  H12 UNL     1      19.429 -45.676  11.272  1.00  0.00     0.157 HD
HETATM    4  C1  UNL     1      20.853 -45.276   9.802  1.00  0.00     0.106 A 
HETATM    5  N2  UNL     1      21.682 -44.361  10.450  1.00  0.00    -0.348 N 
ATOM      6  H2  UNL     1      21.517 -44.019  11.396  1.00  0.00     0.167 HD
HETATM    7  C2  UNL     1      22.702 -43.987   9.705  1.00  0.00     0.012 A 
HETATM    8  C13 UNL     1      22.630 -44.660   8.407  1.00  0.00     0.097 A 
HETATM    9  C14 UNL     1      21.379 -45.495   8.446  1.00  0.00     0.255 A 
ENDROOT
BRANCH   7  10
HETATM   10  C3  UNL     1      23.658 -43.036  10.239  1.00  0.00     0.021 C 
HETATM   11  C4  UNL     1      24.911 -43.126  10.473  1.00  0.00    -0.020 C 
BRANCH  11  12
HETATM   12  C5  UNL     1      25.810 -44.247  10.275  1.00  0.00     0.008 C 
HETATM   13  C6  UNL     1      27.194 -43.970  10.843  1.00  0.00     0.008 C 
HETATM   14  C7  UNL     1      28.117 -45.031  10.286  1.00  0.00     0.001 C 
HETATM   15  C8  UNL     1      28.599 -45.849  11.470  1.00  0.00     0.000 C 
HETATM   16  C9  UNL     1      27.575 -46.941  11.818  1.00  0.00     0.000 C 
HETATM   17  C10 UNL     1      26.575 -46.472  12.807  1.00  0.00     0.000 C 
HETATM   18  C11 UNL     1      25.454 -45.660  12.324  1.00  0.00     0.001 C 
HETATM   19  C12 UNL     1      25.245 -45.544  10.869  1.00  0.00     0.008 C 
ENDBRANCH  11  12
ENDBRANCH   7  10
BRANCH   9  20
HETATM   20  N3  UNL     1      21.656 -46.898   8.189  1.00  0.00    -0.068 N 
ATOM     21  H33 UNL     1      22.460 -47.221   8.729  1.00  0.00     0.275 HD
ATOM     22  H32 UNL     1      20.938 -47.497   8.596  1.00  0.00     0.275 HD
ATOM     23  H31 UNL     1      21.778 -47.089   7.195  1.00  0.00     0.275 HD
ENDBRANCH   9  20
TORSDOF 3
ENDMDL
MODEL 5
REMARK VINA RESULT: -7.457541591      1.452      2.218
REMARK  3 active torsions:
REMARK  status: ('A' for Active; 'I' for Inactive)
REMARK    1  A    between atoms: C2_7  and  C3_8 
REMARK    2  A    between atoms: C4_9  and  C5_10 
REMARK    3  A    between atoms: C14_19  and  N3_20 
ROOT
HETATM    1  N1  UNL     1      21.251 -46.105   7.509  1.00  0.00    -0.387 N 
ATOM      2  H11 UNL     1      20.241 -46.175   7.388  1.00  0.00     0.157 HD
ATOM      3  H12 UNL     1      21.701 -46.621   6.754  1.00  0.00     0.157 HD
HETATM    4  C1  UNL     1      21.844 -45.457   8.478  1.00  0.00     0.106 A 
HETATM    5  N2  UNL     1      23.225 -45.362   8.644  1.00  0.00    -0.348 N 
ATOM      6  H2  UNL     1      23.902 -45.817   8.032  1.00  0.00     0.167 HD
HETATM    7  C2  UNL     1      23.559 -44.618   9.679  1.00  0.00     0.012 A 
HETATM    8  C13 UNL     1      22.349 -44.129  10.339  1.00  0.00     0.097 A 
HETATM    9  C14 UNL     1      21.196 -44.713   9.568  1.00  0.00     0.255 A 
ENDROOT
BRANCH   7  10
HETATM   10  C3  UNL     1      24.964 -44.421   9.985  1.00  0.00     0.021 C 
HETATM   11  C4  UNL     1      25.885 -45.239  10.326  1.00  0.00    -0.020 C 
BRANCH  11  12
HETATM   12  C5  UNL     1      25.820 -46.673  10.527  1.00  0.00     0.008 C 
HETATM   13  C6  UNL     1      26.309 -47.438   9.307  1.00  0.00     0.008 C 
HETATM   14  C7  UNL     1      25.880 -48.878   9.490  1.00  0.00     0.001 C 
HETATM   15  C8  UNL     1      27.153 -49.697   9.602  1.00  0.00     0.000 C 
HETATM   16  C9  UNL     1      27.673 -49.682  11.048  1.00  0.00     0.000 C 
HETATM   17  C10 UNL     1      28.614 -48.561  11.290  1.00  0.00     0.000 C 
HETATM   18  C11 UNL     1      28.052 -47.230  11.543  1.00  0.00     0.001 C 
HETATM   19  C12 UNL     1      26.601 -47.112  11.773  1.00  0.00     0.008 C 
ENDBRANCH  11  12
ENDBRANCH   7  10
BRANCH   9  20
HETATM   20  N3  UNL     1      20.302 -43.683   9.069  1.00  0.00    -0.068 N 
ATOM     21  H33 UNL     1      20.078 -43.833   8.086  1.00  0.00     0.275 HD
ATOM     22  H32 UNL     1      19.366 -43.783   9.464  1.00  0.00     0.275 HD
ATOM     23  H31 UNL     1      20.671 -42.745   9.226  1.00  0.00     0.275 HD
ENDBRANCH   9  20
TORSDOF 3
ENDMDL
