MODEL 1
REMARK VINA RESULT: -6.432650011      0.000      0.000
REMARK  4 active torsions:
REMARK  status: ('A' for Active; 'I' for Inactive)
REMARK    1  A    between atoms: C2_2  and  C4_4 
REMARK    2  A    between atoms: C5_6  and  N1_7 
REMARK    3  A    between atoms: N1_7  and  C6_9 
REMARK    4  A    between atoms: C12_17  and  O1_18 
ROOT
HETATM    1  C4  UNL     1      22.061 -44.482   9.556  1.00  0.00     0.064 A 
HETATM    2  S1  UNL     1      23.721 -44.981   9.334  1.00  0.00    -0.050 SA
HETATM    3  C5  UNL     1      24.461 -43.776  10.270  1.00  0.00     0.147 A 
HETATM    4  N2  UNL     1      23.438 -43.051  10.711  1.00  0.00    -0.316 N 
ATOM      5  H2  UNL     1      23.593 -42.242  11.312  1.00  0.00     0.170 HD
HETATM    6  C12 UNL     1      22.224 -43.400  10.355  1.00  0.00     0.160 A 
ENDROOT
BRANCH   3   7
HETATM    7  N1  UNL     1      25.744 -43.618  10.493  1.00  0.00    -0.366 N 
ATOM      8  H1  UNL     1      26.183 -42.722  10.281  1.00  0.00     0.162 HD
BRANCH   7   9
HETATM    9  C6  UNL     1      26.542 -44.686  11.032  1.00  0.00     0.083 C 
HETATM   10  C7  UNL     1      25.861 -45.253  12.258  1.00  0.00     0.025 C 
HETATM   11  C8  UNL     1      26.606 -46.503  12.651  1.00  0.00     0.002 C 
HETATM   12  C9  UNL     1      28.017 -46.151  13.004  1.00  0.00     0.000 C 
HETATM   13  C10 UNL     1      28.700 -45.486  11.823  1.00  0.00     0.002 C 
HETATM   14  C11 UNL     1      27.914 -44.222  11.465  1.00  0.00     0.025 C 
ENDBRANCH   7   9
ENDBRANCH   3   7
BRANCH   1  15
HETATM   15  C2  UNL     1      20.883 -45.144   8.977  1.00  0.00    -0.050 C 
HETATM   16  C1  UNL     1      20.455 -44.851   7.799  1.00  0.00     0.020 C 
HETATM   17  C3  UNL     1      20.190 -46.182   9.809  1.00  0.00     0.049 C 
ENDBRANCH   1  15
BRANCH   6  18
HETATM   18  O1  UNL     1      21.103 -42.646  10.807  1.00  0.00    -0.345 OA
ATOM     19  H1  UNL     1      20.833 -41.853  10.359  1.00  0.00     0.219 HD
ENDBRANCH   6  18
TORSDOF 4
ENDMDL
MODEL 2
REMARK VINA RESULT: -6.417641287      0.569      1.297
REMARK  4 active torsions:
REMARK  status: ('A' for Active; 'I' for Inactive)
REMARK    1  A    between atoms: C2_2  and  C4_4 
REMARK    2  A    between atoms: C5_6  and  N1_7 
REMARK    3  A    between atoms: N1_7  and  C6_9 
REMARK    4  A    between atoms: C12_17  and  O1_18 
ROOT
HETATM    1  C4  UNL     1      22.144 -44.457   9.589  1.00  0.00     0.064 A 
HETATM    2  S1  UNL     1      23.825 -44.829   9.287  1.00  0.00    -0.050 SA
HETATM    3  C5  UNL     1      24.516 -43.595  10.223  1.00  0.00     0.147 A 
HETATM    4  N2  UNL     1      23.463 -42.957  10.724  1.00  0.00    -0.316 N 
ATOM      5  H2  UNL     1      23.585 -42.153  11.339  1.00  0.00     0.170 HD
HETATM    6  C12 UNL     1      22.263 -43.385  10.409  1.00  0.00     0.160 A 
ENDROOT
BRANCH   3   7
HETATM    7  N1  UNL     1      25.793 -43.349  10.397  1.00  0.00    -0.366 N 
ATOM      8  H1  UNL     1      26.199 -42.502   9.998  1.00  0.00     0.162 HD
BRANCH   7   9
HETATM    9  C6  UNL     1      26.629 -44.253  11.139  1.00  0.00     0.083 C 
HETATM   10  C7  UNL     1      27.560 -44.972  10.188  1.00  0.00     0.025 C 
HETATM   11  C8  UNL     1      28.561 -45.729  11.023  1.00  0.00     0.002 C 
HETATM   12  C9  UNL     1      27.846 -46.746  11.857  1.00  0.00     0.000 C 
HETATM   13  C10 UNL     1      26.829 -46.064  12.752  1.00  0.00     0.002 C 
HETATM   14  C11 UNL     1      25.833 -45.315  11.864  1.00  0.00     0.025 C 
ENDBRANCH   7   9
ENDBRANCH   3   7
BRANCH   1  15
HETATM   15  C2  UNL     1      20.994 -45.190   9.043  1.00  0.00    -0.050 C 
HETATM   16  C1  UNL     1      20.613 -45.035   7.822  1.00  0.00     0.020 C 
HETATM   17  C3  UNL     1      20.269 -46.131   9.958  1.00  0.00     0.049 C 
ENDBRANCH   1  15
BRANCH   6  18
HETATM   18  O1  UNL     1      21.112 -42.725  10.927  1.00  0.00    -0.345 OA
ATOM     19  H1  UNL     1      20.238 -42.976  10.650  1.00  0.00     0.219 HD
ENDBRANCH   6  18
TORSDOF 4
ENDMDL
MODEL 3
REMARK VINA RESULT: -6.177075436      3.940      6.244
REMARK  4 active torsions:
REMARK  status: ('A' for Active; 'I' for Inactive)
REMARK    1  A    between atoms: C2_2  and  C4_4 
REMARK    2  A    between atoms: C5_6  and  N1_7 
REMARK    3  A    between atoms: N1_7  and  C6_9 
REMARK    4  A    between atoms: C12_17  and  O1_18 
ROOT
HETATM    1  C4  UNL     1      25.789 -48.882   9.039  1.00  0.00     0.064 A 
HETATM    2  S1  UNL     1      26.135 -47.396   9.892  1.00  0.00    -0.050 SA
HETATM    3  C5  UNL     1      24.855 -46.465   9.281  1.00  0.00     0.147 A 
HETATM    4  N2  UNL     1      24.222 -47.302   8.466  1.00  0.00    -0.316 N 
ATOM      5  H2  UNL     1      23.394 -47.003   7.952  1.00  0.00     0.170 HD
HETATM    6  C12 UNL     1      24.686 -48.523   8.338  1.00  0.00     0.160 A 
ENDROOT
BRANCH   3   7
HETATM    7  N1  UNL     1      24.576 -45.215   9.563  1.00  0.00    -0.366 N 
ATOM      8  H1  UNL     1      25.326 -44.523   9.570  1.00  0.00     0.162 HD
BRANCH   7   9
HETATM    9  C6  UNL     1      23.232 -44.803   9.862  1.00  0.00     0.083 C 
HETATM   10  C7  UNL     1      22.352 -45.041   8.655  1.00  0.00     0.025 C 
HETATM   11  C8  UNL     1      20.925 -44.813   9.084  1.00  0.00     0.002 C 
HETATM   12  C9  UNL     1      20.760 -43.392   9.525  1.00  0.00     0.000 C 
HETATM   13  C10 UNL     1      21.705 -43.090  10.673  1.00  0.00     0.002 C 
HETATM   14  C11 UNL     1      23.138 -43.330  10.191  1.00  0.00     0.025 C 
ENDBRANCH   7   9
ENDBRANCH   3   7
BRANCH   1  15
HETATM   15  C2  UNL     1      26.563 -50.127   9.140  1.00  0.00    -0.050 C 
HETATM   16  C1  UNL     1      26.892 -50.804   8.095  1.00  0.00     0.020 C 
HETATM   17  C3  UNL     1      26.963 -50.589  10.509  1.00  0.00     0.049 C 
ENDBRANCH   1  15
BRANCH   6  18
HETATM   18  O1  UNL     1      24.034 -49.448   7.472  1.00  0.00    -0.345 OA
ATOM     19  H1  UNL     1      24.104 -49.368   6.528  1.00  0.00     0.219 HD
ENDBRANCH   6  18
TORSDOF 4
ENDMDL
MODEL 4
REMARK VINA RESULT: -6.159580279      3.209      6.340
REMARK  4 active torsions:
REMARK  status: ('A' for Active; 'I' for Inactive)
REMARK    1  A    between atoms: C2_2  and  C4_4 
REMARK    2  A    between atoms: C5_6  and  N1_7 
REMARK    3  A    between atoms: N1_7  and  C6_9 
REMARK    4  A    between atoms: C12_17  and  O1_18 
ROOT
HETATM    1  C4  UNL     1      26.670 -48.292  10.352  1.00  0.00     0.064 A 
HETATM    2  S1  UNL     1      25.546 -48.135   9.023  1.00  0.00    -0.050 SA
HETATM    3  C5  UNL     1      24.911 -46.614   9.424  1.00  0.00     0.147 A 
HETATM    4  N2  UNL     1      25.565 -46.286  10.534  1.00  0.00    -0.316 N 
ATOM      5  H2  UNL     1      25.380 -45.401  11.005  1.00  0.00     0.170 HD
HETATM    6  C12 UNL     1      26.454 -47.127  11.008  1.00  0.00     0.160 A 
ENDROOT
BRANCH   3   7
HETATM    7  N1  UNL     1      23.991 -45.941   8.776  1.00  0.00    -0.366 N 
ATOM      8  H1  UNL     1      23.956 -45.991   7.758  1.00  0.00     0.162 HD
BRANCH   7   9
HETATM    9  C6  UNL     1      23.030 -45.131   9.476  1.00  0.00     0.083 C 
HETATM   10  C7  UNL     1      21.733 -45.103   8.698  1.00  0.00     0.025 C 
HETATM   11  C8  UNL     1      20.697 -44.442   9.571  1.00  0.00     0.002 C 
HETATM   12  C9  UNL     1      21.115 -43.034   9.858  1.00  0.00     0.000 C 
HETATM   13  C10 UNL     1      22.465 -43.022  10.550  1.00  0.00     0.002 C 
HETATM   14  C11 UNL     1      23.483 -43.696   9.628  1.00  0.00     0.025 C 
ENDBRANCH   7   9
ENDBRANCH   3   7
BRANCH   1  15
HETATM   15  C2  UNL     1      27.563 -49.435  10.587  1.00  0.00    -0.050 C 
HETATM   16  C1  UNL     1      27.119 -50.644  10.615  1.00  0.00     0.020 C 
HETATM   17  C3  UNL     1      29.020 -49.149  10.794  1.00  0.00     0.049 C 
ENDBRANCH   1  15
BRANCH   6  18
HETATM   18  O1  UNL     1      27.173 -46.809  12.196  1.00  0.00    -0.345 OA
ATOM     19  H1  UNL     1      27.719 -46.033  12.246  1.00  0.00     0.219 HD
ENDBRANCH   6  18
TORSDOF 4
ENDMDL
MODEL 5
REMARK VINA RESULT: -6.078399162      2.875      3.428
REMARK  4 active torsions:
REMARK  status: ('A' for Active; 'I' for Inactive)
REMARK    1  A    between atoms: C2_2  and  C4_4 
REMARK    2  A    between atoms: C5_6  and  N1_7 
REMARK    3  A    between atoms: N1_7  and  C6_9 
REMARK    4  A    between atoms: C12_17  and  O1_18 
ROOT
HETATM    1  C4  UNL     1      23.005 -44.410  10.207  1.00  0.00     0.064 A 
HETATM    2  S1  UNL     1      23.923 -45.637   9.367  1.00  0.00    -0.050 SA
HETATM    3  C5  UNL     1      25.264 -45.686  10.405  1.00  0.00     0.147 A 
HETATM    4  N2  UNL     1      24.970 -44.785  11.337  1.00  0.00    -0.316 N 
ATOM      5  H2  UNL     1      25.613 -44.603  12.106  1.00  0.00     0.170 HD
HETATM    6  C12 UNL     1      23.833 -44.137  11.245  1.00  0.00     0.160 A 
ENDROOT
BRANCH   3   7
HETATM    7  N1  UNL     1      26.328 -46.445  10.294  1.00  0.00    -0.366 N 
ATOM      8  H1  UNL     1      27.253 -46.016  10.310  1.00  0.00     0.162 HD
BRANCH   7   9
HETATM    9  C6  UNL     1      26.212 -47.871  10.148  1.00  0.00     0.083 C 
HETATM   10  C7  UNL     1      27.401 -48.541  10.801  1.00  0.00     0.025 C 
HETATM   11  C8  UNL     1      27.126 -50.023  10.826  1.00  0.00     0.002 C 
HETATM   12  C9  UNL     1      27.001 -50.528   9.423  1.00  0.00     0.000 C 
HETATM   13  C10 UNL     1      25.879 -49.802   8.706  1.00  0.00     0.002 C 
HETATM   14  C11 UNL     1      26.202 -48.306   8.700  1.00  0.00     0.025 C 
ENDBRANCH   7   9
ENDBRANCH   3   7
BRANCH   1  15
HETATM   15  C2  UNL     1      21.691 -43.894   9.798  1.00  0.00    -0.050 C 
HETATM   16  C1  UNL     1      21.264 -42.745  10.193  1.00  0.00     0.020 C 
HETATM   17  C3  UNL     1      20.855 -44.755   8.899  1.00  0.00     0.049 C 
ENDBRANCH   1  15
BRANCH   6  18
HETATM   18  O1  UNL     1      23.485 -43.163  12.225  1.00  0.00    -0.345 OA
ATOM     19  H1  UNL     1      24.152 -42.644  12.657  1.00  0.00     0.219 HD
ENDBRANCH   6  18
TORSDOF 4
ENDMDL
