MODEL 1
REMARK VINA RESULT: -6.542928689      0.000      0.000
REMARK  4 active torsions:
REMARK  status: ('A' for Active; 'I' for Inactive)
REMARK    1  A    between atoms: C2_2  and  N1_4 
REMARK       I    between atoms: N1_4  and  C4_6 
REMARK    2  A    between atoms: C4_6  and  O2_8 
REMARK    3  A    between atoms: O2_8  and  N2_9 
REMARK       I    between atoms: N2_9  and  C5_11 
REMARK    4  A    between atoms: C5_11  and  C6_13 
ROOT
HETATM    1  N2  UNL     1      24.480 -44.269  11.697  1.00  0.00    -0.224 N 
ATOM      2  H2  UNL     1      24.214 -45.066  12.274  1.00  0.00     0.198 HD
HETATM    3  C5  UNL     1      25.809 -44.180  11.221  1.00  0.00     0.250 C 
HETATM    4  O3  UNL     1      26.177 -43.200  10.500  1.00  0.00    -0.271 OA
ENDROOT
BRANCH   1   5
HETATM    5  O2  UNL     1      23.554 -43.332  11.411  1.00  0.00    -0.178 OA
BRANCH   5   6
HETATM    6  C4  UNL     1      22.332 -43.590  10.825  1.00  0.00     0.383 C 
HETATM    7  N1  UNL     1      22.056 -44.781  10.113  1.00  0.00    -0.331 N 
ATOM      8  H1  UNL     1      22.793 -45.480  10.022  1.00  0.00     0.165 HD
HETATM    9  O1  UNL     1      21.421 -42.733  10.931  1.00  0.00    -0.236 OA
BRANCH   7  10
HETATM   10  C2  UNL     1      20.779 -45.041   9.513  1.00  0.00     0.078 C 
HETATM   11  C1  UNL     1      20.939 -45.239   8.002  1.00  0.00     0.032 C 
HETATM   12  C3  UNL     1      20.085 -46.261  10.049  1.00  0.00     0.032 C 
ENDBRANCH   7  10
ENDBRANCH   5   6
ENDBRANCH   1   5
BRANCH   3  13
HETATM   13  C6  UNL     1      26.844 -45.198  11.519  1.00  0.00     0.039 C 
HETATM   14  C7  UNL     1      27.728 -44.636  12.606  1.00  0.00     0.025 C 
HETATM   15  C8  UNL     1      26.183 -46.470  11.936  1.00  0.00     0.019 C 
HETATM   16  C9  UNL     1      26.146 -47.480  10.789  1.00  0.00     0.001 C 
HETATM   17  C10 UNL     1      27.550 -47.940  10.435  1.00  0.00     0.000 C 
HETATM   18  C11 UNL     1      28.483 -46.743  10.559  1.00  0.00     0.001 C 
HETATM   19  C12 UNL     1      27.695 -45.483  10.291  1.00  0.00     0.019 C 
ENDBRANCH   3  13
TORSDOF 4
ENDMDL
MODEL 2
REMARK VINA RESULT: -6.486308081      1.165      1.333
REMARK  4 active torsions:
REMARK  status: ('A' for Active; 'I' for Inactive)
REMARK    1  A    between atoms: C2_2  and  N1_4 
REMARK       I    between atoms: N1_4  and  C4_6 
REMARK    2  A    between atoms: C4_6  and  O2_8 
REMARK    3  A    between atoms: O2_8  and  N2_9 
REMARK       I    between atoms: N2_9  and  C5_11 
REMARK    4  A    between atoms: C5_11  and  C6_13 
ROOT
HETATM    1  N2  UNL     1      25.164 -44.524  12.316  1.00  0.00    -0.224 N 
ATOM      2  H2  UNL     1      24.856 -45.352  12.824  1.00  0.00     0.198 HD
HETATM    3  C5  UNL     1      26.484 -44.484  11.806  1.00  0.00     0.250 C 
HETATM    4  O3  UNL     1      26.904 -43.468  11.169  1.00  0.00    -0.271 OA
ENDROOT
BRANCH   1   5
HETATM    5  O2  UNL     1      24.303 -43.500  12.152  1.00  0.00    -0.178 OA
BRANCH   5   6
HETATM    6  C4  UNL     1      23.528 -43.300  11.029  1.00  0.00     0.383 C 
HETATM    7  N1  UNL     1      22.314 -43.988  10.799  1.00  0.00    -0.331 N 
ATOM      8  H1  UNL     1      21.997 -44.667  11.491  1.00  0.00     0.165 HD
HETATM    9  O1  UNL     1      23.913 -42.467  10.171  1.00  0.00    -0.236 OA
BRANCH   7  10
HETATM   10  C2  UNL     1      21.512 -43.767   9.630  1.00  0.00     0.078 C 
HETATM   11  C1  UNL     1      21.265 -45.094   8.904  1.00  0.00     0.032 C 
HETATM   12  C3  UNL     1      20.167 -43.160   9.912  1.00  0.00     0.032 C 
ENDBRANCH   7  10
ENDBRANCH   5   6
ENDBRANCH   1   5
BRANCH   3  13
HETATM   13  C6  UNL     1      27.447 -45.598  11.972  1.00  0.00     0.039 C 
HETATM   14  C7  UNL     1      28.372 -45.227  13.105  1.00  0.00     0.025 C 
HETATM   15  C8  UNL     1      26.702 -46.862  12.248  1.00  0.00     0.019 C 
HETATM   16  C9  UNL     1      26.591 -47.728  10.993  1.00  0.00     0.001 C 
HETATM   17  C10 UNL     1      27.959 -48.237  10.571  1.00  0.00     0.000 C 
HETATM   18  C11 UNL     1      28.972 -47.129  10.821  1.00  0.00     0.001 C 
HETATM   19  C12 UNL     1      28.271 -45.796  10.709  1.00  0.00     0.019 C 
ENDBRANCH   3  13
TORSDOF 4
ENDMDL
MODEL 3
REMARK VINA RESULT: -6.485553909      0.966      1.664
REMARK  4 active torsions:
REMARK  status: ('A' for Active; 'I' for Inactive)
REMARK    1  A    between atoms: C2_2  and  N1_4 
REMARK       I    between atoms: N1_4  and  C4_6 
REMARK    2  A    between atoms: C4_6  and  O2_8 
REMARK    3  A    between atoms: O2_8  and  N2_9 
REMARK       I    between atoms: N2_9  and  C5_11 
REMARK    4  A    between atoms: C5_11  and  C6_13 
ROOT
HETATM    1  N2  UNL     1      24.229 -43.793  11.856  1.00  0.00    -0.224 N 
ATOM      2  H2  UNL     1      24.262 -43.965  12.861  1.00  0.00     0.198 HD
HETATM    3  C5  UNL     1      25.182 -44.421  11.021  1.00  0.00     0.250 C 
HETATM    4  O3  UNL     1      25.172 -44.230   9.765  1.00  0.00    -0.271 OA
ENDROOT
BRANCH   1   5
HETATM    5  O2  UNL     1      23.279 -42.973  11.366  1.00  0.00    -0.178 OA
BRANCH   5   6
HETATM    6  C4  UNL     1      22.105 -43.396  10.777  1.00  0.00     0.383 C 
HETATM    7  N1  UNL     1      21.986 -44.631  10.099  1.00  0.00    -0.331 N 
ATOM      8  H1  UNL     1      22.803 -45.237  10.037  1.00  0.00     0.165 HD
HETATM    9  O1  UNL     1      21.094 -42.654  10.848  1.00  0.00    -0.236 OA
BRANCH   7  10
HETATM   10  C2  UNL     1      20.758 -45.065   9.497  1.00  0.00     0.078 C 
HETATM   11  C1  UNL     1      20.970 -45.328   8.002  1.00  0.00     0.032 C 
HETATM   12  C3  UNL     1      20.190 -46.321  10.092  1.00  0.00     0.032 C 
ENDBRANCH   7  10
ENDBRANCH   5   6
ENDBRANCH   1   5
BRANCH   3  13
HETATM   13  C6  UNL     1      26.235 -45.329  11.537  1.00  0.00     0.039 C 
HETATM   14  C7  UNL     1      25.549 -46.382  12.372  1.00  0.00     0.025 C 
HETATM   15  C8  UNL     1      26.984 -45.922  10.390  1.00  0.00     0.019 C 
HETATM   16  C9  UNL     1      28.320 -45.212  10.171  1.00  0.00     0.001 C 
HETATM   17  C10 UNL     1      29.256 -45.460  11.342  1.00  0.00     0.000 C 
HETATM   18  C11 UNL     1      28.427 -45.458  12.618  1.00  0.00     0.001 C 
HETATM   19  C12 UNL     1      27.222 -44.571  12.412  1.00  0.00     0.019 C 
ENDBRANCH   3  13
TORSDOF 4
ENDMDL
MODEL 4
REMARK VINA RESULT: -6.412082768      4.035      5.861
REMARK  4 active torsions:
REMARK  status: ('A' for Active; 'I' for Inactive)
REMARK    1  A    between atoms: C2_2  and  N1_4 
REMARK       I    between atoms: N1_4  and  C4_6 
REMARK    2  A    between atoms: C4_6  and  O2_8 
REMARK    3  A    between atoms: O2_8  and  N2_9 
REMARK       I    between atoms: N2_9  and  C5_11 
REMARK    4  A    between atoms: C5_11  and  C6_13 
ROOT
HETATM    1  N2  UNL     1      25.007 -46.927   9.170  1.00  0.00    -0.224 N 
ATOM      2  H2  UNL     1      24.497 -46.579   8.358  1.00  0.00     0.198 HD
HETATM    3  C5  UNL     1      25.281 -46.041  10.239  1.00  0.00     0.250 C 
HETATM    4  O3  UNL     1      25.915 -46.438  11.266  1.00  0.00    -0.271 OA
ENDROOT
BRANCH   1   5
HETATM    5  O2  UNL     1      25.398 -48.216   9.192  1.00  0.00    -0.178 OA
BRANCH   5   6
HETATM    6  C4  UNL     1      25.653 -48.978   8.070  1.00  0.00     0.383 C 
HETATM    7  N1  UNL     1      25.851 -48.416   6.788  1.00  0.00    -0.331 N 
ATOM      8  H1  UNL     1      25.799 -47.403   6.683  1.00  0.00     0.165 HD
HETATM    9  O1  UNL     1      25.717 -50.226   8.192  1.00  0.00    -0.236 OA
BRANCH   7  10
HETATM   10  C2  UNL     1      26.123 -49.218   5.629  1.00  0.00     0.078 C 
HETATM   11  C1  UNL     1      24.875 -49.302   4.744  1.00  0.00     0.032 C 
HETATM   12  C3  UNL     1      27.240 -48.700   4.770  1.00  0.00     0.032 C 
ENDBRANCH   7  10
ENDBRANCH   5   6
ENDBRANCH   1   5
BRANCH   3  13
HETATM   13  C6  UNL     1      24.859 -44.620  10.238  1.00  0.00     0.039 C 
HETATM   14  C7  UNL     1      26.107 -43.780  10.119  1.00  0.00     0.025 C 
HETATM   15  C8  UNL     1      23.914 -44.384   9.107  1.00  0.00     0.019 C 
HETATM   16  C9  UNL     1      22.463 -44.358   9.589  1.00  0.00     0.001 C 
HETATM   17  C10 UNL     1      22.217 -43.153  10.481  1.00  0.00     0.000 C 
HETATM   18  C11 UNL     1      23.460 -42.936  11.334  1.00  0.00     0.001 C 
HETATM   19  C12 UNL     1      24.148 -44.265  11.536  1.00  0.00     0.019 C 
ENDBRANCH   3  13
TORSDOF 4
ENDMDL
MODEL 5
REMARK VINA RESULT: -6.391459941      2.354      6.029
REMARK  4 active torsions:
REMARK  status: ('A' for Active; 'I' for Inactive)
REMARK    1  A    between atoms: C2_2  and  N1_4 
REMARK       I    between atoms: N1_4  and  C4_6 
REMARK    2  A    between atoms: C4_6  and  O2_8 
REMARK    3  A    between atoms: O2_8  and  N2_9 
REMARK       I    between atoms: N2_9  and  C5_11 
REMARK    4  A    between atoms: C5_11  and  C6_13 
ROOT
HETATM    1  N2  UNL     1      25.106 -45.701  11.013  1.00  0.00    -0.224 N 
ATOM      2  H2  UNL     1      24.902 -46.155  10.123  1.00  0.00     0.198 HD
HETATM    3  C5  UNL     1      24.541 -44.431  11.280  1.00  0.00     0.250 C 
HETATM    4  O3  UNL     1      24.774 -43.834  12.377  1.00  0.00    -0.271 OA
ENDROOT
BRANCH   1   5
HETATM    5  O2  UNL     1      25.905 -46.328  11.898  1.00  0.00    -0.178 OA
BRANCH   5   6
HETATM    6  C4  UNL     1      26.887 -47.237  11.561  1.00  0.00     0.383 C 
HETATM    7  N1  UNL     1      26.674 -48.298  10.651  1.00  0.00    -0.331 N 
ATOM      8  H1  UNL     1      25.754 -48.402  10.226  1.00  0.00     0.165 HD
HETATM    9  O1  UNL     1      28.023 -47.116  12.083  1.00  0.00    -0.236 OA
BRANCH   7  10
HETATM   10  C2  UNL     1      27.705 -49.233  10.303  1.00  0.00     0.078 C 
HETATM   11  C1  UNL     1      27.126 -50.650  10.227  1.00  0.00     0.032 C 
HETATM   12  C3  UNL     1      28.370 -48.955   8.985  1.00  0.00     0.032 C 
ENDBRANCH   7  10
ENDBRANCH   5   6
ENDBRANCH   1   5
BRANCH   3  13
HETATM   13  C6  UNL     1      23.657 -43.723  10.323  1.00  0.00     0.039 C 
HETATM   14  C7  UNL     1      24.457 -42.590   9.727  1.00  0.00     0.025 C 
HETATM   15  C8  UNL     1      23.183 -44.682   9.282  1.00  0.00     0.019 C 
HETATM   16  C9  UNL     1      21.758 -45.156   9.570  1.00  0.00     0.001 C 
HETATM   17  C10 UNL     1      20.774 -44.006   9.432  1.00  0.00     0.000 C 
HETATM   18  C11 UNL     1      21.438 -42.749   9.975  1.00  0.00     0.001 C 
HETATM   19  C12 UNL     1      22.441 -43.148  11.032  1.00  0.00     0.019 C 
ENDBRANCH   3  13
TORSDOF 4
ENDMDL
