MODEL 1
REMARK VINA RESULT: -7.037051579      0.000      0.000
REMARK  2 active torsions:
REMARK  status: ('A' for Active; 'I' for Inactive)
REMARK    1  A    between atoms: N2_5  and  N3_7 
REMARK    2  A    between atoms: N3_7  and  C4_9 
ROOT
HETATM    1  C1  UNL     1      21.143 -45.347   8.272  1.00  0.00     0.082 C 
HETATM    2  C2  UNL     1      21.978 -44.647   9.269  1.00  0.00     0.101 C 
HETATM    3  C3  UNL     1      21.423 -43.566  10.023  1.00  0.00     0.114 C 
HETATM    4  N1  UNL     1      20.983 -42.688  10.633  1.00  0.00    -0.190 NA
HETATM    5  N2  UNL     1      23.196 -44.985   9.481  1.00  0.00    -0.298 N 
ATOM      6  H2  UNL     1      23.760 -44.493  10.173  1.00  0.00     0.187 HD
ENDROOT
BRANCH   5   7
HETATM    7  N3  UNL     1      23.733 -46.042   8.741  1.00  0.00    -0.325 N 
ATOM      8  H3  UNL     1      23.494 -46.130   7.753  1.00  0.00     0.181 HD
BRANCH   7   9
HETATM    9  C4  UNL     1      24.626 -47.025   9.345  1.00  0.00     0.145 C 
HETATM   10  C5  UNL     1      25.825 -46.370   9.941  1.00  0.00     0.041 C 
HETATM   11  C6  UNL     1      27.109 -47.075   9.858  1.00  0.00    -0.044 C 
HETATM   12  C7  UNL     1      27.363 -47.836  11.153  1.00  0.00     0.015 C 
HETATM   13  C8  UNL     1      28.233 -46.028   9.848  1.00  0.00     0.015 C 
HETATM   14  C9  UNL     1      27.356 -47.989   8.720  1.00  0.00     0.023 C 
HETATM   15  C10 UNL     1      26.193 -48.682   8.132  1.00  0.00    -0.007 C 
HETATM   16  C11 UNL     1      26.077 -50.132   8.621  1.00  0.00     0.021 C 
HETATM   17  C12 UNL     1      26.360 -48.794   6.609  1.00  0.00     0.021 C 
HETATM   18  C13 UNL     1      24.882 -48.047   8.340  1.00  0.00     0.012 C 
HETATM   19  N4  UNL     1      23.924 -48.431   7.585  1.00  0.00    -0.403 N 
ATOM     20  H42 UNL     1      23.015 -47.991   7.730  1.00  0.00     0.155 HD
ATOM     21  H41 UNL     1      24.104 -49.147   6.881  1.00  0.00     0.155 HD
ENDBRANCH   7   9
ENDBRANCH   5   7
TORSDOF 2
ENDMDL
MODEL 2
REMARK VINA RESULT: -6.730960362      0.811      1.064
REMARK  2 active torsions:
REMARK  status: ('A' for Active; 'I' for Inactive)
REMARK    1  A    between atoms: N2_5  and  N3_7 
REMARK    2  A    between atoms: N3_7  and  C4_9 
ROOT
HETATM    1  C1  UNL     1      24.281 -43.216   9.444  1.00  0.00     0.082 C 
HETATM    2  C2  UNL     1      23.027 -43.934   9.747  1.00  0.00     0.101 C 
HETATM    3  C3  UNL     1      21.965 -43.251  10.420  1.00  0.00     0.114 C 
HETATM    4  N1  UNL     1      21.104 -42.708  10.967  1.00  0.00    -0.190 NA
HETATM    5  N2  UNL     1      22.859 -45.162   9.420  1.00  0.00    -0.298 N 
ATOM      6  H2  UNL     1      21.987 -45.645   9.635  1.00  0.00     0.187 HD
ENDROOT
BRANCH   5   7
HETATM    7  N3  UNL     1      23.900 -45.824   8.763  1.00  0.00    -0.325 N 
ATOM      8  H3  UNL     1      24.082 -45.613   7.781  1.00  0.00     0.181 HD
BRANCH   7   9
HETATM    9  C4  UNL     1      24.733 -46.809   9.443  1.00  0.00     0.145 C 
HETATM   10  C5  UNL     1      25.946 -46.175  10.033  1.00  0.00     0.041 C 
HETATM   11  C6  UNL     1      27.199 -46.939  10.023  1.00  0.00    -0.044 C 
HETATM   12  C7  UNL     1      27.388 -47.637  11.363  1.00  0.00     0.015 C 
HETATM   13  C8  UNL     1      28.369 -45.943   9.985  1.00  0.00     0.015 C 
HETATM   14  C9  UNL     1      27.432 -47.925   8.943  1.00  0.00     0.023 C 
HETATM   15  C10 UNL     1      26.253 -48.598   8.364  1.00  0.00    -0.007 C 
HETATM   16  C11 UNL     1      26.061 -50.012   8.928  1.00  0.00     0.021 C 
HETATM   17  C12 UNL     1      26.451 -48.802   6.854  1.00  0.00     0.021 C 
HETATM   18  C13 UNL     1      24.968 -47.897   8.502  1.00  0.00     0.012 C 
HETATM   19  N4  UNL     1      24.011 -48.279   7.744  1.00  0.00    -0.403 N 
ATOM     20  H42 UNL     1      23.120 -47.793   7.840  1.00  0.00     0.155 HD
ATOM     21  H41 UNL     1      24.175 -49.041   7.085  1.00  0.00     0.155 HD
ENDBRANCH   7   9
ENDBRANCH   5   7
TORSDOF 2
ENDMDL
MODEL 3
REMARK VINA RESULT: -6.627398121      1.952      5.440
REMARK  2 active torsions:
REMARK  status: ('A' for Active; 'I' for Inactive)
REMARK    1  A    between atoms: N2_5  and  N3_7 
REMARK    2  A    between atoms: N3_7  and  C4_9 
ROOT
HETATM    1  C1  UNL     1      25.901 -49.832   8.959  1.00  0.00     0.082 C 
HETATM    2  C2  UNL     1      25.550 -49.260   7.644  1.00  0.00     0.101 C 
HETATM    3  C3  UNL     1      25.984 -49.915   6.448  1.00  0.00     0.114 C 
HETATM    4  N1  UNL     1      26.335 -50.436   5.478  1.00  0.00    -0.190 NA
HETATM    5  N2  UNL     1      24.860 -48.184   7.541  1.00  0.00    -0.298 N 
ATOM      6  H2  UNL     1      24.624 -47.801   6.626  1.00  0.00     0.187 HD
ENDROOT
BRANCH   5   7
HETATM    7  N3  UNL     1      24.438 -47.549   8.712  1.00  0.00    -0.325 N 
ATOM      8  H3  UNL     1      23.637 -47.924   9.221  1.00  0.00     0.181 HD
BRANCH   7   9
HETATM    9  C4  UNL     1      25.113 -46.362   9.227  1.00  0.00     0.145 C 
HETATM   10  C5  UNL     1      25.841 -46.662  10.491  1.00  0.00     0.041 C 
HETATM   11  C6  UNL     1      25.879 -45.624  11.529  1.00  0.00    -0.044 C 
HETATM   12  C7  UNL     1      27.178 -44.837  11.423  1.00  0.00     0.015 C 
HETATM   13  C8  UNL     1      26.005 -46.315  12.895  1.00  0.00     0.015 C 
HETATM   14  C9  UNL     1      24.755 -44.665  11.629  1.00  0.00     0.023 C 
HETATM   15  C10 UNL     1      24.037 -44.320  10.386  1.00  0.00    -0.007 C 
HETATM   16  C11 UNL     1      24.484 -42.965   9.819  1.00  0.00     0.021 C 
HETATM   17  C12 UNL     1      22.538 -44.148  10.673  1.00  0.00     0.021 C 
HETATM   18  C13 UNL     1      24.121 -45.298   9.291  1.00  0.00     0.012 C 
HETATM   19  N4  UNL     1      23.263 -45.190   8.348  1.00  0.00    -0.403 N 
ATOM     20  H42 UNL     1      23.321 -45.868   7.589  1.00  0.00     0.155 HD
ATOM     21  H41 UNL     1      22.568 -44.444   8.393  1.00  0.00     0.155 HD
ENDBRANCH   7   9
ENDBRANCH   5   7
TORSDOF 2
ENDMDL
MODEL 4
REMARK VINA RESULT: -6.502830330      1.657      2.222
REMARK  2 active torsions:
REMARK  status: ('A' for Active; 'I' for Inactive)
REMARK    1  A    between atoms: N2_5  and  N3_7 
REMARK    2  A    between atoms: N3_7  and  C4_9 
ROOT
HETATM    1  C1  UNL     1      24.713 -44.881   9.847  1.00  0.00     0.082 C 
HETATM    2  C2  UNL     1      23.452 -45.491   9.377  1.00  0.00     0.101 C 
HETATM    3  C3  UNL     1      22.201 -44.901   9.741  1.00  0.00     0.114 C 
HETATM    4  N1  UNL     1      21.186 -44.432  10.035  1.00  0.00    -0.190 NA
HETATM    5  N2  UNL     1      23.447 -46.543   8.644  1.00  0.00    -0.298 N 
ATOM      6  H2  UNL     1      22.569 -46.953   8.326  1.00  0.00     0.187 HD
ENDROOT
BRANCH   5   7
HETATM    7  N3  UNL     1      24.672 -47.115   8.291  1.00  0.00    -0.325 N 
ATOM      8  H3  UNL     1      25.339 -46.567   7.747  1.00  0.00     0.181 HD
BRANCH   7   9
HETATM    9  C4  UNL     1      25.024 -48.477   8.680  1.00  0.00     0.145 C 
HETATM   10  C5  UNL     1      26.275 -48.501   9.488  1.00  0.00     0.041 C 
HETATM   11  C6  UNL     1      27.193 -49.631   9.306  1.00  0.00    -0.044 C 
HETATM   12  C7  UNL     1      26.940 -50.680  10.380  1.00  0.00     0.015 C 
HETATM   13  C8  UNL     1      28.617 -49.150   9.623  1.00  0.00     0.015 C 
HETATM   14  C9  UNL     1      27.247 -50.309   7.991  1.00  0.00     0.023 C 
HETATM   15  C10 UNL     1      26.012 -50.335   7.182  1.00  0.00    -0.007 C 
HETATM   16  C11 UNL     1      25.283 -51.681   7.284  1.00  0.00     0.021 C 
HETATM   17  C12 UNL     1      26.354 -50.187   5.692  1.00  0.00     0.021 C 
HETATM   18  C13 UNL     1      25.024 -49.283   7.467  1.00  0.00     0.012 C 
HETATM   19  N4  UNL     1      24.119 -49.081   6.586  1.00  0.00    -0.403 N 
ATOM     20  H42 UNL     1      23.434 -48.352   6.783  1.00  0.00     0.155 HD
ATOM     21  H41 UNL     1      24.119 -49.646   5.736  1.00  0.00     0.155 HD
ENDBRANCH   7   9
ENDBRANCH   5   7
TORSDOF 2
ENDMDL
MODEL 5
REMARK VINA RESULT: -6.469456067      1.367      1.524
REMARK  2 active torsions:
REMARK  status: ('A' for Active; 'I' for Inactive)
REMARK    1  A    between atoms: N2_5  and  N3_7 
REMARK    2  A    between atoms: N3_7  and  C4_9 
ROOT
HETATM    1  C1  UNL     1      22.123 -45.229   8.631  1.00  0.00     0.082 C 
HETATM    2  C2  UNL     1      23.181 -44.987   9.633  1.00  0.00     0.101 C 
HETATM    3  C3  UNL     1      23.003 -43.966  10.619  1.00  0.00     0.114 C 
HETATM    4  N1  UNL     1      22.868 -43.139  11.415  1.00  0.00    -0.190 NA
HETATM    5  N2  UNL     1      24.263 -45.674   9.646  1.00  0.00    -0.298 N 
ATOM      6  H2  UNL     1      24.985 -45.497  10.345  1.00  0.00     0.187 HD
ENDROOT
BRANCH   5   7
HETATM    7  N3  UNL     1      24.432 -46.671   8.681  1.00  0.00    -0.325 N 
ATOM      8  H3  UNL     1      24.157 -46.481   7.717  1.00  0.00     0.181 HD
BRANCH   7   9
HETATM    9  C4  UNL     1      24.990 -47.976   9.017  1.00  0.00     0.145 C 
HETATM   10  C5  UNL     1      26.336 -47.842   9.641  1.00  0.00     0.041 C 
HETATM   11  C6  UNL     1      27.346 -48.863   9.331  1.00  0.00    -0.044 C 
HETATM   12  C7  UNL     1      27.369 -49.915  10.430  1.00  0.00     0.015 C 
HETATM   13  C8  UNL     1      28.734 -48.215   9.445  1.00  0.00     0.015 C 
HETATM   14  C9  UNL     1      27.293 -49.551   8.021  1.00  0.00     0.023 C 
HETATM   15  C10 UNL     1      25.969 -49.732   7.394  1.00  0.00    -0.007 C 
HETATM   16  C11 UNL     1      25.423 -51.152   7.598  1.00  0.00     0.021 C 
HETATM   17  C12 UNL     1      26.080 -49.570   5.871  1.00  0.00     0.021 C 
HETATM   18  C13 UNL     1      24.915 -48.797   7.816  1.00  0.00     0.012 C 
HETATM   19  N4  UNL     1      23.878 -48.715   7.071  1.00  0.00    -0.403 N 
ATOM     20  H42 UNL     1      23.147 -48.066   7.363  1.00  0.00     0.155 HD
ATOM     21  H41 UNL     1      23.825 -49.290   6.229  1.00  0.00     0.155 HD
ENDBRANCH   7   9
ENDBRANCH   5   7
TORSDOF 2
ENDMDL
