MODEL 1
REMARK VINA RESULT: -6.916109202      0.000      0.000
REMARK  4 active torsions:
REMARK  status: ('A' for Active; 'I' for Inactive)
REMARK    1  A    between atoms: O1_1  and  C1_3 
REMARK    2  A    between atoms: C1_3  and  C2_4 
REMARK    3  A    between atoms: C2_4  and  C3_5 
REMARK    4  A    between atoms: C10_13  and  O2_14 
ROOT
HETATM    1  C3  UNL     1      23.439 -43.108  10.357  1.00  0.00    -0.012 C 
HETATM    2  C4  UNL     1      23.853 -43.163  11.778  1.00  0.00     0.006 C 
HETATM    3  C5  UNL     1      24.447 -44.500  12.123  1.00  0.00     0.022 C 
HETATM    4  C6  UNL     1      25.715 -44.779  11.318  1.00  0.00     0.015 C 
HETATM    5  C7  UNL     1      26.957 -44.658  12.263  1.00  0.00     0.022 C 
HETATM    6  C8  UNL     1      27.529 -45.985  12.678  1.00  0.00     0.012 C 
HETATM    7  C9  UNL     1      28.222 -46.861  11.732  1.00  0.00     0.077 C 
HETATM    8  S1  UNL     1      27.208 -48.190  10.927  1.00  0.00    -0.126 SA
HETATM    9  C10 UNL     1      25.735 -47.308  10.121  1.00  0.00     0.248 C 
HETATM   10  C11 UNL     1      25.756 -46.057  10.750  1.00  0.00    -0.131 C 
HETATM   11  C12 UNL     1      25.890 -43.660  10.320  1.00  0.00     0.022 C 
HETATM   12  C13 UNL     1      24.685 -43.352   9.500  1.00  0.00     0.006 C 
ENDROOT
BRANCH   9  13
HETATM   13  O2  UNL     1      26.044 -47.394   8.747  1.00  0.00    -0.375 OA
ATOM     14  H2  UNL     1      25.192 -47.294   8.339  1.00  0.00     0.212 HD
ENDBRANCH   9  13
BRANCH   1  15
HETATM   15  C2  UNL     1      22.426 -44.109   9.905  1.00  0.00     0.030 C 
BRANCH  15  16
HETATM   16  C1  UNL     1      21.063 -43.559   9.773  1.00  0.00     0.164 C 
BRANCH  16  17
HETATM   17  O1  UNL     1      20.762 -42.390  10.399  1.00  0.00    -0.401 OA
ATOM     18  H1  UNL     1      19.943 -42.323  10.877  1.00  0.00     0.209 HD
ENDBRANCH  16  17
ENDBRANCH  15  16
ENDBRANCH   1  15
TORSDOF 4
ENDMDL
MODEL 2
REMARK VINA RESULT: -6.645102844      1.271      1.387
REMARK  4 active torsions:
REMARK  status: ('A' for Active; 'I' for Inactive)
REMARK    1  A    between atoms: O1_1  and  C1_3 
REMARK    2  A    between atoms: C1_3  and  C2_4 
REMARK    3  A    between atoms: C2_4  and  C3_5 
REMARK    4  A    between atoms: C10_13  and  O2_14 
ROOT
HETATM    1  C3  UNL     1      23.245 -43.502  10.220  1.00  0.00    -0.012 C 
HETATM    2  C4  UNL     1      23.710 -43.371  11.620  1.00  0.00     0.006 C 
HETATM    3  C5  UNL     1      24.471 -44.590  12.060  1.00  0.00     0.022 C 
HETATM    4  C6  UNL     1      25.736 -44.796  11.229  1.00  0.00     0.015 C 
HETATM    5  C7  UNL     1      26.985 -44.441  12.103  1.00  0.00     0.022 C 
HETATM    6  C8  UNL     1      27.726 -45.646  12.613  1.00  0.00     0.012 C 
HETATM    7  C9  UNL     1      28.487 -46.523  11.721  1.00  0.00     0.077 C 
HETATM    8  S1  UNL     1      27.613 -48.032  11.088  1.00  0.00    -0.126 SA
HETATM    9  C10 UNL     1      26.020 -47.410  10.270  1.00  0.00     0.248 C 
HETATM   10  C11 UNL     1      25.912 -46.110  10.780  1.00  0.00    -0.131 C 
HETATM   11  C12 UNL     1      25.743 -43.766  10.125  1.00  0.00     0.022 C 
HETATM   12  C13 UNL     1      24.482 -43.681   9.335  1.00  0.00     0.006 C 
ENDROOT
BRANCH   9  13
HETATM   13  O2  UNL     1      26.291 -47.592   8.898  1.00  0.00    -0.375 OA
ATOM     14  H2  UNL     1      26.319 -46.698   8.575  1.00  0.00     0.212 HD
ENDBRANCH   9  13
BRANCH   1  15
HETATM   15  C2  UNL     1      22.345 -44.653   9.908  1.00  0.00     0.030 C 
BRANCH  15  16
HETATM   16  C1  UNL     1      22.821 -45.497   8.795  1.00  0.00     0.164 C 
BRANCH  16  17
HETATM   17  O1  UNL     1      21.911 -46.191   8.061  1.00  0.00    -0.401 OA
ATOM     18  H1  UNL     1      22.069 -46.316   7.132  1.00  0.00     0.209 HD
ENDBRANCH  16  17
ENDBRANCH  15  16
ENDBRANCH   1  15
TORSDOF 4
ENDMDL
MODEL 3
REMARK VINA RESULT: -6.446491967      1.585      2.277
REMARK  4 active torsions:
REMARK  status: ('A' for Active; 'I' for Inactive)
REMARK    1  A    between atoms: O1_1  and  C1_3 
REMARK    2  A    between atoms: C1_3  and  C2_4 
REMARK    3  A    between atoms: C2_4  and  C3_5 
REMARK    4  A    between atoms: C10_13  and  O2_14 
ROOT
HETATM    1  C3  UNL     1      25.029 -44.201  11.353  1.00  0.00    -0.012 C 
HETATM    2  C4  UNL     1      25.634 -44.979  12.459  1.00  0.00     0.006 C 
HETATM    3  C5  UNL     1      25.695 -46.444  12.126  1.00  0.00     0.022 C 
HETATM    4  C6  UNL     1      26.580 -46.710  10.909  1.00  0.00     0.015 C 
HETATM    5  C7  UNL     1      27.913 -47.377  11.383  1.00  0.00     0.022 C 
HETATM    6  C8  UNL     1      27.972 -48.857  11.124  1.00  0.00     0.012 C 
HETATM    7  C9  UNL     1      28.075 -49.403   9.769  1.00  0.00     0.077 C 
HETATM    8  S1  UNL     1      26.488 -49.895   8.944  1.00  0.00    -0.126 SA
HETATM    9  C10 UNL     1      25.372 -48.363   9.001  1.00  0.00     0.248 C 
HETATM   10  C11 UNL     1      26.004 -47.571   9.968  1.00  0.00    -0.131 C 
HETATM   11  C12 UNL     1      27.005 -45.378  10.341  1.00  0.00     0.022 C 
HETATM   12  C13 UNL     1      25.898 -44.408  10.109  1.00  0.00     0.006 C 
ENDROOT
BRANCH   9  13
HETATM   13  O2  UNL     1      25.369 -47.938   7.656  1.00  0.00    -0.375 OA
ATOM     14  H2  UNL     1      25.816 -48.651   7.215  1.00  0.00     0.212 HD
ENDBRANCH   9  13
BRANCH   1  15
HETATM   15  C2  UNL     1      23.637 -44.564  10.949  1.00  0.00     0.030 C 
BRANCH  15  16
HETATM   16  C1  UNL     1      22.822 -43.412  10.518  1.00  0.00     0.164 C 
BRANCH  16  17
HETATM   17  O1  UNL     1      21.967 -42.842  11.408  1.00  0.00    -0.401 OA
ATOM     18  H1  UNL     1      21.761 -41.918  11.320  1.00  0.00     0.209 HD
ENDBRANCH  16  17
ENDBRANCH  15  16
ENDBRANCH   1  15
TORSDOF 4
ENDMDL
MODEL 4
REMARK VINA RESULT: -6.223520768      2.595      5.088
REMARK  4 active torsions:
REMARK  status: ('A' for Active; 'I' for Inactive)
REMARK    1  A    between atoms: O1_1  and  C1_3 
REMARK    2  A    between atoms: C1_3  and  C2_4 
REMARK    3  A    between atoms: C2_4  and  C3_5 
REMARK    4  A    between atoms: C10_13  and  O2_14 
ROOT
HETATM    1  C3  UNL     1      26.470 -45.254  10.963  1.00  0.00    -0.012 C 
HETATM    2  C4  UNL     1      26.160 -43.816  10.795  1.00  0.00     0.006 C 
HETATM    3  C5  UNL     1      25.013 -43.612   9.845  1.00  0.00     0.022 C 
HETATM    4  C6  UNL     1      23.726 -44.247  10.370  1.00  0.00     0.015 C 
HETATM    5  C7  UNL     1      22.753 -43.115  10.839  1.00  0.00     0.022 C 
HETATM    6  C8  UNL     1      21.633 -42.844   9.874  1.00  0.00     0.012 C 
HETATM    7  C9  UNL     1      20.551 -43.805   9.651  1.00  0.00     0.077 C 
HETATM    8  S1  UNL     1      20.749 -44.967   8.218  1.00  0.00    -0.126 SA
HETATM    9  C10 UNL     1      22.417 -45.832   8.471  1.00  0.00     0.248 C 
HETATM   10  C11 UNL     1      23.039 -45.007   9.416  1.00  0.00    -0.131 C 
HETATM   11  C12 UNL     1      24.060 -45.005  11.632  1.00  0.00     0.022 C 
HETATM   12  C13 UNL     1      25.217 -45.937  11.519  1.00  0.00     0.006 C 
ENDROOT
BRANCH   9  13
HETATM   13  O2  UNL     1      22.030 -47.136   8.843  1.00  0.00    -0.375 OA
ATOM     14  H2  UNL     1      21.088 -47.053   8.932  1.00  0.00     0.212 HD
ENDBRANCH   9  13
BRANCH   1  15
HETATM   15  C2  UNL     1      26.844 -46.018   9.735  1.00  0.00     0.030 C 
BRANCH  15  16
HETATM   16  C1  UNL     1      26.208 -47.346   9.641  1.00  0.00     0.164 C 
BRANCH  16  17
HETATM   17  O1  UNL     1      25.333 -47.585   8.629  1.00  0.00    -0.401 OA
ATOM     18  H1  UNL     1      25.246 -46.942   7.935  1.00  0.00     0.209 HD
ENDBRANCH  16  17
ENDBRANCH  15  16
ENDBRANCH   1  15
TORSDOF 4
ENDMDL
MODEL 5
REMARK VINA RESULT: -5.913998540      1.661      1.694
REMARK  4 active torsions:
REMARK  status: ('A' for Active; 'I' for Inactive)
REMARK    1  A    between atoms: O1_1  and  C1_3 
REMARK    2  A    between atoms: C1_3  and  C2_4 
REMARK    3  A    between atoms: C2_4  and  C3_5 
REMARK    4  A    between atoms: C10_13  and  O2_14 
ROOT
HETATM    1  C3  UNL     1      24.098 -43.947  10.143  1.00  0.00    -0.012 C 
HETATM    2  C4  UNL     1      24.191 -44.195  11.600  1.00  0.00     0.006 C 
HETATM    3  C5  UNL     1      25.088 -45.364  11.899  1.00  0.00     0.022 C 
HETATM    4  C6  UNL     1      26.522 -45.108  11.436  1.00  0.00     0.015 C 
HETATM    5  C7  UNL     1      27.427 -44.865  12.689  1.00  0.00     0.022 C 
HETATM    6  C8  UNL     1      28.286 -46.045  13.051  1.00  0.00     0.012 C 
HETATM    7  C9  UNL     1      29.406 -46.475  12.213  1.00  0.00     0.077 C 
HETATM    8  S1  UNL     1      29.062 -47.821  10.983  1.00  0.00    -0.126 SA
HETATM    9  C10 UNL     1      27.596 -47.217   9.943  1.00  0.00     0.248 C 
HETATM   10  C11 UNL     1      27.086 -46.174  10.725  1.00  0.00    -0.131 C 
HETATM   11  C12 UNL     1      26.545 -43.795  10.693  1.00  0.00     0.022 C 
HETATM   12  C13 UNL     1      25.510 -43.654   9.630  1.00  0.00     0.006 C 
ENDROOT
BRANCH   9  13
HETATM   13  O2  UNL     1      28.205 -46.916   8.706  1.00  0.00    -0.375 OA
ATOM     14  H2  UNL     1      27.836 -46.065   8.498  1.00  0.00     0.212 HD
ENDBRANCH   9  13
BRANCH   1  15
HETATM   15  C2  UNL     1      23.575 -45.061   9.297  1.00  0.00     0.030 C 
BRANCH  15  16
HETATM   16  C1  UNL     1      22.133 -44.959   9.001  1.00  0.00     0.164 C 
BRANCH  16  17
HETATM   17  O1  UNL     1      21.648 -45.557   7.880  1.00  0.00    -0.401 OA
ATOM     18  H1  UNL     1      21.056 -45.070   7.318  1.00  0.00     0.209 HD
ENDBRANCH  16  17
ENDBRANCH  15  16
ENDBRANCH   1  15
TORSDOF 4
ENDMDL
