MODEL 1
REMARK VINA RESULT: -7.784028867      0.000      0.000
REMARK  3 active torsions:
REMARK  status: ('A' for Active; 'I' for Inactive)
REMARK    1  A    between atoms: C2_2  and  C7_14 
REMARK    2  A    between atoms: C3_3  and  C4_4 
REMARK    3  A    between atoms: C4_4  and  C5_5 
REMARK       I    between atoms: C5_5  and  N1_7 
REMARK       I    between atoms: N1_7  and  C6_9 
ROOT
HETATM    1  C1  UNL     1     -16.531  85.240   2.239  1.00  0.00     0.043 C 
HETATM    2  C2  UNL     1     -16.419  83.823   2.706  1.00  0.00    -0.083 C 
HETATM    3  C3  UNL     1     -16.972  82.896   1.940  1.00  0.00    -0.015 C 
ENDROOT
BRANCH   2   4
HETATM    4  C7  UNL     1     -15.704  83.585   3.971  1.00  0.00     0.017 C 
HETATM    5  C8  UNL     1     -15.623  82.123   4.325  1.00  0.00     0.046 C 
HETATM    6  C9  UNL     1     -14.646  81.839   5.417  1.00  0.00     0.059 C 
HETATM    7  C10 UNL     1     -15.160  80.907   6.469  1.00  0.00     0.046 C 
HETATM    8  C11 UNL     1     -14.225  83.159   6.080  1.00  0.00     0.049 C 
HETATM    9  O2  UNL     1     -13.471  81.358   4.854  1.00  0.00    -0.375 OA
HETATM   10  C12 UNL     1     -13.380  83.701   4.927  1.00  0.00    -0.015 C 
HETATM   11  C13 UNL     1     -12.460  84.788   5.346  1.00  0.00     0.018 C 
HETATM   12  C14 UNL     1     -14.262  84.055   3.758  1.00  0.00     0.021 C 
HETATM   13  C15 UNL     1     -12.650  82.413   4.555  1.00  0.00     0.126 C 
HETATM   14  C16 UNL     1     -11.428  82.306   5.470  1.00  0.00     0.040 C 
ENDBRANCH   2   4
BRANCH   3  15
HETATM   15  C4  UNL     1     -17.674  83.199   0.680  1.00  0.00     0.130 C 
BRANCH  15  16
HETATM   16  C5  UNL     1     -17.830  81.988  -0.188  1.00  0.00     0.227 C 
HETATM   17  O1  UNL     1     -16.989  81.064  -0.187  1.00  0.00    -0.273 OA
HETATM   18  N1  UNL     1     -18.952  81.898  -1.016  1.00  0.00    -0.301 N 
HETATM   19  C6  UNL     1     -19.149  80.777  -1.857  1.00  0.00     0.188 C 
ATOM     20  H1  UNL     1     -19.639  82.652  -1.015  1.00  0.00     0.171 HD
HETATM   21  N2  UNL     1     -20.172  80.691  -2.614  1.00  0.00    -0.373 N 
HETATM   22  N3  UNL     1     -18.202  79.728  -1.863  1.00  0.00    -0.064 NA
ATOM     23  H22 UNL     1     -20.855  81.448  -2.610  1.00  0.00     0.158 HD
ATOM     24  H21 UNL     1     -20.314  79.883  -3.219  1.00  0.00     0.158 HD
ENDBRANCH  15  16
ENDBRANCH   3  15
TORSDOF 3
ENDMDL
MODEL 2
REMARK VINA RESULT: -7.503538291      1.149      1.478
REMARK  3 active torsions:
REMARK  status: ('A' for Active; 'I' for Inactive)
REMARK    1  A    between atoms: C2_2  and  C7_14 
REMARK    2  A    between atoms: C3_3  and  C4_4 
REMARK    3  A    between atoms: C4_4  and  C5_5 
REMARK       I    between atoms: C5_5  and  N1_7 
REMARK       I    between atoms: N1_7  and  C6_9 
ROOT
HETATM    1  C1  UNL     1     -16.839  85.021   1.868  1.00  0.00     0.043 C 
HETATM    2  C2  UNL     1     -16.700  83.653   2.458  1.00  0.00    -0.083 C 
HETATM    3  C3  UNL     1     -17.305  82.664   1.820  1.00  0.00    -0.015 C 
ENDROOT
BRANCH   2   4
HETATM    4  C7  UNL     1     -15.905  83.528   3.691  1.00  0.00     0.017 C 
HETATM    5  C8  UNL     1     -15.743  82.097   4.134  1.00  0.00     0.046 C 
HETATM    6  C9  UNL     1     -14.694  81.924   5.181  1.00  0.00     0.059 C 
HETATM    7  C10 UNL     1     -15.107  81.048   6.321  1.00  0.00     0.046 C 
HETATM    8  C11 UNL     1     -14.290  83.301   5.730  1.00  0.00     0.049 C 
HETATM    9  O2  UNL     1     -13.534  81.451   4.581  1.00  0.00    -0.375 OA
HETATM   10  C12 UNL     1     -13.536  83.796   4.495  1.00  0.00    -0.015 C 
HETATM   11  C13 UNL     1     -12.639  84.943   4.786  1.00  0.00     0.018 C 
HETATM   12  C14 UNL     1     -14.498  84.036   3.361  1.00  0.00     0.021 C 
HETATM   13  C15 UNL     1     -12.776  82.514   4.165  1.00  0.00     0.126 C 
HETATM   14  C16 UNL     1     -11.500  82.514   5.010  1.00  0.00     0.040 C 
ENDBRANCH   2   4
BRANCH   3  15
HETATM   15  C4  UNL     1     -18.088  82.853   0.586  1.00  0.00     0.130 C 
BRANCH  15  16
HETATM   16  C5  UNL     1     -17.973  81.685  -0.344  1.00  0.00     0.227 C 
HETATM   17  O1  UNL     1     -18.622  81.626  -1.411  1.00  0.00    -0.273 OA
HETATM   18  N1  UNL     1     -17.113  80.638  -0.002  1.00  0.00    -0.301 N 
HETATM   19  C6  UNL     1     -16.966  79.510  -0.844  1.00  0.00     0.188 C 
ATOM     20  H1  UNL     1     -16.582  80.688   0.868  1.00  0.00     0.171 HD
HETATM   21  N2  UNL     1     -16.182  78.553  -0.534  1.00  0.00    -0.373 N 
HETATM   22  N3  UNL     1     -17.697  79.434  -2.051  1.00  0.00    -0.064 NA
ATOM     23  H22 UNL     1     -15.655  78.608   0.337  1.00  0.00     0.158 HD
ATOM     24  H21 UNL     1     -16.076  77.741  -1.141  1.00  0.00     0.158 HD
ENDBRANCH  15  16
ENDBRANCH   3  15
TORSDOF 3
ENDMDL
MODEL 3
REMARK VINA RESULT: -6.782273413      1.605      2.883
REMARK  3 active torsions:
REMARK  status: ('A' for Active; 'I' for Inactive)
REMARK    1  A    between atoms: C2_2  and  C7_14 
REMARK    2  A    between atoms: C3_3  and  C4_4 
REMARK    3  A    between atoms: C4_4  and  C5_5 
REMARK       I    between atoms: C5_5  and  N1_7 
REMARK       I    between atoms: N1_7  and  C6_9 
ROOT
HETATM    1  C1  UNL     1     -15.729  81.870   4.556  1.00  0.00     0.043 C 
HETATM    2  C2  UNL     1     -15.147  83.035   3.819  1.00  0.00    -0.083 C 
HETATM    3  C3  UNL     1     -15.946  83.668   2.976  1.00  0.00    -0.015 C 
ENDROOT
BRANCH   2   4
HETATM    4  C7  UNL     1     -13.742  83.374   4.099  1.00  0.00     0.017 C 
HETATM    5  C8  UNL     1     -13.459  83.508   5.572  1.00  0.00     0.046 C 
HETATM    6  C9  UNL     1     -12.001  83.536   5.888  1.00  0.00     0.059 C 
HETATM    7  C10 UNL     1     -11.608  84.599   6.865  1.00  0.00     0.046 C 
HETATM    8  C11 UNL     1     -11.202  83.729   4.591  1.00  0.00     0.049 C 
HETATM    9  O2  UNL     1     -11.615  82.279   6.335  1.00  0.00    -0.375 OA
HETATM   10  C12 UNL     1     -11.449  82.343   3.996  1.00  0.00    -0.015 C 
HETATM   11  C13 UNL     1     -10.491  81.997   2.916  1.00  0.00     0.018 C 
HETATM   12  C14 UNL     1     -12.898  82.195   3.606  1.00  0.00     0.021 C 
HETATM   13  C15 UNL     1     -11.246  81.513   5.260  1.00  0.00     0.126 C 
HETATM   14  C16 UNL     1      -9.744  81.248   5.391  1.00  0.00     0.040 C 
ENDBRANCH   2   4
BRANCH   3  15
HETATM   15  C4  UNL     1     -17.349  83.279   2.741  1.00  0.00     0.130 C 
BRANCH  15  16
HETATM   16  C5  UNL     1     -17.567  82.748   1.358  1.00  0.00     0.227 C 
HETATM   17  O1  UNL     1     -18.051  83.456   0.449  1.00  0.00    -0.273 OA
HETATM   18  N1  UNL     1     -17.214  81.423   1.086  1.00  0.00    -0.301 N 
HETATM   19  C6  UNL     1     -17.399  80.870  -0.204  1.00  0.00     0.188 C 
ATOM     20  H1  UNL     1     -16.817  80.846   1.828  1.00  0.00     0.171 HD
HETATM   21  N2  UNL     1     -17.077  79.661  -0.455  1.00  0.00    -0.373 N 
HETATM   22  N3  UNL     1     -17.946  81.662  -1.237  1.00  0.00    -0.064 NA
ATOM     23  H22 UNL     1     -16.683  79.089   0.291  1.00  0.00     0.158 HD
ATOM     24  H21 UNL     1     -17.210  79.263  -1.384  1.00  0.00     0.158 HD
ENDBRANCH  15  16
ENDBRANCH   3  15
TORSDOF 3
ENDMDL
MODEL 4
REMARK VINA RESULT: -6.716439842      8.325     10.391
REMARK  3 active torsions:
REMARK  status: ('A' for Active; 'I' for Inactive)
REMARK    1  A    between atoms: C2_2  and  C7_14 
REMARK    2  A    between atoms: C3_3  and  C4_4 
REMARK    3  A    between atoms: C4_4  and  C5_5 
REMARK       I    between atoms: C5_5  and  N1_7 
REMARK       I    between atoms: N1_7  and  C6_9 
ROOT
HETATM    1  C1  UNL     1     -17.458  72.670   4.196  1.00  0.00     0.043 C 
HETATM    2  C2  UNL     1     -18.168  73.014   2.925  1.00  0.00    -0.083 C 
HETATM    3  C3  UNL     1     -19.491  73.031   2.965  1.00  0.00    -0.015 C 
ENDROOT
BRANCH   2   4
HETATM    4  C7  UNL     1     -17.335  73.305   1.746  1.00  0.00     0.017 C 
HETATM    5  C8  UNL     1     -18.149  73.477   0.490  1.00  0.00     0.046 C 
HETATM    6  C9  UNL     1     -17.371  74.076  -0.634  1.00  0.00     0.059 C 
HETATM    7  C10 UNL     1     -17.567  73.388  -1.948  1.00  0.00     0.046 C 
HETATM    8  C11 UNL     1     -15.875  74.064  -0.282  1.00  0.00     0.049 C 
HETATM    9  O2  UNL     1     -17.681  75.426  -0.725  1.00  0.00    -0.375 OA
HETATM   10  C12 UNL     1     -15.914  75.150   0.793  1.00  0.00    -0.015 C 
HETATM   11  C13 UNL     1     -14.574  75.717   1.091  1.00  0.00     0.018 C 
HETATM   12  C14 UNL     1     -16.659  74.654   2.006  1.00  0.00     0.021 C 
HETATM   13  C15 UNL     1     -16.835  76.139   0.084  1.00  0.00     0.126 C 
HETATM   14  C16 UNL     1     -15.957  76.999  -0.829  1.00  0.00     0.040 C 
ENDBRANCH   2   4
BRANCH   3  15
HETATM   15  C4  UNL     1     -20.269  72.731   4.180  1.00  0.00     0.130 C 
BRANCH  15  16
HETATM   16  C5  UNL     1     -20.782  73.971   4.846  1.00  0.00     0.227 C 
HETATM   17  O1  UNL     1     -20.331  75.103   4.566  1.00  0.00    -0.273 OA
HETATM   18  N1  UNL     1     -21.793  73.848   5.803  1.00  0.00    -0.301 N 
HETATM   19  C6  UNL     1     -22.313  74.987   6.462  1.00  0.00     0.188 C 
ATOM     20  H1  UNL     1     -22.161  72.924   6.029  1.00  0.00     0.171 HD
HETATM   21  N2  UNL     1     -23.236  74.878   7.336  1.00  0.00    -0.373 N 
HETATM   22  N3  UNL     1     -21.810  76.270   6.153  1.00  0.00    -0.064 NA
ATOM     23  H22 UNL     1     -23.599  73.952   7.559  1.00  0.00     0.158 HD
ATOM     24  H21 UNL     1     -23.611  75.699   7.811  1.00  0.00     0.158 HD
ENDBRANCH  15  16
ENDBRANCH   3  15
TORSDOF 3
ENDMDL
MODEL 5
REMARK VINA RESULT: -6.529222311      1.134      1.828
REMARK  3 active torsions:
REMARK  status: ('A' for Active; 'I' for Inactive)
REMARK    1  A    between atoms: C2_2  and  C7_14 
REMARK    2  A    between atoms: C3_3  and  C4_4 
REMARK    3  A    between atoms: C4_4  and  C5_5 
REMARK       I    between atoms: C5_5  and  N1_7 
REMARK       I    between atoms: N1_7  and  C6_9 
ROOT
HETATM    1  C1  UNL     1     -17.519  82.273   3.397  1.00  0.00     0.043 C 
HETATM    2  C2  UNL     1     -16.402  82.950   2.667  1.00  0.00    -0.083 C 
HETATM    3  C3  UNL     1     -16.661  83.376   1.441  1.00  0.00    -0.015 C 
ENDROOT
BRANCH   2   4
HETATM    4  C7  UNL     1     -15.118  83.083   3.375  1.00  0.00     0.017 C 
HETATM    5  C8  UNL     1     -15.288  83.196   4.868  1.00  0.00     0.046 C 
HETATM    6  C9  UNL     1     -14.011  83.013   5.618  1.00  0.00     0.059 C 
HETATM    7  C10 UNL     1     -13.789  84.022   6.700  1.00  0.00     0.046 C 
HETATM    8  C11 UNL     1     -12.831  83.067   4.635  1.00  0.00     0.049 C 
HETATM    9  O2  UNL     1     -13.967  81.720   6.122  1.00  0.00    -0.375 OA
HETATM   10  C12 UNL     1     -13.080  81.723   3.950  1.00  0.00    -0.015 C 
HETATM   11  C13 UNL     1     -11.896  81.224   3.207  1.00  0.00     0.018 C 
HETATM   12  C14 UNL     1     -14.343  81.785   3.130  1.00  0.00     0.021 C 
HETATM   13  C15 UNL     1     -13.399  80.892   5.189  1.00  0.00     0.126 C 
HETATM   14  C16 UNL     1     -12.066  80.411   5.766  1.00  0.00     0.040 C 
ENDBRANCH   2   4
BRANCH   3  15
HETATM   15  C4  UNL     1     -17.972  83.214   0.787  1.00  0.00     0.130 C 
BRANCH  15  16
HETATM   16  C5  UNL     1     -17.999  82.043  -0.146  1.00  0.00     0.227 C 
HETATM   17  O1  UNL     1     -17.046  81.237  -0.220  1.00  0.00    -0.273 OA
HETATM   18  N1  UNL     1     -19.126  81.853  -0.950  1.00  0.00    -0.301 N 
HETATM   19  C6  UNL     1     -19.205  80.763  -1.849  1.00  0.00     0.188 C 
ATOM     20  H1  UNL     1     -19.904  82.510  -0.888  1.00  0.00     0.171 HD
HETATM   21  N2  UNL     1     -20.232  80.586  -2.585  1.00  0.00    -0.373 N 
HETATM   22  N3  UNL     1     -18.132  79.847  -1.940  1.00  0.00    -0.064 NA
ATOM     23  H22 UNL     1     -21.006  81.247  -2.519  1.00  0.00     0.158 HD
ATOM     24  H21 UNL     1     -20.288  79.801  -3.232  1.00  0.00     0.158 HD
ENDBRANCH  15  16
ENDBRANCH   3  15
TORSDOF 3
ENDMDL
