MODEL 1
REMARK VINA RESULT: -7.998520821      0.000      0.000
REMARK  6 active torsions:
REMARK  status: ('A' for Active; 'I' for Inactive)
REMARK    1  A    between atoms: C2_2  and  O2_4 
REMARK    2  A    between atoms: O2_4  and  C3_5 
REMARK    3  A    between atoms: C3_5  and  C4_6 
REMARK    4  A    between atoms: C12_17  and  C13_19 
REMARK    5  A    between atoms: C15_21  and  O6_22 
REMARK    6  A    between atoms: C21_31  and  C22_32 
ROOT
HETATM    1  C4  UNL     1      34.169   7.760  48.727  1.00  0.00     0.011 C 
HETATM    2  C5  UNL     1      34.430   6.944  49.712  1.00  0.00    -0.006 C 
HETATM    3  C6  UNL     1      33.999   5.489  49.509  1.00  0.00     0.194 C 
HETATM    4  O3  UNL     1      32.980   5.041  49.025  1.00  0.00    -0.289 OA
HETATM    5  C7  UNL     1      35.199   4.767  50.079  1.00  0.00     0.169 C 
HETATM    6  C8  UNL     1      36.274   4.993  49.070  1.00  0.00     0.053 C 
HETATM    7  C9  UNL     1      37.555   4.426  49.555  1.00  0.00     0.048 C 
HETATM    8  C10 UNL     1      37.214   3.386  50.601  1.00  0.00     0.133 C 
HETATM    9  C11 UNL     1      38.264   2.291  50.354  1.00  0.00     0.053 C 
HETATM   10  O4  UNL     1      36.047   2.765  50.187  1.00  0.00    -0.225 OA
HETATM   11  O5  UNL     1      34.956   3.417  50.254  1.00  0.00    -0.220 OA
HETATM   12  C12 UNL     1      37.200   3.922  51.996  1.00  0.00     0.187 C 
HETATM   13  F1  UNL     1      36.377   2.921  52.635  1.00  0.00    -0.235 F 
HETATM   14  C19 UNL     1      36.408   5.143  52.257  1.00  0.00     0.207 C 
HETATM   15  F2  UNL     1      37.142   6.295  52.410  1.00  0.00    -0.226 F 
HETATM   16 BR1  UNL     1      35.535   4.881  54.025  1.00  0.00    -0.044 Br
HETATM   17  C20 UNL     1      35.279   5.458  51.361  1.00  0.00     0.095 C 
HETATM   18  C21 UNL     1      35.097   6.945  51.014  1.00  0.00     0.037 C 
ENDROOT
BRANCH  12  19
HETATM   19  C13 UNL     1      38.476   3.747  52.763  1.00  0.00     0.039 C 
HETATM   20  C14 UNL     1      38.352   2.896  54.002  1.00  0.00     0.040 C 
HETATM   21  C15 UNL     1      39.009   3.682  55.120  1.00  0.00     0.119 C 
HETATM   22  C16 UNL     1      39.995   4.524  54.408  1.00  0.00     0.036 C 
HETATM   23  C17 UNL     1      39.396   4.832  53.022  1.00  0.00    -0.009 C 
HETATM   24  C18 UNL     1      40.650   4.853  52.112  1.00  0.00     0.010 C 
BRANCH  21  25
HETATM   25  O6  UNL     1      39.610   2.753  55.972  1.00  0.00    -0.396 OA
ATOM     26  H6  UNL     1      39.101   2.744  56.775  1.00  0.00     0.210 HD
ENDBRANCH  21  25
ENDBRANCH  12  19
BRANCH  18  27
HETATM   27  C22 UNL     1      34.488   7.674  52.153  1.00  0.00    -0.014 C 
HETATM   28  C23 UNL     1      33.034   7.966  52.077  1.00  0.00     0.010 C 
HETATM   29  C24 UNL     1      35.299   8.804  52.662  1.00  0.00     0.010 C 
ENDBRANCH  18  27
BRANCH   1  30
HETATM   30  C3  UNL     1      34.422   9.190  48.560  1.00  0.00     0.207 C 
BRANCH  30  31
HETATM   31  O2  UNL     1      33.493  10.059  49.115  1.00  0.00    -0.318 OA
BRANCH  31  32
HETATM   32  C2  UNL     1      33.559  10.889  50.148  1.00  0.00     0.255 C 
HETATM   33  C1  UNL     1      32.361  11.378  50.922  1.00  0.00     0.126 C 
HETATM   34  O1  UNL     1      34.651  11.328  50.554  1.00  0.00    -0.266 OA
ENDBRANCH  31  32
ENDBRANCH  30  31
ENDBRANCH   1  30
TORSDOF 6
ENDMDL
MODEL 2
REMARK VINA RESULT: -7.817614587      1.536      2.088
REMARK  6 active torsions:
REMARK  status: ('A' for Active; 'I' for Inactive)
REMARK    1  A    between atoms: C2_2  and  O2_4 
REMARK    2  A    between atoms: O2_4  and  C3_5 
REMARK    3  A    between atoms: C3_5  and  C4_6 
REMARK    4  A    between atoms: C12_17  and  C13_19 
REMARK    5  A    between atoms: C15_21  and  O6_22 
REMARK    6  A    between atoms: C21_31  and  C22_32 
ROOT
HETATM    1  C4  UNL     1      34.093   7.521  48.100  1.00  0.00     0.011 C 
HETATM    2  C5  UNL     1      34.295   6.900  49.231  1.00  0.00    -0.006 C 
HETATM    3  C6  UNL     1      33.684   5.501  49.346  1.00  0.00     0.194 C 
HETATM    4  O3  UNL     1      32.601   5.094  48.982  1.00  0.00    -0.289 OA
HETATM    5  C7  UNL     1      34.812   4.768  50.036  1.00  0.00     0.169 C 
HETATM    6  C8  UNL     1      35.864   4.643  48.986  1.00  0.00     0.053 C 
HETATM    7  C9  UNL     1      37.087   4.032  49.561  1.00  0.00     0.048 C 
HETATM    8  C10 UNL     1      36.667   3.282  50.807  1.00  0.00     0.133 C 
HETATM    9  C11 UNL     1      37.568   2.037  50.781  1.00  0.00     0.053 C 
HETATM   10  O4  UNL     1      35.418   2.741  50.551  1.00  0.00    -0.225 OA
HETATM   11  O5  UNL     1      34.417   3.524  50.496  1.00  0.00    -0.220 OA
HETATM   12  C12 UNL     1      36.775   4.093  52.058  1.00  0.00     0.187 C 
HETATM   13  F1  UNL     1      35.865   3.358  52.905  1.00  0.00    -0.235 F 
HETATM   14  C19 UNL     1      36.145   5.432  52.068  1.00  0.00     0.207 C 
HETATM   15  F2  UNL     1      37.017   6.489  51.964  1.00  0.00    -0.226 F 
HETATM   16 BR1  UNL     1      35.321   5.653  53.865  1.00  0.00    -0.044 Br
HETATM   17  C20 UNL     1      35.027   5.693  51.143  1.00  0.00     0.095 C 
HETATM   18  C21 UNL     1      35.010   7.087  50.494  1.00  0.00     0.037 C 
ENDROOT
BRANCH  12  19
HETATM   19  C13 UNL     1      38.051   3.922  52.825  1.00  0.00     0.039 C 
HETATM   20  C14 UNL     1      37.918   3.116  54.093  1.00  0.00     0.040 C 
HETATM   21  C15 UNL     1      38.594   3.927  55.181  1.00  0.00     0.119 C 
HETATM   22  C16 UNL     1      39.591   4.727  54.437  1.00  0.00     0.036 C 
HETATM   23  C17 UNL     1      38.990   4.999  53.044  1.00  0.00    -0.009 C 
HETATM   24  C18 UNL     1      40.241   4.967  52.129  1.00  0.00     0.010 C 
BRANCH  21  25
HETATM   25  O6  UNL     1      39.182   3.017  56.062  1.00  0.00    -0.396 OA
ATOM     26  H6  UNL     1      38.572   2.892  56.780  1.00  0.00     0.210 HD
ENDBRANCH  21  25
ENDBRANCH  12  19
BRANCH  18  27
HETATM   27  C22 UNL     1      34.540   8.107  51.462  1.00  0.00    -0.014 C 
HETATM   28  C23 UNL     1      33.125   8.027  51.905  1.00  0.00     0.010 C 
HETATM   29  C24 UNL     1      34.998   9.485  51.173  1.00  0.00     0.010 C 
ENDBRANCH  18  27
BRANCH   1  30
HETATM   30  C3  UNL     1      34.508   8.842  47.633  1.00  0.00     0.207 C 
BRANCH  30  31
HETATM   31  O2  UNL     1      35.201   8.892  46.432  1.00  0.00    -0.318 OA
BRANCH  31  32
HETATM   32  C2  UNL     1      34.803   9.111  45.185  1.00  0.00     0.255 C 
HETATM   33  C1  UNL     1      33.638   8.413  44.530  1.00  0.00     0.126 C 
HETATM   34  O1  UNL     1      35.388   9.935  44.457  1.00  0.00    -0.266 OA
ENDBRANCH  31  32
ENDBRANCH  30  31
ENDBRANCH   1  30
TORSDOF 6
ENDMDL
MODEL 3
REMARK VINA RESULT: -7.388331889      2.010      2.927
REMARK  6 active torsions:
REMARK  status: ('A' for Active; 'I' for Inactive)
REMARK    1  A    between atoms: C2_2  and  O2_4 
REMARK    2  A    between atoms: O2_4  and  C3_5 
REMARK    3  A    between atoms: C3_5  and  C4_6 
REMARK    4  A    between atoms: C12_17  and  C13_19 
REMARK    5  A    between atoms: C15_21  and  O6_22 
REMARK    6  A    between atoms: C21_31  and  C22_32 
ROOT
HETATM    1  C4  UNL     1      34.219   4.714  49.829  1.00  0.00     0.011 C 
HETATM    2  C5  UNL     1      35.127   4.385  50.708  1.00  0.00    -0.006 C 
HETATM    3  C6  UNL     1      35.423   2.889  50.837  1.00  0.00     0.194 C 
HETATM    4  O3  UNL     1      34.662   1.944  50.840  1.00  0.00    -0.289 OA
HETATM    5  C7  UNL     1      36.930   2.919  50.958  1.00  0.00     0.169 C 
HETATM    6  C8  UNL     1      37.398   3.286  49.590  1.00  0.00     0.053 C 
HETATM    7  C9  UNL     1      38.871   3.460  49.586  1.00  0.00     0.048 C 
HETATM    8  C10 UNL     1      39.412   2.703  50.780  1.00  0.00     0.133 C 
HETATM    9  C11 UNL     1      40.734   2.123  50.251  1.00  0.00     0.053 C 
HETATM   10  O4  UNL     1      38.635   1.565  50.923  1.00  0.00    -0.225 OA
HETATM   11  O5  UNL     1      37.443   1.695  51.348  1.00  0.00    -0.220 OA
HETATM   12  C12 UNL     1      39.558   3.544  52.007  1.00  0.00     0.187 C 
HETATM   13  F1  UNL     1      39.562   2.508  53.014  1.00  0.00    -0.235 F 
HETATM   14  C19 UNL     1      38.389   4.344  52.436  1.00  0.00     0.207 C 
HETATM   15  F2  UNL     1      38.474   5.690  52.173  1.00  0.00    -0.226 F 
HETATM   16 BR1  UNL     1      38.332   4.237  54.421  1.00  0.00    -0.044 Br
HETATM   17  C20 UNL     1      37.042   3.901  52.029  1.00  0.00     0.095 C 
HETATM   18  C21 UNL     1      36.063   5.020  51.636  1.00  0.00     0.037 C 
ENDROOT
BRANCH  12  19
HETATM   19  C13 UNL     1      40.918   4.133  52.224  1.00  0.00     0.039 C 
HETATM   20  C14 UNL     1      41.556   3.772  53.542  1.00  0.00     0.040 C 
HETATM   21  C15 UNL     1      42.040   5.076  54.146  1.00  0.00     0.119 C 
HETATM   22  C16 UNL     1      42.272   5.932  52.963  1.00  0.00     0.036 C 
HETATM   23  C17 UNL     1      41.245   5.503  51.898  1.00  0.00    -0.009 C 
HETATM   24  C18 UNL     1      42.037   5.686  50.578  1.00  0.00     0.010 C 
BRANCH  21  25
HETATM   25  O6  UNL     1      43.216   4.790  54.844  1.00  0.00    -0.396 OA
ATOM     26  H6  UNL     1      43.198   5.306  55.641  1.00  0.00     0.210 HD
ENDBRANCH  21  25
ENDBRANCH  12  19
BRANCH  18  27
HETATM   27  C22 UNL     1      35.549   5.711  52.843  1.00  0.00    -0.014 C 
HETATM   28  C23 UNL     1      34.523   5.002  53.649  1.00  0.00     0.010 C 
HETATM   29  C24 UNL     1      35.269   7.152  52.654  1.00  0.00     0.010 C 
ENDBRANCH  18  27
BRANCH   1  30
HETATM   30  C3  UNL     1      33.679   6.014  49.435  1.00  0.00     0.207 C 
BRANCH  30  31
HETATM   31  O2  UNL     1      34.494   6.821  48.655  1.00  0.00    -0.318 OA
BRANCH  31  32
HETATM   32  C2  UNL     1      34.565   8.138  48.511  1.00  0.00     0.255 C 
HETATM   33  C1  UNL     1      34.201   9.131  49.586  1.00  0.00     0.126 C 
HETATM   34  O1  UNL     1      34.948   8.651  47.443  1.00  0.00    -0.266 OA
ENDBRANCH  31  32
ENDBRANCH  30  31
ENDBRANCH   1  30
TORSDOF 6
ENDMDL
MODEL 4
REMARK VINA RESULT: -7.370504834      3.492      6.851
REMARK  6 active torsions:
REMARK  status: ('A' for Active; 'I' for Inactive)
REMARK    1  A    between atoms: C2_2  and  O2_4 
REMARK    2  A    between atoms: O2_4  and  C3_5 
REMARK    3  A    between atoms: C3_5  and  C4_6 
REMARK    4  A    between atoms: C12_17  and  C13_19 
REMARK    5  A    between atoms: C15_21  and  O6_22 
REMARK    6  A    between atoms: C21_31  and  C22_32 
ROOT
HETATM    1  C4  UNL     1      36.293   3.646  56.391  1.00  0.00     0.011 C 
HETATM    2  C5  UNL     1      36.327   3.095  55.207  1.00  0.00    -0.006 C 
HETATM    3  C6  UNL     1      35.024   3.152  54.405  1.00  0.00     0.194 C 
HETATM    4  O3  UNL     1      33.879   2.985  54.769  1.00  0.00    -0.289 OA
HETATM    5  C7  UNL     1      35.565   3.478  53.031  1.00  0.00     0.169 C 
HETATM    6  C8  UNL     1      36.011   4.897  53.141  1.00  0.00     0.053 C 
HETATM    7  C9  UNL     1      36.671   5.323  51.883  1.00  0.00     0.048 C 
HETATM    8  C10 UNL     1      36.191   4.390  50.791  1.00  0.00     0.133 C 
HETATM    9  C11 UNL     1      36.070   5.320  49.572  1.00  0.00     0.053 C 
HETATM   10  O4  UNL     1      34.866   4.097  51.064  1.00  0.00    -0.225 OA
HETATM   11  O5  UNL     1      34.604   3.333  52.047  1.00  0.00    -0.220 OA
HETATM   12  C12 UNL     1      37.083   3.210  50.577  1.00  0.00     0.187 C 
HETATM   13  F1  UNL     1      36.153   2.316  49.927  1.00  0.00    -0.235 F 
HETATM   14  C19 UNL     1      37.460   2.408  51.762  1.00  0.00     0.207 C 
HETATM   15  F2  UNL     1      38.744   2.600  52.213  1.00  0.00    -0.226 F 
HETATM   16 BR1  UNL     1      37.423   0.504  51.187  1.00  0.00    -0.044 Br
HETATM   17  C20 UNL     1      36.573   2.428  52.939  1.00  0.00     0.095 C 
HETATM   18  C21 UNL     1      37.279   2.445  54.306  1.00  0.00     0.037 C 
ENDROOT
BRANCH  12  19
HETATM   19  C13 UNL     1      38.105   3.366  49.492  1.00  0.00     0.039 C 
HETATM   20  C14 UNL     1      37.775   2.643  48.210  1.00  0.00     0.040 C 
HETATM   21  C15 UNL     1      39.020   1.864  47.834  1.00  0.00     0.119 C 
HETATM   22  C16 UNL     1      40.110   2.647  48.454  1.00  0.00     0.036 C 
HETATM   23  C17 UNL     1      39.529   3.282  49.731  1.00  0.00    -0.009 C 
HETATM   24  C18 UNL     1      40.260   4.648  49.788  1.00  0.00     0.010 C 
BRANCH  21  25
HETATM   25  O6  UNL     1      39.089   1.854  46.439  1.00  0.00    -0.396 OA
ATOM     26  H6  UNL     1      39.748   1.213  46.199  1.00  0.00     0.210 HD
ENDBRANCH  21  25
ENDBRANCH  12  19
BRANCH  18  27
HETATM   27  C22 UNL     1      37.806   1.099  54.637  1.00  0.00    -0.014 C 
HETATM   28  C23 UNL     1      37.047   0.295  55.629  1.00  0.00     0.010 C 
HETATM   29  C24 UNL     1      39.274   1.043  54.819  1.00  0.00     0.010 C 
ENDBRANCH  18  27
BRANCH   1  30
HETATM   30  C3  UNL     1      37.317   3.782  57.425  1.00  0.00     0.207 C 
BRANCH  30  31
HETATM   31  O2  UNL     1      36.953   4.457  58.581  1.00  0.00    -0.318 OA
BRANCH  31  32
HETATM   32  C2  UNL     1      36.298   4.068  59.668  1.00  0.00     0.255 C 
HETATM   33  C1  UNL     1      34.798   4.117  59.818  1.00  0.00     0.126 C 
HETATM   34  O1  UNL     1      36.902   3.623  60.661  1.00  0.00    -0.266 OA
ENDBRANCH  31  32
ENDBRANCH  30  31
ENDBRANCH   1  30
TORSDOF 6
ENDMDL
MODEL 5
REMARK VINA RESULT: -7.268160344      2.138      2.705
REMARK  6 active torsions:
REMARK  status: ('A' for Active; 'I' for Inactive)
REMARK    1  A    between atoms: C2_2  and  O2_4 
REMARK    2  A    between atoms: O2_4  and  C3_5 
REMARK    3  A    between atoms: C3_5  and  C4_6 
REMARK    4  A    between atoms: C12_17  and  C13_19 
REMARK    5  A    between atoms: C15_21  and  O6_22 
REMARK    6  A    between atoms: C21_31  and  C22_32 
ROOT
HETATM    1  C4  UNL     1      34.921   7.491  50.210  1.00  0.00     0.011 C 
HETATM    2  C5  UNL     1      35.549   6.388  50.515  1.00  0.00    -0.006 C 
HETATM    3  C6  UNL     1      35.205   5.164  49.663  1.00  0.00     0.194 C 
HETATM    4  O3  UNL     1      34.129   4.780  49.254  1.00  0.00    -0.289 OA
HETATM    5  C7  UNL     1      36.581   4.569  49.472  1.00  0.00     0.169 C 
HETATM    6  C8  UNL     1      37.259   5.510  48.535  1.00  0.00     0.053 C 
HETATM    7  C9  UNL     1      38.673   5.105  48.340  1.00  0.00     0.048 C 
HETATM    8  C10 UNL     1      38.771   3.640  48.707  1.00  0.00     0.133 C 
HETATM    9  C11 UNL     1      39.781   3.095  47.684  1.00  0.00     0.053 C 
HETATM   10  O4  UNL     1      37.592   3.041  48.294  1.00  0.00    -0.225 OA
HETATM   11  O5  UNL     1      36.525   3.292  48.942  1.00  0.00    -0.220 OA
HETATM   12  C12 UNL     1      39.151   3.403  50.133  1.00  0.00     0.187 C 
HETATM   13  F1  UNL     1      38.662   2.054  50.296  1.00  0.00    -0.235 F 
HETATM   14  C19 UNL     1      38.377   4.110  51.177  1.00  0.00     0.207 C 
HETATM   15  F2  UNL     1      39.019   5.177  51.759  1.00  0.00    -0.226 F 
HETATM   16 BR1  UNL     1      38.133   2.815  52.668  1.00  0.00    -0.044 Br
HETATM   17  C20 UNL     1      37.001   4.540  50.868  1.00  0.00     0.095 C 
HETATM   18  C21 UNL     1      36.590   5.912  51.427  1.00  0.00     0.037 C 
ENDROOT
BRANCH  12  19
HETATM   19  C13 UNL     1      40.614   3.189  50.379  1.00  0.00     0.039 C 
HETATM   20  C14 UNL     1      40.975   1.797  50.836  1.00  0.00     0.040 C 
HETATM   21  C15 UNL     1      41.860   1.972  52.055  1.00  0.00     0.119 C 
HETATM   22  C16 UNL     1      42.477   3.298  51.839  1.00  0.00     0.036 C 
HETATM   23  C17 UNL     1      41.446   4.147  51.072  1.00  0.00    -0.009 C 
HETATM   24  C18 UNL     1      42.343   5.014  50.152  1.00  0.00     0.010 C 
BRANCH  21  25
HETATM   25  O6  UNL     1      42.794   0.933  52.032  1.00  0.00    -0.396 OA
ATOM     26  H6  UNL     1      42.918   0.652  52.931  1.00  0.00     0.210 HD
ENDBRANCH  21  25
ENDBRANCH  12  19
BRANCH  18  27
HETATM   27  C22 UNL     1      36.310   5.821  52.880  1.00  0.00    -0.014 C 
HETATM   28  C23 UNL     1      35.149   4.996  53.300  1.00  0.00     0.010 C 
HETATM   29  C24 UNL     1      36.427   7.103  53.609  1.00  0.00     0.010 C 
ENDBRANCH  18  27
BRANCH   1  30
HETATM   30  C3  UNL     1      34.982   8.833  50.788  1.00  0.00     0.207 C 
BRANCH  30  31
HETATM   31  O2  UNL     1      34.628   9.888  49.961  1.00  0.00    -0.318 OA
BRANCH  31  32
HETATM   32  C2  UNL     1      33.490  10.553  49.806  1.00  0.00     0.255 C 
HETATM   33  C1  UNL     1      32.732  11.211  50.932  1.00  0.00     0.126 C 
HETATM   34  O1  UNL     1      32.962  10.677  48.685  1.00  0.00    -0.266 OA
ENDBRANCH  31  32
ENDBRANCH  30  31
ENDBRANCH   1  30
TORSDOF 6
ENDMDL
