MODEL 1
REMARK VINA RESULT: -8.575625359      0.000      0.000
REMARK  7 active torsions:
REMARK  status: ('A' for Active; 'I' for Inactive)
REMARK    1  A    between atoms: C4_6  and  C5_7 
REMARK    2  A    between atoms: C5_7  and  O2_8 
REMARK    3  A    between atoms: C6_10  and  C7_11 
REMARK    4  A    between atoms: C6_10  and  O3_23 
REMARK    5  A    between atoms: C7_11  and  S1_12 
REMARK    6  A    between atoms: S1_12  and  C8_13 
REMARK    7  A    between atoms: O3_23  and  N5_24 
ROOT
HETATM    1  C5  UNL     1      -5.152 -85.490  92.229  1.00  0.00     0.125 C 
HETATM    2  C6  UNL     1      -6.024 -86.174  92.907  1.00  0.00     0.121 C 
ENDROOT
BRANCH   2   3
HETATM    3  C7  UNL     1      -5.873 -87.551  93.373  1.00  0.00     0.150 C 
BRANCH   3   4
HETATM    4  S1  UNL     1      -6.558 -88.796  92.246  1.00  0.00    -0.112 SA
BRANCH   4   5
HETATM    5  C8  UNL     1      -6.819 -90.313  93.164  1.00  0.00     0.086 A 
HETATM    6  S2  UNL     1      -6.442 -91.935  92.725  1.00  0.00    -0.044 SA
HETATM    7  C9  UNL     1      -7.001 -92.711  94.130  1.00  0.00     0.144 A 
HETATM    8  N2  UNL     1      -6.999 -93.988  94.433  1.00  0.00    -0.380 N 
HETATM    9  N3  UNL     1      -7.454 -91.704  94.881  1.00  0.00    -0.324 N 
ATOM     10  H22 UNL     1      -6.653 -94.757  93.860  1.00  0.00     0.158 HD
ATOM     11  H21 UNL     1      -7.335 -94.454  95.275  1.00  0.00     0.158 HD
HETATM   12  C10 UNL     1      -7.367 -90.490  94.404  1.00  0.00     0.142 A 
ATOM     13  H3  UNL     1      -7.857 -91.877  95.802  1.00  0.00     0.169 HD
HETATM   14  N4  UNL     1      -7.830 -89.320  95.145  1.00  0.00    -0.081 NA
ENDBRANCH   4   5
ENDBRANCH   3   4
ENDBRANCH   2   3
BRANCH   2  15
HETATM   15  O3  UNL     1      -7.238 -85.559  93.250  1.00  0.00    -0.234 OA
BRANCH  15  16
HETATM   16  N5  UNL     1      -8.426 -85.930  92.701  1.00  0.00    -0.223 N 
HETATM   17  C11 UNL     1      -9.474 -86.684  93.378  1.00  0.00     0.179 C 
HETATM   18  C12 UNL     1     -10.114 -87.366  92.162  1.00  0.00     0.144 C 
HETATM   19  N6  UNL     1      -9.824 -86.474  91.071  1.00  0.00    -0.361 N 
HETATM   20  C13 UNL     1      -8.865 -85.665  91.388  1.00  0.00     0.210 C 
ATOM     21  H6  UNL     1     -10.307 -86.479  90.172  1.00  0.00     0.162 HD
HETATM   22  N7  UNL     1      -8.361 -84.649  90.480  1.00  0.00    -0.062 NA
ENDBRANCH  15  16
ENDBRANCH   2  15
BRANCH   1  23
HETATM   23  C4  UNL     1      -3.862 -86.009  91.829  1.00  0.00     0.077 A 
HETATM   24  C3  UNL     1      -3.738 -86.425  90.501  1.00  0.00     0.107 A 
HETATM   25  C2  UNL     1      -2.525 -86.887  90.061  1.00  0.00     0.253 A 
HETATM   26  N1  UNL     1      -1.474 -86.939  90.893  1.00  0.00    -0.271 N 
HETATM   27  O1  UNL     1      -2.448 -87.255  88.856  1.00  0.00    -0.268 OA
HETATM   28  C1  UNL     1      -0.187 -87.434  90.419  1.00  0.00     0.164 C 
HETATM   29  C14 UNL     1      -1.570 -86.543  92.175  1.00  0.00     0.329 A 
HETATM   30  N8  UNL     1      -2.782 -86.090  92.589  1.00  0.00    -0.306 N 
HETATM   31  O4  UNL     1      -0.576 -86.596  92.948  1.00  0.00    -0.246 OA
ATOM     32  H8  UNL     1      -2.866 -85.788  93.560  1.00  0.00     0.171 HD
ENDBRANCH   1  23
BRANCH   1  33
HETATM   33  O2  UNL     1      -5.513 -84.162  91.874  1.00  0.00    -0.356 OA
ATOM     34  H2  UNL     1      -6.058 -83.653  92.463  1.00  0.00     0.218 HD
ENDBRANCH   1  33
TORSDOF 7
ENDMDL
MODEL 2
REMARK VINA RESULT: -8.552515581      0.566      1.503
REMARK  7 active torsions:
REMARK  status: ('A' for Active; 'I' for Inactive)
REMARK    1  A    between atoms: C4_6  and  C5_7 
REMARK    2  A    between atoms: C5_7  and  O2_8 
REMARK    3  A    between atoms: C6_10  and  C7_11 
REMARK    4  A    between atoms: C6_10  and  O3_23 
REMARK    5  A    between atoms: C7_11  and  S1_12 
REMARK    6  A    between atoms: S1_12  and  C8_13 
REMARK    7  A    between atoms: O3_23  and  N5_24 
ROOT
HETATM    1  C5  UNL     1      -5.155 -85.536  91.986  1.00  0.00     0.125 C 
HETATM    2  C6  UNL     1      -5.958 -86.242  92.722  1.00  0.00     0.121 C 
ENDROOT
BRANCH   2   3
HETATM    3  C7  UNL     1      -5.758 -87.629  93.138  1.00  0.00     0.150 C 
BRANCH   3   4
HETATM    4  S1  UNL     1      -6.654 -88.843  92.132  1.00  0.00    -0.112 SA
BRANCH   4   5
HETATM    5  C8  UNL     1      -6.850 -90.344  93.091  1.00  0.00     0.086 A 
HETATM    6  S2  UNL     1      -6.470 -91.970  92.668  1.00  0.00    -0.044 SA
HETATM    7  C9  UNL     1      -6.954 -92.723  94.113  1.00  0.00     0.144 A 
HETATM    8  N2  UNL     1      -6.920 -93.994  94.441  1.00  0.00    -0.380 N 
HETATM    9  N3  UNL     1      -7.387 -91.707  94.864  1.00  0.00    -0.324 N 
ATOM     10  H22 UNL     1      -6.589 -94.770  93.869  1.00  0.00     0.158 HD
ATOM     11  H21 UNL     1      -7.210 -94.446  95.308  1.00  0.00     0.158 HD
HETATM   12  C10 UNL     1      -7.339 -90.502  94.358  1.00  0.00     0.142 A 
ATOM     13  H3  UNL     1      -7.745 -91.866  95.805  1.00  0.00     0.169 HD
HETATM   14  N4  UNL     1      -7.784 -89.324  95.096  1.00  0.00    -0.081 NA
ENDBRANCH   4   5
ENDBRANCH   3   4
ENDBRANCH   2   3
BRANCH   2  15
HETATM   15  O3  UNL     1      -7.139 -85.646  93.189  1.00  0.00    -0.234 OA
BRANCH  15  16
HETATM   16  N5  UNL     1      -8.365 -85.966  92.695  1.00  0.00    -0.223 N 
HETATM   17  C11 UNL     1      -9.401 -86.703  93.410  1.00  0.00     0.179 C 
HETATM   18  C12 UNL     1     -10.125 -87.336  92.214  1.00  0.00     0.144 C 
HETATM   19  N6  UNL     1      -9.862 -86.429  91.128  1.00  0.00    -0.361 N 
HETATM   20  C13 UNL     1      -8.862 -85.658  91.413  1.00  0.00     0.210 C 
ATOM     21  H6  UNL     1     -10.390 -86.398  90.256  1.00  0.00     0.162 HD
HETATM   22  N7  UNL     1      -8.372 -84.637  90.502  1.00  0.00    -0.062 NA
ENDBRANCH  15  16
ENDBRANCH   2  15
BRANCH   1  23
HETATM   23  C4  UNL     1      -3.903 -86.034  91.457  1.00  0.00     0.077 A 
HETATM   24  C3  UNL     1      -2.767 -85.835  92.244  1.00  0.00     0.107 A 
HETATM   25  C2  UNL     1      -1.563 -86.325  91.807  1.00  0.00     0.253 A 
HETATM   26  N1  UNL     1      -1.479 -86.983  90.640  1.00  0.00    -0.271 N 
HETATM   27  O1  UNL     1      -0.556 -86.127  92.541  1.00  0.00    -0.268 OA
HETATM   28  C1  UNL     1      -0.196 -87.498  90.179  1.00  0.00     0.164 C 
HETATM   29  C14 UNL     1      -2.561 -87.186  89.867  1.00  0.00     0.329 A 
HETATM   30  N8  UNL     1      -3.743 -86.692  90.321  1.00  0.00    -0.306 N 
HETATM   31  O4  UNL     1      -2.472 -87.806  88.773  1.00  0.00    -0.246 OA
ATOM     32  H8  UNL     1      -4.570 -86.839  89.741  1.00  0.00     0.171 HD
ENDBRANCH   1  23
BRANCH   1  33
HETATM   33  O2  UNL     1      -5.554 -84.202  91.698  1.00  0.00    -0.356 OA
ATOM     34  H2  UNL     1      -5.546 -83.552  92.392  1.00  0.00     0.218 HD
ENDBRANCH   1  33
TORSDOF 7
ENDMDL
MODEL 3
REMARK VINA RESULT: -8.316580185      0.645      1.212
REMARK  7 active torsions:
REMARK  status: ('A' for Active; 'I' for Inactive)
REMARK    1  A    between atoms: C4_6  and  C5_7 
REMARK    2  A    between atoms: C5_7  and  O2_8 
REMARK    3  A    between atoms: C6_10  and  C7_11 
REMARK    4  A    between atoms: C6_10  and  O3_23 
REMARK    5  A    between atoms: C7_11  and  S1_12 
REMARK    6  A    between atoms: S1_12  and  C8_13 
REMARK    7  A    between atoms: O3_23  and  N5_24 
ROOT
HETATM    1  C5  UNL     1      -4.987 -85.570  92.240  1.00  0.00     0.125 C 
HETATM    2  C6  UNL     1      -5.879 -86.268  92.874  1.00  0.00     0.121 C 
ENDROOT
BRANCH   2   3
HETATM    3  C7  UNL     1      -5.759 -87.669  93.278  1.00  0.00     0.150 C 
BRANCH   3   4
HETATM    4  S1  UNL     1      -6.722 -88.819  92.260  1.00  0.00    -0.112 SA
BRANCH   4   5
HETATM    5  C8  UNL     1      -6.903 -90.359  93.158  1.00  0.00     0.086 A 
HETATM    6  S2  UNL     1      -6.547 -91.968  92.655  1.00  0.00    -0.044 SA
HETATM    7  C9  UNL     1      -6.997 -92.780  94.079  1.00  0.00     0.144 A 
HETATM    8  N2  UNL     1      -6.963 -94.064  94.351  1.00  0.00    -0.380 N 
HETATM    9  N3  UNL     1      -7.401 -91.794  94.885  1.00  0.00    -0.324 N 
ATOM     10  H22 UNL     1      -6.655 -94.816  93.737  1.00  0.00     0.158 HD
ATOM     11  H21 UNL     1      -7.233 -94.551  95.205  1.00  0.00     0.158 HD
HETATM   12  C10 UNL     1      -7.358 -90.569  94.431  1.00  0.00     0.142 A 
ATOM     13  H3  UNL     1      -7.735 -91.992  95.828  1.00  0.00     0.169 HD
HETATM   14  N4  UNL     1      -7.774 -89.421  95.230  1.00  0.00    -0.081 NA
ENDBRANCH   4   5
ENDBRANCH   3   4
ENDBRANCH   2   3
BRANCH   2  15
HETATM   15  O3  UNL     1      -7.086 -85.648  93.231  1.00  0.00    -0.234 OA
BRANCH  15  16
HETATM   16  N5  UNL     1      -8.246 -85.862  92.554  1.00  0.00    -0.223 N 
HETATM   17  C11 UNL     1      -8.433 -85.693  91.117  1.00  0.00     0.179 C 
HETATM   18  C12 UNL     1      -9.931 -85.366  91.099  1.00  0.00     0.144 C 
HETATM   19  N6  UNL     1     -10.441 -86.001  92.285  1.00  0.00    -0.361 N 
HETATM   20  C13 UNL     1      -9.476 -86.278  93.102  1.00  0.00     0.210 C 
ATOM     21  H6  UNL     1     -11.425 -86.206  92.458  1.00  0.00     0.162 HD
HETATM   22  N7  UNL     1      -9.693 -86.927  94.384  1.00  0.00    -0.062 NA
ENDBRANCH  15  16
ENDBRANCH   2  15
BRANCH   1  23
HETATM   23  C4  UNL     1      -3.701 -86.093  91.831  1.00  0.00     0.077 A 
HETATM   24  C3  UNL     1      -3.549 -86.392  90.475  1.00  0.00     0.107 A 
HETATM   25  C2  UNL     1      -2.337 -86.853  90.030  1.00  0.00     0.253 A 
HETATM   26  N1  UNL     1      -1.314 -87.014  90.884  1.00  0.00    -0.271 N 
HETATM   27  O1  UNL     1      -2.233 -87.115  88.800  1.00  0.00    -0.268 OA
HETATM   28  C1  UNL     1      -0.029 -87.506  90.404  1.00  0.00     0.164 C 
HETATM   29  C14 UNL     1      -1.438 -86.730  92.193  1.00  0.00     0.329 A 
HETATM   30  N8  UNL     1      -2.648 -86.276  92.611  1.00  0.00    -0.306 N 
HETATM   31  O4  UNL     1      -0.471 -86.884  92.986  1.00  0.00    -0.246 OA
ATOM     32  H8  UNL     1      -2.754 -86.060  93.603  1.00  0.00     0.171 HD
ENDBRANCH   1  23
BRANCH   1  33
HETATM   33  O2  UNL     1      -5.319 -84.220  91.944  1.00  0.00    -0.356 OA
ATOM     34  H2  UNL     1      -5.028 -83.528  92.526  1.00  0.00     0.218 HD
ENDBRANCH   1  33
TORSDOF 7
ENDMDL
MODEL 4
REMARK VINA RESULT: -8.291371194      1.590      1.897
REMARK  7 active torsions:
REMARK  status: ('A' for Active; 'I' for Inactive)
REMARK    1  A    between atoms: C4_6  and  C5_7 
REMARK    2  A    between atoms: C5_7  and  O2_8 
REMARK    3  A    between atoms: C6_10  and  C7_11 
REMARK    4  A    between atoms: C6_10  and  O3_23 
REMARK    5  A    between atoms: C7_11  and  S1_12 
REMARK    6  A    between atoms: S1_12  and  C8_13 
REMARK    7  A    between atoms: O3_23  and  N5_24 
ROOT
HETATM    1  C5  UNL     1      -6.163 -86.764  91.689  1.00  0.00     0.125 C 
HETATM    2  C6  UNL     1      -6.823 -87.841  91.988  1.00  0.00     0.121 C 
ENDROOT
BRANCH   2   3
HETATM    3  C7  UNL     1      -6.250 -89.130  92.373  1.00  0.00     0.150 C 
BRANCH   3   4
HETATM    4  S1  UNL     1      -7.334 -90.549  92.056  1.00  0.00    -0.112 SA
BRANCH   4   5
HETATM    5  C8  UNL     1      -6.632 -91.991  92.855  1.00  0.00     0.086 A 
HETATM    6  S2  UNL     1      -5.861 -93.362  92.154  1.00  0.00    -0.044 SA
HETATM    7  C9  UNL     1      -5.511 -94.211  93.585  1.00  0.00     0.144 A 
HETATM    8  N2  UNL     1      -4.909 -95.367  93.742  1.00  0.00    -0.380 N 
HETATM    9  N3  UNL     1      -5.995 -93.416  94.543  1.00  0.00    -0.324 N 
ATOM     10  H22 UNL     1      -4.539 -95.973  93.010  1.00  0.00     0.158 HD
ATOM     11  H21 UNL     1      -4.700 -95.876  94.600  1.00  0.00     0.158 HD
HETATM   12  C10 UNL     1      -6.563 -92.294  94.186  1.00  0.00     0.142 A 
ATOM     13  H3  UNL     1      -5.924 -93.678  95.527  1.00  0.00     0.169 HD
HETATM   14  N4  UNL     1      -7.121 -91.355  95.154  1.00  0.00    -0.081 NA
ENDBRANCH   4   5
ENDBRANCH   3   4
ENDBRANCH   2   3
BRANCH   2  15
HETATM   15  O3  UNL     1      -8.225 -87.799  91.957  1.00  0.00    -0.234 OA
BRANCH  15  16
HETATM   16  N5  UNL     1      -8.966 -87.328  92.996  1.00  0.00    -0.223 N 
HETATM   17  C11 UNL     1      -8.976 -87.877  94.347  1.00  0.00     0.179 C 
HETATM   18  C12 UNL     1     -10.393 -87.469  94.769  1.00  0.00     0.144 C 
HETATM   19  N6  UNL     1     -10.674 -86.306  93.969  1.00  0.00    -0.361 N 
HETATM   20  C13 UNL     1      -9.858 -86.237  92.967  1.00  0.00     0.210 C 
ATOM     21  H6  UNL     1     -11.412 -85.630  94.165  1.00  0.00     0.162 HD
HETATM   22  N7  UNL     1      -9.903 -85.164  91.989  1.00  0.00    -0.062 NA
ENDBRANCH  15  16
ENDBRANCH   2  15
BRANCH   1  23
HETATM   23  C4  UNL     1      -4.718 -86.679  91.698  1.00  0.00     0.077 A 
HETATM   24  C3  UNL     1      -4.102 -86.354  90.487  1.00  0.00     0.107 A 
HETATM   25  C2  UNL     1      -2.738 -86.222  90.452  1.00  0.00     0.253 A 
HETATM   26  N1  UNL     1      -2.007 -86.404  91.563  1.00  0.00    -0.271 N 
HETATM   27  O1  UNL     1      -2.213 -85.929  89.343  1.00  0.00    -0.268 OA
HETATM   28  C1  UNL     1      -0.557 -86.264  91.518  1.00  0.00     0.164 C 
HETATM   29  C14 UNL     1      -2.580 -86.716  92.739  1.00  0.00     0.329 A 
HETATM   30  N8  UNL     1      -3.933 -86.842  92.750  1.00  0.00    -0.306 N 
HETATM   31  O4  UNL     1      -1.885 -86.884  93.777  1.00  0.00    -0.246 OA
ATOM     32  H8  UNL     1      -4.378 -87.080  93.637  1.00  0.00     0.171 HD
ENDBRANCH   1  23
BRANCH   1  33
HETATM   33  O2  UNL     1      -6.928 -85.619  91.336  1.00  0.00    -0.356 OA
ATOM     34  H2  UNL     1      -7.351 -85.110  92.018  1.00  0.00     0.218 HD
ENDBRANCH   1  33
TORSDOF 7
ENDMDL
MODEL 5
REMARK VINA RESULT: -8.228625002      1.289      1.510
REMARK  7 active torsions:
REMARK  status: ('A' for Active; 'I' for Inactive)
REMARK    1  A    between atoms: C4_6  and  C5_7 
REMARK    2  A    between atoms: C5_7  and  O2_8 
REMARK    3  A    between atoms: C6_10  and  C7_11 
REMARK    4  A    between atoms: C6_10  and  O3_23 
REMARK    5  A    between atoms: C7_11  and  S1_12 
REMARK    6  A    between atoms: S1_12  and  C8_13 
REMARK    7  A    between atoms: O3_23  and  N5_24 
ROOT
HETATM    1  C5  UNL     1      -4.980 -85.503  92.269  1.00  0.00     0.125 C 
HETATM    2  C6  UNL     1      -5.789 -86.386  92.772  1.00  0.00     0.121 C 
ENDROOT
BRANCH   2   3
HETATM    3  C7  UNL     1      -5.520 -87.814  92.938  1.00  0.00     0.150 C 
BRANCH   3   4
HETATM    4  S1  UNL     1      -6.075 -88.839  91.549  1.00  0.00    -0.112 SA
BRANCH   4   5
HETATM    5  C8  UNL     1      -6.655 -90.406  92.196  1.00  0.00     0.086 A 
HETATM    6  S2  UNL     1      -7.525 -90.737  93.645  1.00  0.00    -0.044 SA
HETATM    7  C9  UNL     1      -7.662 -92.423  93.475  1.00  0.00     0.144 A 
HETATM    8  N2  UNL     1      -8.238 -93.296  94.269  1.00  0.00    -0.380 N 
HETATM    9  N3  UNL     1      -7.040 -92.670  92.320  1.00  0.00    -0.324 N 
ATOM     10  H22 UNL     1      -8.713 -93.107  95.151  1.00  0.00     0.158 HD
ATOM     11  H21 UNL     1      -8.320 -94.307  94.168  1.00  0.00     0.158 HD
HETATM   12  C10 UNL     1      -6.527 -91.661  91.666  1.00  0.00     0.142 A 
ATOM     13  H3  UNL     1      -6.965 -93.621  91.957  1.00  0.00     0.169 HD
HETATM   14  N4  UNL     1      -5.830 -91.822  90.394  1.00  0.00    -0.081 NA
ENDBRANCH   4   5
ENDBRANCH   3   4
ENDBRANCH   2   3
BRANCH   2  15
HETATM   15  O3  UNL     1      -7.050 -85.963  93.218  1.00  0.00    -0.234 OA
BRANCH  15  16
HETATM   16  N5  UNL     1      -8.204 -86.314  92.589  1.00  0.00    -0.223 N 
HETATM   17  C11 UNL     1      -9.188 -87.265  93.093  1.00  0.00     0.179 C 
HETATM   18  C12 UNL     1      -9.770 -87.748  91.758  1.00  0.00     0.144 C 
HETATM   19  N6  UNL     1      -9.553 -86.643  90.863  1.00  0.00    -0.361 N 
HETATM   20  C13 UNL     1      -8.662 -85.837  91.345  1.00  0.00     0.210 C 
ATOM     21  H6  UNL     1     -10.033 -86.512  89.972  1.00  0.00     0.162 HD
HETATM   22  N7  UNL     1      -8.241 -84.628  90.657  1.00  0.00    -0.062 NA
ENDBRANCH  15  16
ENDBRANCH   2  15
BRANCH   1  23
HETATM   23  C4  UNL     1      -3.651 -85.814  91.788  1.00  0.00     0.077 A 
HETATM   24  C3  UNL     1      -3.517 -86.033  90.415  1.00  0.00     0.107 A 
HETATM   25  C2  UNL     1      -2.272 -86.292  89.903  1.00  0.00     0.253 A 
HETATM   26  N1  UNL     1      -1.200 -86.335  90.709  1.00  0.00    -0.271 N 
HETATM   27  O1  UNL     1      -2.186 -86.487  88.659  1.00  0.00    -0.268 OA
HETATM   28  C1  UNL     1       0.120 -86.613  90.159  1.00  0.00     0.164 C 
HETATM   29  C14 UNL     1      -1.306 -86.126  92.034  1.00  0.00     0.329 A 
HETATM   30  N8  UNL     1      -2.550 -85.872  92.518  1.00  0.00    -0.306 N 
HETATM   31  O4  UNL     1      -0.293 -86.167  92.782  1.00  0.00    -0.246 OA
ATOM     32  H8  UNL     1      -2.641 -85.713  93.522  1.00  0.00     0.171 HD
ENDBRANCH   1  23
BRANCH   1  33
HETATM   33  O2  UNL     1      -5.454 -84.165  92.199  1.00  0.00    -0.356 OA
ATOM     34  H2  UNL     1      -6.296 -83.947  92.581  1.00  0.00     0.218 HD
ENDBRANCH   1  33
TORSDOF 7
ENDMDL
