MODEL 1
REMARK VINA RESULT: -8.954382443      0.000      0.000
REMARK  9 active torsions:
REMARK  status: ('A' for Active; 'I' for Inactive)
REMARK    1  A    between atoms: C3_3  and  S1_4 
REMARK    2  A    between atoms: S1_4  and  C4_5 
REMARK    3  A    between atoms: C5_10  and  C6_11 
REMARK    4  A    between atoms: C7_12  and  C8_13 
REMARK    5  A    between atoms: C8_13  and  N3_14 
REMARK    6  A    between atoms: N3_14  and  N4_15 
REMARK    7  A    between atoms: N4_15  and  C9_17 
REMARK    8  A    between atoms: C10_20  and  N6_21 
REMARK    9  A    between atoms: C14_29  and  N9_30 
ROOT
HETATM    1  C1  UNL     1      -2.814 -88.646  83.111  1.00  0.00     0.013 C 
HETATM    2  C2  UNL     1      -2.741 -89.034  84.250  1.00  0.00    -0.107 C 
HETATM    3  C3  UNL     1      -2.631 -89.492  85.652  1.00  0.00     0.175 C 
ENDROOT
BRANCH   3   4
HETATM    4  S1  UNL     1      -0.997 -89.028  86.246  1.00  0.00    -0.073 SA
BRANCH   4   5
HETATM    5  C4  UNL     1      -1.132 -87.840  87.588  1.00  0.00     0.204 A 
HETATM    6  N1  UNL     1      -0.995 -86.507  87.458  1.00  0.00    -0.272 N 
HETATM    7  N2  UNL     1      -1.165 -85.986  88.660  1.00  0.00    -0.276 N 
ATOM      8  H1  UNL     1      -0.798 -85.997  86.597  1.00  0.00     0.189 HD
HETATM    9  C5  UNL     1      -1.408 -86.969  89.560  1.00  0.00     0.181 A 
ATOM     10  H2  UNL     1      -1.120 -84.991  88.878  1.00  0.00     0.189 HD
HETATM   11  O2  UNL     1      -1.374 -88.065  88.845  1.00  0.00    -0.267 OA
BRANCH   9  12
HETATM   12  C6  UNL     1      -1.643 -86.757  90.978  1.00  0.00     0.092 A 
HETATM   13  C7  UNL     1      -2.826 -86.424  91.595  1.00  0.00     0.097 A 
HETATM   14  N11 UNL     1      -2.577 -86.316  92.929  1.00  0.00    -0.296 N 
HETATM   15  N12 UNL     1      -1.301 -86.566  93.178  1.00  0.00    -0.284 N 
ATOM     16  H11 UNL     1      -3.273 -86.077  93.635  1.00  0.00     0.187 HD
HETATM   17  C15 UNL     1      -0.709 -86.840  91.989  1.00  0.00     0.130 A 
ATOM     18  H12 UNL     1      -0.848 -86.554  94.092  1.00  0.00     0.188 HD
HETATM   19  N13 UNL     1       0.530 -87.137  91.798  1.00  0.00    -0.384 N 
ATOM     20 2H13 UNL     1       0.976 -87.343  90.903  1.00  0.00     0.157 HD
ATOM     21 1H13 UNL     1       1.221 -87.198  92.546  1.00  0.00     0.157 HD
BRANCH  13  22
HETATM   22  C8  UNL     1      -4.122 -86.231  90.938  1.00  0.00     0.241 C 
BRANCH  22  23
HETATM   23  N3  UNL     1      -5.110 -86.926  91.056  1.00  0.00    -0.322 NA
BRANCH  23  24
HETATM   24  N4  UNL     1      -5.844 -87.950  91.192  1.00  0.00    -0.064 N 
ATOM     25  H4  UNL     1      -5.765 -88.491  90.331  1.00  0.00     0.221 HD
BRANCH  24  26
HETATM   26  C9  UNL     1      -6.625 -88.571  91.945  1.00  0.00     0.736 A 
HETATM   27  N5  UNL     1      -7.755 -87.984  92.371  1.00  0.00    -0.019 N 
HETATM   28  C10 UNL     1      -8.639 -88.603  93.191  1.00  0.00     0.710 A 
ATOM     29  H5  UNL     1      -7.957 -87.032  92.065  1.00  0.00     0.203 HD
HETATM   30  N8  UNL     1      -8.359 -89.839  93.579  1.00  0.00    -0.021 N 
HETATM   31  C14 UNL     1      -7.238 -90.476  93.181  1.00  0.00     0.705 A 
ATOM     32  H8  UNL     1      -9.011 -90.323  94.197  1.00  0.00     0.203 HD
HETATM   33  N10 UNL     1      -6.377 -89.818  92.356  1.00  0.00    -0.019 N 
ATOM     34  H10 UNL     1      -5.526 -90.287  92.046  1.00  0.00     0.203 HD
BRANCH  28  35
HETATM   35  N6  UNL     1      -9.799 -87.875  93.552  1.00  0.00    -0.199 N 
HETATM   36  C11 UNL     1     -10.649 -87.374  92.493  1.00  0.00     0.171 C 
HETATM   37  C12 UNL     1     -11.543 -86.272  93.037  1.00  0.00     0.216 C 
HETATM   38  O1  UNL     1     -10.838 -85.681  94.086  1.00  0.00    -0.283 OA
HETATM   39  N7  UNL     1     -10.954 -86.520  95.156  1.00  0.00    -0.081 NA
HETATM   40  C13 UNL     1     -10.072 -87.655  94.952  1.00  0.00     0.284 C 
ENDBRANCH  28  35
BRANCH  31  41
HETATM   41  N9  UNL     1      -7.026 -91.664  93.584  1.00  0.00    -0.234 N 
ATOM     42  H92 UNL     1      -6.844 -91.886  94.562  1.00  0.00     0.174 HD
ATOM     43  H91 UNL     1      -7.034 -92.426  92.906  1.00  0.00     0.174 HD
ENDBRANCH  31  41
ENDBRANCH  24  26
ENDBRANCH  23  24
ENDBRANCH  22  23
ENDBRANCH  13  22
ENDBRANCH   9  12
ENDBRANCH   4   5
ENDBRANCH   3   4
TORSDOF 9
ENDMDL
MODEL 2
REMARK VINA RESULT: -8.859688331      3.629      6.767
REMARK  9 active torsions:
REMARK  status: ('A' for Active; 'I' for Inactive)
REMARK    1  A    between atoms: C3_3  and  S1_4 
REMARK    2  A    between atoms: S1_4  and  C4_5 
REMARK    3  A    between atoms: C5_10  and  C6_11 
REMARK    4  A    between atoms: C7_12  and  C8_13 
REMARK    5  A    between atoms: C8_13  and  N3_14 
REMARK    6  A    between atoms: N3_14  and  N4_15 
REMARK    7  A    between atoms: N4_15  and  C9_17 
REMARK    8  A    between atoms: C10_20  and  N6_21 
REMARK    9  A    between atoms: C14_29  and  N9_30 
ROOT
HETATM    1  C1  UNL     1       0.052 -86.316  92.371  1.00  0.00     0.013 C 
HETATM    2  C2  UNL     1      -1.096 -86.523  92.670  1.00  0.00    -0.107 C 
HETATM    3  C3  UNL     1      -2.514 -86.770  93.011  1.00  0.00     0.175 C 
ENDROOT
BRANCH   3   4
HETATM    4  S1  UNL     1      -3.520 -85.797  91.881  1.00  0.00    -0.073 SA
BRANCH   4   5
HETATM    5  C4  UNL     1      -5.185 -86.468  91.788  1.00  0.00     0.204 A 
HETATM    6  N1  UNL     1      -5.519 -87.631  91.197  1.00  0.00    -0.272 N 
HETATM    7  N2  UNL     1      -6.824 -87.772  91.341  1.00  0.00    -0.276 N 
ATOM      8  H1  UNL     1      -4.885 -88.280  90.729  1.00  0.00     0.189 HD
HETATM    9  C5  UNL     1      -7.333 -86.713  92.014  1.00  0.00     0.181 A 
ATOM     10  H2  UNL     1      -7.369 -88.562  90.996  1.00  0.00     0.189 HD
HETATM   11  O2  UNL     1      -6.288 -85.961  92.254  1.00  0.00    -0.267 OA
BRANCH   9  12
HETATM   12  C6  UNL     1      -8.735 -86.538  92.350  1.00  0.00     0.092 A 
HETATM   13  C7  UNL     1      -9.377 -86.909  93.508  1.00  0.00     0.097 A 
HETATM   14  N11 UNL     1     -10.687 -86.563  93.381  1.00  0.00    -0.296 N 
HETATM   15  N12 UNL     1     -10.897 -85.992  92.205  1.00  0.00    -0.284 N 
ATOM     16  H11 UNL     1     -11.403 -86.720  94.090  1.00  0.00     0.187 HD
HETATM   17  C15 UNL     1      -9.708 -85.968  91.556  1.00  0.00     0.130 A 
ATOM     18  H12 UNL     1     -11.787 -85.638  91.854  1.00  0.00     0.188 HD
HETATM   19  N13 UNL     1      -9.484 -85.491  90.379  1.00  0.00    -0.384 N 
ATOM     20 2H13 UNL     1      -8.588 -85.473  89.890  1.00  0.00     0.157 HD
ATOM     21 1H13 UNL     1     -10.203 -85.069  89.791  1.00  0.00     0.157 HD
BRANCH  13  22
HETATM   22  C8  UNL     1      -8.760 -87.552  94.672  1.00  0.00     0.241 C 
BRANCH  22  23
HETATM   23  N3  UNL     1      -8.677 -88.744  94.887  1.00  0.00    -0.322 NA
BRANCH  23  24
HETATM   24  N4  UNL     1      -8.224 -89.927  94.915  1.00  0.00    -0.064 N 
ATOM     25  H4  UNL     1      -8.348 -90.273  95.867  1.00  0.00     0.221 HD
BRANCH  24  26
HETATM   26  C9  UNL     1      -7.688 -90.845  94.258  1.00  0.00     0.736 A 
HETATM   27  N5  UNL     1      -7.484 -90.696  92.939  1.00  0.00    -0.019 N 
HETATM   28  C10 UNL     1      -6.912 -91.655  92.172  1.00  0.00     0.710 A 
ATOM     29  H5  UNL     1      -7.772 -89.823  92.496  1.00  0.00     0.203 HD
HETATM   30  N8  UNL     1      -6.545 -92.783  92.766  1.00  0.00    -0.021 N 
HETATM   31  C14 UNL     1      -6.726 -92.986  94.087  1.00  0.00     0.705 A 
ATOM     32  H8  UNL     1      -6.114 -93.519  92.206  1.00  0.00     0.203 HD
HETATM   33  N10 UNL     1      -7.304 -91.995  94.822  1.00  0.00    -0.019 N 
ATOM     34  H10 UNL     1      -7.447 -92.133  95.822  1.00  0.00     0.203 HD
BRANCH  28  35
HETATM   35  N6  UNL     1      -6.741 -91.363  90.797  1.00  0.00    -0.199 N 
HETATM   36  C11 UNL     1      -5.496 -91.745  90.166  1.00  0.00     0.171 C 
HETATM   37  C12 UNL     1      -5.319 -90.965  88.874  1.00  0.00     0.216 C 
HETATM   38  O1  UNL     1      -5.992 -89.755  89.055  1.00  0.00    -0.283 OA
HETATM   39  N7  UNL     1      -7.321 -90.021  88.898  1.00  0.00    -0.081 NA
HETATM   40  C13 UNL     1      -7.805 -90.686  90.094  1.00  0.00     0.284 C 
ENDBRANCH  28  35
BRANCH  31  41
HETATM   41  N9  UNL     1      -6.351 -94.087  94.601  1.00  0.00    -0.234 N 
ATOM     42  H92 UNL     1      -6.662 -94.991  94.247  1.00  0.00     0.174 HD
ATOM     43  H91 UNL     1      -5.717 -94.070  95.399  1.00  0.00     0.174 HD
ENDBRANCH  31  41
ENDBRANCH  24  26
ENDBRANCH  23  24
ENDBRANCH  22  23
ENDBRANCH  13  22
ENDBRANCH   9  12
ENDBRANCH   4   5
ENDBRANCH   3   4
TORSDOF 9
ENDMDL
MODEL 3
REMARK VINA RESULT: -8.794877353      3.581      7.085
REMARK  9 active torsions:
REMARK  status: ('A' for Active; 'I' for Inactive)
REMARK    1  A    between atoms: C3_3  and  S1_4 
REMARK    2  A    between atoms: S1_4  and  C4_5 
REMARK    3  A    between atoms: C5_10  and  C6_11 
REMARK    4  A    between atoms: C7_12  and  C8_13 
REMARK    5  A    between atoms: C8_13  and  N3_14 
REMARK    6  A    between atoms: N3_14  and  N4_15 
REMARK    7  A    between atoms: N4_15  and  C9_17 
REMARK    8  A    between atoms: C10_20  and  N6_21 
REMARK    9  A    between atoms: C14_29  and  N9_30 
ROOT
HETATM    1  C1  UNL     1      -0.364 -85.622  91.909  1.00  0.00     0.013 C 
HETATM    2  C2  UNL     1      -1.400 -86.113  92.280  1.00  0.00    -0.107 C 
HETATM    3  C3  UNL     1      -2.685 -86.707  92.710  1.00  0.00     0.175 C 
ENDROOT
BRANCH   3   4
HETATM    4  S1  UNL     1      -3.999 -85.858  91.821  1.00  0.00    -0.073 SA
BRANCH   4   5
HETATM    5  C4  UNL     1      -5.534 -86.785  91.936  1.00  0.00     0.204 A 
HETATM    6  N1  UNL     1      -5.883 -87.806  91.130  1.00  0.00    -0.272 N 
HETATM    7  N2  UNL     1      -7.071 -88.221  91.532  1.00  0.00    -0.276 N 
ATOM      8  H1  UNL     1      -5.336 -88.186  90.357  1.00  0.00     0.189 HD
HETATM    9  C5  UNL     1      -7.489 -87.479  92.585  1.00  0.00     0.181 A 
ATOM     10  H2  UNL     1      -7.595 -88.988  91.112  1.00  0.00     0.189 HD
HETATM   11  O2  UNL     1      -6.512 -86.628  92.777  1.00  0.00    -0.267 OA
BRANCH   9  12
HETATM   12  C6  UNL     1      -8.751 -87.660  93.280  1.00  0.00     0.092 A 
HETATM   13  C7  UNL     1      -8.983 -88.375  94.432  1.00  0.00     0.097 A 
HETATM   14  N11 UNL     1     -10.312 -88.282  94.712  1.00  0.00    -0.296 N 
HETATM   15  N12 UNL     1     -10.922 -87.545  93.797  1.00  0.00    -0.284 N 
ATOM     16  H11 UNL     1     -10.771 -88.717  95.512  1.00  0.00     0.187 HD
HETATM   17  C15 UNL     1      -9.978 -87.153  92.907  1.00  0.00     0.130 A 
ATOM     18  H12 UNL     1     -11.916 -87.316  93.768  1.00  0.00     0.188 HD
HETATM   19  N13 UNL     1     -10.162 -86.418  91.864  1.00  0.00    -0.384 N 
ATOM     20 2H13 UNL     1      -9.452 -86.124  91.194  1.00  0.00     0.157 HD
ATOM     21 1H13 UNL     1     -11.070 -86.043  91.587  1.00  0.00     0.157 HD
BRANCH  13  22
HETATM   22  C8  UNL     1      -7.980 -89.097  95.221  1.00  0.00     0.241 C 
BRANCH  22  23
HETATM   23  N3  UNL     1      -7.779 -90.294  95.222  1.00  0.00    -0.322 NA
BRANCH  23  24
HETATM   24  N4  UNL     1      -7.439 -91.451  94.834  1.00  0.00    -0.064 N 
ATOM     25  H4  UNL     1      -7.837 -92.118  95.495  1.00  0.00     0.221 HD
BRANCH  24  26
HETATM   26  C9  UNL     1      -6.818 -92.114  93.974  1.00  0.00     0.736 A 
HETATM   27  N5  UNL     1      -6.769 -91.685  92.703  1.00  0.00    -0.019 N 
HETATM   28  C10 UNL     1      -6.116 -92.359  91.726  1.00  0.00     0.710 A 
ATOM     29  H5  UNL     1      -7.243 -90.814  92.462  1.00  0.00     0.203 HD
HETATM   30  N8  UNL     1      -5.507 -93.489  92.057  1.00  0.00    -0.021 N 
HETATM   31  C14 UNL     1      -5.524 -93.966  93.319  1.00  0.00     0.705 A 
ATOM     32  H8  UNL     1      -5.011 -94.013  91.337  1.00  0.00     0.203 HD
HETATM   33  N10 UNL     1      -6.192 -93.256  94.271  1.00  0.00    -0.019 N 
ATOM     34  H10 UNL     1      -6.213 -93.604  95.230  1.00  0.00     0.203 HD
BRANCH  28  35
HETATM   35  N6  UNL     1      -6.129 -91.787  90.430  1.00  0.00    -0.199 N 
HETATM   36  C11 UNL     1      -4.936 -91.903  89.620  1.00  0.00     0.171 C 
HETATM   37  C12 UNL     1      -4.975 -90.872  88.505  1.00  0.00     0.216 C 
HETATM   38  O1  UNL     1      -5.725 -89.800  88.992  1.00  0.00    -0.283 OA
HETATM   39  N7  UNL     1      -7.035 -90.171  88.910  1.00  0.00    -0.081 NA
HETATM   40  C13 UNL     1      -7.320 -91.105  89.985  1.00  0.00     0.284 C 
ENDBRANCH  28  35
BRANCH  31  41
HETATM   41  N9  UNL     1      -4.919 -95.054  93.578  1.00  0.00    -0.234 N 
ATOM     42  H92 UNL     1      -3.994 -95.078  94.009  1.00  0.00     0.174 HD
ATOM     43  H91 UNL     1      -5.369 -95.939  93.346  1.00  0.00     0.174 HD
ENDBRANCH  31  41
ENDBRANCH  24  26
ENDBRANCH  23  24
ENDBRANCH  22  23
ENDBRANCH  13  22
ENDBRANCH   9  12
ENDBRANCH   4   5
ENDBRANCH   3   4
TORSDOF 9
ENDMDL
MODEL 4
REMARK VINA RESULT: -8.776257946      3.569      6.551
REMARK  9 active torsions:
REMARK  status: ('A' for Active; 'I' for Inactive)
REMARK    1  A    between atoms: C3_3  and  S1_4 
REMARK    2  A    between atoms: S1_4  and  C4_5 
REMARK    3  A    between atoms: C5_10  and  C6_11 
REMARK    4  A    between atoms: C7_12  and  C8_13 
REMARK    5  A    between atoms: C8_13  and  N3_14 
REMARK    6  A    between atoms: N3_14  and  N4_15 
REMARK    7  A    between atoms: N4_15  and  C9_17 
REMARK    8  A    between atoms: C10_20  and  N6_21 
REMARK    9  A    between atoms: C14_29  and  N9_30 
ROOT
HETATM    1  C1  UNL     1      -2.456 -87.022  89.272  1.00  0.00     0.013 C 
HETATM    2  C2  UNL     1      -2.628 -86.394  90.286  1.00  0.00    -0.107 C 
HETATM    3  C3  UNL     1      -2.840 -85.648  91.546  1.00  0.00     0.175 C 
ENDROOT
BRANCH   3   4
HETATM    4  S1  UNL     1      -3.626 -86.768  92.713  1.00  0.00    -0.073 SA
BRANCH   4   5
HETATM    5  C4  UNL     1      -5.342 -87.048  92.256  1.00  0.00     0.204 A 
HETATM    6  N1  UNL     1      -5.759 -87.900  91.300  1.00  0.00    -0.272 N 
HETATM    7  N2  UNL     1      -7.077 -87.822  91.268  1.00  0.00    -0.276 N 
ATOM      8  H1  UNL     1      -5.170 -88.492  90.714  1.00  0.00     0.189 HD
HETATM    9  C5  UNL     1      -7.511 -86.929  92.189  1.00  0.00     0.181 A 
ATOM     10  H2  UNL     1      -7.679 -88.356  90.641  1.00  0.00     0.189 HD
HETATM   11  O2  UNL     1      -6.410 -86.498  92.751  1.00  0.00    -0.267 OA
BRANCH   9  12
HETATM   12  C6  UNL     1      -8.904 -86.594  92.429  1.00  0.00     0.092 A 
HETATM   13  C7  UNL     1      -9.652 -86.854  93.553  1.00  0.00     0.097 A 
HETATM   14  N11 UNL     1     -10.906 -86.374  93.332  1.00  0.00    -0.296 N 
HETATM   15  N12 UNL     1     -10.981 -85.824  92.130  1.00  0.00    -0.284 N 
ATOM     16  H11 UNL     1     -11.677 -86.429  93.997  1.00  0.00     0.187 HD
HETATM   17  C15 UNL     1      -9.758 -85.950  91.558  1.00  0.00     0.130 A 
ATOM     18  H12 UNL     1     -11.803 -85.389  91.712  1.00  0.00     0.188 HD
HETATM   19  N13 UNL     1      -9.411 -85.541  90.386  1.00  0.00    -0.384 N 
ATOM     20 2H13 UNL     1      -8.491 -85.635  89.955  1.00  0.00     0.157 HD
ATOM     21 1H13 UNL     1     -10.042 -85.064  89.741  1.00  0.00     0.157 HD
BRANCH  13  22
HETATM   22  C8  UNL     1      -9.182 -87.520  94.771  1.00  0.00     0.241 C 
BRANCH  22  23
HETATM   23  N3  UNL     1      -8.914 -88.697  94.902  1.00  0.00    -0.322 NA
BRANCH  23  24
HETATM   24  N4  UNL     1      -8.251 -89.775  94.947  1.00  0.00    -0.064 N 
ATOM     25  H4  UNL     1      -8.039 -89.955  95.928  1.00  0.00     0.221 HD
BRANCH  24  26
HETATM   26  C9  UNL     1      -7.750 -90.711  94.286  1.00  0.00     0.736 A 
HETATM   27  N5  UNL     1      -7.616 -90.595  92.955  1.00  0.00    -0.019 N 
HETATM   28  C10 UNL     1      -7.084 -91.574  92.184  1.00  0.00     0.710 A 
ATOM     29  H5  UNL     1      -7.926 -89.733  92.505  1.00  0.00     0.203 HD
HETATM   30  N8  UNL     1      -6.688 -92.688  92.786  1.00  0.00    -0.021 N 
HETATM   31  C14 UNL     1      -6.799 -92.857  94.120  1.00  0.00     0.705 A 
ATOM     32  H8  UNL     1      -6.286 -93.438  92.223  1.00  0.00     0.203 HD
HETATM   33  N10 UNL     1      -7.338 -91.847  94.858  1.00  0.00    -0.019 N 
ATOM     34  H10 UNL     1      -7.429 -91.959  95.868  1.00  0.00     0.203 HD
BRANCH  28  35
HETATM   35  N6  UNL     1      -6.985 -91.317  90.795  1.00  0.00    -0.199 N 
HETATM   36  C11 UNL     1      -5.731 -91.606  90.133  1.00  0.00     0.171 C 
HETATM   37  C12 UNL     1      -5.668 -90.861  88.811  1.00  0.00     0.216 C 
HETATM   38  O1  UNL     1      -6.443 -89.711  88.976  1.00  0.00    -0.283 OA
HETATM   39  N7  UNL     1      -7.747 -90.102  88.874  1.00  0.00    -0.081 NA
HETATM   40  C13 UNL     1      -8.129 -90.765  90.108  1.00  0.00     0.284 C 
ENDBRANCH  28  35
BRANCH  31  41
HETATM   41  N9  UNL     1      -6.398 -93.945  94.641  1.00  0.00    -0.234 N 
ATOM     42  H92 UNL     1      -5.469 -94.047  95.050  1.00  0.00     0.174 HD
ATOM     43  H91 UNL     1      -7.023 -94.750  94.651  1.00  0.00     0.174 HD
ENDBRANCH  31  41
ENDBRANCH  24  26
ENDBRANCH  23  24
ENDBRANCH  22  23
ENDBRANCH  13  22
ENDBRANCH   9  12
ENDBRANCH   4   5
ENDBRANCH   3   4
TORSDOF 9
ENDMDL
MODEL 5
REMARK VINA RESULT: -8.617820655      3.605      6.338
REMARK  9 active torsions:
REMARK  status: ('A' for Active; 'I' for Inactive)
REMARK    1  A    between atoms: C3_3  and  S1_4 
REMARK    2  A    between atoms: S1_4  and  C4_5 
REMARK    3  A    between atoms: C5_10  and  C6_11 
REMARK    4  A    between atoms: C7_12  and  C8_13 
REMARK    5  A    between atoms: C8_13  and  N3_14 
REMARK    6  A    between atoms: N3_14  and  N4_15 
REMARK    7  A    between atoms: N4_15  and  C9_17 
REMARK    8  A    between atoms: C10_20  and  N6_21 
REMARK    9  A    between atoms: C14_29  and  N9_30 
ROOT
HETATM    1  C1  UNL     1      -1.005 -86.024  88.264  1.00  0.00     0.013 C 
HETATM    2  C2  UNL     1      -1.919 -86.486  88.898  1.00  0.00    -0.107 C 
HETATM    3  C3  UNL     1      -3.043 -87.030  89.691  1.00  0.00     0.175 C 
ENDROOT
BRANCH   3   4
HETATM    4  S1  UNL     1      -3.077 -86.146  91.258  1.00  0.00    -0.073 SA
BRANCH   4   5
HETATM    5  C4  UNL     1      -4.750 -85.608  91.638  1.00  0.00     0.204 A 
HETATM    6  N1  UNL     1      -5.087 -84.380  92.075  1.00  0.00    -0.272 N 
HETATM    7  N2  UNL     1      -6.398 -84.379  92.236  1.00  0.00    -0.276 N 
ATOM      8  H1  UNL     1      -4.452 -83.601  92.248  1.00  0.00     0.189 HD
HETATM    9  C5  UNL     1      -6.906 -85.591  91.909  1.00  0.00     0.181 A 
ATOM     10  H2  UNL     1      -6.947 -83.581  92.558  1.00  0.00     0.189 HD
HETATM   11  O2  UNL     1      -5.855 -86.287  91.557  1.00  0.00    -0.267 OA
BRANCH   9  12
HETATM   12  C6  UNL     1      -8.313 -85.944  91.967  1.00  0.00     0.092 A 
HETATM   13  C7  UNL     1      -8.948 -86.728  92.902  1.00  0.00     0.097 A 
HETATM   14  N11 UNL     1     -10.262 -86.799  92.555  1.00  0.00    -0.296 N 
HETATM   15  N12 UNL     1     -10.483 -86.100  91.454  1.00  0.00    -0.284 N 
ATOM     16  H11 UNL     1     -10.974 -87.317  93.070  1.00  0.00     0.187 HD
HETATM   17  C15 UNL     1      -9.296 -85.565  91.075  1.00  0.00     0.130 A 
ATOM     18  H12 UNL     1     -11.379 -85.984  90.978  1.00  0.00     0.188 HD
HETATM   19  N13 UNL     1      -9.082 -84.814  90.050  1.00  0.00    -0.384 N 
ATOM     20 2H13 UNL     1      -8.188 -84.412  89.766  1.00  0.00     0.157 HD
ATOM     21 1H13 UNL     1      -9.808 -84.534  89.391  1.00  0.00     0.157 HD
BRANCH  13  22
HETATM   22  C8  UNL     1      -8.324 -87.363  94.067  1.00  0.00     0.241 C 
BRANCH  22  23
HETATM   23  N3  UNL     1      -8.388 -88.534  94.379  1.00  0.00    -0.322 NA
BRANCH  23  24
HETATM   24  N4  UNL     1      -8.102 -89.765  94.476  1.00  0.00    -0.064 N 
ATOM     25  H4  UNL     1      -8.370 -90.062  95.414  1.00  0.00     0.221 HD
BRANCH  24  26
HETATM   26  C9  UNL     1      -7.628 -90.765  93.896  1.00  0.00     0.736 A 
HETATM   27  N5  UNL     1      -7.299 -90.694  92.595  1.00  0.00    -0.019 N 
HETATM   28  C10 UNL     1      -6.785 -91.744  91.910  1.00  0.00     0.710 A 
ATOM     29  H5  UNL     1      -7.443 -89.812  92.102  1.00  0.00     0.203 HD
HETATM   30  N8  UNL     1      -6.607 -92.882  92.568  1.00  0.00    -0.021 N 
HETATM   31  C14 UNL     1      -6.920 -93.009  93.874  1.00  0.00     0.705 A 
ATOM     32  H8  UNL     1      -6.222 -93.685  92.070  1.00  0.00     0.203 HD
HETATM   33  N10 UNL     1      -7.433 -91.928  94.525  1.00  0.00    -0.019 N 
ATOM     34  H10 UNL     1      -7.674 -92.008  95.513  1.00  0.00     0.203 HD
BRANCH  28  35
HETATM   35  N6  UNL     1      -6.467 -91.530  90.547  1.00  0.00    -0.199 N 
HETATM   36  C11 UNL     1      -5.332 -92.234  89.991  1.00  0.00     0.171 C 
HETATM   37  C12 UNL     1      -4.885 -91.549  88.710  1.00  0.00     0.216 C 
HETATM   38  O1  UNL     1      -5.227 -90.203  88.849  1.00  0.00    -0.283 OA
HETATM   39  N7  UNL     1      -6.568 -90.114  88.615  1.00  0.00    -0.081 NA
HETATM   40  C13 UNL     1      -7.275 -90.610  89.783  1.00  0.00     0.284 C 
ENDBRANCH  28  35
BRANCH  31  41
HETATM   41  N9  UNL     1      -6.723 -94.125  94.452  1.00  0.00    -0.234 N 
ATOM     42  H92 UNL     1      -7.447 -94.840  94.523  1.00  0.00     0.174 HD
ATOM     43  H91 UNL     1      -5.810 -94.316  94.863  1.00  0.00     0.174 HD
ENDBRANCH  31  41
ENDBRANCH  24  26
ENDBRANCH  23  24
ENDBRANCH  22  23
ENDBRANCH  13  22
ENDBRANCH   9  12
ENDBRANCH   4   5
ENDBRANCH   3   4
TORSDOF 9
ENDMDL
