MODEL 1
REMARK VINA RESULT: -9.883905792      0.000      0.000
REMARK  6 active torsions:
REMARK  status: ('A' for Active; 'I' for Inactive)
REMARK    1  A    between atoms: C4_12  and  C5_13 
REMARK    2  A    between atoms: C5_13  and  O2_14 
REMARK    3  A    between atoms: C5_13  and  N5_16 
REMARK    4  A    between atoms: N5_16  and  N6_18 
REMARK    5  A    between atoms: N6_18  and  C6_20 
REMARK    6  A    between atoms: C7_21  and  O3_22 
ROOT
HETATM    1  N1  UNL     1     -39.452  -3.869  21.769  1.00  0.00    -0.172 NA
HETATM    2  C1  UNL     1     -39.525  -4.261  22.854  1.00  0.00     0.183 C 
HETATM    3  N2  UNL     1     -39.602  -4.684  24.116  1.00  0.00    -0.277 N 
ATOM      4  H2  UNL     1     -39.043  -4.086  24.725  1.00  0.00     0.179 HD
HETATM    5  C2  UNL     1     -40.150  -5.589  24.781  1.00  0.00     0.145 A 
HETATM    6  N3  UNL     1     -39.966  -5.706  26.229  1.00  0.00    -0.292 N 
ATOM      7  H3  UNL     1     -39.403  -5.108  26.834  1.00  0.00     0.172 HD
HETATM    8  C3  UNL     1     -40.735  -6.825  26.603  1.00  0.00     0.326 A 
HETATM    9  O1  UNL     1     -40.803  -7.218  27.809  1.00  0.00    -0.247 OA
HETATM   10  N4  UNL     1     -41.329  -7.329  25.452  1.00  0.00    -0.305 N 
ATOM     11  H4  UNL     1     -41.941  -8.145  25.453  1.00  0.00     0.170 HD
HETATM   12  C4  UNL     1     -41.034  -6.669  24.381  1.00  0.00     0.108 A 
ENDROOT
BRANCH  12  13
HETATM   13  C5  UNL     1     -41.505  -7.020  23.003  1.00  0.00     0.287 C 
BRANCH  13  14
HETATM   14  O2  UNL     1     -40.482  -7.755  22.339  1.00  0.00    -0.370 OA
ATOM     15  H2  UNL     1     -40.235  -7.292  21.547  1.00  0.00     0.212 HD
ENDBRANCH  13  14
BRANCH  13  16
HETATM   16  N5  UNL     1     -42.782  -7.617  22.934  1.00  0.00    -0.301 N 
ATOM     17  H5  UNL     1     -43.568  -7.207  23.438  1.00  0.00     0.183 HD
BRANCH  16  18
HETATM   18  N6  UNL     1     -42.957  -8.741  22.195  1.00  0.00    -0.294 N 
ATOM     19  H6  UNL     1     -42.565  -8.795  21.255  1.00  0.00     0.187 HD
BRANCH  18  20
HETATM   20  C6  UNL     1     -43.696  -9.861  22.731  1.00  0.00     0.167 A 
HETATM   21  C7  UNL     1     -44.634 -10.421  21.903  1.00  0.00     0.178 A 
HETATM   22  N7  UNL     1     -45.341 -11.479  22.353  1.00  0.00    -0.287 N 
HETATM   23  C8  UNL     1     -45.129 -11.970  23.581  1.00  0.00     0.329 A 
ATOM     24  H7  UNL     1     -46.043 -11.909  21.751  1.00  0.00     0.172 HD
HETATM   25  O4  UNL     1     -45.814 -12.953  23.941  1.00  0.00    -0.247 OA
HETATM   26  N8  UNL     1     -44.199 -11.412  24.398  1.00  0.00    -0.273 N 
HETATM   27  C9  UNL     1     -43.467 -10.351  23.990  1.00  0.00     0.281 A 
ATOM     28  H8  UNL     1     -44.050 -11.798  25.330  1.00  0.00     0.173 HD
HETATM   29  O5  UNL     1     -42.588  -9.797  24.720  1.00  0.00    -0.265 OA
BRANCH  21  30
HETATM   30  O3  UNL     1     -44.851  -9.907  20.627  1.00  0.00    -0.344 OA
ATOM     31  H3  UNL     1     -44.889 -10.484  19.873  1.00  0.00     0.219 HD
ENDBRANCH  21  30
ENDBRANCH  18  20
ENDBRANCH  16  18
ENDBRANCH  13  16
ENDBRANCH  12  13
TORSDOF 6
ENDMDL
MODEL 2
REMARK VINA RESULT: -9.530066862      0.146      1.739
REMARK  6 active torsions:
REMARK  status: ('A' for Active; 'I' for Inactive)
REMARK    1  A    between atoms: C4_12  and  C5_13 
REMARK    2  A    between atoms: C5_13  and  O2_14 
REMARK    3  A    between atoms: C5_13  and  N5_16 
REMARK    4  A    between atoms: N5_16  and  N6_18 
REMARK    5  A    between atoms: N6_18  and  C6_20 
REMARK    6  A    between atoms: C7_21  and  O3_22 
ROOT
HETATM    1  N1  UNL     1     -39.494  -3.841  21.759  1.00  0.00    -0.172 NA
HETATM    2  C1  UNL     1     -39.529  -4.249  22.839  1.00  0.00     0.183 C 
HETATM    3  N2  UNL     1     -39.558  -4.691  24.098  1.00  0.00    -0.277 N 
ATOM      4  H2  UNL     1     -38.925  -4.144  24.680  1.00  0.00     0.179 HD
HETATM    5  C2  UNL     1     -40.125  -5.572  24.780  1.00  0.00     0.145 A 
HETATM    6  N3  UNL     1     -39.863  -5.728  26.212  1.00  0.00    -0.292 N 
ATOM      7  H3  UNL     1     -39.227  -5.180  26.791  1.00  0.00     0.172 HD
HETATM    8  C3  UNL     1     -40.681  -6.802  26.614  1.00  0.00     0.326 A 
HETATM    9  O1  UNL     1     -40.703  -7.214  27.816  1.00  0.00    -0.247 OA
HETATM   10  N4  UNL     1     -41.375  -7.243  25.494  1.00  0.00    -0.305 N 
ATOM     11  H4  UNL     1     -42.039  -8.017  25.519  1.00  0.00     0.170 HD
HETATM   12  C4  UNL     1     -41.101  -6.583  24.417  1.00  0.00     0.108 A 
ENDROOT
BRANCH  12  13
HETATM   13  C5  UNL     1     -41.675  -6.874  23.065  1.00  0.00     0.287 C 
BRANCH  13  14
HETATM   14  O2  UNL     1     -40.642  -7.378  22.224  1.00  0.00    -0.370 OA
ATOM     15  H2  UNL     1     -40.664  -8.328  22.244  1.00  0.00     0.212 HD
ENDBRANCH  13  14
BRANCH  13  16
HETATM   16  N5  UNL     1     -42.852  -7.654  23.063  1.00  0.00    -0.301 N 
ATOM     17  H5  UNL     1     -43.647  -7.386  23.643  1.00  0.00     0.183 HD
BRANCH  16  18
HETATM   18  N6  UNL     1     -42.920  -8.764  22.286  1.00  0.00    -0.294 N 
ATOM     19  H6  UNL     1     -42.414  -8.793  21.400  1.00  0.00     0.187 HD
BRANCH  18  20
HETATM   20  C6  UNL     1     -43.703  -9.904  22.704  1.00  0.00     0.167 A 
HETATM   21  C7  UNL     1     -43.408 -10.423  23.937  1.00  0.00     0.178 A 
HETATM   22  N7  UNL     1     -44.122 -11.480  24.378  1.00  0.00    -0.287 N 
HETATM   23  C8  UNL     1     -45.097 -12.008  23.627  1.00  0.00     0.329 A 
ATOM     24  H7  UNL     1     -43.916 -11.880  25.294  1.00  0.00     0.172 HD
HETATM   25  O4  UNL     1     -45.724 -12.986  24.091  1.00  0.00    -0.247 OA
HETATM   26  N8  UNL     1     -45.386 -11.490  22.405  1.00  0.00    -0.273 N 
HETATM   27  C9  UNL     1     -44.697 -10.431  21.922  1.00  0.00     0.281 A 
ATOM     28  H8  UNL     1     -46.131 -11.904  21.845  1.00  0.00     0.173 HD
HETATM   29  O5  UNL     1     -44.932  -9.916  20.786  1.00  0.00    -0.265 OA
BRANCH  21  30
HETATM   30  O3  UNL     1     -42.393  -9.871  24.715  1.00  0.00    -0.344 OA
ATOM     31  H3  UNL     1     -41.515 -10.231  24.692  1.00  0.00     0.219 HD
ENDBRANCH  21  30
ENDBRANCH  18  20
ENDBRANCH  16  18
ENDBRANCH  13  16
ENDBRANCH  12  13
TORSDOF 6
ENDMDL
MODEL 3
REMARK VINA RESULT: -9.455654814      1.325      2.876
REMARK  6 active torsions:
REMARK  status: ('A' for Active; 'I' for Inactive)
REMARK    1  A    between atoms: C4_12  and  C5_13 
REMARK    2  A    between atoms: C5_13  and  O2_14 
REMARK    3  A    between atoms: C5_13  and  N5_16 
REMARK    4  A    between atoms: N5_16  and  N6_18 
REMARK    5  A    between atoms: N6_18  and  C6_20 
REMARK    6  A    between atoms: C7_21  and  O3_22 
ROOT
HETATM    1  N1  UNL     1     -41.384  -7.981  26.761  1.00  0.00    -0.172 NA
HETATM    2  C1  UNL     1     -40.981  -7.112  26.113  1.00  0.00     0.183 C 
HETATM    3  N2  UNL     1     -40.495  -6.103  25.390  1.00  0.00    -0.277 N 
ATOM      4  H2  UNL     1     -40.049  -5.415  25.996  1.00  0.00     0.179 HD
HETATM    5  C2  UNL     1     -40.419  -5.743  24.195  1.00  0.00     0.145 A 
HETATM    6  N3  UNL     1     -39.763  -4.494  23.804  1.00  0.00    -0.292 N 
ATOM      7  H3  UNL     1     -39.320  -3.807  24.413  1.00  0.00     0.172 HD
HETATM    8  C3  UNL     1     -39.879  -4.449  22.401  1.00  0.00     0.326 A 
HETATM    9  O1  UNL     1     -39.410  -3.483  21.721  1.00  0.00    -0.247 OA
HETATM   10  N4  UNL     1     -40.556  -5.594  21.998  1.00  0.00    -0.305 N 
ATOM     11  H4  UNL     1     -40.768  -5.802  21.022  1.00  0.00     0.170 HD
HETATM   12  C4  UNL     1     -40.891  -6.371  22.974  1.00  0.00     0.108 A 
ENDROOT
BRANCH  12  13
HETATM   13  C5  UNL     1     -41.662  -7.647  22.826  1.00  0.00     0.287 C 
BRANCH  13  14
HETATM   14  O2  UNL     1     -41.034  -8.659  23.608  1.00  0.00    -0.370 OA
ATOM     15  H2  UNL     1     -41.066  -8.405  24.523  1.00  0.00     0.212 HD
ENDBRANCH  13  14
BRANCH  13  16
HETATM   16  N5  UNL     1     -43.054  -7.540  23.034  1.00  0.00    -0.301 N 
ATOM     17  H5  UNL     1     -43.422  -6.878  23.718  1.00  0.00     0.183 HD
BRANCH  16  18
HETATM   18  N6  UNL     1     -43.901  -8.322  22.319  1.00  0.00    -0.294 N 
ATOM     19  H6  UNL     1     -44.242  -8.002  21.413  1.00  0.00     0.187 HD
BRANCH  18  20
HETATM   20  C6  UNL     1     -44.323  -9.604  22.833  1.00  0.00     0.167 A 
HETATM   21  C7  UNL     1     -44.765 -10.513  21.908  1.00  0.00     0.178 A 
HETATM   22  N7  UNL     1     -45.156 -11.731  22.338  1.00  0.00    -0.287 N 
HETATM   23  C8  UNL     1     -45.114 -12.043  23.640  1.00  0.00     0.329 A 
ATOM     24  H7  UNL     1     -45.488 -12.421  21.664  1.00  0.00     0.172 HD
HETATM   25  O4  UNL     1     -45.489 -13.188  23.976  1.00  0.00    -0.247 OA
HETATM   26  N8  UNL     1     -44.676 -11.139  24.554  1.00  0.00    -0.273 N 
HETATM   27  C9  UNL     1     -44.273  -9.906  24.170  1.00  0.00     0.281 A 
ATOM     28  H8  UNL     1     -44.651 -11.392  25.541  1.00  0.00     0.173 HD
HETATM   29  O5  UNL     1     -43.858  -9.029  24.988  1.00  0.00    -0.265 OA
BRANCH  21  30
HETATM   30  O3  UNL     1     -44.806 -10.185  20.555  1.00  0.00    -0.344 OA
ATOM     31  H3  UNL     1     -45.552 -10.430  20.020  1.00  0.00     0.219 HD
ENDBRANCH  21  30
ENDBRANCH  18  20
ENDBRANCH  16  18
ENDBRANCH  13  16
ENDBRANCH  12  13
TORSDOF 6
ENDMDL
MODEL 4
REMARK VINA RESULT: -9.440783439      1.356      3.328
REMARK  6 active torsions:
REMARK  status: ('A' for Active; 'I' for Inactive)
REMARK    1  A    between atoms: C4_12  and  C5_13 
REMARK    2  A    between atoms: C5_13  and  O2_14 
REMARK    3  A    between atoms: C5_13  and  N5_16 
REMARK    4  A    between atoms: N5_16  and  N6_18 
REMARK    5  A    between atoms: N6_18  and  C6_20 
REMARK    6  A    between atoms: C7_21  and  O3_22 
ROOT
HETATM    1  N1  UNL     1     -41.575  -8.142  26.648  1.00  0.00    -0.172 NA
HETATM    2  C1  UNL     1     -41.136  -7.261  26.043  1.00  0.00     0.183 C 
HETATM    3  N2  UNL     1     -40.607  -6.239  25.369  1.00  0.00    -0.277 N 
ATOM      4  H2  UNL     1     -40.165  -5.582  26.011  1.00  0.00     0.179 HD
HETATM    5  C2  UNL     1     -40.489  -5.840  24.190  1.00  0.00     0.145 A 
HETATM    6  N3  UNL     1     -39.796  -4.594  23.860  1.00  0.00    -0.292 N 
ATOM      7  H3  UNL     1     -39.357  -3.937  24.506  1.00  0.00     0.172 HD
HETATM    8  C3  UNL     1     -39.869  -4.499  22.457  1.00  0.00     0.326 A 
HETATM    9  O1  UNL     1     -39.361  -3.522  21.824  1.00  0.00    -0.247 OA
HETATM   10  N4  UNL     1     -40.558  -5.615  21.997  1.00  0.00    -0.305 N 
ATOM     11  H4  UNL     1     -40.746  -5.785  21.008  1.00  0.00     0.170 HD
HETATM   12  C4  UNL     1     -40.938  -6.417  22.935  1.00  0.00     0.108 A 
ENDROOT
BRANCH  12  13
HETATM   13  C5  UNL     1     -41.731  -7.670  22.722  1.00  0.00     0.287 C 
BRANCH  13  14
HETATM   14  O2  UNL     1     -41.063  -8.753  23.363  1.00  0.00    -0.370 OA
ATOM     15  H2  UNL     1     -40.152  -8.519  23.492  1.00  0.00     0.212 HD
ENDBRANCH  13  14
BRANCH  13  16
HETATM   16  N5  UNL     1     -43.105  -7.576  23.031  1.00  0.00    -0.301 N 
ATOM     17  H5  UNL     1     -43.419  -6.984  23.800  1.00  0.00     0.183 HD
BRANCH  16  18
HETATM   18  N6  UNL     1     -44.006  -8.278  22.299  1.00  0.00    -0.294 N 
ATOM     19  H6  UNL     1     -44.406  -7.865  21.457  1.00  0.00     0.187 HD
BRANCH  18  20
HETATM   20  C6  UNL     1     -44.403  -9.606  22.706  1.00  0.00     0.167 A 
HETATM   21  C7  UNL     1     -44.358  -9.868  24.050  1.00  0.00     0.178 A 
HETATM   22  N7  UNL     1     -44.733 -11.091  24.480  1.00  0.00    -0.287 N 
HETATM   23  C8  UNL     1     -45.139 -12.027  23.612  1.00  0.00     0.329 A 
ATOM     24  H7  UNL     1     -44.707 -11.304  25.478  1.00  0.00     0.172 HD
HETATM   25  O4  UNL     1     -45.475 -13.141  24.072  1.00  0.00    -0.247 OA
HETATM   26  N8  UNL     1     -45.181 -11.763  22.280  1.00  0.00    -0.273 N 
HETATM   27  C9  UNL     1     -44.816 -10.552  21.803  1.00  0.00     0.281 A 
ATOM     28  H8  UNL     1     -45.492 -12.487  21.633  1.00  0.00     0.173 HD
HETATM   29  O5  UNL     1     -44.838 -10.262  20.567  1.00  0.00    -0.265 OA
BRANCH  21  30
HETATM   30  O3  UNL     1     -43.936  -8.892  24.949  1.00  0.00    -0.344 OA
ATOM     31  H3  UNL     1     -43.261  -9.084  25.590  1.00  0.00     0.219 HD
ENDBRANCH  21  30
ENDBRANCH  18  20
ENDBRANCH  16  18
ENDBRANCH  13  16
ENDBRANCH  12  13
TORSDOF 6
ENDMDL
MODEL 5
REMARK VINA RESULT: -8.812084102      1.818      6.582
REMARK  6 active torsions:
REMARK  status: ('A' for Active; 'I' for Inactive)
REMARK    1  A    between atoms: C4_12  and  C5_13 
REMARK    2  A    between atoms: C5_13  and  O2_14 
REMARK    3  A    between atoms: C5_13  and  N5_16 
REMARK    4  A    between atoms: N5_16  and  N6_18 
REMARK    5  A    between atoms: N6_18  and  C6_20 
REMARK    6  A    between atoms: C7_21  and  O3_22 
ROOT
HETATM    1  N1  UNL     1     -42.771  -6.195  21.601  1.00  0.00    -0.172 NA
HETATM    2  C1  UNL     1     -43.375  -7.167  21.753  1.00  0.00     0.183 C 
HETATM    3  N2  UNL     1     -44.086  -8.287  21.899  1.00  0.00    -0.277 N 
ATOM      4  H2  UNL     1     -44.891  -8.280  21.274  1.00  0.00     0.179 HD
HETATM    5  C2  UNL     1     -44.066  -9.342  22.569  1.00  0.00     0.145 A 
HETATM    6  N3  UNL     1     -45.091 -10.376  22.416  1.00  0.00    -0.292 N 
ATOM      7  H3  UNL     1     -45.897 -10.364  21.791  1.00  0.00     0.172 HD
HETATM    8  C3  UNL     1     -44.722 -11.389  23.322  1.00  0.00     0.326 A 
HETATM    9  O1  UNL     1     -45.404 -12.453  23.452  1.00  0.00    -0.247 OA
HETATM   10  N4  UNL     1     -43.559 -10.977  23.961  1.00  0.00    -0.305 N 
ATOM     11  H4  UNL     1     -43.084 -11.537  24.669  1.00  0.00     0.170 HD
HETATM   12  C4  UNL     1     -43.135  -9.819  23.577  1.00  0.00     0.108 A 
ENDROOT
BRANCH  12  13
HETATM   13  C5  UNL     1     -41.930  -9.121  24.130  1.00  0.00     0.287 C 
BRANCH  13  14
HETATM   14  O2  UNL     1     -41.064  -8.772  23.054  1.00  0.00    -0.370 OA
ATOM     15  H2  UNL     1     -40.330  -9.375  23.042  1.00  0.00     0.212 HD
ENDBRANCH  13  14
BRANCH  13  16
HETATM   16  N5  UNL     1     -42.202  -8.059  25.019  1.00  0.00    -0.301 N 
ATOM     17  H5  UNL     1     -42.808  -8.207  25.826  1.00  0.00     0.183 HD
BRANCH  16  18
HETATM   18  N6  UNL     1     -41.653  -6.839  24.794  1.00  0.00    -0.294 N 
ATOM     19  H6  UNL     1     -41.913  -6.313  23.960  1.00  0.00     0.187 HD
BRANCH  18  20
HETATM   20  C6  UNL     1     -40.703  -6.281  25.728  1.00  0.00     0.167 A 
HETATM   21  C7  UNL     1     -39.970  -5.212  25.282  1.00  0.00     0.178 A 
HETATM   22  N7  UNL     1     -39.079  -4.646  26.123  1.00  0.00    -0.287 N 
HETATM   23  C8  UNL     1     -38.915  -5.120  27.365  1.00  0.00     0.329 A 
ATOM     24  H7  UNL     1     -38.525  -3.849  25.809  1.00  0.00     0.172 HD
HETATM   25  O4  UNL     1     -38.074  -4.553  28.097  1.00  0.00    -0.247 OA
HETATM   26  N8  UNL     1     -39.642  -6.181  27.802  1.00  0.00    -0.273 N 
HETATM   27  C9  UNL     1     -40.547  -6.779  26.995  1.00  0.00     0.281 A 
ATOM     28  H8  UNL     1     -39.504  -6.530  28.750  1.00  0.00     0.173 HD
HETATM   29  O5  UNL     1     -41.247  -7.773  27.361  1.00  0.00    -0.265 OA
BRANCH  21  30
HETATM   30  O3  UNL     1     -40.145  -4.721  23.990  1.00  0.00    -0.344 OA
ATOM     31  H3  UNL     1     -40.344  -3.804  23.843  1.00  0.00     0.219 HD
ENDBRANCH  21  30
ENDBRANCH  18  20
ENDBRANCH  16  18
ENDBRANCH  13  16
ENDBRANCH  12  13
TORSDOF 6
ENDMDL
