MODEL 1
REMARK VINA RESULT: -6.338780438      0.000      0.000
REMARK  9 active torsions:
REMARK  status: ('A' for Active; 'I' for Inactive)
REMARK    1  A    between atoms: C2_2  and  N1_3 
REMARK    2  A    between atoms: N1_3  and  N2_4 
REMARK    3  A    between atoms: N3_8  and  C4_9 
REMARK    4  A    between atoms: N4_10  and  N5_12 
REMARK    5  A    between atoms: N5_12  and  C5_14 
REMARK    6  A    between atoms: C7_18  and  C8_19 
REMARK    7  A    between atoms: C7_18  and  C9_22 
REMARK    8  A    between atoms: C8_19  and  O1_20 
REMARK    9  A    between atoms: C9_22  and  O2_23 
ROOT
HETATM    1  C4  UNL     1     -41.686  -7.073  23.436  1.00  0.00     0.195 C 
HETATM    2  N4  UNL     1     -41.841  -5.839  23.702  1.00  0.00    -0.294 N 
ATOM      3  H4  UNL     1     -42.534  -5.288  23.195  1.00  0.00     0.187 HD
ENDROOT
BRANCH   2   4
HETATM    4  N5  UNL     1     -41.059  -5.244  24.693  1.00  0.00    -0.271 N 
ATOM      5  H5  UNL     1     -40.833  -4.250  24.644  1.00  0.00     0.190 HD
BRANCH   4   6
HETATM    6  C5  UNL     1     -40.573  -6.047  25.783  1.00  0.00     0.191 C 
HETATM    7  N6  UNL     1     -39.762  -5.587  26.685  1.00  0.00    -0.359 N 
HETATM    8  C6  UNL     1     -39.453  -6.627  27.651  1.00  0.00     0.158 C 
ATOM      9  H6  UNL     1     -39.396  -4.635  26.712  1.00  0.00     0.162 HD
HETATM   10  C7  UNL     1     -40.563  -7.607  27.449  1.00  0.00     0.091 C 
HETATM   11  N7  UNL     1     -40.881  -7.413  26.048  1.00  0.00    -0.346 N 
ATOM     12  H7  UNL     1     -41.247  -8.105  25.393  1.00  0.00     0.163 HD
BRANCH  10  13
HETATM   13  C8  UNL     1     -40.163  -9.029  27.747  1.00  0.00     0.199 C 
BRANCH  13  14
HETATM   14  O1  UNL     1     -38.945  -9.011  28.413  1.00  0.00    -0.398 OA
ATOM     15  H1  UNL     1     -38.732  -9.899  28.672  1.00  0.00     0.209 HD
ENDBRANCH  13  14
ENDBRANCH  10  13
BRANCH  10  16
HETATM   16  C9  UNL     1     -41.762  -7.167  28.247  1.00  0.00     0.199 C 
BRANCH  16  17
HETATM   17  O2  UNL     1     -41.410  -6.594  29.462  1.00  0.00    -0.398 OA
ATOM     18  H2  UNL     1     -41.654  -5.678  29.516  1.00  0.00     0.209 HD
ENDBRANCH  16  17
ENDBRANCH  10  16
ENDBRANCH   4   6
ENDBRANCH   2   4
BRANCH   1  19
HETATM   19  N3  UNL     1     -42.479  -7.686  22.428  1.00  0.00    -0.368 N 
HETATM   20  C3  UNL     1     -42.801  -9.097  22.478  1.00  0.00     0.174 C 
HETATM   21  C2  UNL     1     -44.260  -9.356  22.220  1.00  0.00     0.133 C 
HETATM   22  C1  UNL     1     -44.350 -10.559  21.282  1.00  0.00     0.061 C 
HETATM   23  N8  UNL     1     -44.963  -8.249  21.699  1.00  0.00    -0.376 N 
HETATM   24  C11 UNL     1     -44.480  -7.162  21.281  1.00  0.00     0.077 C 
ATOM     25  H8  UNL     1     -45.978  -8.339  21.654  1.00  0.00     0.160 HD
HETATM   26  C10 UNL     1     -43.006  -6.933  21.302  1.00  0.00     0.167 C 
BRANCH  21  27
HETATM   27  N1  UNL     1     -44.888  -9.702  23.502  1.00  0.00    -0.115 NA
BRANCH  27  28
HETATM   28  N2  UNL     1     -44.104 -10.564  24.246  1.00  0.00    -0.346 N 
ATOM     29  H22 UNL     1     -43.234 -10.968  23.899  1.00  0.00     0.172 HD
ATOM     30  H21 UNL     1     -44.500 -10.739  25.170  1.00  0.00     0.172 HD
ENDBRANCH  27  28
ENDBRANCH  21  27
ENDBRANCH   1  19
TORSDOF 9
ENDMDL
MODEL 2
REMARK VINA RESULT: -6.320017370      1.664      2.417
REMARK  9 active torsions:
REMARK  status: ('A' for Active; 'I' for Inactive)
REMARK    1  A    between atoms: C2_2  and  N1_3 
REMARK    2  A    between atoms: N1_3  and  N2_4 
REMARK    3  A    between atoms: N3_8  and  C4_9 
REMARK    4  A    between atoms: N4_10  and  N5_12 
REMARK    5  A    between atoms: N5_12  and  C5_14 
REMARK    6  A    between atoms: C7_18  and  C8_19 
REMARK    7  A    between atoms: C7_18  and  C9_22 
REMARK    8  A    between atoms: C8_19  and  O1_20 
REMARK    9  A    between atoms: C9_22  and  O2_23 
ROOT
HETATM    1  C4  UNL     1     -41.804  -6.314  22.723  1.00  0.00     0.195 C 
HETATM    2  N4  UNL     1     -40.881  -6.633  23.537  1.00  0.00    -0.294 N 
ATOM      3  H4  UNL     1     -40.711  -7.613  23.761  1.00  0.00     0.187 HD
ENDROOT
BRANCH   2   4
HETATM    4  N5  UNL     1     -40.103  -5.633  24.123  1.00  0.00    -0.271 N 
ATOM      5  H5  UNL     1     -39.654  -4.924  23.543  1.00  0.00     0.190 HD
BRANCH   4   6
HETATM    6  C5  UNL     1     -39.942  -5.613  25.552  1.00  0.00     0.191 C 
HETATM    7  N6  UNL     1     -40.434  -6.530  26.326  1.00  0.00    -0.359 N 
HETATM    8  C6  UNL     1     -40.107  -6.239  27.711  1.00  0.00     0.158 C 
ATOM      9  H6  UNL     1     -40.972  -7.337  26.008  1.00  0.00     0.162 HD
HETATM   10  C7  UNL     1     -38.961  -5.287  27.587  1.00  0.00     0.091 C 
HETATM   11  N7  UNL     1     -39.250  -4.635  26.325  1.00  0.00    -0.346 N 
ATOM     12  H7  UNL     1     -39.010  -3.682  26.049  1.00  0.00     0.163 HD
BRANCH  10  13
HETATM   13  C8  UNL     1     -38.879  -4.303  28.726  1.00  0.00     0.199 C 
BRANCH  13  14
HETATM   14  O1  UNL     1     -37.560  -3.885  28.849  1.00  0.00    -0.398 OA
ATOM     15  H1  UNL     1     -37.552  -2.938  28.912  1.00  0.00     0.209 HD
ENDBRANCH  13  14
ENDBRANCH  10  13
BRANCH  10  16
HETATM   16  C9  UNL     1     -37.687  -6.068  27.408  1.00  0.00     0.199 C 
BRANCH  16  17
HETATM   17  O2  UNL     1     -37.397  -6.870  28.505  1.00  0.00    -0.398 OA
ATOM     18  H2  UNL     1     -37.333  -7.790  28.275  1.00  0.00     0.209 HD
ENDBRANCH  16  17
ENDBRANCH  10  16
ENDBRANCH   4   6
ENDBRANCH   2   4
BRANCH   1  19
HETATM   19  N3  UNL     1     -42.601  -7.326  22.123  1.00  0.00    -0.368 N 
HETATM   20  C3  UNL     1     -42.603  -8.683  22.631  1.00  0.00     0.174 C 
HETATM   21  C2  UNL     1     -43.995  -9.231  22.780  1.00  0.00     0.133 C 
HETATM   22  C1  UNL     1     -43.978 -10.667  22.255  1.00  0.00     0.061 C 
HETATM   23  N8  UNL     1     -44.993  -8.467  22.139  1.00  0.00    -0.376 N 
HETATM   24  C11 UNL     1     -44.827  -7.504  21.342  1.00  0.00     0.077 C 
ATOM     25  H8  UNL     1     -45.959  -8.722  22.345  1.00  0.00     0.160 HD
HETATM   26  C10 UNL     1     -43.451  -7.056  20.976  1.00  0.00     0.167 C 
BRANCH  21  27
HETATM   27  N1  UNL     1     -44.319  -9.251  24.213  1.00  0.00    -0.115 NA
BRANCH  27  28
HETATM   28  N2  UNL     1     -43.331  -8.655  24.975  1.00  0.00    -0.346 N 
ATOM     29  H22 UNL     1     -42.339  -8.864  24.865  1.00  0.00     0.172 HD
ATOM     30  H21 UNL     1     -43.716  -7.993  25.648  1.00  0.00     0.172 HD
ENDBRANCH  27  28
ENDBRANCH  21  27
ENDBRANCH   1  19
TORSDOF 9
ENDMDL
MODEL 3
REMARK VINA RESULT: -6.290714808      1.870      2.344
REMARK  9 active torsions:
REMARK  status: ('A' for Active; 'I' for Inactive)
REMARK    1  A    between atoms: C2_2  and  N1_3 
REMARK    2  A    between atoms: N1_3  and  N2_4 
REMARK    3  A    between atoms: N3_8  and  C4_9 
REMARK    4  A    between atoms: N4_10  and  N5_12 
REMARK    5  A    between atoms: N5_12  and  C5_14 
REMARK    6  A    between atoms: C7_18  and  C8_19 
REMARK    7  A    between atoms: C7_18  and  C9_22 
REMARK    8  A    between atoms: C8_19  and  O1_20 
REMARK    9  A    between atoms: C9_22  and  O2_23 
ROOT
HETATM    1  C4  UNL     1     -41.608  -8.428  24.458  1.00  0.00     0.195 C 
HETATM    2  N4  UNL     1     -42.201  -7.754  25.358  1.00  0.00    -0.294 N 
ATOM      3  H4  UNL     1     -43.098  -7.310  25.161  1.00  0.00     0.187 HD
ENDROOT
BRANCH   2   4
HETATM    4  N5  UNL     1     -41.616  -7.624  26.619  1.00  0.00    -0.271 N 
ATOM      5  H5  UNL     1     -41.990  -8.139  27.416  1.00  0.00     0.190 HD
BRANCH   4   6
HETATM    6  C5  UNL     1     -40.479  -6.758  26.782  1.00  0.00     0.191 C 
HETATM    7  N6  UNL     1     -40.299  -5.695  26.061  1.00  0.00    -0.359 N 
HETATM    8  C6  UNL     1     -39.072  -5.028  26.456  1.00  0.00     0.158 C 
ATOM      9  H6  UNL     1     -40.928  -5.374  25.324  1.00  0.00     0.162 HD
HETATM   10  C7  UNL     1     -38.813  -5.591  27.818  1.00  0.00     0.091 C 
HETATM   11  N7  UNL     1     -39.411  -6.908  27.714  1.00  0.00    -0.346 N 
ATOM     12  H7  UNL     1     -39.129  -7.758  28.202  1.00  0.00     0.163 HD
BRANCH  10  13
HETATM   13  C8  UNL     1     -37.348  -5.661  28.164  1.00  0.00     0.199 C 
BRANCH  13  14
HETATM   14  O1  UNL     1     -36.742  -4.486  27.739  1.00  0.00    -0.398 OA
ATOM     15  H1  UNL     1     -36.515  -3.972  28.505  1.00  0.00     0.209 HD
ENDBRANCH  13  14
ENDBRANCH  10  13
BRANCH  10  16
HETATM   16  C9  UNL     1     -39.609  -4.815  28.832  1.00  0.00     0.199 C 
BRANCH  16  17
HETATM   17  O2  UNL     1     -39.034  -3.586  29.132  1.00  0.00    -0.398 OA
ATOM     18  H2  UNL     1     -38.544  -3.226  28.401  1.00  0.00     0.209 HD
ENDBRANCH  16  17
ENDBRANCH  10  16
ENDBRANCH   4   6
ENDBRANCH   2   4
BRANCH   1  19
HETATM   19  N3  UNL     1     -42.197  -8.564  23.171  1.00  0.00    -0.368 N 
HETATM   20  C3  UNL     1     -42.912  -9.766  22.793  1.00  0.00     0.174 C 
HETATM   21  C2  UNL     1     -44.232  -9.460  22.141  1.00  0.00     0.133 C 
HETATM   22  C1  UNL     1     -44.375 -10.396  20.941  1.00  0.00     0.061 C 
HETATM   23  N8  UNL     1     -44.392  -8.112  21.757  1.00  0.00    -0.376 N 
HETATM   24  C11 UNL     1     -43.513  -7.208  21.748  1.00  0.00     0.077 C 
ATOM     25  H8  UNL     1     -45.326  -7.837  21.453  1.00  0.00     0.160 HD
HETATM   26  C10 UNL     1     -42.115  -7.510  22.174  1.00  0.00     0.167 C 
BRANCH  21  27
HETATM   27  N1  UNL     1     -45.294  -9.762  23.111  1.00  0.00    -0.115 NA
BRANCH  27  28
HETATM   28  N2  UNL     1     -45.028 -10.916  23.825  1.00  0.00    -0.346 N 
ATOM     29  H22 UNL     1     -45.661 -11.296  24.529  1.00  0.00     0.172 HD
ATOM     30  H21 UNL     1     -44.134 -11.330  23.562  1.00  0.00     0.172 HD
ENDBRANCH  27  28
ENDBRANCH  21  27
ENDBRANCH   1  19
TORSDOF 9
ENDMDL
MODEL 4
REMARK VINA RESULT: -6.255804482      3.412      7.369
REMARK  9 active torsions:
REMARK  status: ('A' for Active; 'I' for Inactive)
REMARK    1  A    between atoms: C2_2  and  N1_3 
REMARK    2  A    between atoms: N1_3  and  N2_4 
REMARK    3  A    between atoms: N3_8  and  C4_9 
REMARK    4  A    between atoms: N4_10  and  N5_12 
REMARK    5  A    between atoms: N5_12  and  C5_14 
REMARK    6  A    between atoms: C7_18  and  C8_19 
REMARK    7  A    between atoms: C7_18  and  C9_22 
REMARK    8  A    between atoms: C8_19  and  O1_20 
REMARK    9  A    between atoms: C9_22  and  O2_23 
ROOT
HETATM    1  C4  UNL     1     -40.924  -8.155  26.101  1.00  0.00     0.195 C 
HETATM    2  N4  UNL     1     -41.649  -8.425  25.092  1.00  0.00    -0.294 N 
ATOM      3  H4  UNL     1     -42.012  -7.674  24.505  1.00  0.00     0.187 HD
ENDROOT
BRANCH   2   4
HETATM    4  N5  UNL     1     -41.943  -9.756  24.791  1.00  0.00    -0.271 N 
ATOM      5  H5  UNL     1     -41.416 -10.512  25.229  1.00  0.00     0.190 HD
BRANCH   4   6
HETATM    6  C5  UNL     1     -42.996 -10.050  23.857  1.00  0.00     0.191 C 
HETATM    7  N6  UNL     1     -44.140 -10.542  24.222  1.00  0.00    -0.359 N 
HETATM    8  C6  UNL     1     -44.993 -10.729  23.063  1.00  0.00     0.158 C 
ATOM      9  H6  UNL     1     -44.401 -10.764  25.183  1.00  0.00     0.162 HD
HETATM   10  C7  UNL     1     -44.361  -9.840  22.040  1.00  0.00     0.091 C 
HETATM   11  N7  UNL     1     -42.969  -9.863  22.444  1.00  0.00    -0.346 N 
ATOM     12  H7  UNL     1     -42.148  -9.766  21.847  1.00  0.00     0.163 HD
BRANCH  10  13
HETATM   13  C8  UNL     1     -44.548 -10.331  20.627  1.00  0.00     0.199 C 
BRANCH  13  14
HETATM   14  O1  UNL     1     -45.727  -9.792  20.129  1.00  0.00    -0.398 OA
ATOM     15  H1  UNL     1     -46.329  -9.668  20.854  1.00  0.00     0.209 HD
ENDBRANCH  13  14
ENDBRANCH  10  13
BRANCH  10  16
HETATM   16  C9  UNL     1     -44.862  -8.433  22.231  1.00  0.00     0.199 C 
BRANCH  16  17
HETATM   17  O2  UNL     1     -44.249  -7.529  21.372  1.00  0.00    -0.398 OA
ATOM     18  H2  UNL     1     -44.624  -6.659  21.432  1.00  0.00     0.209 HD
ENDBRANCH  16  17
ENDBRANCH  10  16
ENDBRANCH   4   6
ENDBRANCH   2   4
BRANCH   1  19
HETATM   19  N3  UNL     1     -40.620  -6.802  26.414  1.00  0.00    -0.368 N 
HETATM   20  C3  UNL     1     -40.166  -6.418  27.735  1.00  0.00     0.174 C 
HETATM   21  C2  UNL     1     -38.968  -5.510  27.681  1.00  0.00     0.133 C 
HETATM   22  C1  UNL     1     -39.192  -4.400  28.708  1.00  0.00     0.061 C 
HETATM   23  N8  UNL     1     -38.701  -4.975  26.403  1.00  0.00    -0.376 N 
HETATM   24  C11 UNL     1     -39.431  -5.039  25.378  1.00  0.00     0.077 C 
ATOM     25  H8  UNL     1     -37.815  -4.481  26.297  1.00  0.00     0.160 HD
HETATM   26  C10 UNL     1     -40.748  -5.739  25.431  1.00  0.00     0.167 C 
BRANCH  21  27
HETATM   27  N1  UNL     1     -37.791  -6.296  28.077  1.00  0.00    -0.115 NA
BRANCH  27  28
HETATM   28  N2  UNL     1     -36.715  -5.489  28.397  1.00  0.00    -0.346 N 
ATOM     29  H22 UNL     1     -35.746  -5.753  28.219  1.00  0.00     0.172 HD
ATOM     30  H21 UNL     1     -37.010  -4.613  28.828  1.00  0.00     0.172 HD
ENDBRANCH  27  28
ENDBRANCH  21  27
ENDBRANCH   1  19
TORSDOF 9
ENDMDL
MODEL 5
REMARK VINA RESULT: -6.055657457      2.094      3.047
REMARK  9 active torsions:
REMARK  status: ('A' for Active; 'I' for Inactive)
REMARK    1  A    between atoms: C2_2  and  N1_3 
REMARK    2  A    between atoms: N1_3  and  N2_4 
REMARK    3  A    between atoms: N3_8  and  C4_9 
REMARK    4  A    between atoms: N4_10  and  N5_12 
REMARK    5  A    between atoms: N5_12  and  C5_14 
REMARK    6  A    between atoms: C7_18  and  C8_19 
REMARK    7  A    between atoms: C7_18  and  C9_22 
REMARK    8  A    between atoms: C8_19  and  O1_20 
REMARK    9  A    between atoms: C9_22  and  O2_23 
ROOT
HETATM    1  C4  UNL     1     -42.368  -8.545  25.191  1.00  0.00     0.195 C 
HETATM    2  N4  UNL     1     -41.353  -8.941  25.846  1.00  0.00    -0.294 N 
ATOM      3  H4  UNL     1     -40.618  -9.474  25.380  1.00  0.00     0.187 HD
ENDROOT
BRANCH   2   4
HETATM    4  N5  UNL     1     -41.250  -8.642  27.205  1.00  0.00    -0.271 N 
ATOM      5  H5  UNL     1     -41.583  -9.305  27.905  1.00  0.00     0.190 HD
BRANCH   4   6
HETATM    6  C5  UNL     1     -40.670  -7.389  27.608  1.00  0.00     0.191 C 
HETATM    7  N6  UNL     1     -40.796  -6.912  28.807  1.00  0.00    -0.359 N 
HETATM    8  C6  UNL     1     -40.105  -5.639  28.911  1.00  0.00     0.158 C 
ATOM      9  H6  UNL     1     -41.305  -7.365  29.567  1.00  0.00     0.162 HD
HETATM   10  C7  UNL     1     -39.169  -5.675  27.745  1.00  0.00     0.091 C 
HETATM   11  N7  UNL     1     -39.899  -6.501  26.803  1.00  0.00    -0.346 N 
ATOM     12  H7  UNL     1     -39.867  -6.456  25.784  1.00  0.00     0.163 HD
BRANCH  10  13
HETATM   13  C8  UNL     1     -38.865  -4.310  27.184  1.00  0.00     0.199 C 
BRANCH  13  14
HETATM   14  O1  UNL     1     -38.897  -4.390  25.798  1.00  0.00    -0.398 OA
ATOM     15  H1  UNL     1     -38.538  -5.230  25.538  1.00  0.00     0.209 HD
ENDBRANCH  13  14
ENDBRANCH  10  13
BRANCH  10  16
HETATM   16  C9  UNL     1     -37.925  -6.428  28.133  1.00  0.00     0.199 C 
BRANCH  16  17
HETATM   17  O2  UNL     1     -36.765  -5.796  27.701  1.00  0.00    -0.398 OA
ATOM     18  H2  UNL     1     -36.790  -5.585  26.775  1.00  0.00     0.209 HD
ENDBRANCH  16  17
ENDBRANCH  10  16
ENDBRANCH   4   6
ENDBRANCH   2   4
BRANCH   1  19
HETATM   19  N3  UNL     1     -42.481  -8.847  23.806  1.00  0.00    -0.368 N 
HETATM   20  C3  UNL     1     -43.543  -9.693  23.303  1.00  0.00     0.174 C 
HETATM   21  C2  UNL     1     -44.212  -9.105  22.092  1.00  0.00     0.133 C 
HETATM   22  C1  UNL     1     -44.415 -10.240  21.088  1.00  0.00     0.061 C 
HETATM   23  N8  UNL     1     -43.514  -8.027  21.508  1.00  0.00    -0.376 N 
HETATM   24  C11 UNL     1     -42.349  -7.631  21.782  1.00  0.00     0.077 C 
ATOM     25  H8  UNL     1     -44.009  -7.509  20.782  1.00  0.00     0.160 HD
HETATM   26  C10 UNL     1     -41.542  -8.324  22.828  1.00  0.00     0.167 C 
BRANCH  21  27
HETATM   27  N1  UNL     1     -45.527  -8.595  22.508  1.00  0.00    -0.115 NA
BRANCH  27  28
HETATM   28  N2  UNL     1     -46.093  -7.780  21.545  1.00  0.00    -0.346 N 
ATOM     29  H22 UNL     1     -45.594  -7.008  21.103  1.00  0.00     0.172 HD
ATOM     30  H21 UNL     1     -47.055  -8.046  21.339  1.00  0.00     0.172 HD
ENDBRANCH  27  28
ENDBRANCH  21  27
ENDBRANCH   1  19
TORSDOF 9
ENDMDL
