MODEL 1
REMARK VINA RESULT: -8.119929559      0.000      0.000
REMARK  8 active torsions:
REMARK  status: ('A' for Active; 'I' for Inactive)
REMARK    1  A    between atoms: C2_7  and  N4_8 
REMARK    2  A    between atoms: N4_8  and  C3_10 
REMARK    3  A    between atoms: C6_19  and  S1_20 
REMARK    4  A    between atoms: S1_20  and  C7_21 
REMARK    5  A    between atoms: C7_21  and  C8_22 
REMARK    6  A    between atoms: C8_22  and  O2_23 
REMARK    7  A    between atoms: C8_22  and  C9_25 
REMARK    8  A    between atoms: C9_25  and  O3_26 
ROOT
HETATM    1  N1  UNL     1     -40.073  -4.830  21.804  1.00  0.00    -0.080 NA
HETATM    2  C1  UNL     1     -40.563  -6.012  22.469  1.00  0.00     0.151 A 
HETATM    3  N2  UNL     1     -40.880  -7.104  21.750  1.00  0.00    -0.285 N 
ATOM      4  H2  UNL     1     -40.758  -7.056  20.738  1.00  0.00     0.188 HD
HETATM    5  N3  UNL     1     -41.336  -8.233  22.260  1.00  0.00    -0.281 N 
ATOM      6  H3  UNL     1     -41.558  -9.028  21.661  1.00  0.00     0.188 HD
HETATM    7  C2  UNL     1     -41.499  -8.302  23.592  1.00  0.00     0.175 A 
HETATM    8  C5  UNL     1     -41.190  -7.201  24.403  1.00  0.00     0.237 A 
HETATM    9  O1  UNL     1     -41.360  -7.307  25.653  1.00  0.00    -0.283 OA
HETATM   10  C6  UNL     1     -40.718  -6.047  23.837  1.00  0.00     0.097 A 
ENDROOT
BRANCH   7  11
HETATM   11  N4  UNL     1     -41.942  -9.385  24.127  1.00  0.00    -0.309 N 
ATOM     12  H4  UNL     1     -41.352  -9.859  24.811  1.00  0.00     0.170 HD
BRANCH  11  13
HETATM   13  C3  UNL     1     -43.196  -9.956  23.823  1.00  0.00     0.194 A 
HETATM   14  N5  UNL     1     -43.579 -11.143  24.105  1.00  0.00    -0.346 N 
HETATM   15  C4  UNL     1     -44.902 -11.394  23.655  1.00  0.00     0.259 A 
ATOM     16  H5  UNL     1     -43.003 -11.828  24.594  1.00  0.00     0.163 HD
HETATM   17  N6  UNL     1     -45.310 -10.208  22.963  1.00  0.00    -0.119 NA
HETATM   18  N7  UNL     1     -44.264  -9.319  23.147  1.00  0.00    -0.274 N 
ATOM     19  H7  UNL     1     -44.264  -8.347  22.840  1.00  0.00     0.185 HD
ENDBRANCH  11  13
ENDBRANCH   7  11
BRANCH  10  20
HETATM   20  S1  UNL     1     -40.356  -4.646  24.835  1.00  0.00    -0.120 SA
BRANCH  20  21
HETATM   21  C7  UNL     1     -38.959  -4.767  25.908  1.00  0.00     0.113 C 
BRANCH  21  22
HETATM   22  C8  UNL     1     -39.214  -5.093  27.343  1.00  0.00     0.151 C 
BRANCH  22  23
HETATM   23  O2  UNL     1     -39.488  -6.438  27.557  1.00  0.00    -0.393 OA
ATOM     24  H2  UNL     1     -40.402  -6.659  27.423  1.00  0.00     0.210 HD
ENDBRANCH  22  23
BRANCH  22  25
HETATM   25  C9  UNL     1     -37.905  -4.815  28.095  1.00  0.00     0.196 C 
BRANCH  25  26
HETATM   26  O3  UNL     1     -37.001  -5.811  27.688  1.00  0.00    -0.398 OA
ATOM     27  H3  UNL     1     -36.140  -5.514  27.958  1.00  0.00     0.209 HD
ENDBRANCH  25  26
ENDBRANCH  22  25
ENDBRANCH  21  22
ENDBRANCH  20  21
ENDBRANCH  10  20
TORSDOF 8
ENDMDL
MODEL 2
REMARK VINA RESULT: -8.073210998      3.553      6.894
REMARK  8 active torsions:
REMARK  status: ('A' for Active; 'I' for Inactive)
REMARK    1  A    between atoms: C2_7  and  N4_8 
REMARK    2  A    between atoms: N4_8  and  C3_10 
REMARK    3  A    between atoms: C6_19  and  S1_20 
REMARK    4  A    between atoms: S1_20  and  C7_21 
REMARK    5  A    between atoms: C7_21  and  C8_22 
REMARK    6  A    between atoms: C8_22  and  O2_23 
REMARK    7  A    between atoms: C8_22  and  C9_25 
REMARK    8  A    between atoms: C9_25  and  O3_26 
ROOT
HETATM    1  N1  UNL     1     -45.824  -8.391  21.130  1.00  0.00    -0.080 NA
HETATM    2  C1  UNL     1     -44.489  -8.043  21.552  1.00  0.00     0.151 A 
HETATM    3  N2  UNL     1     -43.965  -6.854  21.206  1.00  0.00    -0.285 N 
ATOM      4  H2  UNL     1     -44.543  -6.227  20.645  1.00  0.00     0.188 HD
HETATM    5  N3  UNL     1     -42.756  -6.441  21.539  1.00  0.00    -0.281 N 
ATOM      6  H3  UNL     1     -42.415  -5.525  21.245  1.00  0.00     0.188 HD
HETATM    7  C2  UNL     1     -41.990  -7.261  22.276  1.00  0.00     0.175 A 
HETATM    8  C5  UNL     1     -42.472  -8.517  22.672  1.00  0.00     0.237 A 
HETATM    9  O1  UNL     1     -41.718  -9.262  23.363  1.00  0.00    -0.283 OA
HETATM   10  C6  UNL     1     -43.732  -8.910  22.307  1.00  0.00     0.097 A 
ENDROOT
BRANCH   7  11
HETATM   11  N4  UNL     1     -40.806  -6.895  22.621  1.00  0.00    -0.309 N 
ATOM     12  H4  UNL     1     -40.043  -7.054  21.963  1.00  0.00     0.170 HD
BRANCH  11  13
HETATM   13  C3  UNL     1     -40.502  -6.285  23.857  1.00  0.00     0.194 A 
HETATM   14  N5  UNL     1     -39.806  -5.226  24.031  1.00  0.00    -0.346 N 
HETATM   15  C4  UNL     1     -39.695  -4.884  25.405  1.00  0.00     0.259 A 
ATOM     16  H5  UNL     1     -39.381  -4.691  23.273  1.00  0.00     0.163 HD
HETATM   17  N6  UNL     1     -40.367  -5.928  26.121  1.00  0.00    -0.119 NA
HETATM   18  N7  UNL     1     -40.912  -6.734  25.136  1.00  0.00    -0.274 N 
ATOM     19  H7  UNL     1     -41.520  -7.534  25.306  1.00  0.00     0.185 HD
ENDBRANCH  11  13
ENDBRANCH   7  11
BRANCH  10  20
HETATM   20  S1  UNL     1     -44.341 -10.494  22.767  1.00  0.00    -0.120 SA
BRANCH  20  21
HETATM   21  C7  UNL     1     -44.587 -10.787  24.491  1.00  0.00     0.113 C 
BRANCH  21  22
HETATM   22  C8  UNL     1     -45.421 -11.964  24.880  1.00  0.00     0.151 C 
BRANCH  22  23
HETATM   23  O2  UNL     1     -46.178 -11.743  26.025  1.00  0.00    -0.393 OA
ATOM     24  H2  UNL     1     -46.077 -12.427  26.677  1.00  0.00     0.210 HD
ENDBRANCH  22  23
BRANCH  22  25
HETATM   25  C9  UNL     1     -46.438 -12.174  23.749  1.00  0.00     0.196 C 
BRANCH  25  26
HETATM   26  O3  UNL     1     -47.707 -12.147  24.355  1.00  0.00    -0.398 OA
ATOM     27  H3  UNL     1     -48.054 -11.276  24.202  1.00  0.00     0.209 HD
ENDBRANCH  25  26
ENDBRANCH  22  25
ENDBRANCH  21  22
ENDBRANCH  20  21
ENDBRANCH  10  20
TORSDOF 8
ENDMDL
MODEL 3
REMARK VINA RESULT: -7.533547831      3.898      7.102
REMARK  8 active torsions:
REMARK  status: ('A' for Active; 'I' for Inactive)
REMARK    1  A    between atoms: C2_7  and  N4_8 
REMARK    2  A    between atoms: N4_8  and  C3_10 
REMARK    3  A    between atoms: C6_19  and  S1_20 
REMARK    4  A    between atoms: S1_20  and  C7_21 
REMARK    5  A    between atoms: C7_21  and  C8_22 
REMARK    6  A    between atoms: C8_22  and  O2_23 
REMARK    7  A    between atoms: C8_22  and  C9_25 
REMARK    8  A    between atoms: C9_25  and  O3_26 
ROOT
HETATM    1  N1  UNL     1     -41.952  -7.475  22.605  1.00  0.00    -0.080 NA
HETATM    2  C1  UNL     1     -41.503  -7.258  23.959  1.00  0.00     0.151 A 
HETATM    3  N2  UNL     1     -40.965  -6.075  24.305  1.00  0.00    -0.285 N 
ATOM      4  H2  UNL     1     -40.892  -5.358  23.583  1.00  0.00     0.188 HD
HETATM    5  N3  UNL     1     -40.524  -5.775  25.513  1.00  0.00    -0.281 N 
ATOM      6  H3  UNL     1     -40.126  -4.857  25.715  1.00  0.00     0.188 HD
HETATM    7  C2  UNL     1     -40.617  -6.714  26.469  1.00  0.00     0.175 A 
HETATM    8  C5  UNL     1     -41.167  -7.970  26.178  1.00  0.00     0.237 A 
HETATM    9  O1  UNL     1     -41.233  -8.829  27.106  1.00  0.00    -0.283 OA
HETATM   10  C6  UNL     1     -41.614  -8.244  24.913  1.00  0.00     0.097 A 
ENDROOT
BRANCH   7  11
HETATM   11  N4  UNL     1     -40.198  -6.461  27.659  1.00  0.00    -0.309 N 
ATOM     12  H4  UNL     1     -40.749  -6.804  28.445  1.00  0.00     0.170 HD
BRANCH  11  13
HETATM   13  C3  UNL     1     -39.021  -5.735  27.939  1.00  0.00     0.194 A 
HETATM   14  N5  UNL     1     -38.954  -4.523  28.345  1.00  0.00    -0.346 N 
HETATM   15  C4  UNL     1     -37.611  -4.101  28.531  1.00  0.00     0.259 A 
ATOM     16  H5  UNL     1     -39.767  -3.932  28.514  1.00  0.00     0.163 HD
HETATM   17  N6  UNL     1     -36.794  -5.201  28.112  1.00  0.00    -0.119 NA
HETATM   18  N7  UNL     1     -37.694  -6.213  27.822  1.00  0.00    -0.274 N 
ATOM     19  H7  UNL     1     -37.437  -7.165  27.563  1.00  0.00     0.185 HD
ENDBRANCH  11  13
ENDBRANCH   7  11
BRANCH  10  20
HETATM   20  S1  UNL     1     -42.275  -9.824  24.522  1.00  0.00    -0.120 SA
BRANCH  20  21
HETATM   21  C7  UNL     1     -44.030  -9.940  24.359  1.00  0.00     0.113 C 
BRANCH  21  22
HETATM   22  C8  UNL     1     -44.569 -10.819  23.279  1.00  0.00     0.151 C 
BRANCH  22  23
HETATM   23  O2  UNL     1     -45.876 -11.232  23.511  1.00  0.00    -0.393 OA
ATOM     24  H2  UNL     1     -46.390 -11.307  22.716  1.00  0.00     0.210 HD
ENDBRANCH  22  23
BRANCH  22  25
HETATM   25  C9  UNL     1     -44.628  -9.963  22.006  1.00  0.00     0.196 C 
BRANCH  25  26
HETATM   26  O3  UNL     1     -45.045  -8.684  22.414  1.00  0.00    -0.398 OA
ATOM     27  H3  UNL     1     -45.613  -8.359  21.724  1.00  0.00     0.209 HD
ENDBRANCH  25  26
ENDBRANCH  22  25
ENDBRANCH  21  22
ENDBRANCH  20  21
ENDBRANCH  10  20
TORSDOF 8
ENDMDL
MODEL 4
REMARK VINA RESULT: -7.496241060      2.185      2.910
REMARK  8 active torsions:
REMARK  status: ('A' for Active; 'I' for Inactive)
REMARK    1  A    between atoms: C2_7  and  N4_8 
REMARK    2  A    between atoms: N4_8  and  C3_10 
REMARK    3  A    between atoms: C6_19  and  S1_20 
REMARK    4  A    between atoms: S1_20  and  C7_21 
REMARK    5  A    between atoms: C7_21  and  C8_22 
REMARK    6  A    between atoms: C8_22  and  O2_23 
REMARK    7  A    between atoms: C8_22  and  C9_25 
REMARK    8  A    between atoms: C9_25  and  O3_26 
ROOT
HETATM    1  N1  UNL     1     -43.877  -5.934  20.607  1.00  0.00    -0.080 NA
HETATM    2  C1  UNL     1     -43.666  -7.073  21.466  1.00  0.00     0.151 A 
HETATM    3  N2  UNL     1     -44.671  -7.937  21.693  1.00  0.00    -0.285 N 
ATOM      4  H2  UNL     1     -45.567  -7.752  21.240  1.00  0.00     0.188 HD
HETATM    5  N3  UNL     1     -44.583  -9.007  22.462  1.00  0.00    -0.281 N 
ATOM      6  H3  UNL     1     -45.383  -9.626  22.595  1.00  0.00     0.188 HD
HETATM    7  C2  UNL     1     -43.407  -9.256  23.062  1.00  0.00     0.175 A 
HETATM    8  C5  UNL     1     -42.316  -8.397  22.870  1.00  0.00     0.237 A 
HETATM    9  O1  UNL     1     -41.227  -8.666  23.456  1.00  0.00    -0.283 OA
HETATM   10  C6  UNL     1     -42.447  -7.297  22.065  1.00  0.00     0.097 A 
ENDROOT
BRANCH   7  11
HETATM   11  N4  UNL     1     -43.280 -10.289  23.819  1.00  0.00    -0.309 N 
ATOM     12  H4  UNL     1     -42.361 -10.486  24.213  1.00  0.00     0.170 HD
BRANCH  11  13
HETATM   13  C3  UNL     1     -44.340 -11.166  24.133  1.00  0.00     0.194 A 
HETATM   14  N5  UNL     1     -45.057 -11.142  25.193  1.00  0.00    -0.346 N 
HETATM   15  C4  UNL     1     -46.040 -12.168  25.191  1.00  0.00     0.259 A 
ATOM     16  H5  UNL     1     -44.938 -10.467  25.948  1.00  0.00     0.163 HD
HETATM   17  N6  UNL     1     -45.812 -12.924  23.995  1.00  0.00    -0.119 NA
HETATM   18  N7  UNL     1     -44.807 -12.238  23.335  1.00  0.00    -0.274 N 
ATOM     19  H7  UNL     1     -44.453 -12.471  22.407  1.00  0.00     0.185 HD
ENDBRANCH  11  13
ENDBRANCH   7  11
BRANCH  10  20
HETATM   20  S1  UNL     1     -41.100  -6.192  21.839  1.00  0.00    -0.120 SA
BRANCH  20  21
HETATM   21  C7  UNL     1     -40.119  -5.824  23.261  1.00  0.00     0.113 C 
BRANCH  21  22
HETATM   22  C8  UNL     1     -40.822  -5.296  24.469  1.00  0.00     0.151 C 
BRANCH  22  23
HETATM   23  O2  UNL     1     -41.254  -6.298  25.330  1.00  0.00    -0.393 OA
ATOM     24  H2  UNL     1     -40.701  -7.071  25.312  1.00  0.00     0.210 HD
ENDBRANCH  22  23
BRANCH  22  25
HETATM   25  C9  UNL     1     -39.783  -4.491  25.263  1.00  0.00     0.196 C 
BRANCH  25  26
HETATM   26  O3  UNL     1     -39.111  -5.418  26.079  1.00  0.00    -0.398 OA
ATOM     27  H3  UNL     1     -38.320  -4.983  26.377  1.00  0.00     0.209 HD
ENDBRANCH  25  26
ENDBRANCH  22  25
ENDBRANCH  21  22
ENDBRANCH  20  21
ENDBRANCH  10  20
TORSDOF 8
ENDMDL
MODEL 5
REMARK VINA RESULT: -7.428520397      3.980      7.235
REMARK  8 active torsions:
REMARK  status: ('A' for Active; 'I' for Inactive)
REMARK    1  A    between atoms: C2_7  and  N4_8 
REMARK    2  A    between atoms: N4_8  and  C3_10 
REMARK    3  A    between atoms: C6_19  and  S1_20 
REMARK    4  A    between atoms: S1_20  and  C7_21 
REMARK    5  A    between atoms: C7_21  and  C8_22 
REMARK    6  A    between atoms: C8_22  and  O2_23 
REMARK    7  A    between atoms: C8_22  and  C9_25 
REMARK    8  A    between atoms: C9_25  and  O3_26 
ROOT
HETATM    1  N1  UNL     1     -41.963  -7.386  22.536  1.00  0.00    -0.080 NA
HETATM    2  C1  UNL     1     -41.520  -7.196  23.895  1.00  0.00     0.151 A 
HETATM    3  N2  UNL     1     -40.999  -6.014  24.271  1.00  0.00    -0.285 N 
ATOM      4  H2  UNL     1     -40.934  -5.279  23.567  1.00  0.00     0.188 HD
HETATM    5  N3  UNL     1     -40.564  -5.738  25.487  1.00  0.00    -0.281 N 
ATOM      6  H3  UNL     1     -40.179  -4.820  25.712  1.00  0.00     0.188 HD
HETATM    7  C2  UNL     1     -40.645  -6.701  26.420  1.00  0.00     0.175 A 
HETATM    8  C5  UNL     1     -41.178  -7.958  26.097  1.00  0.00     0.237 A 
HETATM    9  O1  UNL     1     -41.234  -8.839  27.004  1.00  0.00    -0.283 OA
HETATM   10  C6  UNL     1     -41.619  -8.206  24.825  1.00  0.00     0.097 A 
ENDROOT
BRANCH   7  11
HETATM   11  N4  UNL     1     -40.232  -6.471  27.617  1.00  0.00    -0.309 N 
ATOM     12  H4  UNL     1     -40.795  -6.817  28.394  1.00  0.00     0.170 HD
BRANCH  11  13
HETATM   13  C3  UNL     1     -39.047  -5.768  27.916  1.00  0.00     0.194 A 
HETATM   14  N5  UNL     1     -38.962  -4.551  28.303  1.00  0.00    -0.346 N 
HETATM   15  C4  UNL     1     -37.615  -4.156  28.518  1.00  0.00     0.259 A 
ATOM     16  H5  UNL     1     -39.766  -3.938  28.440  1.00  0.00     0.163 HD
HETATM   17  N6  UNL     1     -36.813  -5.281  28.140  1.00  0.00    -0.119 NA
HETATM   18  N7  UNL     1     -37.728  -6.278  27.843  1.00  0.00    -0.274 N 
ATOM     19  H7  UNL     1     -37.487  -7.240  27.607  1.00  0.00     0.185 HD
ENDBRANCH  11  13
ENDBRANCH   7  11
BRANCH  10  20
HETATM   20  S1  UNL     1     -42.258  -9.786  24.395  1.00  0.00    -0.120 SA
BRANCH  20  21
HETATM   21  C7  UNL     1     -44.013  -9.928  24.255  1.00  0.00     0.113 C 
BRANCH  21  22
HETATM   22  C8  UNL     1     -44.622 -11.268  24.514  1.00  0.00     0.151 C 
BRANCH  22  23
HETATM   23  O2  UNL     1     -45.510 -11.267  25.582  1.00  0.00    -0.393 OA
ATOM     24  H2  UNL     1     -46.345 -10.864  25.373  1.00  0.00     0.210 HD
ENDBRANCH  22  23
BRANCH  22  25
HETATM   25  C9  UNL     1     -45.465 -11.612  23.278  1.00  0.00     0.196 C 
BRANCH  25  26
HETATM   26  O3  UNL     1     -46.774 -11.825  23.745  1.00  0.00    -0.398 OA
ATOM     27  H3  UNL     1     -47.171 -12.444  23.143  1.00  0.00     0.209 HD
ENDBRANCH  25  26
ENDBRANCH  22  25
ENDBRANCH  21  22
ENDBRANCH  20  21
ENDBRANCH  10  20
TORSDOF 8
ENDMDL
