MODEL 1
REMARK VINA RESULT: -6.727680277      0.000      0.000
REMARK  6 active torsions:
REMARK  status: ('A' for Active; 'I' for Inactive)
REMARK    1  A    between atoms: C2_2  and  C3_3 
REMARK    2  A    between atoms: C3_3  and  C4_4 
REMARK    3  A    between atoms: C4_4  and  N1_5 
REMARK    4  A    between atoms: C4_4  and  C11_18 
REMARK    5  A    between atoms: N1_5  and  C5_7 
REMARK    6  A    between atoms: C5_7  and  C6_8 
ROOT
HETATM    1  C6  UNL     1      20.922  -5.897  13.003  1.00  0.00     0.022 A 
HETATM    2  C7  UNL     1      21.392  -7.125  13.375  1.00  0.00     0.018 A 
HETATM    3  C8  UNL     1      20.883  -7.780  14.503  1.00  0.00     0.018 A 
HETATM    4  C9  UNL     1      19.898  -7.132  15.207  1.00  0.00     0.089 A 
HETATM    5  N2  UNL     1      19.452  -5.938  14.835  1.00  0.00    -0.352 N 
ATOM      6  H2  UNL     1      18.721  -5.490  15.387  1.00  0.00     0.166 HD
HETATM    7  C10 UNL     1      19.935  -5.296  13.749  1.00  0.00     0.110 A 
HETATM    8  N3  UNL     1      19.455  -4.111  13.448  1.00  0.00    -0.385 N 
ATOM      9  H31 UNL     1      18.724  -3.665  14.001  1.00  0.00     0.157 HD
ATOM     10  H32 UNL     1      19.820  -3.626  12.628  1.00  0.00     0.157 HD
ENDROOT
BRANCH   1  11
HETATM   11  C5  UNL     1      21.405  -5.210  11.767  1.00  0.00     0.099 C 
BRANCH  11  12
HETATM   12  N1  UNL     1      22.739  -5.428  11.415  1.00  0.00    -0.385 N 
ATOM     13  H1  UNL     1      23.440  -5.544  12.148  1.00  0.00     0.159 HD
BRANCH  12  14
HETATM   14  C4  UNL     1      23.127  -5.489  10.079  1.00  0.00     0.173 C 
BRANCH  14  15
HETATM   15  C3  UNL     1      24.131  -6.583   9.764  1.00  0.00     0.060 C 
BRANCH  15  16
HETATM   16  C2  UNL     1      24.180  -7.645  10.782  1.00  0.00    -0.034 C 
HETATM   17  C1  UNL     1      23.616  -8.813  10.487  1.00  0.00     0.007 C 
ENDBRANCH  15  16
ENDBRANCH  14  15
BRANCH  14  18
HETATM   18  C11 UNL     1      23.647  -4.259   9.442  1.00  0.00     0.254 C 
HETATM   19  N4  UNL     1      24.632  -4.309   8.402  1.00  0.00    -0.060 NA
HETATM   20  O1  UNL     1      23.219  -3.149   9.810  1.00  0.00    -0.275 OA
ENDBRANCH  14  18
ENDBRANCH  12  14
ENDBRANCH  11  12
ENDBRANCH   1  11
TORSDOF 6
ENDMDL
MODEL 2
REMARK VINA RESULT: -6.583821625      1.238      1.424
REMARK  6 active torsions:
REMARK  status: ('A' for Active; 'I' for Inactive)
REMARK    1  A    between atoms: C2_2  and  C3_3 
REMARK    2  A    between atoms: C3_3  and  C4_4 
REMARK    3  A    between atoms: C4_4  and  N1_5 
REMARK    4  A    between atoms: C4_4  and  C11_18 
REMARK    5  A    between atoms: N1_5  and  C5_7 
REMARK    6  A    between atoms: C5_7  and  C6_8 
ROOT
HETATM    1  C6  UNL     1      20.720  -6.499  14.016  1.00  0.00     0.022 A 
HETATM    2  C7  UNL     1      21.034  -7.351  15.037  1.00  0.00     0.018 A 
HETATM    3  C8  UNL     1      20.620  -7.087  16.348  1.00  0.00     0.018 A 
HETATM    4  C9  UNL     1      19.892  -5.941  16.552  1.00  0.00     0.089 A 
HETATM    5  N2  UNL     1      19.595  -5.121  15.550  1.00  0.00    -0.352 N 
ATOM      6  H2  UNL     1      19.053  -4.280  15.745  1.00  0.00     0.166 HD
HETATM    7  C10 UNL     1      19.988  -5.365  14.281  1.00  0.00     0.110 A 
HETATM    8  N3  UNL     1      19.670  -4.504  13.342  1.00  0.00    -0.385 N 
ATOM      9  H31 UNL     1      19.127  -3.663  13.539  1.00  0.00     0.157 HD
ATOM     10  H32 UNL     1      19.966  -4.687  12.384  1.00  0.00     0.157 HD
ENDROOT
BRANCH   1  11
HETATM   11  C5  UNL     1      21.096  -6.795  12.600  1.00  0.00     0.099 C 
BRANCH  11  12
HETATM   12  N1  UNL     1      22.315  -6.277  12.158  1.00  0.00    -0.385 N 
ATOM     13  H1  UNL     1      23.129  -6.313  12.773  1.00  0.00     0.159 HD
BRANCH  12  14
HETATM   14  C4  UNL     1      22.437  -5.712  10.892  1.00  0.00     0.173 C 
BRANCH  14  15
HETATM   15  C3  UNL     1      23.597  -6.248  10.071  1.00  0.00     0.060 C 
BRANCH  15  16
HETATM   16  C2  UNL     1      24.224  -7.445  10.654  1.00  0.00    -0.034 C 
HETATM   17  C1  UNL     1      23.939  -8.623  10.108  1.00  0.00     0.007 C 
ENDBRANCH  15  16
ENDBRANCH  14  15
BRANCH  14  18
HETATM   18  C11 UNL     1      22.506  -4.238  10.784  1.00  0.00     0.254 C 
HETATM   19  N4  UNL     1      23.296  -3.593   9.777  1.00  0.00    -0.060 NA
HETATM   20  O1  UNL     1      21.860  -3.533  11.581  1.00  0.00    -0.275 OA
ENDBRANCH  14  18
ENDBRANCH  12  14
ENDBRANCH  11  12
ENDBRANCH   1  11
TORSDOF 6
ENDMDL
MODEL 3
REMARK VINA RESULT: -6.573667428      2.086      2.656
REMARK  6 active torsions:
REMARK  status: ('A' for Active; 'I' for Inactive)
REMARK    1  A    between atoms: C2_2  and  C3_3 
REMARK    2  A    between atoms: C3_3  and  C4_4 
REMARK    3  A    between atoms: C4_4  and  N1_5 
REMARK    4  A    between atoms: C4_4  and  C11_18 
REMARK    5  A    between atoms: N1_5  and  C5_7 
REMARK    6  A    between atoms: C5_7  and  C6_8 
ROOT
HETATM    1  C6  UNL     1      20.929  -4.116  12.019  1.00  0.00     0.022 A 
HETATM    2  C7  UNL     1      20.185  -4.598  13.058  1.00  0.00     0.018 A 
HETATM    3  C8  UNL     1      19.066  -3.900  13.528  1.00  0.00     0.018 A 
HETATM    4  C9  UNL     1      18.759  -2.719  12.897  1.00  0.00     0.089 A 
HETATM    5  N2  UNL     1      19.493  -2.262  11.888  1.00  0.00    -0.352 N 
ATOM      6  H2  UNL     1      19.232  -1.380  11.448  1.00  0.00     0.166 HD
HETATM    7  C10 UNL     1      20.574  -2.927  11.426  1.00  0.00     0.110 A 
HETATM    8  N3  UNL     1      21.261  -2.408  10.434  1.00  0.00    -0.385 N 
ATOM      9  H31 UNL     1      20.998  -1.526   9.995  1.00  0.00     0.157 HD
ATOM     10  H32 UNL     1      22.077  -2.909  10.085  1.00  0.00     0.157 HD
ENDROOT
BRANCH   1  11
HETATM   11  C5  UNL     1      22.088  -4.877  11.461  1.00  0.00     0.099 C 
BRANCH  11  12
HETATM   12  N1  UNL     1      22.024  -5.200  10.103  1.00  0.00    -0.385 N 
ATOM     13  H1  UNL     1      21.117  -5.245   9.639  1.00  0.00     0.159 HD
BRANCH  12  14
HETATM   14  C4  UNL     1      23.181  -5.463   9.374  1.00  0.00     0.173 C 
BRANCH  14  15
HETATM   15  C3  UNL     1      24.127  -6.455  10.027  1.00  0.00     0.060 C 
BRANCH  15  16
HETATM   16  C2  UNL     1      23.759  -7.860   9.789  1.00  0.00    -0.034 C 
HETATM   17  C1  UNL     1      24.229  -8.775  10.632  1.00  0.00     0.007 C 
ENDBRANCH  15  16
ENDBRANCH  14  15
BRANCH  14  18
HETATM   18  C11 UNL     1      24.017  -4.320   8.947  1.00  0.00     0.254 C 
HETATM   19  N4  UNL     1      24.919  -4.420   7.838  1.00  0.00    -0.060 NA
HETATM   20  O1  UNL     1      23.937  -3.238   9.560  1.00  0.00    -0.275 OA
ENDBRANCH  14  18
ENDBRANCH  12  14
ENDBRANCH  11  12
ENDBRANCH   1  11
TORSDOF 6
ENDMDL
MODEL 4
REMARK VINA RESULT: -6.273161498      1.423      2.097
REMARK  6 active torsions:
REMARK  status: ('A' for Active; 'I' for Inactive)
REMARK    1  A    between atoms: C2_2  and  C3_3 
REMARK    2  A    between atoms: C3_3  and  C4_4 
REMARK    3  A    between atoms: C4_4  and  N1_5 
REMARK    4  A    between atoms: C4_4  and  C11_18 
REMARK    5  A    between atoms: N1_5  and  C5_7 
REMARK    6  A    between atoms: C5_7  and  C6_8 
ROOT
HETATM    1  C6  UNL     1      20.492  -6.263  13.741  1.00  0.00     0.022 A 
HETATM    2  C7  UNL     1      19.903  -5.032  13.679  1.00  0.00     0.018 A 
HETATM    3  C8  UNL     1      19.258  -4.486  14.796  1.00  0.00     0.018 A 
HETATM    4  C9  UNL     1      19.247  -5.243  15.941  1.00  0.00     0.089 A 
HETATM    5  N2  UNL     1      19.823  -6.439  15.986  1.00  0.00    -0.352 N 
ATOM      6  H2  UNL     1      19.791  -6.970  16.856  1.00  0.00     0.166 HD
HETATM    7  C10 UNL     1      20.449  -6.976  14.916  1.00  0.00     0.110 A 
HETATM    8  N3  UNL     1      20.985  -8.170  15.029  1.00  0.00    -0.385 N 
ATOM      9  H31 UNL     1      20.952  -8.699  15.900  1.00  0.00     0.157 HD
ATOM     10  H32 UNL     1      21.457  -8.576  14.222  1.00  0.00     0.157 HD
ENDROOT
BRANCH   1  11
HETATM   11  C5  UNL     1      21.242  -6.836  12.582  1.00  0.00     0.099 C 
BRANCH  11  12
HETATM   12  N1  UNL     1      22.377  -6.136  12.168  1.00  0.00    -0.385 N 
ATOM     13  H1  UNL     1      23.152  -6.004  12.818  1.00  0.00     0.159 HD
BRANCH  12  14
HETATM   14  C4  UNL     1      22.466  -5.615  10.879  1.00  0.00     0.173 C 
BRANCH  14  15
HETATM   15  C3  UNL     1      23.543  -6.248  10.016  1.00  0.00     0.060 C 
BRANCH  15  16
HETATM   16  C2  UNL     1      24.214  -7.390  10.660  1.00  0.00    -0.034 C 
HETATM   17  C1  UNL     1      23.997  -8.601  10.154  1.00  0.00     0.007 C 
ENDBRANCH  15  16
ENDBRANCH  14  15
BRANCH  14  18
HETATM   18  C11 UNL     1      22.623  -4.153  10.722  1.00  0.00     0.254 C 
HETATM   19  N4  UNL     1      23.368  -3.588   9.636  1.00  0.00    -0.060 NA
HETATM   20  O1  UNL     1      22.093  -3.386  11.548  1.00  0.00    -0.275 OA
ENDBRANCH  14  18
ENDBRANCH  12  14
ENDBRANCH  11  12
ENDBRANCH   1  11
TORSDOF 6
ENDMDL
MODEL 5
REMARK VINA RESULT: -6.269055454      4.526      6.172
REMARK  6 active torsions:
REMARK  status: ('A' for Active; 'I' for Inactive)
REMARK    1  A    between atoms: C2_2  and  C3_3 
REMARK    2  A    between atoms: C3_3  and  C4_4 
REMARK    3  A    between atoms: C4_4  and  N1_5 
REMARK    4  A    between atoms: C4_4  and  C11_18 
REMARK    5  A    between atoms: N1_5  and  C5_7 
REMARK    6  A    between atoms: C5_7  and  C6_8 
ROOT
HETATM    1  C6  UNL     1      18.673  -3.021  16.927  1.00  0.00     0.022 A 
HETATM    2  C7  UNL     1      19.282  -4.144  17.409  1.00  0.00     0.018 A 
HETATM    3  C8  UNL     1      19.566  -4.280  18.774  1.00  0.00     0.018 A 
HETATM    4  C9  UNL     1      19.204  -3.237  19.592  1.00  0.00     0.089 A 
HETATM    5  N2  UNL     1      18.613  -2.151  19.108  1.00  0.00    -0.352 N 
ATOM      6  H2  UNL     1      18.362  -1.398  19.749  1.00  0.00     0.166 HD
HETATM    7  C10 UNL     1      18.334  -2.008  17.794  1.00  0.00     0.110 A 
HETATM    8  N3  UNL     1      17.760  -0.900  17.384  1.00  0.00    -0.385 N 
ATOM      9  H31 UNL     1      17.509  -0.150  18.027  1.00  0.00     0.157 HD
ATOM     10  H32 UNL     1      17.550  -0.792  16.392  1.00  0.00     0.157 HD
ENDROOT
BRANCH   1  11
HETATM   11  C5  UNL     1      18.303  -2.883  15.486  1.00  0.00     0.099 C 
BRANCH  11  12
HETATM   12  N1  UNL     1      19.230  -2.238  14.664  1.00  0.00    -0.385 N 
ATOM     13  H1  UNL     1      19.991  -1.705  15.086  1.00  0.00     0.159 HD
BRANCH  12  14
HETATM   14  C4  UNL     1      19.132  -2.312  13.277  1.00  0.00     0.173 C 
BRANCH  14  15
HETATM   15  C3  UNL     1      17.846  -2.939  12.768  1.00  0.00     0.060 C 
BRANCH  15  16
HETATM   16  C2  UNL     1      17.115  -2.088  11.814  1.00  0.00    -0.034 C 
HETATM   17  C1  UNL     1      17.119  -2.447  10.534  1.00  0.00     0.007 C 
ENDBRANCH  15  16
ENDBRANCH  14  15
BRANCH  14  18
HETATM   18  C11 UNL     1      20.229  -2.962  12.528  1.00  0.00     0.254 C 
HETATM   19  N4  UNL     1      21.253  -2.198  11.879  1.00  0.00    -0.060 NA
HETATM   20  O1  UNL     1      20.274  -4.205  12.460  1.00  0.00    -0.275 OA
ENDBRANCH  14  18
ENDBRANCH  12  14
ENDBRANCH  11  12
ENDBRANCH   1  11
TORSDOF 6
ENDMDL
