MODEL 1
REMARK VINA RESULT: -7.481074964      0.000      0.000
REMARK  6 active torsions:
REMARK  status: ('A' for Active; 'I' for Inactive)
REMARK    1  A    between atoms: C1_4  and  C2_6 
REMARK    2  A    between atoms: C7_11  and  O1_12 
REMARK    3  A    between atoms: O1_12  and  C8_13 
REMARK    4  A    between atoms: C8_13  and  C9_14 
REMARK    5  A    between atoms: C9_14  and  C10_15 
REMARK    6  A    between atoms: C10_15  and  N3_16 
REMARK       I    between atoms: N3_16  and  C11_18 
ROOT
HETATM    1  C2  UNL     1      22.452  -4.179  10.274  1.00  0.00     0.038 A 
HETATM    2  C3  UNL     1      23.487  -3.966   9.379  1.00  0.00     0.017 A 
HETATM    3  C4  UNL     1      24.341  -4.976   8.987  1.00  0.00     0.001 A 
HETATM    4  C5  UNL     1      24.146  -6.257   9.518  1.00  0.00     0.003 A 
HETATM    5  C6  UNL     1      23.129  -6.499  10.408  1.00  0.00     0.038 A 
HETATM    6  C7  UNL     1      22.311  -5.456  10.761  1.00  0.00     0.082 A 
ENDROOT
BRANCH   6   7
HETATM    7  O1  UNL     1      21.292  -5.713  11.655  1.00  0.00    -0.350 OA
BRANCH   7   8
HETATM    8  C8  UNL     1      21.493  -6.474  12.824  1.00  0.00     0.177 C 
BRANCH   8   9
HETATM    9  C9  UNL     1      20.280  -6.623  13.674  1.00  0.00     0.046 C 
BRANCH   9  10
HETATM   10  C10 UNL     1      19.847  -5.342  14.321  1.00  0.00     0.126 C 
BRANCH  10  11
HETATM   11  N3  UNL     1      19.659  -4.257  13.394  1.00  0.00    -0.345 N 
HETATM   12  C11 UNL     1      18.492  -3.473  13.319  1.00  0.00     0.328 C 
HETATM   13  N4  UNL     1      18.370  -2.423  12.385  1.00  0.00    -0.040 NA
HETATM   14  O2  UNL     1      17.544  -3.711  14.095  1.00  0.00    -0.251 OA
ATOM     15  H3  UNL     1      20.421  -4.042  12.751  1.00  0.00     0.163 HD
ENDBRANCH  10  11
ENDBRANCH   9  10
ENDBRANCH   8   9
ENDBRANCH   7   8
ENDBRANCH   6   7
BRANCH   1  16
HETATM   16  C1  UNL     1      21.590  -3.088  10.653  1.00  0.00     0.123 C 
HETATM   17  N1  UNL     1      20.574  -2.783   9.947  1.00  0.00    -0.387 N 
ATOM     18  H12 UNL     1      19.964  -2.011  10.215  1.00  0.00     0.157 HD
ATOM     19  H11 UNL     1      20.366  -3.317   9.103  1.00  0.00     0.157 HD
HETATM   20  N2  UNL     1      21.877  -2.351  11.817  1.00  0.00    -0.082 NA
ENDBRANCH   1  16
TORSDOF 6
ENDMDL
MODEL 2
REMARK VINA RESULT: -7.363553307      1.537      2.180
REMARK  6 active torsions:
REMARK  status: ('A' for Active; 'I' for Inactive)
REMARK    1  A    between atoms: C1_4  and  C2_6 
REMARK    2  A    between atoms: C7_11  and  O1_12 
REMARK    3  A    between atoms: O1_12  and  C8_13 
REMARK    4  A    between atoms: C8_13  and  C9_14 
REMARK    5  A    between atoms: C9_14  and  C10_15 
REMARK    6  A    between atoms: C10_15  and  N3_16 
REMARK       I    between atoms: N3_16  and  C11_18 
ROOT
HETATM    1  C2  UNL     1      22.719  -5.307  10.465  1.00  0.00     0.038 A 
HETATM    2  C3  UNL     1      23.608  -6.206   9.899  1.00  0.00     0.017 A 
HETATM    3  C4  UNL     1      23.779  -7.482  10.394  1.00  0.00     0.001 A 
HETATM    4  C5  UNL     1      23.025  -7.871  11.508  1.00  0.00     0.003 A 
HETATM    5  C6  UNL     1      22.137  -7.003  12.091  1.00  0.00     0.038 A 
HETATM    6  C7  UNL     1      22.008  -5.747  11.555  1.00  0.00     0.082 A 
ENDROOT
BRANCH   6   7
HETATM    7  O1  UNL     1      21.111  -4.883  12.150  1.00  0.00    -0.350 OA
BRANCH   7   8
HETATM    8  C8  UNL     1      20.359  -5.246  13.285  1.00  0.00     0.177 C 
BRANCH   8   9
HETATM    9  C9  UNL     1      19.303  -4.266  13.660  1.00  0.00     0.046 C 
BRANCH   9  10
HETATM   10  C10 UNL     1      19.512  -2.909  13.058  1.00  0.00     0.126 C 
BRANCH  10  11
HETATM   11  N3  UNL     1      18.869  -2.734  11.782  1.00  0.00    -0.345 N 
HETATM   12  C11 UNL     1      17.547  -2.278  11.617  1.00  0.00     0.328 C 
HETATM   13  N4  UNL     1      16.975  -2.129  10.336  1.00  0.00    -0.040 NA
HETATM   14  O2  UNL     1      16.867  -1.997  12.625  1.00  0.00    -0.251 OA
ATOM     15  H3  UNL     1      19.406  -2.955  10.944  1.00  0.00     0.163 HD
ENDBRANCH  10  11
ENDBRANCH   9  10
ENDBRANCH   8   9
ENDBRANCH   7   8
ENDBRANCH   6   7
BRANCH   1  16
HETATM   16  C1  UNL     1      22.580  -3.984   9.910  1.00  0.00     0.123 C 
HETATM   17  N1  UNL     1      21.436  -3.535   9.572  1.00  0.00    -0.387 N 
ATOM     18  H12 UNL     1      21.337  -2.599   9.179  1.00  0.00     0.157 HD
ATOM     19  H11 UNL     1      20.607  -4.118   9.696  1.00  0.00     0.157 HD
HETATM   20  N2  UNL     1      23.723  -3.182   9.739  1.00  0.00    -0.082 NA
ENDBRANCH   1  16
TORSDOF 6
ENDMDL
MODEL 3
REMARK VINA RESULT: -7.313709148      2.156      3.131
REMARK  6 active torsions:
REMARK  status: ('A' for Active; 'I' for Inactive)
REMARK    1  A    between atoms: C1_4  and  C2_6 
REMARK    2  A    between atoms: C7_11  and  O1_12 
REMARK    3  A    between atoms: O1_12  and  C8_13 
REMARK    4  A    between atoms: C8_13  and  C9_14 
REMARK    5  A    between atoms: C9_14  and  C10_15 
REMARK    6  A    between atoms: C10_15  and  N3_16 
REMARK       I    between atoms: N3_16  and  C11_18 
ROOT
HETATM    1  C2  UNL     1      23.675  -5.714   9.634  1.00  0.00     0.038 A 
HETATM    2  C3  UNL     1      24.417  -6.882   9.705  1.00  0.00     0.017 A 
HETATM    3  C4  UNL     1      24.030  -7.953  10.482  1.00  0.00     0.001 A 
HETATM    4  C5  UNL     1      22.847  -7.846  11.223  1.00  0.00     0.003 A 
HETATM    5  C6  UNL     1      22.091  -6.702  11.174  1.00  0.00     0.038 A 
HETATM    6  C7  UNL     1      22.525  -5.669  10.383  1.00  0.00     0.082 A 
ENDROOT
BRANCH   6   7
HETATM    7  O1  UNL     1      21.755  -4.524  10.342  1.00  0.00    -0.350 OA
BRANCH   7   8
HETATM    8  C8  UNL     1      21.694  -3.620  11.422  1.00  0.00     0.177 C 
BRANCH   8   9
HETATM    9  C9  UNL     1      20.537  -2.686  11.375  1.00  0.00     0.046 C 
BRANCH   9  10
HETATM   10  C10 UNL     1      19.575  -2.875  12.509  1.00  0.00     0.126 C 
BRANCH  10  11
HETATM   11  N3  UNL     1      18.511  -1.907  12.536  1.00  0.00    -0.345 N 
HETATM   12  C11 UNL     1      17.350  -1.982  11.743  1.00  0.00     0.328 C 
HETATM   13  N4  UNL     1      16.343  -0.997  11.816  1.00  0.00    -0.040 NA
HETATM   14  O2  UNL     1      17.207  -2.943  10.958  1.00  0.00    -0.251 OA
ATOM     15  H3  UNL     1      18.604  -1.114  13.171  1.00  0.00     0.163 HD
ENDBRANCH  10  11
ENDBRANCH   9  10
ENDBRANCH   8   9
ENDBRANCH   7   8
ENDBRANCH   6   7
BRANCH   1  16
HETATM   16  C1  UNL     1      24.125  -4.623   8.807  1.00  0.00     0.123 C 
HETATM   17  N1  UNL     1      24.193  -3.438   9.271  1.00  0.00    -0.387 N 
ATOM     18  H12 UNL     1      24.512  -2.665   8.686  1.00  0.00     0.157 HD
ATOM     19  H11 UNL     1      23.929  -3.257  10.240  1.00  0.00     0.157 HD
HETATM   20  N2  UNL     1      24.490  -4.871   7.472  1.00  0.00    -0.082 NA
ENDBRANCH   1  16
TORSDOF 6
ENDMDL
MODEL 4
REMARK VINA RESULT: -7.064132729      2.006      2.949
REMARK  6 active torsions:
REMARK  status: ('A' for Active; 'I' for Inactive)
REMARK    1  A    between atoms: C1_4  and  C2_6 
REMARK    2  A    between atoms: C7_11  and  O1_12 
REMARK    3  A    between atoms: O1_12  and  C8_13 
REMARK    4  A    between atoms: C8_13  and  C9_14 
REMARK    5  A    between atoms: C9_14  and  C10_15 
REMARK    6  A    between atoms: C10_15  and  N3_16 
REMARK       I    between atoms: N3_16  and  C11_18 
ROOT
HETATM    1  C2  UNL     1      23.567  -5.648   9.752  1.00  0.00     0.038 A 
HETATM    2  C3  UNL     1      24.349  -6.792   9.749  1.00  0.00     0.017 A 
HETATM    3  C4  UNL     1      24.011  -7.917  10.472  1.00  0.00     0.001 A 
HETATM    4  C5  UNL     1      22.836  -7.891  11.233  1.00  0.00     0.003 A 
HETATM    5  C6  UNL     1      22.041  -6.772  11.258  1.00  0.00     0.038 A 
HETATM    6  C7  UNL     1      22.428  -5.683  10.518  1.00  0.00     0.082 A 
ENDROOT
BRANCH   6   7
HETATM    7  O1  UNL     1      21.619  -4.565  10.551  1.00  0.00    -0.350 OA
BRANCH   7   8
HETATM    8  C8  UNL     1      21.157  -4.007  11.759  1.00  0.00     0.177 C 
BRANCH   8   9
HETATM    9  C9  UNL     1      20.503  -2.679  11.610  1.00  0.00     0.046 C 
BRANCH   9  10
HETATM   10  C10 UNL     1      19.102  -2.643  12.144  1.00  0.00     0.126 C 
BRANCH  10  11
HETATM   11  N3  UNL     1      19.016  -2.227  13.519  1.00  0.00    -0.345 N 
HETATM   12  C11 UNL     1      18.855  -3.110  14.605  1.00  0.00     0.328 C 
HETATM   13  N4  UNL     1      18.775  -2.638  15.932  1.00  0.00    -0.040 NA
HETATM   14  O2  UNL     1      18.782  -4.338  14.389  1.00  0.00    -0.251 OA
ATOM     15  H3  UNL     1      19.075  -1.230  13.720  1.00  0.00     0.163 HD
ENDBRANCH  10  11
ENDBRANCH   9  10
ENDBRANCH   8   9
ENDBRANCH   7   8
ENDBRANCH   6   7
BRANCH   1  16
HETATM   16  C1  UNL     1      23.967  -4.499   8.981  1.00  0.00     0.123 C 
HETATM   17  N1  UNL     1      23.905  -3.326   9.476  1.00  0.00    -0.387 N 
ATOM     18  H12 UNL     1      24.188  -2.512   8.930  1.00  0.00     0.157 HD
ATOM     19  H11 UNL     1      23.570  -3.198  10.431  1.00  0.00     0.157 HD
HETATM   20  N2  UNL     1      24.429  -4.676   7.664  1.00  0.00    -0.082 NA
ENDBRANCH   1  16
TORSDOF 6
ENDMDL
MODEL 5
REMARK VINA RESULT: -6.995595487      2.285      2.871
REMARK  6 active torsions:
REMARK  status: ('A' for Active; 'I' for Inactive)
REMARK    1  A    between atoms: C1_4  and  C2_6 
REMARK    2  A    between atoms: C7_11  and  O1_12 
REMARK    3  A    between atoms: O1_12  and  C8_13 
REMARK    4  A    between atoms: C8_13  and  C9_14 
REMARK    5  A    between atoms: C9_14  and  C10_15 
REMARK    6  A    between atoms: C10_15  and  N3_16 
REMARK       I    between atoms: N3_16  and  C11_18 
ROOT
HETATM    1  C2  UNL     1      22.416  -4.162  10.328  1.00  0.00     0.038 A 
HETATM    2  C3  UNL     1      23.400  -4.018   9.363  1.00  0.00     0.017 A 
HETATM    3  C4  UNL     1      24.242  -5.052   9.011  1.00  0.00     0.001 A 
HETATM    4  C5  UNL     1      24.089  -6.285   9.656  1.00  0.00     0.003 A 
HETATM    5  C6  UNL     1      23.124  -6.459  10.616  1.00  0.00     0.038 A 
HETATM    6  C7  UNL     1      22.315  -5.394  10.925  1.00  0.00     0.082 A 
ENDROOT
BRANCH   6   7
HETATM    7  O1  UNL     1      21.348  -5.583  11.892  1.00  0.00    -0.350 OA
BRANCH   7   8
HETATM    8  C8  UNL     1      21.437  -6.608  12.855  1.00  0.00     0.177 C 
BRANCH   8   9
HETATM    9  C9  UNL     1      20.218  -6.769  13.693  1.00  0.00     0.046 C 
BRANCH   9  10
HETATM   10  C10 UNL     1      20.290  -6.027  14.994  1.00  0.00     0.126 C 
BRANCH  10  11
HETATM   11  N3  UNL     1      21.054  -6.705  16.008  1.00  0.00    -0.345 N 
HETATM   12  C11 UNL     1      21.027  -6.372  17.376  1.00  0.00     0.328 C 
HETATM   13  N4  UNL     1      21.803  -7.076  18.320  1.00  0.00    -0.040 NA
HETATM   14  O2  UNL     1      20.300  -5.433  17.763  1.00  0.00    -0.251 OA
ATOM     15  H3  UNL     1      21.654  -7.477  15.717  1.00  0.00     0.163 HD
ENDBRANCH  10  11
ENDBRANCH   9  10
ENDBRANCH   8   9
ENDBRANCH   7   8
ENDBRANCH   6   7
BRANCH   1  16
HETATM   16  C1  UNL     1      21.563  -3.049  10.661  1.00  0.00     0.123 C 
HETATM   17  N1  UNL     1      20.604  -2.709   9.894  1.00  0.00    -0.387 N 
ATOM     18  H12 UNL     1      20.000  -1.921  10.130  1.00  0.00     0.157 HD
ATOM     19  H11 UNL     1      20.434  -3.231   9.034  1.00  0.00     0.157 HD
HETATM   20  N2  UNL     1      21.797  -2.329  11.847  1.00  0.00    -0.082 NA
ENDBRANCH   1  16
TORSDOF 6
ENDMDL
