MODEL 1
REMARK VINA RESULT: -6.739469797      0.000      0.000
REMARK  3 active torsions:
REMARK  status: ('A' for Active; 'I' for Inactive)
REMARK    1  A    between atoms: C3_3  and  N1_4 
REMARK    2  A    between atoms: N1_4  and  O1_6 
REMARK    3  A    between atoms: O1_6  and  N2_7 
ROOT
HETATM    1  C1  UNL     1      24.721  23.228  -7.881  1.00  0.00     0.023 C 
HETATM    2  C2  UNL     1      25.718  23.522  -8.537  1.00  0.00    -0.021 C 
HETATM    3  C3  UNL     1      26.798  24.441  -8.265  1.00  0.00     0.044 C 
HETATM    4  C4  UNL     1      28.082  24.385  -9.076  1.00  0.00     0.089 C 
HETATM    5  C5  UNL     1      28.336  23.047  -9.660  1.00  0.00     0.024 C 
HETATM    6  C6  UNL     1      29.408  22.299  -8.862  1.00  0.00     0.038 C 
HETATM    7  C7  UNL     1      28.899  23.263 -11.071  1.00  0.00     0.038 C 
HETATM    8  N3  UNL     1      27.214  22.184  -9.768  1.00  0.00    -0.405 N 
ATOM      9  H3  UNL     1      27.303  21.169  -9.736  1.00  0.00     0.154 HD
HETATM   10  C8  UNL     1      25.959  22.830  -9.923  1.00  0.00     0.107 C 
HETATM   11  C9  UNL     1      24.833  21.908 -10.214  1.00  0.00     0.037 C 
ENDROOT
BRANCH   3  12
HETATM   12  N1  UNL     1      26.681  25.310  -7.353  1.00  0.00    -0.240 N 
ATOM     13  H1  UNL     1      25.851  25.901  -7.341  1.00  0.00     0.196 HD
BRANCH  12  14
HETATM   14  O1  UNL     1      27.629  25.484  -6.382  1.00  0.00    -0.093 OA
BRANCH  14  15
HETATM   15  N2  UNL     1      27.970  26.740  -5.915  1.00  0.00     0.028 N 
HETATM   16  O2  UNL     1      28.810  27.481  -6.441  1.00  0.00    -0.509 OA
HETATM   17  O3  UNL     1      27.314  27.155  -4.801  1.00  0.00    -0.509 OA
ENDBRANCH  14  15
ENDBRANCH  12  14
ENDBRANCH   3  12
TORSDOF 3
ENDMDL
MODEL 2
REMARK VINA RESULT: -6.061541327      3.407      5.237
REMARK  3 active torsions:
REMARK  status: ('A' for Active; 'I' for Inactive)
REMARK    1  A    between atoms: C3_3  and  N1_4 
REMARK    2  A    between atoms: N1_4  and  O1_6 
REMARK    3  A    between atoms: O1_6  and  N2_7 
ROOT
HETATM    1  C1  UNL     1      24.736  24.615  -7.945  1.00  0.00     0.023 C 
HETATM    2  C2  UNL     1      25.193  25.156  -6.941  1.00  0.00    -0.021 C 
HETATM    3  C3  UNL     1      26.555  25.439  -6.551  1.00  0.00     0.044 C 
HETATM    4  C4  UNL     1      26.848  26.411  -5.420  1.00  0.00     0.089 C 
HETATM    5  C5  UNL     1      25.765  27.404  -5.220  1.00  0.00     0.024 C 
HETATM    6  C6  UNL     1      26.158  28.762  -5.809  1.00  0.00     0.038 C 
HETATM    7  C7  UNL     1      25.601  27.603  -3.708  1.00  0.00     0.038 C 
HETATM    8  N3  UNL     1      24.495  27.066  -5.754  1.00  0.00    -0.405 N 
ATOM      9  H3  UNL     1      23.828  27.774  -6.062  1.00  0.00     0.154 HD
HETATM   10  C8  UNL     1      24.214  25.676  -5.832  1.00  0.00     0.107 C 
HETATM   11  C9  UNL     1      22.819  25.358  -6.222  1.00  0.00     0.037 C 
ENDROOT
BRANCH   3  12
HETATM   12  N1  UNL     1      27.519  24.870  -7.141  1.00  0.00    -0.240 N 
ATOM     13  H1  UNL     1      28.003  24.107  -6.669  1.00  0.00     0.196 HD
BRANCH  12  14
HETATM   14  O1  UNL     1      27.933  25.242  -8.390  1.00  0.00    -0.093 OA
BRANCH  14  15
HETATM   15  N2  UNL     1      28.338  24.311  -9.330  1.00  0.00     0.028 N 
HETATM   16  O2  UNL     1      29.421  24.341  -9.927  1.00  0.00    -0.509 OA
HETATM   17  O3  UNL     1      27.457  23.309  -9.587  1.00  0.00    -0.509 OA
ENDBRANCH  14  15
ENDBRANCH  12  14
ENDBRANCH   3  12
TORSDOF 3
ENDMDL
MODEL 3
REMARK VINA RESULT: -5.947081208      3.429      4.528
REMARK  3 active torsions:
REMARK  status: ('A' for Active; 'I' for Inactive)
REMARK    1  A    between atoms: C3_3  and  N1_4 
REMARK    2  A    between atoms: N1_4  and  O1_6 
REMARK    3  A    between atoms: O1_6  and  N2_7 
ROOT
HETATM    1  C1  UNL     1      25.132  25.123  -8.292  1.00  0.00     0.023 C 
HETATM    2  C2  UNL     1      25.840  24.149  -8.536  1.00  0.00    -0.021 C 
HETATM    3  C3  UNL     1      25.555  22.918  -9.235  1.00  0.00     0.044 C 
HETATM    4  C4  UNL     1      26.685  22.011  -9.693  1.00  0.00     0.089 C 
HETATM    5  C5  UNL     1      27.959  22.739  -9.900  1.00  0.00     0.024 C 
HETATM    6  C6  UNL     1      28.219  22.967 -11.392  1.00  0.00     0.038 C 
HETATM    7  C7  UNL     1      29.089  21.840  -9.382  1.00  0.00     0.038 C 
HETATM    8  N3  UNL     1      28.076  23.998  -9.256  1.00  0.00    -0.405 N 
ATOM      9  H3  UNL     1      28.656  24.749  -9.630  1.00  0.00     0.154 HD
HETATM   10  C8  UNL     1      27.333  24.143  -8.055  1.00  0.00     0.107 C 
HETATM   11  C9  UNL     1      27.614  25.395  -7.312  1.00  0.00     0.037 C 
ENDROOT
BRANCH   3  12
HETATM   12  N1  UNL     1      24.358  22.578  -9.464  1.00  0.00    -0.240 N 
ATOM     13  H1  UNL     1      24.009  22.620 -10.421  1.00  0.00     0.196 HD
BRANCH  12  14
HETATM   14  O1  UNL     1      23.516  22.154  -8.473  1.00  0.00    -0.093 OA
BRANCH  14  15
HETATM   15  N2  UNL     1      22.329  22.810  -8.197  1.00  0.00     0.028 N 
HETATM   16  O2  UNL     1      22.186  23.656  -7.306  1.00  0.00    -0.509 OA
HETATM   17  O3  UNL     1      21.273  22.476  -8.982  1.00  0.00    -0.509 OA
ENDBRANCH  14  15
ENDBRANCH  12  14
ENDBRANCH   3  12
TORSDOF 3
ENDMDL
MODEL 4
REMARK VINA RESULT: -5.693083594      3.778      5.634
REMARK  3 active torsions:
REMARK  status: ('A' for Active; 'I' for Inactive)
REMARK    1  A    between atoms: C3_3  and  N1_4 
REMARK    2  A    between atoms: N1_4  and  O1_6 
REMARK    3  A    between atoms: O1_6  and  N2_7 
ROOT
HETATM    1  C1  UNL     1      29.305  23.079  -9.241  1.00  0.00     0.023 C 
HETATM    2  C2  UNL     1      28.114  23.349  -9.371  1.00  0.00    -0.021 C 
HETATM    3  C3  UNL     1      27.000  22.544  -9.815  1.00  0.00     0.044 C 
HETATM    4  C4  UNL     1      25.571  23.003  -9.577  1.00  0.00     0.089 C 
HETATM    5  C5  UNL     1      25.448  23.920  -8.419  1.00  0.00     0.024 C 
HETATM    6  C6  UNL     1      24.876  23.186  -7.203  1.00  0.00     0.038 C 
HETATM    7  C7  UNL     1      24.435  25.007  -8.802  1.00  0.00     0.038 C 
HETATM    8  N3  UNL     1      26.639  24.566  -7.998  1.00  0.00    -0.405 N 
ATOM      9  H3  UNL     1      26.791  24.852  -7.031  1.00  0.00     0.154 HD
HETATM   10  C8  UNL     1      27.607  24.789  -9.014  1.00  0.00     0.107 C 
HETATM   11  C9  UNL     1      28.757  25.622  -8.586  1.00  0.00     0.037 C 
ENDROOT
BRANCH   3  12
HETATM   12  N1  UNL     1      27.205  21.450 -10.418  1.00  0.00    -0.240 N 
ATOM     13  H1  UNL     1      27.414  20.617  -9.868  1.00  0.00     0.196 HD
BRANCH  12  14
HETATM   14  O1  UNL     1      27.154  21.345 -11.780  1.00  0.00    -0.093 OA
BRANCH  14  15
HETATM   15  N2  UNL     1      28.263  21.587 -12.571  1.00  0.00     0.028 N 
HETATM   16  O2  UNL     1      28.745  22.708 -12.780  1.00  0.00    -0.509 OA
HETATM   17  O3  UNL     1      28.836  20.494 -13.137  1.00  0.00    -0.509 OA
ENDBRANCH  14  15
ENDBRANCH  12  14
ENDBRANCH   3  12
TORSDOF 3
ENDMDL
MODEL 5
REMARK VINA RESULT: -5.646214191      3.044      4.831
REMARK  3 active torsions:
REMARK  status: ('A' for Active; 'I' for Inactive)
REMARK    1  A    between atoms: C3_3  and  N1_4 
REMARK    2  A    between atoms: N1_4  and  O1_6 
REMARK    3  A    between atoms: O1_6  and  N2_7 
ROOT
HETATM    1  C1  UNL     1      24.587  24.613  -8.540  1.00  0.00     0.023 C 
HETATM    2  C2  UNL     1      25.512  24.816  -7.757  1.00  0.00    -0.021 C 
HETATM    3  C3  UNL     1      26.943  24.724  -7.931  1.00  0.00     0.044 C 
HETATM    4  C4  UNL     1      27.886  25.342  -6.913  1.00  0.00     0.089 C 
HETATM    5  C5  UNL     1      27.269  26.464  -6.165  1.00  0.00     0.024 C 
HETATM    6  C6  UNL     1      27.772  27.811  -6.692  1.00  0.00     0.038 C 
HETATM    7  C7  UNL     1      27.735  26.353  -4.707  1.00  0.00     0.038 C 
HETATM    8  N3  UNL     1      25.852  26.516  -6.164  1.00  0.00    -0.405 N 
ATOM      9  H3  UNL     1      25.339  27.394  -6.080  1.00  0.00     0.154 HD
HETATM   10  C8  UNL     1      25.193  25.264  -6.288  1.00  0.00     0.107 C 
HETATM   11  C9  UNL     1      23.723  25.328  -6.103  1.00  0.00     0.037 C 
ENDROOT
BRANCH   3  12
HETATM   12  N1  UNL     1      27.425  24.117  -8.931  1.00  0.00    -0.240 N 
ATOM     13  H1  UNL     1      26.826  23.943  -9.737  1.00  0.00     0.196 HD
BRANCH  12  14
HETATM   14  O1  UNL     1      28.723  23.688  -8.970  1.00  0.00    -0.093 OA
BRANCH  14  15
HETATM   15  N2  UNL     1      29.044  22.355  -9.150  1.00  0.00     0.028 N 
HETATM   16  O2  UNL     1      28.421  21.576  -9.882  1.00  0.00    -0.509 OA
HETATM   17  O3  UNL     1      30.126  21.909  -8.461  1.00  0.00    -0.509 OA
ENDBRANCH  14  15
ENDBRANCH  12  14
ENDBRANCH   3  12
TORSDOF 3
ENDMDL
