MODEL 1
REMARK VINA RESULT: -6.715734769      0.000      0.000
REMARK  7 active torsions:
REMARK  status: ('A' for Active; 'I' for Inactive)
REMARK    1  A    between atoms: C2_2  and  N1_3 
REMARK    2  A    between atoms: C3_4  and  O1_5 
REMARK    3  A    between atoms: C5_9  and  N2_10 
REMARK    4  A    between atoms: N2_10  and  N3_12 
REMARK    5  A    between atoms: C6_14  and  C7_15 
REMARK    6  A    between atoms: C7_15  and  C8_16 
REMARK    7  A    between atoms: C7_15  and  C11_19 
ROOT
HETATM    1  N2  UNL     1     -16.701  -4.763  26.405  1.00  0.00    -0.280 N 
ATOM      2  H2  UNL     1     -17.588  -4.620  25.922  1.00  0.00     0.189 HD
ENDROOT
BRANCH   1   3
HETATM    3  C5  UNL     1     -15.665  -3.983  26.170  1.00  0.00     0.167 A 
HETATM    4  N1  UNL     1     -15.284  -3.470  25.002  1.00  0.00    -0.307 N 
HETATM    5  C3  UNL     1     -14.222  -2.713  24.968  1.00  0.00     0.150 A 
HETATM    6  C4  UNL     1     -13.558  -2.490  26.147  1.00  0.00     0.109 A 
HETATM    7  S1  UNL     1     -14.497  -3.384  27.256  1.00  0.00    -0.060 SA
BRANCH   4   8
HETATM    8  C2  UNL     1     -16.076  -3.775  23.782  1.00  0.00     0.129 C 
HETATM    9  C1  UNL     1     -17.065  -2.676  23.507  1.00  0.00     0.027 C 
ENDBRANCH   4   8
BRANCH   5  10
HETATM   10  O1  UNL     1     -13.710  -2.104  23.782  1.00  0.00    -0.346 OA
ATOM     11  H1  UNL     1     -12.813  -2.192  23.482  1.00  0.00     0.219 HD
ENDBRANCH   5  10
ENDBRANCH   1   3
BRANCH   1  12
HETATM   12  N3  UNL     1     -16.547  -5.774  27.322  1.00  0.00    -0.313 N 
HETATM   13  C6  UNL     1     -17.282  -5.852  28.359  1.00  0.00     0.086 C 
ATOM     14  H3  UNL     1     -15.826  -6.480  27.168  1.00  0.00     0.185 HD
BRANCH  13  15
HETATM   15  C7  UNL     1     -17.093  -6.972  29.352  1.00  0.00     0.036 C 
BRANCH  15  16
HETATM   16  C8  UNL     1     -16.636  -6.342  30.620  1.00  0.00    -0.013 C 
HETATM   17  C9  UNL     1     -16.125  -4.942  30.253  1.00  0.00     0.010 C 
HETATM   18  C10 UNL     1     -15.532  -7.035  31.332  1.00  0.00     0.010 C 
ENDBRANCH  15  16
BRANCH  15  19
HETATM   19  C11 UNL     1     -18.378  -7.716  29.408  1.00  0.00    -0.043 C 
HETATM   20  C12 UNL     1     -19.063  -7.829  28.065  1.00  0.00     0.015 C 
HETATM   21  C13 UNL     1     -18.001  -9.165  29.776  1.00  0.00     0.015 C 
HETATM   22  C14 UNL     1     -19.312  -7.268  30.504  1.00  0.00     0.015 C 
ENDBRANCH  15  19
ENDBRANCH  13  15
ENDBRANCH   1  12
TORSDOF 7
ENDMDL
MODEL 2
REMARK VINA RESULT: -6.092114813      1.396      3.018
REMARK  7 active torsions:
REMARK  status: ('A' for Active; 'I' for Inactive)
REMARK    1  A    between atoms: C2_2  and  N1_3 
REMARK    2  A    between atoms: C3_4  and  O1_5 
REMARK    3  A    between atoms: C5_9  and  N2_10 
REMARK    4  A    between atoms: N2_10  and  N3_12 
REMARK    5  A    between atoms: C6_14  and  C7_15 
REMARK    6  A    between atoms: C7_15  and  C8_16 
REMARK    7  A    between atoms: C7_15  and  C11_19 
ROOT
HETATM    1  N2  UNL     1     -15.573  -5.043  25.884  1.00  0.00    -0.280 N 
ATOM      2  H2  UNL     1     -14.862  -5.751  25.695  1.00  0.00     0.189 HD
ENDROOT
BRANCH   1   3
HETATM    3  C5  UNL     1     -15.587  -3.902  25.227  1.00  0.00     0.167 A 
HETATM    4  N1  UNL     1     -14.764  -2.866  25.381  1.00  0.00    -0.307 N 
HETATM    5  C3  UNL     1     -14.936  -1.813  24.631  1.00  0.00     0.150 A 
HETATM    6  C4  UNL     1     -15.963  -1.836  23.723  1.00  0.00     0.109 A 
HETATM    7  S1  UNL     1     -16.637  -3.381  23.991  1.00  0.00    -0.060 SA
BRANCH   4   8
HETATM    8  C2  UNL     1     -13.681  -2.944  26.396  1.00  0.00     0.129 C 
HETATM    9  C1  UNL     1     -14.168  -2.436  27.726  1.00  0.00     0.027 C 
ENDBRANCH   4   8
BRANCH   5  10
HETATM   10  O1  UNL     1     -14.124  -0.640  24.698  1.00  0.00    -0.346 OA
ATOM     11  H1  UNL     1     -13.359  -0.490  24.156  1.00  0.00     0.219 HD
ENDBRANCH   5  10
ENDBRANCH   1   3
BRANCH   1  12
HETATM   12  N3  UNL     1     -16.546  -5.250  26.831  1.00  0.00    -0.313 N 
HETATM   13  C6  UNL     1     -16.396  -6.101  27.767  1.00  0.00     0.086 C 
ATOM     14  H3  UNL     1     -17.410  -4.709  26.784  1.00  0.00     0.185 HD
BRANCH  13  15
HETATM   15  C7  UNL     1     -17.480  -6.311  28.795  1.00  0.00     0.036 C 
BRANCH  15  16
HETATM   16  C8  UNL     1     -17.999  -7.691  28.590  1.00  0.00    -0.013 C 
HETATM   17  C9  UNL     1     -18.340  -7.811  27.097  1.00  0.00     0.010 C 
HETATM   18  C10 UNL     1     -19.226  -8.045  29.346  1.00  0.00     0.010 C 
ENDBRANCH  15  16
BRANCH  15  19
HETATM   19  C11 UNL     1     -16.874  -6.022  30.121  1.00  0.00    -0.043 C 
HETATM   20  C12 UNL     1     -17.883  -5.994  31.246  1.00  0.00     0.015 C 
HETATM   21  C13 UNL     1     -15.974  -7.234  30.435  1.00  0.00     0.015 C 
HETATM   22  C14 UNL     1     -15.945  -4.835  30.138  1.00  0.00     0.015 C 
ENDBRANCH  15  19
ENDBRANCH  13  15
ENDBRANCH   1  12
TORSDOF 7
ENDMDL
MODEL 3
REMARK VINA RESULT: -6.073306847      3.726      5.288
REMARK  7 active torsions:
REMARK  status: ('A' for Active; 'I' for Inactive)
REMARK    1  A    between atoms: C2_2  and  N1_3 
REMARK    2  A    between atoms: C3_4  and  O1_5 
REMARK    3  A    between atoms: C5_9  and  N2_10 
REMARK    4  A    between atoms: N2_10  and  N3_12 
REMARK    5  A    between atoms: C6_14  and  C7_15 
REMARK    6  A    between atoms: C7_15  and  C8_16 
REMARK    7  A    between atoms: C7_15  and  C11_19 
ROOT
HETATM    1  N2  UNL     1     -14.134  -1.502  23.426  1.00  0.00    -0.280 N 
ATOM      2  H2  UNL     1     -13.320  -1.272  22.854  1.00  0.00     0.189 HD
ENDROOT
BRANCH   1   3
HETATM    3  C5  UNL     1     -15.302  -0.934  23.206  1.00  0.00     0.167 A 
HETATM    4  N1  UNL     1     -15.638   0.337  23.415  1.00  0.00    -0.307 N 
HETATM    5  C3  UNL     1     -16.854   0.717  23.133  1.00  0.00     0.150 A 
HETATM    6  C4  UNL     1     -17.718  -0.224  22.635  1.00  0.00     0.109 A 
HETATM    7  S1  UNL     1     -16.736  -1.619  22.595  1.00  0.00    -0.060 SA
BRANCH   4   8
HETATM    8  C2  UNL     1     -14.624   1.277  23.958  1.00  0.00     0.129 C 
HETATM    9  C1  UNL     1     -14.032   2.110  22.855  1.00  0.00     0.027 C 
ENDBRANCH   4   8
BRANCH   5  10
HETATM   10  O1  UNL     1     -17.339   2.048  23.311  1.00  0.00    -0.346 OA
ATOM     11  H1  UNL     1     -18.220   2.328  23.093  1.00  0.00     0.219 HD
ENDBRANCH   5  10
ENDBRANCH   1   3
BRANCH   1  12
HETATM   12  N3  UNL     1     -14.047  -2.414  24.450  1.00  0.00    -0.313 N 
HETATM   13  C6  UNL     1     -14.583  -2.196  25.584  1.00  0.00     0.086 C 
ATOM     14  H3  UNL     1     -13.541  -3.287  24.297  1.00  0.00     0.185 HD
BRANCH  13  15
HETATM   15  C7  UNL     1     -14.472  -3.213  26.693  1.00  0.00     0.036 C 
BRANCH  15  16
HETATM   16  C8  UNL     1     -14.128  -2.459  27.929  1.00  0.00    -0.013 C 
HETATM   17  C9  UNL     1     -14.159  -0.970  27.553  1.00  0.00     0.010 C 
HETATM   18  C10 UNL     1     -12.788  -2.733  28.507  1.00  0.00     0.010 C 
ENDBRANCH  15  16
BRANCH  15  19
HETATM   19  C11 UNL     1     -15.755  -3.965  26.713  1.00  0.00    -0.043 C 
HETATM   20  C12 UNL     1     -15.671  -5.309  26.027  1.00  0.00     0.015 C 
HETATM   21  C13 UNL     1     -16.013  -4.300  28.196  1.00  0.00     0.015 C 
HETATM   22  C14 UNL     1     -16.957  -3.162  26.282  1.00  0.00     0.015 C 
ENDBRANCH  15  19
ENDBRANCH  13  15
ENDBRANCH   1  12
TORSDOF 7
ENDMDL
MODEL 4
REMARK VINA RESULT: -6.037084030      1.357      2.964
REMARK  7 active torsions:
REMARK  status: ('A' for Active; 'I' for Inactive)
REMARK    1  A    between atoms: C2_2  and  N1_3 
REMARK    2  A    between atoms: C3_4  and  O1_5 
REMARK    3  A    between atoms: C5_9  and  N2_10 
REMARK    4  A    between atoms: N2_10  and  N3_12 
REMARK    5  A    between atoms: C6_14  and  C7_15 
REMARK    6  A    between atoms: C7_15  and  C8_16 
REMARK    7  A    between atoms: C7_15  and  C11_19 
ROOT
HETATM    1  N2  UNL     1     -15.416  -4.005  27.332  1.00  0.00    -0.280 N 
ATOM      2  H2  UNL     1     -14.533  -3.970  27.842  1.00  0.00     0.189 HD
ENDROOT
BRANCH   1   3
HETATM    3  C5  UNL     1     -15.530  -3.470  26.134  1.00  0.00     0.167 A 
HETATM    4  N1  UNL     1     -14.689  -2.628  25.537  1.00  0.00    -0.307 N 
HETATM    5  C3  UNL     1     -14.974  -2.203  24.338  1.00  0.00     0.150 A 
HETATM    6  C4  UNL     1     -16.133  -2.651  23.760  1.00  0.00     0.109 A 
HETATM    7  S1  UNL     1     -16.763  -3.671  24.976  1.00  0.00    -0.060 SA
BRANCH   4   8
HETATM    8  C2  UNL     1     -13.457  -2.203  26.254  1.00  0.00     0.129 C 
HETATM    9  C1  UNL     1     -13.709  -0.943  27.034  1.00  0.00     0.027 C 
ENDBRANCH   4   8
BRANCH   5  10
HETATM   10  O1  UNL     1     -14.156  -1.300  23.592  1.00  0.00    -0.346 OA
ATOM     11  H1  UNL     1     -14.456  -0.465  23.254  1.00  0.00     0.219 HD
ENDBRANCH   5  10
ENDBRANCH   1   3
BRANCH   1  12
HETATM   12  N3  UNL     1     -16.524  -4.613  27.872  1.00  0.00    -0.313 N 
HETATM   13  C6  UNL     1     -16.558  -5.867  28.087  1.00  0.00     0.086 C 
ATOM     14  H3  UNL     1     -17.339  -4.045  28.105  1.00  0.00     0.185 HD
BRANCH  13  15
HETATM   15  C7  UNL     1     -17.787  -6.511  28.680  1.00  0.00     0.036 C 
BRANCH  15  16
HETATM   16  C8  UNL     1     -18.172  -7.617  27.762  1.00  0.00    -0.013 C 
HETATM   17  C9  UNL     1     -17.666  -7.222  26.367  1.00  0.00     0.010 C 
HETATM   18  C10 UNL     1     -19.627  -7.885  27.637  1.00  0.00     0.010 C 
ENDBRANCH  15  16
BRANCH  15  19
HETATM   19  C11 UNL     1     -17.439  -6.898  30.072  1.00  0.00    -0.043 C 
HETATM   20  C12 UNL     1     -18.434  -6.404  31.097  1.00  0.00     0.015 C 
HETATM   21  C13 UNL     1     -17.563  -8.434  30.117  1.00  0.00     0.015 C 
HETATM   22  C14 UNL     1     -16.009  -6.613  30.461  1.00  0.00     0.015 C 
ENDBRANCH  15  19
ENDBRANCH  13  15
ENDBRANCH   1  12
TORSDOF 7
ENDMDL
MODEL 5
REMARK VINA RESULT: -5.875327159      2.989      6.568
REMARK  7 active torsions:
REMARK  status: ('A' for Active; 'I' for Inactive)
REMARK    1  A    between atoms: C2_2  and  N1_3 
REMARK    2  A    between atoms: C3_4  and  O1_5 
REMARK    3  A    between atoms: C5_9  and  N2_10 
REMARK    4  A    between atoms: N2_10  and  N3_12 
REMARK    5  A    between atoms: C6_14  and  C7_15 
REMARK    6  A    between atoms: C7_15  and  C8_16 
REMARK    7  A    between atoms: C7_15  and  C11_19 
ROOT
HETATM    1  N2  UNL     1     -16.205  -5.333  28.697  1.00  0.00    -0.280 N 
ATOM      2  H2  UNL     1     -15.647  -5.544  29.525  1.00  0.00     0.189 HD
ENDROOT
BRANCH   1   3
HETATM    3  C5  UNL     1     -17.009  -6.235  28.171  1.00  0.00     0.167 A 
HETATM    4  N1  UNL     1     -17.670  -7.201  28.804  1.00  0.00    -0.307 N 
HETATM    5  C3  UNL     1     -18.425  -8.004  28.107  1.00  0.00     0.150 A 
HETATM    6  C4  UNL     1     -18.491  -7.803  26.752  1.00  0.00     0.109 A 
HETATM    7  S1  UNL     1     -17.458  -6.460  26.544  1.00  0.00    -0.060 SA
BRANCH   4   8
HETATM    8  C2  UNL     1     -17.529  -7.332  30.278  1.00  0.00     0.129 C 
HETATM    9  C1  UNL     1     -18.651  -6.618  30.981  1.00  0.00     0.027 C 
ENDBRANCH   4   8
BRANCH   5  10
HETATM   10  O1  UNL     1     -19.184  -9.077  28.665  1.00  0.00    -0.346 OA
ATOM     11  H1  UNL     1     -19.113  -9.982  28.386  1.00  0.00     0.219 HD
ENDBRANCH   5  10
ENDBRANCH   1   3
BRANCH   1  12
HETATM   12  N3  UNL     1     -16.145  -4.099  28.096  1.00  0.00    -0.313 N 
HETATM   13  C6  UNL     1     -15.115  -3.723  27.449  1.00  0.00     0.086 C 
ATOM     14  H3  UNL     1     -16.944  -3.469  28.170  1.00  0.00     0.185 HD
BRANCH  13  15
HETATM   15  C7  UNL     1     -15.072  -2.362  26.798  1.00  0.00     0.036 C 
BRANCH  15  16
HETATM   16  C8  UNL     1     -13.759  -1.760  27.159  1.00  0.00    -0.013 C 
HETATM   17  C9  UNL     1     -13.105  -2.713  28.170  1.00  0.00     0.010 C 
HETATM   18  C10 UNL     1     -13.810  -0.419  27.795  1.00  0.00     0.010 C 
ENDBRANCH  15  16
BRANCH  15  19
HETATM   19  C11 UNL     1     -15.327  -2.572  25.349  1.00  0.00    -0.043 C 
HETATM   20  C12 UNL     1     -14.876  -1.415  24.488  1.00  0.00     0.015 C 
HETATM   21  C13 UNL     1     -14.414  -3.744  24.935  1.00  0.00     0.015 C 
HETATM   22  C14 UNL     1     -16.724  -3.036  25.021  1.00  0.00     0.015 C 
ENDBRANCH  15  19
ENDBRANCH  13  15
ENDBRANCH   1  12
TORSDOF 7
ENDMDL
