MODEL 1
REMARK VINA RESULT: -5.696575166      0.000      0.000
REMARK  6 active torsions:
REMARK  status: ('A' for Active; 'I' for Inactive)
REMARK    1  A    between atoms: C2_2  and  S1_3 
REMARK    2  A    between atoms: S1_3  and  C3_4 
REMARK    3  A    between atoms: C3_4  and  N1_6 
REMARK    4  A    between atoms: N1_6  and  C4_8 
REMARK    5  A    between atoms: C5_9  and  C6_10 
REMARK    6  A    between atoms: C6_10  and  O2_12 
ROOT
HETATM    1  C4  UNL     1     -16.159  -3.549  27.213  1.00  0.00     0.064 A 
HETATM    2  C5  UNL     1     -16.648  -4.371  26.228  1.00  0.00     0.107 A 
HETATM    3  S3  UNL     1     -16.902  -5.857  27.025  1.00  0.00    -0.086 SA
HETATM    4  C8  UNL     1     -16.386  -5.414  28.582  1.00  0.00    -0.012 A 
HETATM    5  C9  UNL     1     -16.334  -6.254  29.836  1.00  0.00     0.057 C 
HETATM    6  C10 UNL     1     -16.025  -4.107  28.447  1.00  0.00    -0.021 A 
HETATM    7  C11 UNL     1     -15.496  -3.331  29.651  1.00  0.00     0.052 C 
ENDROOT
BRANCH   1   8
HETATM    8  N1  UNL     1     -15.818  -2.160  26.893  1.00  0.00    -0.340 N 
ATOM      9  H1  UNL     1     -16.555  -1.458  26.834  1.00  0.00     0.167 HD
BRANCH   8  10
HETATM   10  C3  UNL     1     -14.477  -1.786  26.665  1.00  0.00     0.139 C 
HETATM   11  S2  UNL     1     -13.590  -2.672  25.589  1.00  0.00    -0.053 SA
BRANCH  10  12
HETATM   12  S1  UNL     1     -13.675  -0.432  27.452  1.00  0.00    -0.101 SA
BRANCH  12  13
HETATM   13  C2  UNL     1     -13.004  -0.787  29.066  1.00  0.00     0.077 C 
HETATM   14  C1  UNL     1     -12.207   0.330  29.674  1.00  0.00     0.016 C 
ENDBRANCH  12  13
ENDBRANCH  10  12
ENDBRANCH   8  10
ENDBRANCH   1   8
BRANCH   2  15
HETATM   15  C6  UNL     1     -16.891  -4.026  24.805  1.00  0.00     0.302 C 
HETATM   16  O1  UNL     1     -16.844  -4.917  23.955  1.00  0.00    -0.259 OA
BRANCH  15  17
HETATM   17  O2  UNL     1     -17.166  -2.726  24.448  1.00  0.00    -0.322 OA
HETATM   18  C7  UNL     1     -16.780  -2.158  23.208  1.00  0.00     0.213 C 
ENDBRANCH  15  17
ENDBRANCH   2  15
TORSDOF 6
ENDMDL
MODEL 2
REMARK VINA RESULT: -5.532573555      3.156      4.657
REMARK  6 active torsions:
REMARK  status: ('A' for Active; 'I' for Inactive)
REMARK    1  A    between atoms: C2_2  and  S1_3 
REMARK    2  A    between atoms: S1_3  and  C3_4 
REMARK    3  A    between atoms: C3_4  and  N1_6 
REMARK    4  A    between atoms: N1_6  and  C4_8 
REMARK    5  A    between atoms: C5_9  and  C6_10 
REMARK    6  A    between atoms: C6_10  and  O2_12 
ROOT
HETATM    1  C4  UNL     1     -16.500  -5.968  28.125  1.00  0.00     0.064 A 
HETATM    2  C5  UNL     1     -16.469  -5.793  29.487  1.00  0.00     0.107 A 
HETATM    3  S3  UNL     1     -17.694  -6.830  30.062  1.00  0.00    -0.086 SA
HETATM    4  C8  UNL     1     -18.222  -7.464  28.576  1.00  0.00    -0.012 A 
HETATM    5  C9  UNL     1     -19.315  -8.473  28.312  1.00  0.00     0.057 C 
HETATM    6  C10 UNL     1     -17.427  -6.849  27.657  1.00  0.00    -0.021 A 
HETATM    7  C11 UNL     1     -17.593  -7.159  26.171  1.00  0.00     0.052 C 
ENDROOT
BRANCH   1   8
HETATM    8  N1  UNL     1     -15.567  -5.222  27.278  1.00  0.00    -0.340 N 
ATOM      9  H1  UNL     1     -14.574  -5.454  27.292  1.00  0.00     0.167 HD
BRANCH   8  10
HETATM   10  C3  UNL     1     -16.031  -4.185  26.442  1.00  0.00     0.139 C 
HETATM   11  S2  UNL     1     -17.276  -3.243  26.982  1.00  0.00    -0.053 SA
BRANCH  10  12
HETATM   12  S1  UNL     1     -15.373  -3.820  24.851  1.00  0.00    -0.101 SA
BRANCH  12  13
HETATM   13  C2  UNL     1     -14.053  -2.620  24.837  1.00  0.00     0.077 C 
HETATM   14  C1  UNL     1     -13.497  -2.282  26.189  1.00  0.00     0.016 C 
ENDBRANCH  12  13
ENDBRANCH  10  12
ENDBRANCH   8  10
ENDBRANCH   1   8
BRANCH   2  15
HETATM   15  C6  UNL     1     -15.568  -4.901  30.259  1.00  0.00     0.302 C 
HETATM   16  O1  UNL     1     -14.917  -5.369  31.195  1.00  0.00    -0.259 OA
BRANCH  15  17
HETATM   17  O2  UNL     1     -15.466  -3.570  29.928  1.00  0.00    -0.322 OA
HETATM   18  C7  UNL     1     -14.266  -2.825  30.045  1.00  0.00     0.213 C 
ENDBRANCH  15  17
ENDBRANCH   2  15
TORSDOF 6
ENDMDL
MODEL 3
REMARK VINA RESULT: -5.520240479      1.979      4.911
REMARK  6 active torsions:
REMARK  status: ('A' for Active; 'I' for Inactive)
REMARK    1  A    between atoms: C2_2  and  S1_3 
REMARK    2  A    between atoms: S1_3  and  C3_4 
REMARK    3  A    between atoms: C3_4  and  N1_6 
REMARK    4  A    between atoms: N1_6  and  C4_8 
REMARK    5  A    between atoms: C5_9  and  C6_10 
REMARK    6  A    between atoms: C6_10  and  O2_12 
ROOT
HETATM    1  C4  UNL     1     -16.282  -3.859  27.774  1.00  0.00     0.064 A 
HETATM    2  C5  UNL     1     -15.728  -2.876  26.991  1.00  0.00     0.107 A 
HETATM    3  S3  UNL     1     -14.495  -2.219  27.968  1.00  0.00    -0.086 SA
HETATM    4  C8  UNL     1     -14.701  -3.194  29.345  1.00  0.00    -0.012 A 
HETATM    5  C9  UNL     1     -13.932  -3.171  30.644  1.00  0.00     0.057 C 
HETATM    6  C10 UNL     1     -15.734  -4.017  29.011  1.00  0.00    -0.021 A 
HETATM    7  C11 UNL     1     -16.231  -5.064  30.006  1.00  0.00     0.052 C 
ENDROOT
BRANCH   1   8
HETATM    8  N1  UNL     1     -17.395  -4.657  27.255  1.00  0.00    -0.340 N 
ATOM      9  H1  UNL     1     -18.322  -4.240  27.172  1.00  0.00     0.167 HD
BRANCH   8  10
HETATM   10  C3  UNL     1     -17.195  -5.999  26.868  1.00  0.00     0.139 C 
HETATM   11  S2  UNL     1     -15.825  -6.374  26.025  1.00  0.00    -0.053 SA
BRANCH  10  12
HETATM   12  S1  UNL     1     -18.311  -7.312  27.222  1.00  0.00    -0.101 SA
BRANCH  12  13
HETATM   13  C2  UNL     1     -18.286  -7.891  28.909  1.00  0.00     0.077 C 
HETATM   14  C1  UNL     1     -19.058  -9.155  29.151  1.00  0.00     0.016 C 
ENDBRANCH  12  13
ENDBRANCH  10  12
ENDBRANCH   8  10
ENDBRANCH   1   8
BRANCH   2  15
HETATM   15  C6  UNL     1     -16.127  -2.491  25.614  1.00  0.00     0.302 C 
HETATM   16  O1  UNL     1     -15.515  -1.588  25.042  1.00  0.00    -0.259 OA
BRANCH  15  17
HETATM   17  O2  UNL     1     -17.167  -3.140  24.991  1.00  0.00    -0.322 OA
HETATM   18  C7  UNL     1     -17.146  -3.520  23.625  1.00  0.00     0.213 C 
ENDBRANCH  15  17
ENDBRANCH   2  15
TORSDOF 6
ENDMDL
MODEL 4
REMARK VINA RESULT: -5.477046558      2.015      2.594
REMARK  6 active torsions:
REMARK  status: ('A' for Active; 'I' for Inactive)
REMARK    1  A    between atoms: C2_2  and  S1_3 
REMARK    2  A    between atoms: S1_3  and  C3_4 
REMARK    3  A    between atoms: C3_4  and  N1_6 
REMARK    4  A    between atoms: N1_6  and  C4_8 
REMARK    5  A    between atoms: C5_9  and  C6_10 
REMARK    6  A    between atoms: C6_10  and  O2_12 
ROOT
HETATM    1  C4  UNL     1     -16.460  -5.884  27.244  1.00  0.00     0.064 A 
HETATM    2  C5  UNL     1     -17.178  -6.284  26.145  1.00  0.00     0.107 A 
HETATM    3  S3  UNL     1     -18.353  -7.341  26.785  1.00  0.00    -0.086 SA
HETATM    4  C8  UNL     1     -17.916  -7.259  28.425  1.00  0.00    -0.012 A 
HETATM    5  C9  UNL     1     -18.542  -7.960  29.607  1.00  0.00     0.057 C 
HETATM    6  C10 UNL     1     -16.856  -6.403  28.439  1.00  0.00    -0.021 A 
HETATM    7  C11 UNL     1     -16.165  -6.061  29.757  1.00  0.00     0.052 C 
ENDROOT
BRANCH   1   8
HETATM    8  N1  UNL     1     -15.342  -4.951  27.078  1.00  0.00    -0.340 N 
ATOM      9  H1  UNL     1     -14.496  -5.256  26.597  1.00  0.00     0.167 HD
BRANCH   8  10
HETATM   10  C3  UNL     1     -15.426  -3.636  27.579  1.00  0.00     0.139 C 
HETATM   11  S2  UNL     1     -16.846  -2.813  27.382  1.00  0.00    -0.053 SA
BRANCH  10  12
HETATM   12  S1  UNL     1     -14.117  -2.800  28.405  1.00  0.00    -0.101 SA
BRANCH  12  13
HETATM   13  C2  UNL     1     -14.412  -2.450  30.129  1.00  0.00     0.077 C 
HETATM   14  C1  UNL     1     -13.931  -3.509  31.076  1.00  0.00     0.016 C 
ENDBRANCH  12  13
ENDBRANCH  10  12
ENDBRANCH   8  10
ENDBRANCH   1   8
BRANCH   2  15
HETATM   15  C6  UNL     1     -16.964  -5.878  24.733  1.00  0.00     0.302 C 
HETATM   16  O1  UNL     1     -17.386  -6.602  23.829  1.00  0.00    -0.259 OA
BRANCH  15  17
HETATM   17  O2  UNL     1     -16.303  -4.707  24.445  1.00  0.00    -0.322 OA
HETATM   18  C7  UNL     1     -16.895  -3.628  23.740  1.00  0.00     0.213 C 
ENDBRANCH  15  17
ENDBRANCH   2  15
TORSDOF 6
ENDMDL
MODEL 5
REMARK VINA RESULT: -5.471254126      1.737      2.808
REMARK  6 active torsions:
REMARK  status: ('A' for Active; 'I' for Inactive)
REMARK    1  A    between atoms: C2_2  and  S1_3 
REMARK    2  A    between atoms: S1_3  and  C3_4 
REMARK    3  A    between atoms: C3_4  and  N1_6 
REMARK    4  A    between atoms: N1_6  and  C4_8 
REMARK    5  A    between atoms: C5_9  and  C6_10 
REMARK    6  A    between atoms: C6_10  and  O2_12 
ROOT
HETATM    1  C4  UNL     1     -15.745  -3.948  28.938  1.00  0.00     0.064 A 
HETATM    2  C5  UNL     1     -16.460  -4.769  28.101  1.00  0.00     0.107 A 
HETATM    3  S3  UNL     1     -16.582  -6.232  28.967  1.00  0.00    -0.086 SA
HETATM    4  C8  UNL     1     -15.729  -5.783  30.366  1.00  0.00    -0.012 A 
HETATM    5  C9  UNL     1     -15.433  -6.604  31.599  1.00  0.00     0.057 C 
HETATM    6  C10 UNL     1     -15.365  -4.492  30.127  1.00  0.00    -0.021 A 
HETATM    7  C11 UNL     1     -14.565  -3.716  31.171  1.00  0.00     0.052 C 
ENDROOT
BRANCH   1   8
HETATM    8  N1  UNL     1     -15.439  -2.578  28.520  1.00  0.00    -0.340 N 
ATOM      9  H1  UNL     1     -16.143  -1.847  28.623  1.00  0.00     0.167 HD
BRANCH   8  10
HETATM   10  C3  UNL     1     -14.177  -2.260  27.976  1.00  0.00     0.139 C 
HETATM   11  S2  UNL     1     -13.289  -1.070  28.701  1.00  0.00    -0.053 SA
BRANCH  10  12
HETATM   12  S1  UNL     1     -13.474  -3.048  26.568  1.00  0.00    -0.101 SA
BRANCH  12  13
HETATM   13  C2  UNL     1     -13.961  -2.359  24.996  1.00  0.00     0.077 C 
HETATM   14  C1  UNL     1     -15.164  -1.463  25.049  1.00  0.00     0.016 C 
ENDBRANCH  12  13
ENDBRANCH  10  12
ENDBRANCH   8  10
ENDBRANCH   1   8
BRANCH   2  15
HETATM   15  C6  UNL     1     -16.994  -4.438  26.756  1.00  0.00     0.302 C 
HETATM   16  O1  UNL     1     -17.713  -3.446  26.622  1.00  0.00    -0.259 OA
BRANCH  15  17
HETATM   17  O2  UNL     1     -16.685  -5.232  25.676  1.00  0.00    -0.322 OA
HETATM   18  C7  UNL     1     -16.702  -4.771  24.336  1.00  0.00     0.213 C 
ENDBRANCH  15  17
ENDBRANCH   2  15
TORSDOF 6
ENDMDL
