MODEL 1
REMARK VINA RESULT: -7.005296417      0.000      0.000
REMARK  5 active torsions:
REMARK  status: ('A' for Active; 'I' for Inactive)
REMARK    1  A    between atoms: C2_2  and  O1_3 
REMARK    2  A    between atoms: N1_5  and  O2_7 
REMARK    3  A    between atoms: O2_7  and  C3_8 
REMARK    4  A    between atoms: C3_8  and  C4_10 
REMARK    5  A    between atoms: C4_10  and  C5_11 
ROOT
HETATM    1  C5  UNL     1     -16.013  -4.274  25.406  1.00  0.00     0.167 C 
HETATM    2  C6  UNL     1     -15.948  -5.737  25.694  1.00  0.00     0.038 C 
HETATM    3  C7  UNL     1     -15.733  -6.016  27.185  1.00  0.00     0.044 C 
HETATM    4  C8  UNL     1     -16.727  -5.254  28.033  1.00  0.00     0.096 C 
HETATM    5  C9  UNL     1     -16.097  -4.591  29.216  1.00  0.00     0.041 C 
HETATM    6  C10 UNL     1     -15.839  -5.490  30.372  1.00  0.00     0.003 C 
HETATM    7  C11 UNL     1     -16.331  -6.887  30.209  1.00  0.00     0.000 C 
HETATM    8  C12 UNL     1     -17.690  -6.972  29.594  1.00  0.00     0.003 C 
HETATM    9  C13 UNL     1     -17.867  -6.156  28.361  1.00  0.00     0.041 C 
HETATM   10  O3  UNL     1     -17.235  -4.222  27.210  1.00  0.00    -0.229 OA
HETATM   11  O4  UNL     1     -16.227  -3.600  26.595  1.00  0.00    -0.234 OA
ENDROOT
BRANCH   1  12
HETATM   12  C4  UNL     1     -14.731  -3.859  24.723  1.00  0.00     0.115 C 
BRANCH  12  13
HETATM   13  C3  UNL     1     -14.251  -2.545  25.144  1.00  0.00     0.145 C 
HETATM   14  S1  UNL     1     -14.934  -1.204  24.519  1.00  0.00    -0.055 SA
BRANCH  13  15
HETATM   15  O2  UNL     1     -13.224  -2.353  26.066  1.00  0.00    -0.229 OA
BRANCH  15  16
HETATM   16  N1  UNL     1     -13.213  -2.870  27.320  1.00  0.00    -0.242 N 
HETATM   17  C2  UNL     1     -13.267  -2.200  28.402  1.00  0.00     0.131 C 
HETATM   18  C1  UNL     1     -13.350  -0.725  28.395  1.00  0.00     0.099 C 
ATOM     19  H1  UNL     1     -13.158  -3.885  27.404  1.00  0.00     0.196 HD
BRANCH  17  20
HETATM   20  O1  UNL     1     -13.247  -2.865  29.610  1.00  0.00    -0.348 OA
ATOM     21  H1  UNL     1     -13.515  -3.776  29.640  1.00  0.00     0.219 HD
ENDBRANCH  17  20
ENDBRANCH  15  16
ENDBRANCH  13  15
ENDBRANCH  12  13
ENDBRANCH   1  12
TORSDOF 5
ENDMDL
MODEL 2
REMARK VINA RESULT: -6.735115568      1.564      1.658
REMARK  5 active torsions:
REMARK  status: ('A' for Active; 'I' for Inactive)
REMARK    1  A    between atoms: C2_2  and  O1_3 
REMARK    2  A    between atoms: N1_5  and  O2_7 
REMARK    3  A    between atoms: O2_7  and  C3_8 
REMARK    4  A    between atoms: C3_8  and  C4_10 
REMARK    5  A    between atoms: C4_10  and  C5_11 
ROOT
HETATM    1  C5  UNL     1     -16.645  -4.613  25.258  1.00  0.00     0.167 C 
HETATM    2  C6  UNL     1     -16.170  -5.919  25.805  1.00  0.00     0.038 C 
HETATM    3  C7  UNL     1     -15.673  -5.785  27.249  1.00  0.00     0.044 C 
HETATM    4  C8  UNL     1     -16.692  -5.077  28.114  1.00  0.00     0.096 C 
HETATM    5  C9  UNL     1     -16.083  -4.034  28.996  1.00  0.00     0.041 C 
HETATM    6  C10 UNL     1     -15.439  -4.559  30.230  1.00  0.00     0.003 C 
HETATM    7  C11 UNL     1     -15.580  -6.027  30.442  1.00  0.00     0.000 C 
HETATM    8  C12 UNL     1     -16.948  -6.544  30.138  1.00  0.00     0.003 C 
HETATM    9  C13 UNL     1     -17.506  -6.099  28.831  1.00  0.00     0.041 C 
HETATM   10  O3  UNL     1     -17.560  -4.402  27.224  1.00  0.00    -0.229 OA
HETATM   11  O4  UNL     1     -16.844  -3.741  26.312  1.00  0.00    -0.234 OA
ENDROOT
BRANCH   1  12
HETATM   12  C4  UNL     1     -15.625  -4.106  24.266  1.00  0.00     0.115 C 
BRANCH  12  13
HETATM   13  C3  UNL     1     -15.759  -2.680  23.978  1.00  0.00     0.145 C 
HETATM   14  S1  UNL     1     -17.016  -2.159  23.081  1.00  0.00    -0.055 SA
BRANCH  13  15
HETATM   15  O2  UNL     1     -14.865  -1.710  24.427  1.00  0.00    -0.229 OA
BRANCH  15  16
HETATM   16  N1  UNL     1     -14.926  -1.117  25.645  1.00  0.00    -0.242 N 
HETATM   17  C2  UNL     1     -14.302  -1.494  26.689  1.00  0.00     0.131 C 
HETATM   18  C1  UNL     1     -13.407  -2.670  26.673  1.00  0.00     0.099 C 
ATOM     19  H1  UNL     1     -15.526  -0.296  25.734  1.00  0.00     0.196 HD
BRANCH  17  20
HETATM   20  O1  UNL     1     -14.463  -0.790  27.864  1.00  0.00    -0.348 OA
ATOM     21  H1  UNL     1     -15.275  -0.320  28.013  1.00  0.00     0.219 HD
ENDBRANCH  17  20
ENDBRANCH  15  16
ENDBRANCH  13  15
ENDBRANCH  12  13
ENDBRANCH   1  12
TORSDOF 5
ENDMDL
MODEL 3
REMARK VINA RESULT: -6.640908842      3.446      6.360
REMARK  5 active torsions:
REMARK  status: ('A' for Active; 'I' for Inactive)
REMARK    1  A    between atoms: C2_2  and  O1_3 
REMARK    2  A    between atoms: N1_5  and  O2_7 
REMARK    3  A    between atoms: O2_7  and  C3_8 
REMARK    4  A    between atoms: C3_8  and  C4_10 
REMARK    5  A    between atoms: C4_10  and  C5_11 
ROOT
HETATM    1  C5  UNL     1     -16.401  -5.194  27.593  1.00  0.00     0.167 C 
HETATM    2  C6  UNL     1     -17.374  -4.130  27.203  1.00  0.00     0.038 C 
HETATM    3  C7  UNL     1     -16.726  -3.066  26.310  1.00  0.00     0.044 C 
HETATM    4  C8  UNL     1     -15.991  -3.699  25.150  1.00  0.00     0.096 C 
HETATM    5  C9  UNL     1     -14.640  -3.102  24.921  1.00  0.00     0.041 C 
HETATM    6  C10 UNL     1     -14.645  -1.812  24.180  1.00  0.00     0.003 C 
HETATM    7  C11 UNL     1     -15.983  -1.362  23.701  1.00  0.00     0.000 C 
HETATM    8  C12 UNL     1     -16.808  -2.463  23.120  1.00  0.00     0.003 C 
HETATM    9  C13 UNL     1     -16.884  -3.693  23.956  1.00  0.00     0.041 C 
HETATM   10  O3  UNL     1     -15.783  -5.052  25.509  1.00  0.00    -0.229 OA
HETATM   11  O4  UNL     1     -15.306  -5.119  26.753  1.00  0.00    -0.234 OA
ENDROOT
BRANCH   1  12
HETATM   12  C4  UNL     1     -16.035  -5.003  29.047  1.00  0.00     0.115 C 
BRANCH  12  13
HETATM   13  C3  UNL     1     -16.610  -6.019  29.925  1.00  0.00     0.145 C 
HETATM   14  S1  UNL     1     -15.714  -6.626  31.143  1.00  0.00    -0.055 SA
BRANCH  13  15
HETATM   15  O2  UNL     1     -17.905  -6.518  29.792  1.00  0.00    -0.229 OA
BRANCH  15  16
HETATM   16  N1  UNL     1     -18.235  -7.830  29.893  1.00  0.00    -0.242 N 
HETATM   17  C2  UNL     1     -18.817  -8.522  28.997  1.00  0.00     0.131 C 
HETATM   18  C1  UNL     1     -19.208  -7.936  27.699  1.00  0.00     0.099 C 
ATOM     19  H1  UNL     1     -17.995  -8.304  30.764  1.00  0.00     0.196 HD
BRANCH  17  20
HETATM   20  O1  UNL     1     -19.090  -9.852  29.242  1.00  0.00    -0.348 OA
ATOM     21  H1  UNL     1     -19.334 -10.119  30.121  1.00  0.00     0.219 HD
ENDBRANCH  17  20
ENDBRANCH  15  16
ENDBRANCH  13  15
ENDBRANCH  12  13
ENDBRANCH   1  12
TORSDOF 5
ENDMDL
MODEL 4
REMARK VINA RESULT: -6.593264587      2.318      3.374
REMARK  5 active torsions:
REMARK  status: ('A' for Active; 'I' for Inactive)
REMARK    1  A    between atoms: C2_2  and  O1_3 
REMARK    2  A    between atoms: N1_5  and  O2_7 
REMARK    3  A    between atoms: O2_7  and  C3_8 
REMARK    4  A    between atoms: C3_8  and  C4_10 
REMARK    5  A    between atoms: C4_10  and  C5_11 
ROOT
HETATM    1  C5  UNL     1     -16.358  -4.299  25.202  1.00  0.00     0.167 C 
HETATM    2  C6  UNL     1     -16.105  -5.716  25.598  1.00  0.00     0.038 C 
HETATM    3  C7  UNL     1     -15.763  -5.840  27.087  1.00  0.00     0.044 C 
HETATM    4  C8  UNL     1     -16.782  -5.122  27.943  1.00  0.00     0.096 C 
HETATM    5  C9  UNL     1     -16.159  -4.294  29.020  1.00  0.00     0.041 C 
HETATM    6  C10 UNL     1     -15.725  -5.057  30.222  1.00  0.00     0.003 C 
HETATM    7  C11 UNL     1     -16.061  -6.508  30.205  1.00  0.00     0.000 C 
HETATM    8  C12 UNL     1     -17.437  -6.796  29.700  1.00  0.00     0.003 C 
HETATM    9  C13 UNL     1     -17.787  -6.113  28.424  1.00  0.00     0.041 C 
HETATM   10  O3  UNL     1     -17.459  -4.228  27.081  1.00  0.00    -0.229 OA
HETATM   11  O4  UNL     1     -16.571  -3.553  26.347  1.00  0.00    -0.234 OA
ENDROOT
BRANCH   1  12
HETATM   12  C4  UNL     1     -15.179  -3.806  24.396  1.00  0.00     0.115 C 
BRANCH  12  13
HETATM   13  C3  UNL     1     -14.618  -2.555  24.900  1.00  0.00     0.145 C 
HETATM   14  S1  UNL     1     -13.646  -2.583  26.208  1.00  0.00    -0.055 SA
BRANCH  13  15
HETATM   15  O2  UNL     1     -14.861  -1.308  24.327  1.00  0.00    -0.229 OA
BRANCH  15  16
HETATM   16  N1  UNL     1     -14.396  -0.919  23.113  1.00  0.00    -0.242 N 
HETATM   17  C2  UNL     1     -15.112  -0.587  22.114  1.00  0.00     0.131 C 
HETATM   18  C1  UNL     1     -16.588  -0.593  22.183  1.00  0.00     0.099 C 
ATOM     19  H1  UNL     1     -13.384  -0.889  22.990  1.00  0.00     0.196 HD
BRANCH  17  20
HETATM   20  O1  UNL     1     -14.497  -0.212  20.938  1.00  0.00    -0.348 OA
ATOM     21  H1  UNL     1     -13.744   0.365  20.974  1.00  0.00     0.219 HD
ENDBRANCH  17  20
ENDBRANCH  15  16
ENDBRANCH  13  15
ENDBRANCH  12  13
ENDBRANCH   1  12
TORSDOF 5
ENDMDL
MODEL 5
REMARK VINA RESULT: -6.540827440      2.631      3.497
REMARK  5 active torsions:
REMARK  status: ('A' for Active; 'I' for Inactive)
REMARK    1  A    between atoms: C2_2  and  O1_3 
REMARK    2  A    between atoms: N1_5  and  O2_7 
REMARK    3  A    between atoms: O2_7  and  C3_8 
REMARK    4  A    between atoms: C3_8  and  C4_10 
REMARK    5  A    between atoms: C4_10  and  C5_11 
ROOT
HETATM    1  C5  UNL     1     -16.470  -4.248  25.299  1.00  0.00     0.167 C 
HETATM    2  C6  UNL     1     -16.081  -5.648  25.639  1.00  0.00     0.038 C 
HETATM    3  C7  UNL     1     -15.739  -5.800  27.125  1.00  0.00     0.044 C 
HETATM    4  C8  UNL     1     -16.829  -5.223  27.999  1.00  0.00     0.096 C 
HETATM    5  C9  UNL     1     -16.298  -4.383  29.116  1.00  0.00     0.041 C 
HETATM    6  C10 UNL     1     -15.799  -5.149  30.290  1.00  0.00     0.003 C 
HETATM    7  C11 UNL     1     -15.990  -6.624  30.210  1.00  0.00     0.000 C 
HETATM    8  C12 UNL     1     -17.328  -7.024  29.679  1.00  0.00     0.003 C 
HETATM    9  C13 UNL     1     -17.735  -6.327  28.428  1.00  0.00     0.041 C 
HETATM   10  O3  UNL     1     -17.585  -4.363  27.167  1.00  0.00    -0.229 OA
HETATM   11  O4  UNL     1     -16.764  -3.575  26.471  1.00  0.00    -0.234 OA
ENDROOT
BRANCH   1  12
HETATM   12  C4  UNL     1     -15.341  -3.607  24.526  1.00  0.00     0.115 C 
BRANCH  12  13
HETATM   13  C3  UNL     1     -15.743  -2.401  23.808  1.00  0.00     0.145 C 
HETATM   14  S1  UNL     1     -17.159  -2.383  23.001  1.00  0.00    -0.055 SA
BRANCH  13  15
HETATM   15  O2  UNL     1     -14.982  -1.234  23.763  1.00  0.00    -0.229 OA
BRANCH  15  16
HETATM   16  N1  UNL     1     -14.515  -0.667  22.623  1.00  0.00    -0.242 N 
HETATM   17  C2  UNL     1     -14.859   0.468  22.160  1.00  0.00     0.131 C 
HETATM   18  C1  UNL     1     -15.848   1.319  22.855  1.00  0.00     0.099 C 
ATOM     19  H1  UNL     1     -13.827  -1.197  22.088  1.00  0.00     0.196 HD
BRANCH  17  20
HETATM   20  O1  UNL     1     -14.297   0.917  20.984  1.00  0.00    -0.348 OA
ATOM     21  H1  UNL     1     -13.541   0.464  20.631  1.00  0.00     0.219 HD
ENDBRANCH  17  20
ENDBRANCH  15  16
ENDBRANCH  13  15
ENDBRANCH  12  13
ENDBRANCH   1  12
TORSDOF 5
ENDMDL
