MODEL 1
REMARK VINA RESULT: -4.766305013      0.000      0.000
REMARK  3 active torsions:
REMARK  status: ('A' for Active; 'I' for Inactive)
REMARK    1  A    between atoms: C2_2  and  C3_3 
REMARK    2  A    between atoms: C3_3  and  N1_4 
REMARK       I    between atoms: N1_4  and  C4_6 
REMARK    3  A    between atoms: C4_6  and  C5_8 
ROOT
HETATM    1  C5  UNL     1      -0.286 124.372 -11.559  1.00  0.00     0.045 C 
HETATM    2  C6  UNL     1      -1.181 124.249 -12.791  1.00  0.00     0.024 C 
HETATM    3  C7  UNL     1      -1.510 122.785 -12.785  1.00  0.00    -0.013 C 
HETATM    4  C8  UNL     1      -0.214 122.018 -12.866  1.00  0.00     0.010 C 
HETATM    5  C9  UNL     1       0.479 122.436 -11.579  1.00  0.00    -0.008 C 
HETATM    6  C10 UNL     1       1.122 123.809 -11.813  1.00  0.00     0.024 C 
HETATM    7  C11 UNL     1      -0.549 123.150 -10.744  1.00  0.00     0.008 C 
HETATM    8  C12 UNL     1      -1.855 122.584 -11.300  1.00  0.00     0.011 C 
ENDROOT
BRANCH   1   9
HETATM    9  C4  UNL     1      -0.289 125.661 -10.890  1.00  0.00     0.227 C 
HETATM   10  N1  UNL     1      -1.481 126.409 -10.761  1.00  0.00    -0.357 N 
ATOM     11  H1  UNL     1      -2.348 126.034 -11.144  1.00  0.00     0.162 HD
HETATM   12  O1  UNL     1       0.787 126.112 -10.422  1.00  0.00    -0.273 OA
BRANCH  10  13
HETATM   13  C3  UNL     1      -1.499 127.704 -10.092  1.00  0.00     0.149 C 
BRANCH  13  14
HETATM   14  C2  UNL     1      -1.874 128.753 -11.048  1.00  0.00    -0.018 C 
HETATM   15  C1  UNL     1      -2.294 128.424 -12.260  1.00  0.00     0.008 C 
ENDBRANCH  13  14
ENDBRANCH  10  13
ENDBRANCH   1   9
TORSDOF 3
ENDMDL
MODEL 2
REMARK VINA RESULT: -4.737948341      0.725      1.491
REMARK  3 active torsions:
REMARK  status: ('A' for Active; 'I' for Inactive)
REMARK    1  A    between atoms: C2_2  and  C3_3 
REMARK    2  A    between atoms: C3_3  and  N1_4 
REMARK       I    between atoms: N1_4  and  C4_6 
REMARK    3  A    between atoms: C4_6  and  C5_8 
ROOT
HETATM    1  C5  UNL     1      -0.190 124.219 -10.926  1.00  0.00     0.045 C 
HETATM    2  C6  UNL     1       1.032 123.706 -11.686  1.00  0.00     0.024 C 
HETATM    3  C7  UNL     1       0.476 122.497 -12.380  1.00  0.00    -0.013 C 
HETATM    4  C8  UNL     1      -0.051 121.559 -11.324  1.00  0.00     0.010 C 
HETATM    5  C9  UNL     1      -1.154 122.389 -10.688  1.00  0.00    -0.008 C 
HETATM    6  C10 UNL     1      -0.503 123.357  -9.693  1.00  0.00     0.024 C 
HETATM    7  C11 UNL     1      -1.370 123.581 -11.580  1.00  0.00     0.008 C 
HETATM    8  C12 UNL     1      -0.844 123.070 -12.921  1.00  0.00     0.011 C 
ENDROOT
BRANCH   1   9
HETATM    9  C4  UNL     1      -0.233 125.648 -10.669  1.00  0.00     0.227 C 
HETATM   10  N1  UNL     1      -1.457 126.354 -10.694  1.00  0.00    -0.357 N 
ATOM     11  H1  UNL     1      -2.319 125.848 -10.897  1.00  0.00     0.162 HD
HETATM   12  O1  UNL     1       0.837 126.259 -10.421  1.00  0.00    -0.273 OA
BRANCH  10  13
HETATM   13  C3  UNL     1      -1.515 127.787 -10.439  1.00  0.00     0.149 C 
BRANCH  13  14
HETATM   14  C2  UNL     1      -2.109 128.475 -11.591  1.00  0.00    -0.018 C 
HETATM   15  C1  UNL     1      -2.137 127.881 -12.774  1.00  0.00     0.008 C 
ENDBRANCH  13  14
ENDBRANCH  10  13
ENDBRANCH   1   9
TORSDOF 3
ENDMDL
MODEL 3
REMARK VINA RESULT: -4.561684661      0.766      1.169
REMARK  3 active torsions:
REMARK  status: ('A' for Active; 'I' for Inactive)
REMARK    1  A    between atoms: C2_2  and  C3_3 
REMARK    2  A    between atoms: C3_3  and  N1_4 
REMARK       I    between atoms: N1_4  and  C4_6 
REMARK    3  A    between atoms: C4_6  and  C5_8 
ROOT
HETATM    1  C5  UNL     1      -0.326 124.463 -11.561  1.00  0.00     0.045 C 
HETATM    2  C6  UNL     1      -1.239 124.398 -12.784  1.00  0.00     0.024 C 
HETATM    3  C7  UNL     1      -1.622 122.947 -12.804  1.00  0.00    -0.013 C 
HETATM    4  C8  UNL     1      -0.357 122.136 -12.916  1.00  0.00     0.010 C 
HETATM    5  C9  UNL     1       0.367 122.501 -11.630  1.00  0.00    -0.008 C 
HETATM    6  C10 UNL     1       1.056 123.854 -11.844  1.00  0.00     0.024 C 
HETATM    7  C11 UNL     1      -0.625 123.235 -10.768  1.00  0.00     0.008 C 
HETATM    8  C12 UNL     1      -1.957 122.728 -11.320  1.00  0.00     0.011 C 
ENDROOT
BRANCH   1   9
HETATM    9  C4  UNL     1      -0.275 125.737 -10.866  1.00  0.00     0.227 C 
HETATM   10  N1  UNL     1      -1.420 126.559 -10.770  1.00  0.00    -0.357 N 
ATOM     11  H1  UNL     1      -2.293 126.248 -11.196  1.00  0.00     0.162 HD
HETATM   12  O1  UNL     1       0.808 126.108 -10.345  1.00  0.00    -0.273 OA
BRANCH  10  13
HETATM   13  C3  UNL     1      -1.383 127.840 -10.076  1.00  0.00     0.149 C 
BRANCH  13  14
HETATM   14  C2  UNL     1      -2.518 127.939  -9.150  1.00  0.00    -0.018 C 
HETATM   15  C1  UNL     1      -3.318 126.898  -8.972  1.00  0.00     0.008 C 
ENDBRANCH  13  14
ENDBRANCH  10  13
ENDBRANCH   1   9
TORSDOF 3
ENDMDL
MODEL 4
REMARK VINA RESULT: -4.460922449      0.714      1.682
REMARK  3 active torsions:
REMARK  status: ('A' for Active; 'I' for Inactive)
REMARK    1  A    between atoms: C2_2  and  C3_3 
REMARK    2  A    between atoms: C3_3  and  N1_4 
REMARK       I    between atoms: N1_4  and  C4_6 
REMARK    3  A    between atoms: C4_6  and  C5_8 
ROOT
HETATM    1  C5  UNL     1      -0.593 124.429 -11.159  1.00  0.00     0.045 C 
HETATM    2  C6  UNL     1      -0.862 123.344 -10.118  1.00  0.00     0.024 C 
HETATM    3  C7  UNL     1      -0.326 122.122 -10.805  1.00  0.00    -0.013 C 
HETATM    4  C8  UNL     1      -1.075 121.953 -12.101  1.00  0.00     0.010 C 
HETATM    5  C9  UNL     1      -0.697 123.220 -12.851  1.00  0.00    -0.008 C 
HETATM    6  C10 UNL     1      -1.584 124.358 -12.332  1.00  0.00     0.024 C 
HETATM    7  C11 UNL     1       0.430 123.858 -12.084  1.00  0.00     0.008 C 
HETATM    8  C12 UNL     1       1.014 122.663 -11.331  1.00  0.00     0.011 C 
ENDROOT
BRANCH   1   9
HETATM    9  C4  UNL     1      -0.385 125.772 -10.647  1.00  0.00     0.227 C 
HETATM   10  N1  UNL     1      -1.480 126.588 -10.285  1.00  0.00    -0.357 N 
ATOM     11  H1  UNL     1      -2.428 126.224 -10.387  1.00  0.00     0.162 HD
HETATM   12  O1  UNL     1       0.788 126.209 -10.527  1.00  0.00    -0.273 OA
BRANCH  10  13
HETATM   13  C3  UNL     1      -1.288 127.938  -9.770  1.00  0.00     0.149 C 
BRANCH  13  14
HETATM   14  C2  UNL     1      -2.108 128.885 -10.536  1.00  0.00    -0.018 C 
HETATM   15  C1  UNL     1      -2.205 128.763 -11.851  1.00  0.00     0.008 C 
ENDBRANCH  13  14
ENDBRANCH  10  13
ENDBRANCH   1   9
TORSDOF 3
ENDMDL
MODEL 5
REMARK VINA RESULT: -4.363814206      2.152      3.151
REMARK  3 active torsions:
REMARK  status: ('A' for Active; 'I' for Inactive)
REMARK    1  A    between atoms: C2_2  and  C3_3 
REMARK    2  A    between atoms: C3_3  and  N1_4 
REMARK       I    between atoms: N1_4  and  C4_6 
REMARK    3  A    between atoms: C4_6  and  C5_8 
ROOT
HETATM    1  C5  UNL     1      -1.226 126.153 -10.783  1.00  0.00     0.045 C 
HETATM    2  C6  UNL     1      -2.136 124.993 -10.383  1.00  0.00     0.024 C 
HETATM    3  C7  UNL     1      -1.215 123.817 -10.527  1.00  0.00    -0.013 C 
HETATM    4  C8  UNL     1      -0.732 123.779 -11.954  1.00  0.00     0.010 C 
HETATM    5  C9  UNL     1       0.024 125.092 -12.066  1.00  0.00    -0.008 C 
HETATM    6  C10 UNL     1      -1.000 126.209 -12.302  1.00  0.00     0.024 C 
HETATM    7  C11 UNL     1       0.167 125.631 -10.668  1.00  0.00     0.008 C 
HETATM    8  C12 UNL     1       0.041 124.362  -9.827  1.00  0.00     0.011 C 
ENDROOT
BRANCH   1   9
HETATM    9  C4  UNL     1      -1.530 127.442 -10.188  1.00  0.00     0.227 C 
HETATM   10  N1  UNL     1      -2.120 127.530  -8.907  1.00  0.00    -0.357 N 
ATOM     11  H1  UNL     1      -2.332 126.672  -8.397  1.00  0.00     0.162 HD
HETATM   12  O1  UNL     1      -1.264 128.492 -10.827  1.00  0.00    -0.273 OA
BRANCH  10  13
HETATM   13  C3  UNL     1      -2.431 128.816  -8.297  1.00  0.00     0.149 C 
BRANCH  13  14
HETATM   14  C2  UNL     1      -2.478 128.678  -6.836  1.00  0.00    -0.018 C 
HETATM   15  C1  UNL     1      -1.523 129.214  -6.091  1.00  0.00     0.008 C 
ENDBRANCH  13  14
ENDBRANCH  10  13
ENDBRANCH   1   9
TORSDOF 3
ENDMDL
