MODEL 1
REMARK VINA RESULT: -4.241530892      0.000      0.000
REMARK  3 active torsions:
REMARK  status: ('A' for Active; 'I' for Inactive)
REMARK    1  A    between atoms: N1_1  and  C1_5 
REMARK    2  A    between atoms: N2_8  and  C4_9 
REMARK    3  A    between atoms: C4_9  and  C5_10 
ROOT
HETATM    1  C1  UNL     1       0.312 122.983 -11.683  1.00  0.00     0.189 C 
HETATM    2  C2  UNL     1      -0.405 122.579 -10.459  1.00  0.00     0.061 C 
HETATM    3  C3  UNL     1      -1.186 123.529  -9.698  1.00  0.00     0.239 C 
HETATM    4  N2  UNL     1      -1.695 124.713 -10.350  1.00  0.00    -0.067 N 
HETATM    5  C8  UNL     1      -2.522 124.399 -11.507  1.00  0.00     0.238 C 
HETATM    6  C9  UNL     1      -1.778 123.900 -12.687  1.00  0.00     0.034 C 
HETATM    7  C10 UNL     1      -0.312 124.082 -12.488  1.00  0.00     0.019 C 
HETATM    8  C11 UNL     1       0.008 125.452 -11.962  1.00  0.00     0.034 C 
HETATM    9  C12 UNL     1      -0.646 125.632 -10.637  1.00  0.00     0.238 C 
ENDROOT
BRANCH   1  10
HETATM   10  N1  UNL     1       1.697 123.382 -11.423  1.00  0.00    -0.075 N 
ATOM     11  H13 UNL     1       1.747 124.051 -10.655  1.00  0.00     0.274 HD
ATOM     12  H12 UNL     1       2.226 122.615 -11.009  1.00  0.00     0.274 HD
ATOM     13  H11 UNL     1       2.167 123.743 -12.253  1.00  0.00     0.274 HD
ENDBRANCH   1  10
BRANCH   4  14
HETATM   14  C4  UNL     1      -2.631 125.288  -9.391  1.00  0.00     0.242 C 
BRANCH  14  15
HETATM   15  C5  UNL     1      -2.904 124.375  -8.233  1.00  0.00     0.012 A 
HETATM   16  C6  UNL     1      -3.415 124.979  -6.939  1.00  0.00     0.007 A 
HETATM   17  C7  UNL     1      -4.392 124.309  -7.860  1.00  0.00     0.007 A 
ENDBRANCH  14  15
ENDBRANCH   4  14
TORSDOF 3
ENDMDL
MODEL 2
REMARK VINA RESULT: -4.239266231      1.348      1.914
REMARK  3 active torsions:
REMARK  status: ('A' for Active; 'I' for Inactive)
REMARK    1  A    between atoms: N1_1  and  C1_5 
REMARK    2  A    between atoms: N2_8  and  C4_9 
REMARK    3  A    between atoms: C4_9  and  C5_10 
ROOT
HETATM    1  C1  UNL     1       0.167 122.987 -11.449  1.00  0.00     0.189 C 
HETATM    2  C2  UNL     1      -0.685 122.816 -10.258  1.00  0.00     0.061 C 
HETATM    3  C3  UNL     1      -1.371 123.939  -9.657  1.00  0.00     0.239 C 
HETATM    4  N2  UNL     1      -1.655 125.107 -10.456  1.00  0.00    -0.067 N 
HETATM    5  C8  UNL     1      -2.436 124.791 -11.644  1.00  0.00     0.238 C 
HETATM    6  C9  UNL     1      -1.692 124.075 -12.706  1.00  0.00     0.034 C 
HETATM    7  C10 UNL     1      -0.233 124.073 -12.403  1.00  0.00     0.019 C 
HETATM    8  C11 UNL     1       0.246 125.432 -11.981  1.00  0.00     0.034 C 
HETATM    9  C12 UNL     1      -0.465 125.837 -10.738  1.00  0.00     0.238 C 
ENDROOT
BRANCH   1  10
HETATM   10  N1  UNL     1       1.574 123.216 -11.112  1.00  0.00    -0.075 N 
ATOM     11  H13 UNL     1       1.865 124.157 -11.378  1.00  0.00     0.274 HD
ATOM     12  H12 UNL     1       1.701 123.282 -10.103  1.00  0.00     0.274 HD
ATOM     13  H11 UNL     1       2.195 122.514 -11.514  1.00  0.00     0.274 HD
ENDBRANCH   1  10
BRANCH   4  14
HETATM   14  C4  UNL     1      -2.561 125.902  -9.636  1.00  0.00     0.242 C 
BRANCH  14  15
HETATM   15  C5  UNL     1      -2.285 127.374  -9.733  1.00  0.00     0.012 A 
HETATM   16  C6  UNL     1      -3.447 128.314  -9.987  1.00  0.00     0.007 A 
HETATM   17  C7  UNL     1      -2.919 128.179  -8.589  1.00  0.00     0.007 A 
ENDBRANCH  14  15
ENDBRANCH   4  14
TORSDOF 3
ENDMDL
MODEL 3
REMARK VINA RESULT: -4.216696239      1.385      1.775
REMARK  3 active torsions:
REMARK  status: ('A' for Active; 'I' for Inactive)
REMARK    1  A    between atoms: N1_1  and  C1_5 
REMARK    2  A    between atoms: N2_8  and  C4_9 
REMARK    3  A    between atoms: C4_9  and  C5_10 
ROOT
HETATM    1  C1  UNL     1       0.676 123.140 -12.236  1.00  0.00     0.189 C 
HETATM    2  C2  UNL     1       0.181 121.834 -11.763  1.00  0.00     0.061 C 
HETATM    3  C3  UNL     1      -0.716 121.735 -10.633  1.00  0.00     0.239 C 
HETATM    4  N2  UNL     1      -1.531 122.872 -10.273  1.00  0.00    -0.067 N 
HETATM    5  C8  UNL     1      -2.372 123.324 -11.373  1.00  0.00     0.238 C 
HETATM    6  C9  UNL     1      -1.648 124.013 -12.467  1.00  0.00     0.034 C 
HETATM    7  C10 UNL     1      -0.247 124.307 -12.054  1.00  0.00     0.019 C 
HETATM    8  C11 UNL     1      -0.189 124.892 -10.672  1.00  0.00     0.034 C 
HETATM    9  C12 UNL     1      -0.741 123.909  -9.701  1.00  0.00     0.238 C 
ENDROOT
BRANCH   1  10
HETATM   10  N1  UNL     1       1.957 123.514 -11.633  1.00  0.00    -0.075 N 
ATOM     11  H13 UNL     1       2.733 123.301 -12.261  1.00  0.00     0.274 HD
ATOM     12  H12 UNL     1       2.056 124.527 -11.586  1.00  0.00     0.274 HD
ATOM     13  H11 UNL     1       2.102 123.089 -10.718  1.00  0.00     0.274 HD
ENDBRANCH   1  10
BRANCH   4  14
HETATM   14  C4  UNL     1      -2.478 122.351  -9.294  1.00  0.00     0.242 C 
BRANCH  14  15
HETATM   15  C5  UNL     1      -2.208 122.855  -7.907  1.00  0.00     0.012 A 
HETATM   16  C6  UNL     1      -3.383 123.071  -6.973  1.00  0.00     0.007 A 
HETATM   17  C7  UNL     1      -2.557 121.829  -6.818  1.00  0.00     0.007 A 
ENDBRANCH  14  15
ENDBRANCH   4  14
TORSDOF 3
ENDMDL
MODEL 4
REMARK VINA RESULT: -4.192604508      2.051      4.015
REMARK  3 active torsions:
REMARK  status: ('A' for Active; 'I' for Inactive)
REMARK    1  A    between atoms: N1_1  and  C1_5 
REMARK    2  A    between atoms: N2_8  and  C4_9 
REMARK    3  A    between atoms: C4_9  and  C5_10 
ROOT
HETATM    1  C1  UNL     1       0.456 125.119 -11.511  1.00  0.00     0.189 C 
HETATM    2  C2  UNL     1       1.163 123.841 -11.715  1.00  0.00     0.061 C 
HETATM    3  C3  UNL     1       0.548 122.579 -11.366  1.00  0.00     0.239 C 
HETATM    4  N2  UNL     1      -0.891 122.485 -11.302  1.00  0.00    -0.067 N 
HETATM    5  C8  UNL     1      -1.531 122.874 -12.551  1.00  0.00     0.238 C 
HETATM    6  C9  UNL     1      -1.500 124.327 -12.840  1.00  0.00     0.034 C 
HETATM    7  C10 UNL     1      -1.037 125.082 -11.641  1.00  0.00     0.019 C 
HETATM    8  C11 UNL     1      -1.725 124.612 -10.392  1.00  0.00     0.034 C 
HETATM    9  C12 UNL     1      -1.400 123.177 -10.165  1.00  0.00     0.238 C 
ENDROOT
BRANCH   1  10
HETATM   10  N1  UNL     1       0.754 125.733 -10.215  1.00  0.00    -0.075 N 
ATOM     11  H13 UNL     1       1.053 125.030  -9.539  1.00  0.00     0.274 HD
ATOM     12  H12 UNL     1       1.606 126.290 -10.263  1.00  0.00     0.274 HD
ATOM     13  H11 UNL     1      -0.023 126.283  -9.851  1.00  0.00     0.274 HD
ENDBRANCH   1  10
BRANCH   4  14
HETATM   14  C4  UNL     1      -1.163 121.057 -11.193  1.00  0.00     0.242 C 
BRANCH  14  15
HETATM   15  C5  UNL     1       0.081 120.249 -10.966  1.00  0.00     0.012 A 
HETATM   16  C6  UNL     1       0.028 119.100  -9.977  1.00  0.00     0.007 A 
HETATM   17  C7  UNL     1      -0.053 118.795 -11.444  1.00  0.00     0.007 A 
ENDBRANCH  14  15
ENDBRANCH   4  14
TORSDOF 3
ENDMDL
MODEL 5
REMARK VINA RESULT: -4.088450941      2.348      3.548
REMARK  3 active torsions:
REMARK  status: ('A' for Active; 'I' for Inactive)
REMARK    1  A    between atoms: N1_1  and  C1_5 
REMARK    2  A    between atoms: N2_8  and  C4_9 
REMARK    3  A    between atoms: C4_9  and  C5_10 
ROOT
HETATM    1  C1  UNL     1      -0.389 123.591 -10.410  1.00  0.00     0.189 C 
HETATM    2  C2  UNL     1      -1.800 123.922 -10.134  1.00  0.00     0.061 C 
HETATM    3  C3  UNL     1      -2.464 125.011 -10.817  1.00  0.00     0.239 C 
HETATM    4  N2  UNL     1      -1.965 125.454 -12.097  1.00  0.00    -0.067 N 
HETATM    5  C8  UNL     1      -1.916 124.379 -13.078  1.00  0.00     0.238 C 
HETATM    6  C9  UNL     1      -0.847 123.378 -12.852  1.00  0.00     0.034 C 
HETATM    7  C10 UNL     1       0.096 123.858 -11.803  1.00  0.00     0.019 C 
HETATM    8  C11 UNL     1       0.487 125.291 -12.025  1.00  0.00     0.034 C 
HETATM    9  C12 UNL     1      -0.729 126.146 -11.954  1.00  0.00     0.238 C 
ENDROOT
BRANCH   1  10
HETATM   10  N1  UNL     1       0.540 124.264  -9.501  1.00  0.00    -0.075 N 
ATOM     11  H13 UNL     1       0.265 125.235  -9.349  1.00  0.00     0.274 HD
ATOM     12  H12 UNL     1       0.438 123.913  -8.549  1.00  0.00     0.274 HD
ATOM     13  H11 UNL     1       1.510 124.203  -9.810  1.00  0.00     0.274 HD
ENDBRANCH   1  10
BRANCH   4  14
HETATM   14  C4  UNL     1      -2.997 126.350 -12.604  1.00  0.00     0.242 C 
BRANCH  14  15
HETATM   15  C5  UNL     1      -2.463 127.711 -12.942  1.00  0.00     0.012 A 
HETATM   16  C6  UNL     1      -3.277 128.600 -13.863  1.00  0.00     0.007 A 
HETATM   17  C7  UNL     1      -3.330 128.850 -12.385  1.00  0.00     0.007 A 
ENDBRANCH  14  15
ENDBRANCH   4  14
TORSDOF 3
ENDMDL
