MODEL 1
REMARK VINA RESULT: -4.421794286      0.000      0.000
REMARK  3 active torsions:
REMARK  status: ('A' for Active; 'I' for Inactive)
REMARK       I    between atoms: C1_2  and  N1_3 
REMARK    1  A    between atoms: C1_2  and  C10_13 
REMARK    2  A    between atoms: N1_3  and  C2_5 
REMARK    3  A    between atoms: C2_5  and  C3_6 
ROOT
HETATM    1  C2  UNL     1      -1.742 121.974 -13.283  1.00  0.00     0.127 C 
ENDROOT
BRANCH   1   2
HETATM    2  N1  UNL     1      -0.874 120.879 -13.625  1.00  0.00    -0.360 N 
HETATM    3  C1  UNL     1      -0.856 120.404 -14.950  1.00  0.00     0.221 C 
HETATM    4  O1  UNL     1      -1.595 120.944 -15.803  1.00  0.00    -0.273 OA
ATOM      5  H1  UNL     1      -0.277 120.453 -12.916  1.00  0.00     0.162 HD
BRANCH   3   6
HETATM    6  C10 UNL     1       0.026 119.283 -15.326  1.00  0.00     0.078 A 
HETATM    7  C11 UNL     1       1.516 119.484 -15.104  1.00  0.00     0.015 A 
HETATM    8  C12 UNL     1       0.734 118.605 -14.204  1.00  0.00     0.015 A 
ENDBRANCH   3   6
ENDBRANCH   1   2
BRANCH   1   9
HETATM    9  C3  UNL     1      -0.889 123.158 -12.939  1.00  0.00     0.008 C 
HETATM   10  C4  UNL     1       0.433 122.739 -12.304  1.00  0.00     0.011 C 
HETATM   11  C5  UNL     1       0.544 123.743 -11.192  1.00  0.00    -0.014 C 
HETATM   12  C6  UNL     1       0.568 125.115 -11.815  1.00  0.00     0.005 C 
HETATM   13  C9  UNL     1      -0.900 123.705 -10.664  1.00  0.00     0.010 C 
HETATM   14  C7  UNL     1      -0.872 125.463 -12.169  1.00  0.00     0.005 C 
HETATM   15  C8  UNL     1      -1.546 124.119 -11.997  1.00  0.00    -0.009 C 
ENDBRANCH   1   9
TORSDOF 3
ENDMDL
MODEL 2
REMARK VINA RESULT: -4.410768766      3.257      6.048
REMARK  3 active torsions:
REMARK  status: ('A' for Active; 'I' for Inactive)
REMARK       I    between atoms: C1_2  and  N1_3 
REMARK    1  A    between atoms: C1_2  and  C10_13 
REMARK    2  A    between atoms: N1_3  and  C2_5 
REMARK    3  A    between atoms: C2_5  and  C3_6 
ROOT
HETATM    1  C2  UNL     1      -0.334 123.832  -9.816  1.00  0.00     0.127 C 
ENDROOT
BRANCH   1   2
HETATM    2  N1  UNL     1      -1.102 125.047  -9.868  1.00  0.00    -0.360 N 
HETATM    3  C1  UNL     1      -0.468 126.245 -10.249  1.00  0.00     0.221 C 
HETATM    4  O1  UNL     1       0.750 126.228 -10.536  1.00  0.00    -0.273 OA
ATOM      5  H1  UNL     1      -2.094 125.041  -9.632  1.00  0.00     0.162 HD
BRANCH   3   6
HETATM    6  C10 UNL     1      -1.234 127.504 -10.310  1.00  0.00     0.078 A 
HETATM    7  C11 UNL     1      -1.912 127.827 -11.631  1.00  0.00     0.015 A 
HETATM    8  C12 UNL     1      -2.708 127.365 -10.471  1.00  0.00     0.015 A 
ENDBRANCH   3   6
ENDBRANCH   1   2
BRANCH   1   9
HETATM    9  C3  UNL     1      -0.821 122.924 -10.906  1.00  0.00     0.008 C 
HETATM   10  C4  UNL     1      -0.364 121.485 -10.693  1.00  0.00     0.011 C 
HETATM   11  C5  UNL     1       0.043 121.107 -12.089  1.00  0.00    -0.014 C 
HETATM   12  C6  UNL     1      -1.170 121.242 -12.972  1.00  0.00     0.005 C 
HETATM   13  C9  UNL     1       0.816 122.376 -12.486  1.00  0.00     0.010 C 
HETATM   14  C7  UNL     1      -1.331 122.727 -13.274  1.00  0.00     0.005 C 
HETATM   15  C8  UNL     1      -0.370 123.332 -12.274  1.00  0.00    -0.009 C 
ENDBRANCH   1   9
TORSDOF 3
ENDMDL
MODEL 3
REMARK VINA RESULT: -4.330419976      3.760      6.315
REMARK  3 active torsions:
REMARK  status: ('A' for Active; 'I' for Inactive)
REMARK       I    between atoms: C1_2  and  N1_3 
REMARK    1  A    between atoms: C1_2  and  C10_13 
REMARK    2  A    between atoms: N1_3  and  C2_5 
REMARK    3  A    between atoms: C2_5  and  C3_6 
ROOT
HETATM    1  C2  UNL     1      -1.882 125.286  -9.797  1.00  0.00     0.127 C 
ENDROOT
BRANCH   1   2
HETATM    2  N1  UNL     1      -2.487 126.275 -10.649  1.00  0.00    -0.360 N 
HETATM    3  C1  UNL     1      -1.879 127.538 -10.777  1.00  0.00     0.221 C 
HETATM    4  O1  UNL     1      -0.823 127.775 -10.148  1.00  0.00    -0.273 OA
ATOM      5  H1  UNL     1      -3.347 126.063 -11.156  1.00  0.00     0.162 HD
BRANCH   3   6
HETATM    6  C10 UNL     1      -2.480 128.569 -11.644  1.00  0.00     0.078 A 
HETATM    7  C11 UNL     1      -2.341 128.363 -13.144  1.00  0.00     0.015 A 
HETATM    8  C12 UNL     1      -3.640 128.131 -12.471  1.00  0.00     0.015 A 
ENDBRANCH   3   6
ENDBRANCH   1   2
BRANCH   1   9
HETATM    9  C3  UNL     1      -1.299 124.213 -10.667  1.00  0.00     0.008 C 
HETATM   10  C4  UNL     1       0.030 123.700 -10.122  1.00  0.00     0.011 C 
HETATM   11  C5  UNL     1       0.838 123.610 -11.385  1.00  0.00    -0.014 C 
HETATM   12  C6  UNL     1       0.140 122.647 -12.309  1.00  0.00     0.005 C 
HETATM   13  C9  UNL     1       0.450 124.948 -12.037  1.00  0.00     0.010 C 
HETATM   14  C7  UNL     1      -1.018 123.407 -12.943  1.00  0.00     0.005 C 
HETATM   15  C8  UNL     1      -1.058 124.649 -12.079  1.00  0.00    -0.009 C 
ENDBRANCH   1   9
TORSDOF 3
ENDMDL
MODEL 4
REMARK VINA RESULT: -4.296164681      3.811      6.911
REMARK  3 active torsions:
REMARK  status: ('A' for Active; 'I' for Inactive)
REMARK       I    between atoms: C1_2  and  N1_3 
REMARK    1  A    between atoms: C1_2  and  C10_13 
REMARK    2  A    between atoms: N1_3  and  C2_5 
REMARK    3  A    between atoms: C2_5  and  C3_6 
ROOT
HETATM    1  C2  UNL     1       0.116 125.719 -10.731  1.00  0.00     0.127 C 
ENDROOT
BRANCH   1   2
HETATM    2  N1  UNL     1      -1.001 126.136  -9.926  1.00  0.00    -0.360 N 
HETATM    3  C1  UNL     1      -1.619 127.372 -10.194  1.00  0.00     0.221 C 
HETATM    4  O1  UNL     1      -1.185 128.082 -11.129  1.00  0.00    -0.273 OA
ATOM      5  H1  UNL     1      -1.341 125.543  -9.169  1.00  0.00     0.162 HD
BRANCH   3   6
HETATM    6  C10 UNL     1      -2.765 127.822  -9.382  1.00  0.00     0.078 A 
HETATM    7  C11 UNL     1      -2.452 128.735  -8.209  1.00  0.00     0.015 A 
HETATM    8  C12 UNL     1      -3.073 129.278  -9.439  1.00  0.00     0.015 A 
ENDBRANCH   3   6
ENDBRANCH   1   2
BRANCH   1   9
HETATM    9  C3  UNL     1       0.125 124.221 -10.778  1.00  0.00     0.008 C 
HETATM   10  C4  UNL     1       1.184 123.689 -11.739  1.00  0.00     0.011 C 
HETATM   11  C5  UNL     1       0.419 122.595 -12.427  1.00  0.00    -0.014 C 
HETATM   12  C6  UNL     1      -0.010 121.604 -11.375  1.00  0.00     0.005 C 
HETATM   13  C9  UNL     1      -0.911 123.326 -12.676  1.00  0.00     0.010 C 
HETATM   14  C7  UNL     1      -1.225 122.202 -10.678  1.00  0.00     0.005 C 
HETATM   15  C8  UNL     1      -1.185 123.625 -11.192  1.00  0.00    -0.009 C 
ENDBRANCH   1   9
TORSDOF 3
ENDMDL
MODEL 5
REMARK VINA RESULT: -4.295919535      3.886      5.877
REMARK  3 active torsions:
REMARK  status: ('A' for Active; 'I' for Inactive)
REMARK       I    between atoms: C1_2  and  N1_3 
REMARK    1  A    between atoms: C1_2  and  C10_13 
REMARK    2  A    between atoms: N1_3  and  C2_5 
REMARK    3  A    between atoms: C2_5  and  C3_6 
ROOT
HETATM    1  C2  UNL     1      -1.987 124.562  -9.488  1.00  0.00     0.127 C 
ENDROOT
BRANCH   1   2
HETATM    2  N1  UNL     1      -2.916 123.702  -8.804  1.00  0.00    -0.360 N 
HETATM    3  C1  UNL     1      -2.484 122.983  -7.674  1.00  0.00     0.221 C 
HETATM    4  O1  UNL     1      -1.300 123.107  -7.287  1.00  0.00    -0.273 OA
ATOM      5  H1  UNL     1      -3.877 123.615  -9.134  1.00  0.00     0.162 HD
BRANCH   3   6
HETATM    6  C10 UNL     1      -3.417 122.095  -6.956  1.00  0.00     0.078 A 
HETATM    7  C11 UNL     1      -3.407 120.629  -7.356  1.00  0.00     0.015 A 
HETATM    8  C12 UNL     1      -2.792 121.064  -6.080  1.00  0.00     0.015 A 
ENDBRANCH   3   6
ENDBRANCH   1   2
BRANCH   1   9
HETATM    9  C3  UNL     1      -1.339 123.771 -10.585  1.00  0.00     0.008 C 
HETATM   10  C4  UNL     1       0.158 123.593 -10.347  1.00  0.00     0.011 C 
HETATM   11  C5  UNL     1       0.694 123.841 -11.728  1.00  0.00    -0.014 C 
HETATM   12  C6  UNL     1       0.091 122.810 -12.647  1.00  0.00     0.005 C 
HETATM   13  C9  UNL     1      -0.139 125.075 -12.113  1.00  0.00     0.010 C 
HETATM   14  C7  UNL     1      -1.323 123.279 -12.965  1.00  0.00     0.005 C 
HETATM   15  C8  UNL     1      -1.501 124.380 -11.943  1.00  0.00    -0.009 C 
ENDBRANCH   1   9
TORSDOF 3
ENDMDL
