MODEL 1
REMARK VINA RESULT: -5.028468248      0.000      0.000
REMARK  10 active torsions:
REMARK  status: ('A' for Active; 'I' for Inactive)
REMARK    1  A    between atoms: C1_2  and  N1_3 
REMARK    2  A    between atoms: N1_3  and  C2_5 
REMARK    3  A    between atoms: C2_5  and  C3_6 
REMARK    4  A    between atoms: C3_6  and  C4_7 
REMARK    5  A    between atoms: C4_7  and  N2_8 
REMARK    6  A    between atoms: N3_11  and  C7_12 
REMARK    7  A    between atoms: C7_12  and  C8_13 
REMARK    8  A    between atoms: C8_13  and  C9_14 
REMARK    9  A    between atoms: C9_14  and  N4_15 
REMARK   10  A    between atoms: N4_15  and  C10_18 
ROOT
HETATM    1  N2  UNL     1      -0.126  27.828  14.052  1.00  0.00    -0.040 N 
HETATM    2  C5  UNL     1       1.002  27.167  14.629  1.00  0.00     0.267 C 
HETATM    3  C6  UNL     1       0.695  25.670  14.435  1.00  0.00     0.267 C 
HETATM    4  N3  UNL     1      -0.551  25.689  13.773  1.00  0.00    -0.040 N 
HETATM    5  C15 UNL     1      -1.545  26.156  14.730  1.00  0.00     0.267 C 
HETATM    6  C16 UNL     1      -1.282  27.637  14.895  1.00  0.00     0.267 C 
HETATM    7  C17 UNL     1      -0.425  26.924  12.957  1.00  0.00     0.473 C 
ENDROOT
BRANCH   4   8
HETATM    8  C7  UNL     1      -1.001  24.608  13.023  1.00  0.00     0.241 C 
BRANCH   8   9
HETATM    9  C8  UNL     1      -1.468  24.783  11.645  1.00  0.00     0.055 C 
BRANCH   9  10
HETATM   10  C9  UNL     1      -2.629  23.952  11.186  1.00  0.00     0.234 C 
BRANCH  10  11
HETATM   11  N4  UNL     1      -2.922  24.185   9.781  1.00  0.00    -0.071 N 
ATOM     12  H42 UNL     1      -2.245  23.731   9.169  1.00  0.00     0.277 HD
ATOM     13  H41 UNL     1      -3.757  23.685   9.477  1.00  0.00     0.277 HD
BRANCH  11  14
HETATM   14  C10 UNL     1      -3.018  25.583   9.523  1.00  0.00     0.185 C 
HETATM   15  C11 UNL     1      -4.407  26.090   9.268  1.00  0.00     0.033 C 
HETATM   16  C12 UNL     1      -4.690  25.482   7.898  1.00  0.00     0.002 C 
HETATM   17  C13 UNL     1      -3.343  25.510   7.189  1.00  0.00     0.002 C 
HETATM   18  C14 UNL     1      -2.333  25.944   8.215  1.00  0.00     0.033 C 
ENDBRANCH  11  14
ENDBRANCH  10  11
ENDBRANCH   9  10
ENDBRANCH   8   9
ENDBRANCH   4   8
BRANCH   1  19
HETATM   19  C4  UNL     1       0.089  29.169  13.629  1.00  0.00     0.241 C 
BRANCH  19  20
HETATM   20  C3  UNL     1      -0.643  29.531  12.359  1.00  0.00     0.048 C 
BRANCH  20  21
HETATM   21  C2  UNL     1      -0.993  30.998  12.475  1.00  0.00     0.123 C 
BRANCH  21  22
HETATM   22  N1  UNL     1      -1.247  31.656  11.236  1.00  0.00    -0.368 N 
ATOM     23  H1  UNL     1      -2.190  31.618  10.850  1.00  0.00     0.161 HD
BRANCH  22  24
HETATM   24  C1  UNL     1      -0.260  32.353  10.523  1.00  0.00     0.348 C 
HETATM   25  O1  UNL     1       0.063  32.073   9.364  1.00  0.00    -0.284 OA
ENDBRANCH  22  24
ENDBRANCH  21  22
ENDBRANCH  20  21
ENDBRANCH  19  20
ENDBRANCH   1  19
TORSDOF 10
ENDMDL
MODEL 2
REMARK VINA RESULT: -4.962181597      5.995      7.900
REMARK  10 active torsions:
REMARK  status: ('A' for Active; 'I' for Inactive)
REMARK    1  A    between atoms: C1_2  and  N1_3 
REMARK    2  A    between atoms: N1_3  and  C2_5 
REMARK    3  A    between atoms: C2_5  and  C3_6 
REMARK    4  A    between atoms: C3_6  and  C4_7 
REMARK    5  A    between atoms: C4_7  and  N2_8 
REMARK    6  A    between atoms: N3_11  and  C7_12 
REMARK    7  A    between atoms: C7_12  and  C8_13 
REMARK    8  A    between atoms: C8_13  and  C9_14 
REMARK    9  A    between atoms: C9_14  and  N4_15 
REMARK   10  A    between atoms: N4_15  and  C10_18 
ROOT
HETATM    1  N2  UNL     1       3.196  26.961   5.074  1.00  0.00    -0.040 N 
HETATM    2  C5  UNL     1       3.694  25.622   5.056  1.00  0.00     0.267 C 
HETATM    3  C6  UNL     1       2.422  24.754   5.039  1.00  0.00     0.267 C 
HETATM    4  N3  UNL     1       1.387  25.713   5.042  1.00  0.00    -0.040 N 
HETATM    5  C15 UNL     1       1.389  26.351   6.351  1.00  0.00     0.267 C 
HETATM    6  C16 UNL     1       2.611  27.243   6.363  1.00  0.00     0.267 C 
HETATM    7  C17 UNL     1       2.008  26.809   4.255  1.00  0.00     0.473 C 
ENDROOT
BRANCH   4   8
HETATM    8  C7  UNL     1       0.104  25.411   4.598  1.00  0.00     0.241 C 
BRANCH   8   9
HETATM    9  C8  UNL     1      -0.856  24.722   5.465  1.00  0.00     0.055 C 
BRANCH   9  10
HETATM   10  C9  UNL     1      -2.146  25.421   5.778  1.00  0.00     0.234 C 
BRANCH  10  11
HETATM   11  N4  UNL     1      -2.366  25.503   7.214  1.00  0.00    -0.071 N 
ATOM     12  H42 UNL     1      -1.526  25.269   7.743  1.00  0.00     0.277 HD
ATOM     13  H41 UNL     1      -2.477  26.467   7.528  1.00  0.00     0.277 HD
BRANCH  11  14
HETATM   14  C10 UNL     1      -3.474  24.690   7.590  1.00  0.00     0.185 C 
HETATM   15  C11 UNL     1      -4.707  25.443   7.996  1.00  0.00     0.033 C 
HETATM   16  C12 UNL     1      -4.260  26.030   9.332  1.00  0.00     0.002 C 
HETATM   17  C13 UNL     1      -3.357  24.960   9.929  1.00  0.00     0.002 C 
HETATM   18  C14 UNL     1      -3.174  23.916   8.863  1.00  0.00     0.033 C 
ENDBRANCH  11  14
ENDBRANCH  10  11
ENDBRANCH   9  10
ENDBRANCH   8   9
ENDBRANCH   4   8
BRANCH   1  19
HETATM   19  C4  UNL     1       4.085  27.962   4.592  1.00  0.00     0.241 C 
BRANCH  19  20
HETATM   20  C3  UNL     1       3.415  29.012   3.739  1.00  0.00     0.048 C 
BRANCH  20  21
HETATM   21  C2  UNL     1       4.299  29.202   2.527  1.00  0.00     0.123 C 
BRANCH  21  22
HETATM   22  N1  UNL     1       4.965  30.460   2.458  1.00  0.00    -0.368 N 
ATOM     23  H1  UNL     1       4.955  30.968   1.574  1.00  0.00     0.161 HD
BRANCH  22  24
HETATM   24  C1  UNL     1       5.634  31.032   3.551  1.00  0.00     0.348 C 
HETATM   25  O1  UNL     1       5.626  32.245   3.790  1.00  0.00    -0.284 OA
ENDBRANCH  22  24
ENDBRANCH  21  22
ENDBRANCH  20  21
ENDBRANCH  19  20
ENDBRANCH   1  19
TORSDOF 10
ENDMDL
MODEL 3
REMARK VINA RESULT: -4.878882361      5.921     10.215
REMARK  10 active torsions:
REMARK  status: ('A' for Active; 'I' for Inactive)
REMARK    1  A    between atoms: C1_2  and  N1_3 
REMARK    2  A    between atoms: N1_3  and  C2_5 
REMARK    3  A    between atoms: C2_5  and  C3_6 
REMARK    4  A    between atoms: C3_6  and  C4_7 
REMARK    5  A    between atoms: C4_7  and  N2_8 
REMARK    6  A    between atoms: N3_11  and  C7_12 
REMARK    7  A    between atoms: C7_12  and  C8_13 
REMARK    8  A    between atoms: C8_13  and  C9_14 
REMARK    9  A    between atoms: C9_14  and  N4_15 
REMARK   10  A    between atoms: N4_15  and  C10_18 
ROOT
HETATM    1  N2  UNL     1       2.884  37.861   8.888  1.00  0.00    -0.040 N 
HETATM    2  C5  UNL     1       3.991  36.987   8.661  1.00  0.00     0.267 C 
HETATM    3  C6  UNL     1       3.799  35.867   9.701  1.00  0.00     0.267 C 
HETATM    4  N3  UNL     1       2.615  36.255  10.365  1.00  0.00    -0.040 N 
HETATM    5  C15 UNL     1       2.924  37.445  11.145  1.00  0.00     0.267 C 
HETATM    6  C16 UNL     1       3.069  38.563  10.136  1.00  0.00     0.267 C 
HETATM    7  C17 UNL     1       1.863  36.898   9.257  1.00  0.00     0.473 C 
ENDROOT
BRANCH   4   8
HETATM    8  C7  UNL     1       1.835  35.343  11.068  1.00  0.00     0.241 C 
BRANCH   8   9
HETATM    9  C8  UNL     1       1.228  34.190  10.400  1.00  0.00     0.055 C 
BRANCH   9  10
HETATM   10  C9  UNL     1      -0.239  33.954  10.603  1.00  0.00     0.234 C 
BRANCH  10  11
HETATM   11  N4  UNL     1      -0.545  32.532  10.639  1.00  0.00    -0.071 N 
ATOM     12  H42 UNL     1      -1.471  32.351  11.027  1.00  0.00     0.277 HD
ATOM     13  H41 UNL     1      -0.697  32.152   9.705  1.00  0.00     0.277 HD
BRANCH  11  14
HETATM   14  C10 UNL     1       0.473  31.826  11.341  1.00  0.00     0.185 C 
HETATM   15  C11 UNL     1       0.685  30.408  10.900  1.00  0.00     0.033 C 
HETATM   16  C12 UNL     1      -0.590  29.750  11.419  1.00  0.00     0.002 C 
HETATM   17  C13 UNL     1      -0.888  30.483  12.720  1.00  0.00     0.002 C 
HETATM   18  C14 UNL     1       0.090  31.623  12.798  1.00  0.00     0.033 C 
ENDBRANCH  11  14
ENDBRANCH  10  11
ENDBRANCH   9  10
ENDBRANCH   8   9
ENDBRANCH   4   8
BRANCH   1  19
HETATM   19  C4  UNL     1       2.507  38.685   7.791  1.00  0.00     0.241 C 
BRANCH  19  20
HETATM   20  C3  UNL     1       1.414  38.094   6.934  1.00  0.00     0.048 C 
BRANCH  20  21
HETATM   21  C2  UNL     1       1.978  37.997   5.534  1.00  0.00     0.123 C 
BRANCH  21  22
HETATM   22  N1  UNL     1       1.225  38.675   4.532  1.00  0.00    -0.368 N 
ATOM     23  H1  UNL     1       0.997  38.175   3.673  1.00  0.00     0.161 HD
BRANCH  22  24
HETATM   24  C1  UNL     1       0.781  39.998   4.673  1.00  0.00     0.348 C 
HETATM   25  O1  UNL     1      -0.306  40.397   4.242  1.00  0.00    -0.284 OA
ENDBRANCH  22  24
ENDBRANCH  21  22
ENDBRANCH  20  21
ENDBRANCH  19  20
ENDBRANCH   1  19
TORSDOF 10
ENDMDL
MODEL 4
REMARK VINA RESULT: -4.859314923      5.981     10.371
REMARK  10 active torsions:
REMARK  status: ('A' for Active; 'I' for Inactive)
REMARK    1  A    between atoms: C1_2  and  N1_3 
REMARK    2  A    between atoms: N1_3  and  C2_5 
REMARK    3  A    between atoms: C2_5  and  C3_6 
REMARK    4  A    between atoms: C3_6  and  C4_7 
REMARK    5  A    between atoms: C4_7  and  N2_8 
REMARK    6  A    between atoms: N3_11  and  C7_12 
REMARK    7  A    between atoms: C7_12  and  C8_13 
REMARK    8  A    between atoms: C8_13  and  C9_14 
REMARK    9  A    between atoms: C9_14  and  N4_15 
REMARK   10  A    between atoms: N4_15  and  C10_18 
ROOT
HETATM    1  N2  UNL     1       2.880  37.860   8.712  1.00  0.00    -0.040 N 
HETATM    2  C5  UNL     1       4.103  37.194   8.391  1.00  0.00     0.267 C 
HETATM    3  C6  UNL     1       4.056  35.905   9.234  1.00  0.00     0.267 C 
HETATM    4  N3  UNL     1       2.819  36.015   9.905  1.00  0.00    -0.040 N 
HETATM    5  C15 UNL     1       2.944  37.095  10.875  1.00  0.00     0.267 C 
HETATM    6  C16 UNL     1       2.946  38.370  10.061  1.00  0.00     0.267 C 
HETATM    7  C17 UNL     1       2.000  36.720   8.886  1.00  0.00     0.473 C 
ENDROOT
BRANCH   4   8
HETATM    8  C7  UNL     1       2.165  34.904  10.427  1.00  0.00     0.241 C 
BRANCH   8   9
HETATM    9  C8  UNL     1       0.810  35.009  10.976  1.00  0.00     0.055 C 
BRANCH   9  10
HETATM   10  C9  UNL     1      -0.226  34.049  10.475  1.00  0.00     0.234 C 
BRANCH  10  11
HETATM   11  N4  UNL     1      -0.767  33.244  11.560  1.00  0.00    -0.071 N 
ATOM     12  H42 UNL     1      -0.276  33.408  12.438  1.00  0.00     0.277 HD
ATOM     13  H41 UNL     1      -1.693  33.562  11.845  1.00  0.00     0.277 HD
BRANCH  11  14
HETATM   14  C10 UNL     1      -0.766  31.866  11.200  1.00  0.00     0.185 C 
HETATM   15  C11 UNL     1      -1.025  30.913  12.330  1.00  0.00     0.033 C 
HETATM   16  C12 UNL     1       0.271  31.047  13.124  1.00  0.00     0.002 C 
HETATM   17  C13 UNL     1       1.342  31.258  12.063  1.00  0.00     0.002 C 
HETATM   18  C14 UNL     1       0.617  31.421  10.755  1.00  0.00     0.033 C 
ENDBRANCH  11  14
ENDBRANCH  10  11
ENDBRANCH   9  10
ENDBRANCH   8   9
ENDBRANCH   4   8
BRANCH   1  19
HETATM   19  C4  UNL     1       2.408  38.791   7.745  1.00  0.00     0.241 C 
BRANCH  19  20
HETATM   20  C3  UNL     1       1.299  38.252   6.874  1.00  0.00     0.048 C 
BRANCH  20  21
HETATM   21  C2  UNL     1       1.889  38.088   5.491  1.00  0.00     0.123 C 
BRANCH  21  22
HETATM   22  N1  UNL     1       1.209  38.795   4.457  1.00  0.00    -0.368 N 
ATOM     23  H1  UNL     1       1.107  38.347   3.547  1.00  0.00     0.161 HD
BRANCH  22  24
HETATM   24  C1  UNL     1       0.673  40.079   4.634  1.00  0.00     0.348 C 
HETATM   25  O1  UNL     1      -0.446  40.408   4.225  1.00  0.00    -0.284 OA
ENDBRANCH  22  24
ENDBRANCH  21  22
ENDBRANCH  20  21
ENDBRANCH  19  20
ENDBRANCH   1  19
TORSDOF 10
ENDMDL
MODEL 5
REMARK VINA RESULT: -4.824113492      1.613      2.076
REMARK  10 active torsions:
REMARK  status: ('A' for Active; 'I' for Inactive)
REMARK    1  A    between atoms: C1_2  and  N1_3 
REMARK    2  A    between atoms: N1_3  and  C2_5 
REMARK    3  A    between atoms: C2_5  and  C3_6 
REMARK    4  A    between atoms: C3_6  and  C4_7 
REMARK    5  A    between atoms: C4_7  and  N2_8 
REMARK    6  A    between atoms: N3_11  and  C7_12 
REMARK    7  A    between atoms: C7_12  and  C8_13 
REMARK    8  A    between atoms: C8_13  and  C9_14 
REMARK    9  A    between atoms: C9_14  and  N4_15 
REMARK   10  A    between atoms: N4_15  and  C10_18 
ROOT
HETATM    1  N2  UNL     1       0.102  29.171  12.028  1.00  0.00    -0.040 N 
HETATM    2  C5  UNL     1       1.515  29.000  12.149  1.00  0.00     0.267 C 
HETATM    3  C6  UNL     1       1.692  27.479  12.311  1.00  0.00     0.267 C 
HETATM    4  N3  UNL     1       0.366  27.000  12.252  1.00  0.00    -0.040 N 
HETATM    5  C15 UNL     1      -0.307  27.433  13.469  1.00  0.00     0.267 C 
HETATM    6  C16 UNL     1      -0.528  28.920  13.302  1.00  0.00     0.267 C 
HETATM    7  C17 UNL     1      -0.246  27.964  11.301  1.00  0.00     0.473 C 
ENDROOT
BRANCH   4   8
HETATM    8  C7  UNL     1       0.074  25.681  11.922  1.00  0.00     0.241 C 
BRANCH   8   9
HETATM    9  C8  UNL     1      -1.292  25.266  11.594  1.00  0.00     0.055 C 
BRANCH   9  10
HETATM   10  C9  UNL     1      -1.468  24.147  10.611  1.00  0.00     0.234 C 
BRANCH  10  11
HETATM   11  N4  UNL     1      -2.694  24.307   9.844  1.00  0.00    -0.071 N 
ATOM     12  H42 UNL     1      -2.701  23.719   9.010  1.00  0.00     0.277 HD
ATOM     13  H41 UNL     1      -3.498  23.900  10.321  1.00  0.00     0.277 HD
BRANCH  11  14
HETATM   14  C10 UNL     1      -2.902  25.680   9.527  1.00  0.00     0.185 C 
HETATM   15  C11 UNL     1      -4.326  26.060   9.248  1.00  0.00     0.033 C 
HETATM   16  C12 UNL     1      -4.550  25.374   7.903  1.00  0.00     0.002 C 
HETATM   17  C13 UNL     1      -3.205  25.483   7.198  1.00  0.00     0.002 C 
HETATM   18  C14 UNL     1      -2.240  26.041   8.207  1.00  0.00     0.033 C 
ENDBRANCH  11  14
ENDBRANCH  10  11
ENDBRANCH   9  10
ENDBRANCH   8   9
ENDBRANCH   4   8
BRANCH   1  19
HETATM   19  C4  UNL     1      -0.327  30.361  11.375  1.00  0.00     0.241 C 
BRANCH  19  20
HETATM   20  C3  UNL     1       0.775  31.373  11.171  1.00  0.00     0.048 C 
BRANCH  20  21
HETATM   21  C2  UNL     1       0.467  32.079   9.869  1.00  0.00     0.123 C 
BRANCH  21  22
HETATM   22  N1  UNL     1       0.839  33.454   9.827  1.00  0.00    -0.368 N 
ATOM     23  H1  UNL     1       1.641  33.723   9.259  1.00  0.00     0.161 HD
BRANCH  22  24
HETATM   24  C1  UNL     1       0.152  34.455  10.530  1.00  0.00     0.348 C 
HETATM   25  O1  UNL     1      -1.062  34.410  10.759  1.00  0.00    -0.284 OA
ENDBRANCH  22  24
ENDBRANCH  21  22
ENDBRANCH  20  21
ENDBRANCH  19  20
ENDBRANCH   1  19
TORSDOF 10
ENDMDL
