MODEL 1
REMARK VINA RESULT: -5.598709607      0.000      0.000
REMARK  10 active torsions:
REMARK  status: ('A' for Active; 'I' for Inactive)
REMARK    1  A    between atoms: N1_2  and  C4_5 
REMARK    2  A    between atoms: C4_5  and  C5_6 
REMARK    3  A    between atoms: C5_6  and  C6_7 
REMARK    4  A    between atoms: C6_7  and  C7_8 
REMARK    5  A    between atoms: C7_8  and  C8_9 
REMARK    6  A    between atoms: C8_9  and  C9_10 
REMARK    7  A    between atoms: C9_10  and  N2_11 
REMARK    8  A    between atoms: C15_17  and  O1_18 
REMARK    9  A    between atoms: C16_20  and  C17_21 
REMARK   10  A    between atoms: C17_21  and  O2_22 
ROOT
HETATM    1  N2  UNL     1       3.686  27.465   4.648  1.00  0.00     0.009 N 
HETATM    2  C10 UNL     1       3.219  28.371   5.738  1.00  0.00     0.265 C 
HETATM    3  C11 UNL     1       3.500  29.774   5.331  1.00  0.00     0.037 C 
HETATM    4  C12 UNL     1       4.941  29.834   4.871  1.00  0.00     0.020 C 
HETATM    5  C13 UNL     1       5.668  28.643   5.447  1.00  0.00     0.037 C 
HETATM    6  C14 UNL     1       5.106  27.357   4.858  1.00  0.00     0.265 C 
HETATM    7  C15 UNL     1       5.064  29.802   3.381  1.00  0.00     0.148 C 
HETATM    8  C16 UNL     1       4.227  28.771   2.703  1.00  0.00     0.159 C 
HETATM    9  N3  UNL     1       3.305  28.063   3.499  1.00  0.00    -0.243 N 
ATOM     10  H3  UNL     1       2.332  28.000   3.201  1.00  0.00     0.187 HD
ENDROOT
BRANCH   1  11
HETATM   11  C9  UNL     1       2.962  26.254   4.847  1.00  0.00     0.264 C 
BRANCH  11  12
HETATM   12  C8  UNL     1       1.633  26.086   4.254  1.00  0.00     0.030 C 
BRANCH  12  13
HETATM   13  C7  UNL     1       0.569  25.786   5.241  1.00  0.00     0.002 C 
BRANCH  13  14
HETATM   14  C6  UNL     1      -0.569  25.032   4.619  1.00  0.00     0.002 C 
BRANCH  14  15
HETATM   15  C5  UNL     1      -1.811  25.166   5.471  1.00  0.00     0.028 C 
BRANCH  15  16
HETATM   16  C4  UNL     1      -1.448  25.799   6.774  1.00  0.00     0.236 C 
BRANCH  16  17
HETATM   17  N1  UNL     1      -2.349  25.402   7.847  1.00  0.00    -0.079 N 
HETATM   18  C1  UNL     1      -2.218  23.979   8.107  1.00  0.00     0.271 C 
HETATM   19  C2  UNL     1      -3.741  25.644   7.493  1.00  0.00     0.271 C 
HETATM   20  C3  UNL     1      -2.050  26.198   9.025  1.00  0.00     0.271 C 
ENDBRANCH  16  17
ENDBRANCH  15  16
ENDBRANCH  14  15
ENDBRANCH  13  14
ENDBRANCH  12  13
ENDBRANCH  11  12
ENDBRANCH   1  11
BRANCH   8  21
HETATM   21  C17 UNL     1       3.393  29.530   1.649  1.00  0.00     0.193 C 
BRANCH  21  22
HETATM   22  O2  UNL     1       4.185  30.365   0.899  1.00  0.00    -0.399 OA
ATOM     23  H2  UNL     1       4.598  29.894   0.184  1.00  0.00     0.209 HD
ENDBRANCH  21  22
ENDBRANCH   8  21
BRANCH   7  24
HETATM   24  O1  UNL     1       6.416  29.519   3.092  1.00  0.00    -0.393 OA
ATOM     25  H1  UNL     1       6.594  29.886   2.234  1.00  0.00     0.210 HD
ENDBRANCH   7  24
TORSDOF 10
ENDMDL
MODEL 2
REMARK VINA RESULT: -5.370565115      4.410      5.378
REMARK  10 active torsions:
REMARK  status: ('A' for Active; 'I' for Inactive)
REMARK    1  A    between atoms: N1_2  and  C4_5 
REMARK    2  A    between atoms: C4_5  and  C5_6 
REMARK    3  A    between atoms: C5_6  and  C6_7 
REMARK    4  A    between atoms: C6_7  and  C7_8 
REMARK    5  A    between atoms: C7_8  and  C8_9 
REMARK    6  A    between atoms: C8_9  and  C9_10 
REMARK    7  A    between atoms: C9_10  and  N2_11 
REMARK    8  A    between atoms: C15_17  and  O1_18 
REMARK    9  A    between atoms: C16_20  and  C17_21 
REMARK   10  A    between atoms: C17_21  and  O2_22 
ROOT
HETATM    1  N2  UNL     1       4.128  29.767   5.288  1.00  0.00     0.009 N 
HETATM    2  C10 UNL     1       4.927  31.025   5.355  1.00  0.00     0.265 C 
HETATM    3  C11 UNL     1       5.652  31.187   4.066  1.00  0.00     0.037 C 
HETATM    4  C12 UNL     1       6.343  29.874   3.765  1.00  0.00     0.020 C 
HETATM    5  C13 UNL     1       6.463  29.101   5.056  1.00  0.00     0.037 C 
HETATM    6  C14 UNL     1       5.080  28.724   5.566  1.00  0.00     0.265 C 
HETATM    7  C15 UNL     1       5.587  29.048   2.774  1.00  0.00     0.148 C 
HETATM    8  C16 UNL     1       4.122  28.947   3.028  1.00  0.00     0.159 C 
HETATM    9  N3  UNL     1       3.586  29.754   4.051  1.00  0.00    -0.243 N 
ATOM     10  H3  UNL     1       2.774  30.338   3.854  1.00  0.00     0.187 HD
ENDROOT
BRANCH   1  11
HETATM   11  C9  UNL     1       3.115  29.928   6.277  1.00  0.00     0.264 C 
BRANCH  11  12
HETATM   12  C8  UNL     1       3.191  31.034   7.235  1.00  0.00     0.030 C 
BRANCH  12  13
HETATM   13  C7  UNL     1       1.870  31.573   7.636  1.00  0.00     0.002 C 
BRANCH  13  14
HETATM   14  C6  UNL     1       1.942  32.307   8.942  1.00  0.00     0.002 C 
BRANCH  14  15
HETATM   15  C5  UNL     1       1.258  31.508  10.027  1.00  0.00     0.028 C 
BRANCH  15  16
HETATM   16  C4  UNL     1      -0.043  32.158  10.372  1.00  0.00     0.236 C 
BRANCH  16  17
HETATM   17  N1  UNL     1      -0.253  32.237  11.811  1.00  0.00    -0.079 N 
HETATM   18  C1  UNL     1      -0.809  33.532  12.163  1.00  0.00     0.271 C 
HETATM   19  C2  UNL     1       1.000  32.098  12.541  1.00  0.00     0.271 C 
HETATM   20  C3  UNL     1      -1.121  31.145  12.215  1.00  0.00     0.271 C 
ENDBRANCH  16  17
ENDBRANCH  15  16
ENDBRANCH  14  15
ENDBRANCH  13  14
ENDBRANCH  12  13
ENDBRANCH  11  12
ENDBRANCH   1  11
BRANCH   8  21
HETATM   21  C17 UNL     1       3.435  29.396   1.720  1.00  0.00     0.193 C 
BRANCH  21  22
HETATM   22  O2  UNL     1       4.224  30.278   1.024  1.00  0.00    -0.399 OA
ATOM     23  H2  UNL     1       4.067  30.214   0.089  1.00  0.00     0.209 HD
ENDBRANCH  21  22
ENDBRANCH   8  21
BRANCH   7  24
HETATM   24  O1  UNL     1       6.126  27.745   2.837  1.00  0.00    -0.393 OA
ATOM     25  H1  UNL     1       5.715  27.315   3.577  1.00  0.00     0.210 HD
ENDBRANCH   7  24
TORSDOF 10
ENDMDL
MODEL 3
REMARK VINA RESULT: -5.334786084      4.400      5.242
REMARK  10 active torsions:
REMARK  status: ('A' for Active; 'I' for Inactive)
REMARK    1  A    between atoms: N1_2  and  C4_5 
REMARK    2  A    between atoms: C4_5  and  C5_6 
REMARK    3  A    between atoms: C5_6  and  C6_7 
REMARK    4  A    between atoms: C6_7  and  C7_8 
REMARK    5  A    between atoms: C7_8  and  C8_9 
REMARK    6  A    between atoms: C8_9  and  C9_10 
REMARK    7  A    between atoms: C9_10  and  N2_11 
REMARK    8  A    between atoms: C15_17  and  O1_18 
REMARK    9  A    between atoms: C16_20  and  C17_21 
REMARK   10  A    between atoms: C17_21  and  O2_22 
ROOT
HETATM    1  N2  UNL     1       4.120  29.820   5.296  1.00  0.00     0.009 N 
HETATM    2  C10 UNL     1       4.925  31.076   5.332  1.00  0.00     0.265 C 
HETATM    3  C11 UNL     1       5.646  31.206   4.038  1.00  0.00     0.037 C 
HETATM    4  C12 UNL     1       6.331  29.884   3.765  1.00  0.00     0.020 C 
HETATM    5  C13 UNL     1       6.452  29.138   5.072  1.00  0.00     0.037 C 
HETATM    6  C14 UNL     1       5.068  28.780   5.595  1.00  0.00     0.265 C 
HETATM    7  C15 UNL     1       5.568  29.038   2.794  1.00  0.00     0.148 C 
HETATM    8  C16 UNL     1       4.104  28.950   3.055  1.00  0.00     0.159 C 
HETATM    9  N3  UNL     1       3.574  29.781   4.061  1.00  0.00    -0.243 N 
ATOM     10  H3  UNL     1       2.764  30.365   3.853  1.00  0.00     0.187 HD
ENDROOT
BRANCH   1  11
HETATM   11  C9  UNL     1       3.111  30.007   6.284  1.00  0.00     0.264 C 
BRANCH  11  12
HETATM   12  C8  UNL     1       3.206  31.123   7.230  1.00  0.00     0.030 C 
BRANCH  12  13
HETATM   13  C7  UNL     1       1.894  31.597   7.731  1.00  0.00     0.002 C 
BRANCH  13  14
HETATM   14  C6  UNL     1       2.003  32.176   9.110  1.00  0.00     0.002 C 
BRANCH  14  15
HETATM   15  C5  UNL     1       0.655  32.152   9.795  1.00  0.00     0.028 C 
BRANCH  15  16
HETATM   16  C4  UNL     1       0.668  31.116  10.871  1.00  0.00     0.236 C 
BRANCH  16  17
HETATM   17  N1  UNL     1       0.093  31.610  12.115  1.00  0.00    -0.079 N 
HETATM   18  C1  UNL     1      -0.815  30.621  12.671  1.00  0.00     0.271 C 
HETATM   19  C2  UNL     1      -0.679  32.826  11.900  1.00  0.00     0.271 C 
HETATM   20  C3  UNL     1       1.173  31.931  13.032  1.00  0.00     0.271 C 
ENDBRANCH  16  17
ENDBRANCH  15  16
ENDBRANCH  14  15
ENDBRANCH  13  14
ENDBRANCH  12  13
ENDBRANCH  11  12
ENDBRANCH   1  11
BRANCH   8  21
HETATM   21  C17 UNL     1       3.414  29.372   1.740  1.00  0.00     0.193 C 
BRANCH  21  22
HETATM   22  O2  UNL     1       4.193  30.258   1.035  1.00  0.00    -0.399 OA
ATOM     23  H2  UNL     1       4.687  29.814   0.356  1.00  0.00     0.209 HD
ENDBRANCH  21  22
ENDBRANCH   8  21
BRANCH   7  24
HETATM   24  O1  UNL     1       6.102  27.735   2.885  1.00  0.00    -0.393 OA
ATOM     25  H1  UNL     1       5.768  27.359   3.690  1.00  0.00     0.210 HD
ENDBRANCH   7  24
TORSDOF 10
ENDMDL
MODEL 4
REMARK VINA RESULT: -5.241650372      1.301      1.620
REMARK  10 active torsions:
REMARK  status: ('A' for Active; 'I' for Inactive)
REMARK    1  A    between atoms: N1_2  and  C4_5 
REMARK    2  A    between atoms: C4_5  and  C5_6 
REMARK    3  A    between atoms: C5_6  and  C6_7 
REMARK    4  A    between atoms: C6_7  and  C7_8 
REMARK    5  A    between atoms: C7_8  and  C8_9 
REMARK    6  A    between atoms: C8_9  and  C9_10 
REMARK    7  A    between atoms: C9_10  and  N2_11 
REMARK    8  A    between atoms: C15_17  and  O1_18 
REMARK    9  A    between atoms: C16_20  and  C17_21 
REMARK   10  A    between atoms: C17_21  and  O2_22 
ROOT
HETATM    1  N2  UNL     1       3.601  28.755   5.385  1.00  0.00     0.009 N 
HETATM    2  C10 UNL     1       4.206  30.000   5.942  1.00  0.00     0.265 C 
HETATM    3  C11 UNL     1       5.015  30.644   4.873  1.00  0.00     0.037 C 
HETATM    4  C12 UNL     1       5.908  29.579   4.275  1.00  0.00     0.020 C 
HETATM    5  C13 UNL     1       6.018  28.447   5.267  1.00  0.00     0.037 C 
HETATM    6  C14 UNL     1       4.661  27.783   5.450  1.00  0.00     0.265 C 
HETATM    7  C15 UNL     1       5.370  29.043   2.986  1.00  0.00     0.148 C 
HETATM    8  C16 UNL     1       3.917  28.713   3.002  1.00  0.00     0.159 C 
HETATM    9  N3  UNL     1       3.182  29.085   4.144  1.00  0.00    -0.243 N 
ATOM     10  H3  UNL     1       2.317  29.614   4.033  1.00  0.00     0.187 HD
ENDROOT
BRANCH   1  11
HETATM   11  C9  UNL     1       2.490  28.481   6.233  1.00  0.00     0.264 C 
BRANCH  11  12
HETATM   12  C8  UNL     1       2.300  27.137   6.786  1.00  0.00     0.030 C 
BRANCH  12  13
HETATM   13  C7  UNL     1       1.034  26.489   6.367  1.00  0.00     0.002 C 
BRANCH  13  14
HETATM   14  C6  UNL     1       0.183  26.121   7.546  1.00  0.00     0.002 C 
BRANCH  14  15
HETATM   15  C5  UNL     1      -1.220  25.788   7.092  1.00  0.00     0.028 C 
BRANCH  15  16
HETATM   16  C4  UNL     1      -2.178  26.069   8.204  1.00  0.00     0.236 C 
BRANCH  16  17
HETATM   17  N1  UNL     1      -3.200  25.038   8.322  1.00  0.00    -0.079 N 
HETATM   18  C1  UNL     1      -2.892  23.927   7.438  1.00  0.00     0.271 C 
HETATM   19  C2  UNL     1      -4.511  25.541   7.934  1.00  0.00     0.271 C 
HETATM   20  C3  UNL     1      -3.282  24.621   9.711  1.00  0.00     0.271 C 
ENDBRANCH  16  17
ENDBRANCH  15  16
ENDBRANCH  14  15
ENDBRANCH  13  14
ENDBRANCH  12  13
ENDBRANCH  11  12
ENDBRANCH   1  11
BRANCH   8  21
HETATM   21  C17 UNL     1       3.296  29.486   1.819  1.00  0.00     0.193 C 
BRANCH  21  22
HETATM   22  O2  UNL     1       4.262  30.137   1.091  1.00  0.00    -0.399 OA
ATOM     23  H2  UNL     1       4.679  29.549   0.473  1.00  0.00     0.209 HD
ENDBRANCH  21  22
ENDBRANCH   8  21
BRANCH   7  24
HETATM   24  O1  UNL     1       6.079  27.854   2.714  1.00  0.00    -0.393 OA
ATOM     25  H1  UNL     1       6.133  27.778   1.769  1.00  0.00     0.210 HD
ENDBRANCH   7  24
TORSDOF 10
ENDMDL
MODEL 5
REMARK VINA RESULT: -5.110031138      6.114      9.237
REMARK  10 active torsions:
REMARK  status: ('A' for Active; 'I' for Inactive)
REMARK    1  A    between atoms: N1_2  and  C4_5 
REMARK    2  A    between atoms: C4_5  and  C5_6 
REMARK    3  A    between atoms: C5_6  and  C6_7 
REMARK    4  A    between atoms: C6_7  and  C7_8 
REMARK    5  A    between atoms: C7_8  and  C8_9 
REMARK    6  A    between atoms: C8_9  and  C9_10 
REMARK    7  A    between atoms: C9_10  and  N2_11 
REMARK    8  A    between atoms: C15_17  and  O1_18 
REMARK    9  A    between atoms: C16_20  and  C17_21 
REMARK   10  A    between atoms: C17_21  and  O2_22 
ROOT
HETATM    1  N2  UNL     1       1.307  31.682  10.440  1.00  0.00     0.009 N 
HETATM    2  C10 UNL     1       2.008  32.456  11.506  1.00  0.00     0.265 C 
HETATM    3  C11 UNL     1       1.262  32.278  12.780  1.00  0.00     0.037 C 
HETATM    4  C12 UNL     1      -0.200  32.549  12.493  1.00  0.00     0.020 C 
HETATM    5  C13 UNL     1      -0.286  33.357  11.220  1.00  0.00     0.037 C 
HETATM    6  C14 UNL     1       0.213  32.528  10.045  1.00  0.00     0.265 C 
HETATM    7  C15 UNL     1      -0.989  31.290  12.322  1.00  0.00     0.148 C 
HETATM    8  C16 UNL     1      -0.354  30.264  11.448  1.00  0.00     0.159 C 
HETATM    9  N3  UNL     1       0.966  30.509  11.017  1.00  0.00    -0.243 N 
ATOM     10  H3  UNL     1       1.675  29.788  11.144  1.00  0.00     0.187 HD
ENDROOT
BRANCH   1  11
HETATM   11  C9  UNL     1       2.294  31.476   9.434  1.00  0.00     0.264 C 
BRANCH  11  12
HETATM   12  C8  UNL     1       1.912  31.474   8.019  1.00  0.00     0.030 C 
BRANCH  12  13
HETATM   13  C7  UNL     1       2.261  30.222   7.305  1.00  0.00     0.002 C 
BRANCH  13  14
HETATM   14  C6  UNL     1       3.488  30.389   6.459  1.00  0.00     0.002 C 
BRANCH  14  15
HETATM   15  C5  UNL     1       3.390  29.527   5.222  1.00  0.00     0.028 C 
BRANCH  15  16
HETATM   16  C4  UNL     1       4.735  28.956   4.911  1.00  0.00     0.236 C 
BRANCH  16  17
HETATM   17  N1  UNL     1       5.187  29.312   3.572  1.00  0.00    -0.079 N 
HETATM   18  C1  UNL     1       6.296  28.460   3.178  1.00  0.00     0.271 C 
HETATM   19  C2  UNL     1       5.664  30.687   3.518  1.00  0.00     0.271 C 
HETATM   20  C3  UNL     1       4.064  29.199   2.658  1.00  0.00     0.271 C 
ENDBRANCH  16  17
ENDBRANCH  15  16
ENDBRANCH  14  15
ENDBRANCH  13  14
ENDBRANCH  12  13
ENDBRANCH  11  12
ENDBRANCH   1  11
BRANCH   8  21
HETATM   21  C17 UNL     1      -0.300  28.969  12.286  1.00  0.00     0.193 C 
BRANCH  21  22
HETATM   22  O2  UNL     1      -1.224  28.999  13.302  1.00  0.00    -0.399 OA
ATOM     23  H2  UNL     1      -0.825  29.274  14.120  1.00  0.00     0.209 HD
ENDBRANCH  21  22
ENDBRANCH   8  21
BRANCH   7  24
HETATM   24  O1  UNL     1      -2.217  31.658  11.732  1.00  0.00    -0.393 OA
ATOM     25  H1  UNL     1      -2.847  30.990  11.973  1.00  0.00     0.210 HD
ENDBRANCH   7  24
TORSDOF 10
ENDMDL
