MODEL 1
REMARK VINA RESULT: -6.043567337      0.000      0.000
REMARK  4 active torsions:
REMARK  status: ('A' for Active; 'I' for Inactive)
REMARK    1  A    between atoms: C1_2  and  C2_4 
REMARK    2  A    between atoms: C5_7  and  C6_8 
REMARK    3  A    between atoms: C6_8  and  N2_9 
REMARK    4  A    between atoms: N2_9  and  C7_12 
ROOT
HETATM    1  C2  UNL     1      24.044  -5.454  10.457  1.00  0.00     0.098 A 
HETATM    2  C3  UNL     1      24.564  -6.751  10.360  1.00  0.00     0.037 A 
HETATM    3  C4  UNL     1      23.869  -7.475  11.310  1.00  0.00     0.029 A 
HETATM    4  C5  UNL     1      22.975  -6.687  11.960  1.00  0.00     0.035 A 
HETATM    5  N3  UNL     1      23.090  -5.471  11.436  1.00  0.00    -0.354 N 
ATOM      6  H3  UNL     1      22.542  -4.661  11.724  1.00  0.00     0.166 HD
ENDROOT
BRANCH   4   7
HETATM    7  C6  UNL     1      22.031  -7.093  13.043  1.00  0.00     0.289 C 
BRANCH   7   8
HETATM    8  N2  UNL     1      21.313  -5.943  13.541  1.00  0.00    -0.066 N 
ATOM      9  H22 UNL     1      21.959  -5.184  13.754  1.00  0.00     0.278 HD
ATOM     10  H21 UNL     1      20.773  -5.508  12.793  1.00  0.00     0.278 HD
BRANCH   8  11
HETATM   11  C7  UNL     1      20.476  -6.220  14.667  1.00  0.00     0.186 A 
HETATM   12  C8  UNL     1      20.012  -4.937  15.404  1.00  0.00     0.035 A 
HETATM   13  C9  UNL     1      20.886  -5.994  16.054  1.00  0.00     0.035 A 
ENDBRANCH   8  11
ENDBRANCH   7   8
ENDBRANCH   4   7
BRANCH   1  14
HETATM   14  C1  UNL     1      24.435  -4.301   9.663  1.00  0.00     0.281 C 
HETATM   15  N1  UNL     1      25.166  -4.489   8.475  1.00  0.00    -0.056 NA
HETATM   16  O1  UNL     1      24.094  -3.158  10.083  1.00  0.00    -0.269 OA
ENDBRANCH   1  14
TORSDOF 4
ENDMDL
MODEL 2
REMARK VINA RESULT: -6.041784640      3.489      5.095
REMARK  4 active torsions:
REMARK  status: ('A' for Active; 'I' for Inactive)
REMARK    1  A    between atoms: C1_2  and  C2_4 
REMARK    2  A    between atoms: C5_7  and  C6_8 
REMARK    3  A    between atoms: C6_8  and  N2_9 
REMARK    4  A    between atoms: N2_9  and  C7_12 
ROOT
HETATM    1  C2  UNL     1      21.531  -3.190  10.629  1.00  0.00     0.098 A 
HETATM    2  C3  UNL     1      22.534  -2.753  11.503  1.00  0.00     0.037 A 
HETATM    3  C4  UNL     1      23.695  -3.315  11.007  1.00  0.00     0.029 A 
HETATM    4  C5  UNL     1      23.438  -4.055   9.897  1.00  0.00     0.035 A 
HETATM    5  N3  UNL     1      22.130  -3.971   9.681  1.00  0.00    -0.354 N 
ATOM      6  H3  UNL     1      21.640  -4.426   8.911  1.00  0.00     0.166 HD
ENDROOT
BRANCH   4   7
HETATM    7  C6  UNL     1      24.422  -4.808   9.066  1.00  0.00     0.289 C 
BRANCH   7   8
HETATM    8  N2  UNL     1      25.071  -5.827   9.856  1.00  0.00    -0.066 N 
ATOM      9  H22 UNL     1      25.812  -6.278   9.318  1.00  0.00     0.278 HD
ATOM     10  H21 UNL     1      25.629  -5.403  10.597  1.00  0.00     0.278 HD
BRANCH   8  11
HETATM   11  C7  UNL     1      24.179  -6.805  10.397  1.00  0.00     0.186 A 
HETATM   12  C8  UNL     1      24.871  -7.769  11.395  1.00  0.00     0.035 A 
HETATM   13  C9  UNL     1      24.259  -8.233  10.086  1.00  0.00     0.035 A 
ENDBRANCH   8  11
ENDBRANCH   7   8
ENDBRANCH   4   7
BRANCH   1  14
HETATM   14  C1  UNL     1      20.114  -2.872  10.705  1.00  0.00     0.281 C 
HETATM   15  N1  UNL     1      19.367  -2.738   9.521  1.00  0.00    -0.056 NA
HETATM   16  O1  UNL     1      19.607  -2.727  11.854  1.00  0.00    -0.269 OA
ENDBRANCH   1  14
TORSDOF 4
ENDMDL
MODEL 3
REMARK VINA RESULT: -6.040186015      2.963      5.027
REMARK  4 active torsions:
REMARK  status: ('A' for Active; 'I' for Inactive)
REMARK    1  A    between atoms: C1_2  and  C2_4 
REMARK    2  A    between atoms: C5_7  and  C6_8 
REMARK    3  A    between atoms: C6_8  and  N2_9 
REMARK    4  A    between atoms: N2_9  and  C7_12 
ROOT
HETATM    1  C2  UNL     1      21.318  -3.220  12.039  1.00  0.00     0.098 A 
HETATM    2  C3  UNL     1      22.148  -2.342  11.331  1.00  0.00     0.037 A 
HETATM    3  C4  UNL     1      23.121  -3.155  10.780  1.00  0.00     0.029 A 
HETATM    4  C5  UNL     1      22.915  -4.454  11.119  1.00  0.00     0.035 A 
HETATM    5  N3  UNL     1      21.825  -4.479  11.878  1.00  0.00    -0.354 N 
ATOM      6  H3  UNL     1      21.422  -5.322  12.285  1.00  0.00     0.166 HD
ENDROOT
BRANCH   4   7
HETATM    7  C6  UNL     1      23.735  -5.633  10.716  1.00  0.00     0.289 C 
BRANCH   7   8
HETATM    8  N2  UNL     1      23.935  -6.515  11.842  1.00  0.00    -0.066 N 
ATOM      9  H22 UNL     1      24.908  -6.491  12.145  1.00  0.00     0.278 HD
ATOM     10  H21 UNL     1      23.484  -6.138  12.675  1.00  0.00     0.278 HD
BRANCH   8  11
HETATM   11  C7  UNL     1      23.515  -7.862  11.611  1.00  0.00     0.186 A 
HETATM   12  C8  UNL     1      24.675  -8.789  11.163  1.00  0.00     0.035 A 
HETATM   13  C9  UNL     1      23.475  -8.482  10.285  1.00  0.00     0.035 A 
ENDBRANCH   8  11
ENDBRANCH   7   8
ENDBRANCH   4   7
BRANCH   1  14
HETATM   14  C1  UNL     1      20.131  -2.867  12.801  1.00  0.00     0.281 C 
HETATM   15  N1  UNL     1      18.893  -2.744  12.143  1.00  0.00    -0.056 NA
HETATM   16  O1  UNL     1      20.266  -2.682  14.044  1.00  0.00    -0.269 OA
ENDBRANCH   1  14
TORSDOF 4
ENDMDL
MODEL 4
REMARK VINA RESULT: -6.031246582      2.661      4.913
REMARK  4 active torsions:
REMARK  status: ('A' for Active; 'I' for Inactive)
REMARK    1  A    between atoms: C1_2  and  C2_4 
REMARK    2  A    between atoms: C5_7  and  C6_8 
REMARK    3  A    between atoms: C6_8  and  N2_9 
REMARK    4  A    between atoms: N2_9  and  C7_12 
ROOT
HETATM    1  C2  UNL     1      22.019  -3.738  11.547  1.00  0.00     0.098 A 
HETATM    2  C3  UNL     1      22.942  -2.729  11.243  1.00  0.00     0.037 A 
HETATM    3  C4  UNL     1      23.909  -3.361  10.484  1.00  0.00     0.029 A 
HETATM    4  C5  UNL     1      23.614  -4.677  10.323  1.00  0.00     0.035 A 
HETATM    5  N3  UNL     1      22.472  -4.891  10.968  1.00  0.00    -0.354 N 
ATOM      6  H3  UNL     1      21.999  -5.792  11.024  1.00  0.00     0.166 HD
ENDROOT
BRANCH   4   7
HETATM    7  C6  UNL     1      24.399  -5.692   9.562  1.00  0.00     0.289 C 
BRANCH   7   8
HETATM    8  N2  UNL     1      25.081  -6.583  10.471  1.00  0.00    -0.066 N 
ATOM      9  H22 UNL     1      25.827  -7.084   9.988  1.00  0.00     0.278 HD
ATOM     10  H21 UNL     1      25.636  -6.053  11.143  1.00  0.00     0.278 HD
BRANCH   8  11
HETATM   11  C7  UNL     1      24.219  -7.501  11.148  1.00  0.00     0.186 A 
HETATM   12  C8  UNL     1      24.731  -8.964  11.095  1.00  0.00     0.035 A 
HETATM   13  C9  UNL     1      23.424  -8.521  10.461  1.00  0.00     0.035 A 
ENDBRANCH   8  11
ENDBRANCH   7   8
ENDBRANCH   4   7
BRANCH   1  14
HETATM   14  C1  UNL     1      20.800  -3.594  12.326  1.00  0.00     0.281 C 
HETATM   15  N1  UNL     1      20.628  -4.356  13.496  1.00  0.00    -0.056 NA
HETATM   16  O1  UNL     1      19.933  -2.774  11.910  1.00  0.00    -0.269 OA
ENDBRANCH   1  14
TORSDOF 4
ENDMDL
MODEL 5
REMARK VINA RESULT: -6.018894973      1.569      1.646
REMARK  4 active torsions:
REMARK  status: ('A' for Active; 'I' for Inactive)
REMARK    1  A    between atoms: C1_2  and  C2_4 
REMARK    2  A    between atoms: C5_7  and  C6_8 
REMARK    3  A    between atoms: C6_8  and  N2_9 
REMARK    4  A    between atoms: N2_9  and  C7_12 
ROOT
HETATM    1  C2  UNL     1      23.088  -4.736  11.262  1.00  0.00     0.098 A 
HETATM    2  C3  UNL     1      23.728  -5.939  10.940  1.00  0.00     0.037 A 
HETATM    3  C4  UNL     1      23.158  -6.872  11.785  1.00  0.00     0.029 A 
HETATM    4  C5  UNL     1      22.224  -6.294  12.584  1.00  0.00     0.035 A 
HETATM    5  N3  UNL     1      22.192  -5.006  12.258  1.00  0.00    -0.354 N 
ATOM      6  H3  UNL     1      21.581  -4.314  12.692  1.00  0.00     0.166 HD
ENDROOT
BRANCH   4   7
HETATM    7  C6  UNL     1      21.382  -6.962  13.619  1.00  0.00     0.289 C 
BRANCH   7   8
HETATM    8  N2  UNL     1      20.752  -5.977  14.466  1.00  0.00    -0.066 N 
ATOM      9  H22 UNL     1      21.320  -5.131  14.514  1.00  0.00     0.278 HD
ATOM     10  H21 UNL     1      19.917  -5.600  14.017  1.00  0.00     0.278 HD
BRANCH   8  11
HETATM   11  C7  UNL     1      20.443  -6.448  15.781  1.00  0.00     0.186 A 
HETATM   12  C8  UNL     1      20.361  -5.308  16.828  1.00  0.00     0.035 A 
HETATM   13  C9  UNL     1      21.393  -6.419  16.895  1.00  0.00     0.035 A 
ENDBRANCH   8  11
ENDBRANCH   7   8
ENDBRANCH   4   7
BRANCH   1  14
HETATM   14  C1  UNL     1      23.322  -3.438  10.651  1.00  0.00     0.281 C 
HETATM   15  N1  UNL     1      22.419  -2.384  10.887  1.00  0.00    -0.056 NA
HETATM   16  O1  UNL     1      24.345  -3.310   9.920  1.00  0.00    -0.269 OA
ENDBRANCH   1  14
TORSDOF 4
ENDMDL
