MODEL 1
REMARK VINA RESULT: -7.219859112      0.000      0.000
REMARK  3 active torsions:
REMARK  status: ('A' for Active; 'I' for Inactive)
REMARK    1  A    between atoms: C2_2  and  C3_3 
REMARK    2  A    between atoms: C4_6  and  C5_7 
REMARK    3  A    between atoms: C9_13  and  N3_14 
REMARK       I    between atoms: N3_14  and  C10_16 
ROOT
HETATM    1  C3  UNL     1      23.572  -4.838   9.957  1.00  0.00     0.059 A 
HETATM    2  N1  UNL     1      23.738  -6.193   9.866  1.00  0.00    -0.350 N 
ATOM      3  H1  UNL     1      24.283  -6.587   9.099  1.00  0.00     0.166 HD
HETATM    4  C4  UNL     1      23.182  -7.010  10.787  1.00  0.00     0.104 A 
HETATM    5  C6  UNL     1      22.447  -6.504  11.824  1.00  0.00    -0.028 A 
HETATM    6  C7  UNL     1      21.839  -7.388  12.832  1.00  0.00     0.050 C 
HETATM    7  C8  UNL     1      22.296  -5.140  11.891  1.00  0.00     0.041 A 
HETATM    8  C9  UNL     1      22.849  -4.275  10.966  1.00  0.00     0.062 A 
ENDROOT
BRANCH   8   9
HETATM    9  N3  UNL     1      22.628  -2.883  11.024  1.00  0.00    -0.329 N 
HETATM   10  C10 UNL     1      21.282  -2.357  11.140  1.00  0.00     0.186 C 
HETATM   11  N4  UNL     1      20.510  -2.349  10.109  1.00  0.00    -0.373 N 
HETATM   12  N5  UNL     1      20.827  -1.858  12.380  1.00  0.00    -0.064 NA
ATOM     13  H42 UNL     1      20.838  -2.710   9.213  1.00  0.00     0.158 HD
ATOM     14  H41 UNL     1      19.563  -1.979  10.190  1.00  0.00     0.158 HD
ATOM     15  H3  UNL     1      23.421  -2.242  10.985  1.00  0.00     0.168 HD
ENDBRANCH   8   9
BRANCH   1  16
HETATM   16  C2  UNL     1      24.236  -4.111   8.886  1.00  0.00     0.021 C 
HETATM   17  C1  UNL     1      24.672  -4.730   7.830  1.00  0.00     0.013 C 
ENDBRANCH   1  16
BRANCH   4  18
HETATM   18  C5  UNL     1      23.412  -8.441  10.609  1.00  0.00     0.281 C 
HETATM   19  N2  UNL     1      24.528  -9.082  11.203  1.00  0.00    -0.056 NA
HETATM   20  O1  UNL     1      22.623  -9.117   9.929  1.00  0.00    -0.269 OA
ENDBRANCH   4  18
TORSDOF 3
ENDMDL
MODEL 2
REMARK VINA RESULT: -6.484133573      5.203      6.789
REMARK  3 active torsions:
REMARK  status: ('A' for Active; 'I' for Inactive)
REMARK    1  A    between atoms: C2_2  and  C3_3 
REMARK    2  A    between atoms: C4_6  and  C5_7 
REMARK    3  A    between atoms: C9_13  and  N3_14 
REMARK       I    between atoms: N3_14  and  C10_16 
ROOT
HETATM    1  C3  UNL     1      19.081  -3.144  16.058  1.00  0.00     0.059 A 
HETATM    2  N1  UNL     1      19.590  -4.099  16.895  1.00  0.00    -0.350 N 
ATOM      3  H1  UNL     1      19.626  -3.925  17.900  1.00  0.00     0.166 HD
HETATM    4  C4  UNL     1      20.046  -5.269  16.397  1.00  0.00     0.104 A 
HETATM    5  C6  UNL     1      20.007  -5.524  15.053  1.00  0.00    -0.028 A 
HETATM    6  C7  UNL     1      20.501  -6.796  14.503  1.00  0.00     0.050 C 
HETATM    7  C8  UNL     1      19.492  -4.547  14.235  1.00  0.00     0.041 A 
HETATM    8  C9  UNL     1      19.018  -3.339  14.710  1.00  0.00     0.062 A 
ENDROOT
BRANCH   8   9
HETATM    9  N3  UNL     1      18.549  -2.331  13.843  1.00  0.00    -0.329 N 
HETATM   10  C10 UNL     1      18.707  -2.466  12.407  1.00  0.00     0.186 C 
HETATM   11  N4  UNL     1      19.861  -2.270  11.871  1.00  0.00    -0.373 N 
HETATM   12  N5  UNL     1      17.594  -2.811  11.608  1.00  0.00    -0.064 NA
ATOM     13  H42 UNL     1      20.664  -2.021  12.447  1.00  0.00     0.158 HD
ATOM     14  H41 UNL     1      19.972  -2.364  10.861  1.00  0.00     0.158 HD
ATOM     15  H3  UNL     1      18.097  -1.502  14.227  1.00  0.00     0.168 HD
ENDBRANCH   8   9
BRANCH   1  16
HETATM   16  C2  UNL     1      18.637  -1.950  16.760  1.00  0.00     0.021 C 
HETATM   17  C1  UNL     1      17.448  -1.883  17.278  1.00  0.00     0.013 C 
ENDBRANCH   1  16
BRANCH   4  18
HETATM   18  C5  UNL     1      20.571  -6.227  17.366  1.00  0.00     0.281 C 
HETATM   19  N2  UNL     1      19.723  -7.173  17.993  1.00  0.00    -0.056 NA
HETATM   20  O1  UNL     1      21.779  -6.222  17.651  1.00  0.00    -0.269 OA
ENDBRANCH   4  18
TORSDOF 3
ENDMDL
MODEL 3
REMARK VINA RESULT: -6.242015445      5.100      7.338
REMARK  3 active torsions:
REMARK  status: ('A' for Active; 'I' for Inactive)
REMARK    1  A    between atoms: C2_2  and  C3_3 
REMARK    2  A    between atoms: C4_6  and  C5_7 
REMARK    3  A    between atoms: C9_13  and  N3_14 
REMARK       I    between atoms: N3_14  and  C10_16 
ROOT
HETATM    1  C3  UNL     1      19.074  -4.086  15.232  1.00  0.00     0.059 A 
HETATM    2  N1  UNL     1      19.819  -3.748  14.135  1.00  0.00    -0.350 N 
ATOM      3  H1  UNL     1      20.793  -4.046  14.072  1.00  0.00     0.166 HD
HETATM    4  C4  UNL     1      19.271  -3.024  13.136  1.00  0.00     0.104 A 
HETATM    5  C6  UNL     1      17.966  -2.614  13.198  1.00  0.00    -0.028 A 
HETATM    6  C7  UNL     1      17.361  -1.825  12.114  1.00  0.00     0.050 C 
HETATM    7  C8  UNL     1      17.242  -2.965  14.312  1.00  0.00     0.041 A 
HETATM    8  C9  UNL     1      17.771  -3.704  15.352  1.00  0.00     0.062 A 
ENDROOT
BRANCH   8   9
HETATM    9  N3  UNL     1      17.023  -4.001  16.510  1.00  0.00    -0.329 N 
HETATM   10  C10 UNL     1      16.479  -2.932  17.327  1.00  0.00     0.186 C 
HETATM   11  N4  UNL     1      17.258  -2.265  18.105  1.00  0.00    -0.373 N 
HETATM   12  N5  UNL     1      15.101  -2.632  17.262  1.00  0.00    -0.064 NA
ATOM     13  H42 UNL     1      18.254  -2.482  18.152  1.00  0.00     0.158 HD
ATOM     14  H41 UNL     1      16.877  -1.514  18.680  1.00  0.00     0.158 HD
ATOM     15  H3  UNL     1      16.863  -4.973  16.776  1.00  0.00     0.168 HD
ENDBRANCH   8   9
BRANCH   1  16
HETATM   16  C2  UNL     1      19.821  -4.865  16.208  1.00  0.00     0.021 C 
HETATM   17  C1  UNL     1      20.335  -6.016  15.891  1.00  0.00     0.013 C 
ENDBRANCH   1  16
BRANCH   4  18
HETATM   18  C5  UNL     1      20.141  -2.712  12.005  1.00  0.00     0.281 C 
HETATM   19  N2  UNL     1      21.451  -2.209  12.207  1.00  0.00    -0.056 NA
HETATM   20  O1  UNL     1      19.737  -2.886  10.845  1.00  0.00    -0.269 OA
ENDBRANCH   4  18
TORSDOF 3
ENDMDL
MODEL 4
REMARK VINA RESULT: -5.966544778      2.911      4.483
REMARK  3 active torsions:
REMARK  status: ('A' for Active; 'I' for Inactive)
REMARK    1  A    between atoms: C2_2  and  C3_3 
REMARK    2  A    between atoms: C4_6  and  C5_7 
REMARK    3  A    between atoms: C9_13  and  N3_14 
REMARK       I    between atoms: N3_14  and  C10_16 
ROOT
HETATM    1  C3  UNL     1      22.974  -7.006  11.736  1.00  0.00     0.059 A 
HETATM    2  N1  UNL     1      23.511  -6.243  10.735  1.00  0.00    -0.350 N 
ATOM      3  H1  UNL     1      24.243  -6.630  10.139  1.00  0.00     0.166 HD
HETATM    4  C4  UNL     1      23.075  -4.981  10.533  1.00  0.00     0.104 A 
HETATM    5  C6  UNL     1      22.093  -4.441  11.319  1.00  0.00    -0.028 A 
HETATM    6  C7  UNL     1      21.612  -3.067  11.104  1.00  0.00     0.050 C 
HETATM    7  C8  UNL     1      21.573  -5.229  12.317  1.00  0.00     0.041 A 
HETATM    8  C9  UNL     1      21.996  -6.523  12.553  1.00  0.00     0.062 A 
ENDROOT
BRANCH   8   9
HETATM    9  N3  UNL     1      21.487  -7.289  13.622  1.00  0.00    -0.329 N 
HETATM   10  C10 UNL     1      20.387  -6.790  14.425  1.00  0.00     0.186 C 
HETATM   11  N4  UNL     1      20.603  -5.870  15.300  1.00  0.00    -0.373 N 
HETATM   12  N5  UNL     1      19.089  -7.315  14.242  1.00  0.00    -0.064 NA
ATOM     13  H42 UNL     1      21.540  -5.490  15.433  1.00  0.00     0.158 HD
ATOM     14  H41 UNL     1      19.830  -5.519  15.865  1.00  0.00     0.158 HD
ATOM     15  H3  UNL     1      21.895  -8.200  13.832  1.00  0.00     0.168 HD
ENDBRANCH   8   9
BRANCH   1  16
HETATM   16  C2  UNL     1      23.559  -8.336  11.811  1.00  0.00     0.021 C 
HETATM   17  C1  UNL     1      24.335  -8.779  10.869  1.00  0.00     0.013 C 
ENDBRANCH   1  16
BRANCH   4  18
HETATM   18  C5  UNL     1      23.705  -4.242   9.442  1.00  0.00     0.281 C 
HETATM   19  N2  UNL     1      23.782  -4.789   8.136  1.00  0.00    -0.056 NA
HETATM   20  O1  UNL     1      24.184  -3.116   9.650  1.00  0.00    -0.269 OA
ENDBRANCH   4  18
TORSDOF 3
ENDMDL
MODEL 5
REMARK VINA RESULT: -5.845930335      1.294      3.084
REMARK  3 active torsions:
REMARK  status: ('A' for Active; 'I' for Inactive)
REMARK    1  A    between atoms: C2_2  and  C3_3 
REMARK    2  A    between atoms: C4_6  and  C5_7 
REMARK    3  A    between atoms: C9_13  and  N3_14 
REMARK       I    between atoms: N3_14  and  C10_16 
ROOT
HETATM    1  C3  UNL     1      21.727  -5.684  12.243  1.00  0.00     0.059 A 
HETATM    2  N1  UNL     1      22.326  -6.838  11.817  1.00  0.00    -0.350 N 
ATOM      3  H1  UNL     1      22.130  -7.718  12.295  1.00  0.00     0.166 HD
HETATM    4  C4  UNL     1      23.175  -6.818  10.766  1.00  0.00     0.104 A 
HETATM    5  C6  UNL     1      23.452  -5.650  10.108  1.00  0.00    -0.028 A 
HETATM    6  C7  UNL     1      24.374  -5.619   8.962  1.00  0.00     0.050 C 
HETATM    7  C8  UNL     1      22.837  -4.505  10.558  1.00  0.00     0.041 A 
HETATM    8  C9  UNL     1      21.965  -4.490  11.630  1.00  0.00     0.062 A 
ENDROOT
BRANCH   8   9
HETATM    9  N3  UNL     1      21.395  -3.293  12.108  1.00  0.00    -0.329 N 
HETATM   10  C10 UNL     1      20.316  -2.652  11.381  1.00  0.00     0.186 C 
HETATM   11  N4  UNL     1      20.573  -1.998  10.302  1.00  0.00    -0.373 N 
HETATM   12  N5  UNL     1      18.991  -2.751  11.861  1.00  0.00    -0.064 NA
ATOM     13  H42 UNL     1      21.529  -1.926   9.955  1.00  0.00     0.158 HD
ATOM     14  H41 UNL     1      19.814  -1.547   9.790  1.00  0.00     0.158 HD
ATOM     15  H3  UNL     1      21.743  -2.874  12.970  1.00  0.00     0.168 HD
ENDBRANCH   8   9
BRANCH   1  16
HETATM   16  C2  UNL     1      20.846  -5.889  13.382  1.00  0.00     0.021 C 
HETATM   17  C1  UNL     1      20.961  -6.942  14.135  1.00  0.00     0.013 C 
ENDBRANCH   1  16
BRANCH   4  18
HETATM   18  C5  UNL     1      23.766  -8.097  10.382  1.00  0.00     0.281 C 
HETATM   19  N2  UNL     1      24.689  -8.759  11.229  1.00  0.00    -0.056 NA
HETATM   20  O1  UNL     1      23.462  -8.621   9.299  1.00  0.00    -0.269 OA
ENDBRANCH   4  18
TORSDOF 3
ENDMDL
