MODEL 1
REMARK VINA RESULT: -6.662552751      0.000      0.000
REMARK  6 active torsions:
REMARK  status: ('A' for Active; 'I' for Inactive)
REMARK    1  A    between atoms: N3_4  and  C2_6 
REMARK    2  A    between atoms: C2_6  and  C3_7 
REMARK    3  A    between atoms: C5_9  and  O1_10 
REMARK    4  A    between atoms: O1_10  and  C6_11 
REMARK    5  A    between atoms: C6_11  and  C7_12 
REMARK    6  A    between atoms: C9_16  and  O2_17 
ROOT
HETATM    1  O1  UNL     1      23.502  -3.842  11.869  1.00  0.00    -0.381 OA
ENDROOT
BRANCH   1   2
HETATM    2  C5  UNL     1      23.160  -3.103  10.764  1.00  0.00     0.128 A 
HETATM    3  C3  UNL     1      21.678  -2.597  10.710  1.00  0.00     0.035 A 
HETATM    4  C4  UNL     1      22.103  -3.713   9.863  1.00  0.00     0.041 A 
BRANCH   3   5
HETATM    5  C2  UNL     1      20.933  -2.785  11.990  1.00  0.00     0.129 C 
BRANCH   5   6
HETATM    6  N3  UNL     1      19.535  -2.504  11.897  1.00  0.00    -0.366 N 
HETATM    7  C1  UNL     1      18.754  -2.517  12.932  1.00  0.00     0.196 C 
HETATM    8  N1  UNL     1      17.381  -2.247  12.878  1.00  0.00    -0.067 NA
HETATM    9  N2  UNL     1      19.332  -2.823  14.194  1.00  0.00    -0.067 NA
ATOM     10  H3  UNL     1      19.137  -2.285  10.984  1.00  0.00     0.161 HD
ENDBRANCH   5   6
ENDBRANCH   3   5
ENDBRANCH   1   2
BRANCH   1  11
HETATM   11  C6  UNL     1      24.566  -4.688  11.727  1.00  0.00     0.208 C 
BRANCH  11  12
HETATM   12  C7  UNL     1      24.199  -6.097  11.493  1.00  0.00    -0.015 A 
HETATM   13  C8  UNL     1      22.963  -6.652  11.693  1.00  0.00     0.099 A 
HETATM   14  N4  UNL     1      22.998  -7.976  11.368  1.00  0.00    -0.346 N 
HETATM   15  C9  UNL     1      24.248  -8.242  10.967  1.00  0.00     0.140 A 
ATOM     16  H4  UNL     1      22.222  -8.636  11.419  1.00  0.00     0.167 HD
HETATM   17  C10 UNL     1      25.012  -7.096  11.035  1.00  0.00     0.066 A 
BRANCH  15  18
HETATM   18  O2  UNL     1      24.700  -9.506  10.543  1.00  0.00    -0.346 OA
ATOM     19  H2  UNL     1      24.623  -9.837   9.655  1.00  0.00     0.219 HD
ENDBRANCH  15  18
ENDBRANCH  11  12
ENDBRANCH   1  11
TORSDOF 6
ENDMDL
MODEL 2
REMARK VINA RESULT: -6.584964390      2.764      4.988
REMARK  6 active torsions:
REMARK  status: ('A' for Active; 'I' for Inactive)
REMARK    1  A    between atoms: N3_4  and  C2_6 
REMARK    2  A    between atoms: C2_6  and  C3_7 
REMARK    3  A    between atoms: C5_9  and  O1_10 
REMARK    4  A    between atoms: O1_10  and  C6_11 
REMARK    5  A    between atoms: C6_11  and  C7_12 
REMARK    6  A    between atoms: C9_16  and  O2_17 
ROOT
HETATM    1  O1  UNL     1      24.937  -7.212  11.449  1.00  0.00    -0.381 OA
ENDROOT
BRANCH   1   2
HETATM    2  C5  UNL     1      24.778  -8.174  10.482  1.00  0.00     0.128 A 
HETATM    3  C3  UNL     1      23.299  -8.512  10.090  1.00  0.00     0.035 A 
HETATM    4  C4  UNL     1      24.067  -9.440  10.922  1.00  0.00     0.041 A 
BRANCH   3   5
HETATM    5  C2  UNL     1      22.297  -7.558  10.649  1.00  0.00     0.129 C 
BRANCH   5   6
HETATM    6  N3  UNL     1      21.790  -7.928  11.933  1.00  0.00    -0.366 N 
HETATM    7  C1  UNL     1      21.428  -7.051  12.815  1.00  0.00     0.196 C 
HETATM    8  N1  UNL     1      20.928  -7.378  14.082  1.00  0.00    -0.067 NA
HETATM    9  N2  UNL     1      21.547  -5.677  12.472  1.00  0.00    -0.067 NA
ATOM     10  H3  UNL     1      21.711  -8.919  12.162  1.00  0.00     0.161 HD
ENDBRANCH   5   6
ENDBRANCH   3   5
ENDBRANCH   1   2
BRANCH   1  11
HETATM   11  C6  UNL     1      25.589  -6.073  11.068  1.00  0.00     0.208 C 
BRANCH  11  12
HETATM   12  C7  UNL     1      24.707  -5.007  10.557  1.00  0.00    -0.015 A 
HETATM   13  C8  UNL     1      24.321  -4.836   9.254  1.00  0.00     0.099 A 
HETATM   14  N4  UNL     1      23.502  -3.750   9.159  1.00  0.00    -0.346 N 
HETATM   15  C9  UNL     1      23.379  -3.249  10.395  1.00  0.00     0.140 A 
ATOM     16  H4  UNL     1      23.066  -3.389   8.309  1.00  0.00     0.167 HD
HETATM   17  C10 UNL     1      24.115  -4.009  11.280  1.00  0.00     0.066 A 
BRANCH  15  18
HETATM   18  O2  UNL     1      22.610  -2.117  10.727  1.00  0.00    -0.346 OA
ATOM     19  H2  UNL     1      22.491  -1.786  11.609  1.00  0.00     0.219 HD
ENDBRANCH  15  18
ENDBRANCH  11  12
ENDBRANCH   1  11
TORSDOF 6
ENDMDL
MODEL 3
REMARK VINA RESULT: -6.547414317      1.920      2.305
REMARK  6 active torsions:
REMARK  status: ('A' for Active; 'I' for Inactive)
REMARK    1  A    between atoms: N3_4  and  C2_6 
REMARK    2  A    between atoms: C2_6  and  C3_7 
REMARK    3  A    between atoms: C5_9  and  O1_10 
REMARK    4  A    between atoms: O1_10  and  C6_11 
REMARK    5  A    between atoms: C6_11  and  C7_12 
REMARK    6  A    between atoms: C9_16  and  O2_17 
ROOT
HETATM    1  O1  UNL     1      21.966  -4.924  11.627  1.00  0.00    -0.381 OA
ENDROOT
BRANCH   1   2
HETATM    2  C5  UNL     1      22.283  -3.618  11.347  1.00  0.00     0.128 A 
HETATM    3  C3  UNL     1      21.187  -2.557  11.701  1.00  0.00     0.035 A 
HETATM    4  C4  UNL     1      21.414  -2.937  10.306  1.00  0.00     0.041 A 
BRANCH   3   5
HETATM    5  C2  UNL     1      20.065  -3.102  12.521  1.00  0.00     0.129 C 
BRANCH   5   6
HETATM    6  N3  UNL     1      18.996  -2.178  12.736  1.00  0.00    -0.366 N 
HETATM    7  C1  UNL     1      17.906  -2.203  12.035  1.00  0.00     0.196 C 
HETATM    8  N1  UNL     1      16.839  -1.313  12.217  1.00  0.00    -0.067 NA
HETATM    9  N2  UNL     1      17.791  -3.194  11.023  1.00  0.00    -0.067 NA
ATOM     10  H3  UNL     1      19.095  -1.474  13.467  1.00  0.00     0.161 HD
ENDBRANCH   5   6
ENDBRANCH   3   5
ENDBRANCH   1   2
BRANCH   1  11
HETATM   11  C6  UNL     1      22.589  -5.875  10.869  1.00  0.00     0.208 C 
BRANCH  11  12
HETATM   12  C7  UNL     1      24.059  -5.884  10.987  1.00  0.00    -0.015 A 
HETATM   13  C8  UNL     1      24.942  -5.306  10.114  1.00  0.00     0.099 A 
HETATM   14  N4  UNL     1      26.217  -5.513  10.549  1.00  0.00    -0.346 N 
HETATM   15  C9  UNL     1      26.128  -6.216  11.686  1.00  0.00     0.140 A 
ATOM     16  H4  UNL     1      27.074  -5.195  10.096  1.00  0.00     0.167 HD
HETATM   17  C10 UNL     1      24.803  -6.458  11.980  1.00  0.00     0.066 A 
BRANCH  15  18
HETATM   18  O2  UNL     1      27.230  -6.636  12.456  1.00  0.00    -0.346 OA
ATOM     19  H2  UNL     1      27.677  -6.097  13.098  1.00  0.00     0.219 HD
ENDBRANCH  15  18
ENDBRANCH  11  12
ENDBRANCH   1  11
TORSDOF 6
ENDMDL
MODEL 4
REMARK VINA RESULT: -6.460878154      2.444      4.959
REMARK  6 active torsions:
REMARK  status: ('A' for Active; 'I' for Inactive)
REMARK    1  A    between atoms: N3_4  and  C2_6 
REMARK    2  A    between atoms: C2_6  and  C3_7 
REMARK    3  A    between atoms: C5_9  and  O1_10 
REMARK    4  A    between atoms: O1_10  and  C6_11 
REMARK    5  A    between atoms: C6_11  and  C7_12 
REMARK    6  A    between atoms: C9_16  and  O2_17 
ROOT
HETATM    1  O1  UNL     1      24.712  -6.601  10.599  1.00  0.00    -0.381 OA
ENDROOT
BRANCH   1   2
HETATM    2  C5  UNL     1      24.031  -7.591   9.935  1.00  0.00     0.128 A 
HETATM    3  C3  UNL     1      22.676  -8.039  10.580  1.00  0.00     0.035 A 
HETATM    4  C4  UNL     1      23.858  -8.894  10.693  1.00  0.00     0.041 A 
BRANCH   3   5
HETATM    5  C2  UNL     1      22.210  -7.145  11.681  1.00  0.00     0.129 C 
BRANCH   5   6
HETATM    6  N3  UNL     1      21.799  -7.838  12.861  1.00  0.00    -0.366 N 
HETATM    7  C1  UNL     1      20.929  -7.346  13.688  1.00  0.00     0.196 C 
HETATM    8  N1  UNL     1      20.504  -7.998  14.853  1.00  0.00    -0.067 NA
HETATM    9  N2  UNL     1      20.378  -6.071  13.389  1.00  0.00    -0.067 NA
ATOM     10  H3  UNL     1      22.204  -8.753  13.060  1.00  0.00     0.161 HD
ENDBRANCH   5   6
ENDBRANCH   3   5
ENDBRANCH   1   2
BRANCH   1  11
HETATM   11  C6  UNL     1      24.829  -5.405   9.948  1.00  0.00     0.208 C 
BRANCH  11  12
HETATM   12  C7  UNL     1      23.729  -4.458  10.210  1.00  0.00    -0.015 A 
HETATM   13  C8  UNL     1      22.645  -4.237   9.403  1.00  0.00     0.099 A 
HETATM   14  N4  UNL     1      21.837  -3.297   9.969  1.00  0.00    -0.346 N 
HETATM   15  C9  UNL     1      22.414  -2.934  11.121  1.00  0.00     0.140 A 
ATOM     16  H4  UNL     1      20.960  -2.938   9.588  1.00  0.00     0.167 HD
HETATM   17  C10 UNL     1      23.587  -3.638  11.295  1.00  0.00     0.066 A 
BRANCH  15  18
HETATM   18  O2  UNL     1      21.891  -1.978  12.013  1.00  0.00    -0.346 OA
ATOM     19  H2  UNL     1      21.185  -1.377  11.806  1.00  0.00     0.219 HD
ENDBRANCH  15  18
ENDBRANCH  11  12
ENDBRANCH   1  11
TORSDOF 6
ENDMDL
MODEL 5
REMARK VINA RESULT: -6.393250096      2.474      6.450
REMARK  6 active torsions:
REMARK  status: ('A' for Active; 'I' for Inactive)
REMARK    1  A    between atoms: N3_4  and  C2_6 
REMARK    2  A    between atoms: C2_6  and  C3_7 
REMARK    3  A    between atoms: C5_9  and  O1_10 
REMARK    4  A    between atoms: O1_10  and  C6_11 
REMARK    5  A    between atoms: C6_11  and  C7_12 
REMARK    6  A    between atoms: C9_16  and  O2_17 
ROOT
HETATM    1  O1  UNL     1      21.512  -3.943  11.248  1.00  0.00    -0.381 OA
ENDROOT
BRANCH   1   2
HETATM    2  C5  UNL     1      21.992  -3.832   9.966  1.00  0.00     0.128 A 
HETATM    3  C3  UNL     1      23.039  -4.913   9.532  1.00  0.00     0.035 A 
HETATM    4  C4  UNL     1      23.478  -3.552   9.841  1.00  0.00     0.041 A 
BRANCH   3   5
HETATM    5  C2  UNL     1      23.166  -6.048  10.494  1.00  0.00     0.129 C 
BRANCH   5   6
HETATM    6  N3  UNL     1      24.510  -6.479  10.713  1.00  0.00    -0.366 N 
HETATM    7  C1  UNL     1      25.175  -6.163  11.781  1.00  0.00     0.196 C 
HETATM    8  N1  UNL     1      26.493  -6.568  12.029  1.00  0.00    -0.067 NA
HETATM    9  N2  UNL     1      24.522  -5.359  12.754  1.00  0.00    -0.067 NA
ATOM     10  H3  UNL     1      24.963  -7.056  10.005  1.00  0.00     0.161 HD
ENDBRANCH   5   6
ENDBRANCH   3   5
ENDBRANCH   1   2
BRANCH   1  11
HETATM   11  C6  UNL     1      21.133  -2.779  11.856  1.00  0.00     0.208 C 
BRANCH  11  12
HETATM   12  C7  UNL     1      19.742  -2.771  12.346  1.00  0.00    -0.015 A 
HETATM   13  C8  UNL     1      18.614  -2.758  11.571  1.00  0.00     0.099 A 
HETATM   14  N4  UNL     1      17.509  -2.759  12.371  1.00  0.00    -0.346 N 
HETATM   15  C9  UNL     1      17.948  -2.773  13.636  1.00  0.00     0.140 A 
ATOM     16  H4  UNL     1      16.536  -2.750  12.064  1.00  0.00     0.167 HD
HETATM   17  C10 UNL     1      19.327  -2.781  13.649  1.00  0.00     0.066 A 
BRANCH  15  18
HETATM   18  O2  UNL     1      17.116  -2.778  14.772  1.00  0.00    -0.346 OA
ATOM     19  H2  UNL     1      16.883  -3.556  15.265  1.00  0.00     0.219 HD
ENDBRANCH  15  18
ENDBRANCH  11  12
ENDBRANCH   1  11
TORSDOF 6
ENDMDL
