MODEL 1
REMARK VINA RESULT: -7.598610060      0.000      0.000
REMARK  5 active torsions:
REMARK  status: ('A' for Active; 'I' for Inactive)
REMARK    1  A    between atoms: C2_2  and  C3_3 
REMARK    2  A    between atoms: C5_5  and  C6_6 
REMARK    3  A    between atoms: C6_6  and  N1_7 
REMARK    4  A    between atoms: N1_7  and  N2_8 
REMARK       I    between atoms: N2_8  and  C7_10 
REMARK    5  A    between atoms: C10_17  and  O1_18 
ROOT
HETATM    1  C3  UNL     1      25.055  -5.578  11.121  1.00  0.00    -0.003 A 
HETATM    2  C4  UNL     1      24.535  -4.295  11.133  1.00  0.00     0.022 A 
HETATM    3  C5  UNL     1      23.176  -4.056  10.940  1.00  0.00    -0.041 A 
HETATM    4  C8  UNL     1      22.369  -5.152  10.735  1.00  0.00     0.011 A 
HETATM    5  C9  UNL     1      22.896  -6.440  10.724  1.00  0.00     0.038 A 
HETATM    6  C10 UNL     1      24.236  -6.681  10.914  1.00  0.00     0.078 A 
ENDROOT
BRANCH   3   7
HETATM    7  C6  UNL     1      22.596  -2.693  10.948  1.00  0.00     0.173 C 
BRANCH   7   8
HETATM    8  N1  UNL     1      21.786  -2.523  12.110  1.00  0.00    -0.135 NA
BRANCH   8   9
HETATM    9  N2  UNL     1      20.432  -2.360  11.818  1.00  0.00    -0.278 N 
HETATM   10  C7  UNL     1      19.407  -2.620  12.771  1.00  0.00     0.197 C 
HETATM   11  N3  UNL     1      18.242  -2.985  12.391  1.00  0.00    -0.373 N 
HETATM   12  N4  UNL     1      19.624  -2.491  14.172  1.00  0.00    -0.063 NA
ATOM     13  H32 UNL     1      18.087  -3.077  11.388  1.00  0.00     0.158 HD
ATOM     14  H31 UNL     1      17.507  -3.171  13.073  1.00  0.00     0.158 HD
ATOM     15  H2  UNL     1      20.166  -2.042  10.887  1.00  0.00     0.185 HD
ENDBRANCH   8   9
ENDBRANCH   7   8
ENDBRANCH   3   7
BRANCH   1  16
HETATM   16  C2  UNL     1      26.470  -5.840  11.322  1.00  0.00     0.004 C 
HETATM   17  C1  UNL     1      26.911  -6.376  12.434  1.00  0.00     0.012 C 
ENDBRANCH   1  16
BRANCH   6  18
HETATM   18  O1  UNL     1      24.765  -7.971  10.903  1.00  0.00    -0.355 OA
HETATM   19  C11 UNL     1      24.056  -9.101  10.512  1.00  0.00     0.210 C 
ENDBRANCH   6  18
TORSDOF 5
ENDMDL
MODEL 2
REMARK VINA RESULT: -7.429933339      0.893      2.309
REMARK  5 active torsions:
REMARK  status: ('A' for Active; 'I' for Inactive)
REMARK    1  A    between atoms: C2_2  and  C3_3 
REMARK    2  A    between atoms: C5_5  and  C6_6 
REMARK    3  A    between atoms: C6_6  and  N1_7 
REMARK    4  A    between atoms: N1_7  and  N2_8 
REMARK       I    between atoms: N2_8  and  C7_10 
REMARK    5  A    between atoms: C10_17  and  O1_18 
ROOT
HETATM    1  C3  UNL     1      23.623  -6.560  11.180  1.00  0.00    -0.003 A 
HETATM    2  C4  UNL     1      22.549  -5.711  10.978  1.00  0.00     0.022 A 
HETATM    3  C5  UNL     1      22.692  -4.326  11.042  1.00  0.00    -0.041 A 
HETATM    4  C8  UNL     1      23.948  -3.836  11.317  1.00  0.00     0.011 A 
HETATM    5  C9  UNL     1      25.025  -4.694  11.519  1.00  0.00     0.038 A 
HETATM    6  C10 UNL     1      24.889  -6.061  11.456  1.00  0.00     0.078 A 
ENDROOT
BRANCH   3   7
HETATM    7  C6  UNL     1      21.558  -3.397  10.830  1.00  0.00     0.173 C 
BRANCH   7   8
HETATM    8  N1  UNL     1      21.199  -2.787  12.070  1.00  0.00    -0.135 NA
BRANCH   8   9
HETATM    9  N2  UNL     1      19.881  -2.332  12.099  1.00  0.00    -0.278 N 
HETATM   10  C7  UNL     1      19.044  -2.485  13.239  1.00  0.00     0.197 C 
HETATM   11  N3  UNL     1      17.775  -2.573  13.109  1.00  0.00    -0.373 N 
HETATM   12  N4  UNL     1      19.568  -2.549  14.562  1.00  0.00    -0.063 NA
ATOM     13  H32 UNL     1      17.400  -2.527  12.162  1.00  0.00     0.158 HD
ATOM     14  H31 UNL     1      17.174  -2.682  13.926  1.00  0.00     0.158 HD
ATOM     15  H2  UNL     1      19.503  -1.873  11.271  1.00  0.00     0.185 HD
ENDBRANCH   8   9
ENDBRANCH   7   8
ENDBRANCH   3   7
BRANCH   1  16
HETATM   16  C2  UNL     1      23.487  -8.005  11.115  1.00  0.00     0.004 C 
HETATM   17  C1  UNL     1      23.550  -8.644   9.971  1.00  0.00     0.012 C 
ENDBRANCH   1  16
BRANCH   6  18
HETATM   18  O1  UNL     1      25.968  -6.922  11.659  1.00  0.00    -0.355 OA
HETATM   19  C11 UNL     1      27.093  -6.600  12.410  1.00  0.00     0.210 C 
ENDBRANCH   6  18
TORSDOF 5
ENDMDL
MODEL 3
REMARK VINA RESULT: -7.378841638      0.952      2.484
REMARK  5 active torsions:
REMARK  status: ('A' for Active; 'I' for Inactive)
REMARK    1  A    between atoms: C2_2  and  C3_3 
REMARK    2  A    between atoms: C5_5  and  C6_6 
REMARK    3  A    between atoms: C6_6  and  N1_7 
REMARK    4  A    between atoms: N1_7  and  N2_8 
REMARK       I    between atoms: N2_8  and  C7_10 
REMARK    5  A    between atoms: C10_17  and  O1_18 
ROOT
HETATM    1  C3  UNL     1      23.748  -6.609  10.936  1.00  0.00    -0.003 A 
HETATM    2  C4  UNL     1      22.708  -5.791  10.530  1.00  0.00     0.022 A 
HETATM    3  C5  UNL     1      22.834  -4.404  10.512  1.00  0.00    -0.041 A 
HETATM    4  C8  UNL     1      24.040  -3.877  10.916  1.00  0.00     0.011 A 
HETATM    5  C9  UNL     1      25.083  -4.704  11.323  1.00  0.00     0.038 A 
HETATM    6  C10 UNL     1      24.963  -6.073  11.343  1.00  0.00     0.078 A 
ENDROOT
BRANCH   3   7
HETATM    7  C6  UNL     1      21.735  -3.508  10.082  1.00  0.00     0.173 C 
BRANCH   7   8
HETATM    8  N1  UNL     1      21.755  -2.315  10.865  1.00  0.00    -0.135 NA
BRANCH   8   9
HETATM    9  N2  UNL     1      21.218  -2.484  12.140  1.00  0.00    -0.278 N 
HETATM   10  C7  UNL     1      19.817  -2.512  12.383  1.00  0.00     0.197 C 
HETATM   11  N3  UNL     1      19.343  -2.137  13.510  1.00  0.00    -0.373 N 
HETATM   12  N4  UNL     1      18.885  -2.949  11.398  1.00  0.00    -0.063 NA
ATOM     13  H32 UNL     1      20.010  -1.825  14.215  1.00  0.00     0.158 HD
ATOM     14  H31 UNL     1      18.338  -2.157  13.685  1.00  0.00     0.158 HD
ATOM     15  H2  UNL     1      21.855  -2.593  12.930  1.00  0.00     0.185 HD
ENDBRANCH   8   9
ENDBRANCH   7   8
ENDBRANCH   3   7
BRANCH   1  16
HETATM   16  C2  UNL     1      23.629  -8.057  10.959  1.00  0.00     0.004 C 
HETATM   17  C1  UNL     1      23.685  -8.761   9.855  1.00  0.00     0.012 C 
ENDBRANCH   1  16
BRANCH   6  18
HETATM   18  O1  UNL     1      26.008  -6.902  11.751  1.00  0.00    -0.355 OA
HETATM   19  C11 UNL     1      27.105  -6.469  12.487  1.00  0.00     0.210 C 
ENDBRANCH   6  18
TORSDOF 5
ENDMDL
MODEL 4
REMARK VINA RESULT: -7.335878862      1.578      1.898
REMARK  5 active torsions:
REMARK  status: ('A' for Active; 'I' for Inactive)
REMARK    1  A    between atoms: C2_2  and  C3_3 
REMARK    2  A    between atoms: C5_5  and  C6_6 
REMARK    3  A    between atoms: C6_6  and  N1_7 
REMARK    4  A    between atoms: N1_7  and  N2_8 
REMARK       I    between atoms: N2_8  and  C7_10 
REMARK    5  A    between atoms: C10_17  and  O1_18 
ROOT
HETATM    1  C3  UNL     1      24.990  -5.654  11.210  1.00  0.00    -0.003 A 
HETATM    2  C4  UNL     1      24.411  -4.400  11.296  1.00  0.00     0.022 A 
HETATM    3  C5  UNL     1      23.030  -4.228  11.231  1.00  0.00    -0.041 A 
HETATM    4  C8  UNL     1      22.262  -5.360  11.077  1.00  0.00     0.011 A 
HETATM    5  C9  UNL     1      22.849  -6.619  10.992  1.00  0.00     0.038 A 
HETATM    6  C10 UNL     1      24.212  -6.794  11.055  1.00  0.00     0.078 A 
ENDROOT
BRANCH   3   7
HETATM    7  C6  UNL     1      22.387  -2.897  11.320  1.00  0.00     0.173 C 
BRANCH   7   8
HETATM    8  N1  UNL     1      20.988  -3.022  11.067  1.00  0.00    -0.135 NA
BRANCH   8   9
HETATM    9  N2  UNL     1      20.607  -2.528   9.819  1.00  0.00    -0.278 N 
HETATM   10  C7  UNL     1      19.303  -2.720   9.286  1.00  0.00     0.197 C 
HETATM   11  N3  UNL     1      19.115  -2.760   8.021  1.00  0.00    -0.373 N 
HETATM   12  N4  UNL     1      18.158  -2.878  10.118  1.00  0.00    -0.063 NA
ATOM     13  H32 UNL     1      19.934  -2.646   7.425  1.00  0.00     0.158 HD
ATOM     14  H31 UNL     1      18.180  -2.897   7.638  1.00  0.00     0.158 HD
ATOM     15  H2  UNL     1      21.291  -2.009   9.269  1.00  0.00     0.185 HD
ENDBRANCH   8   9
ENDBRANCH   7   8
ENDBRANCH   3   7
BRANCH   1  16
HETATM   16  C2  UNL     1      26.429  -5.847  11.276  1.00  0.00     0.004 C 
HETATM   17  C1  UNL     1      27.002  -6.324  12.354  1.00  0.00     0.012 C 
ENDBRANCH   1  16
BRANCH   6  18
HETATM   18  O1  UNL     1      24.801  -8.055  10.969  1.00  0.00    -0.355 OA
HETATM   19  C11 UNL     1      24.124  -9.208  10.586  1.00  0.00     0.210 C 
ENDBRANCH   6  18
TORSDOF 5
ENDMDL
MODEL 5
REMARK VINA RESULT: -7.047043620      1.260      2.197
REMARK  5 active torsions:
REMARK  status: ('A' for Active; 'I' for Inactive)
REMARK    1  A    between atoms: C2_2  and  C3_3 
REMARK    2  A    between atoms: C5_5  and  C6_6 
REMARK    3  A    between atoms: C6_6  and  N1_7 
REMARK    4  A    between atoms: N1_7  and  N2_8 
REMARK       I    between atoms: N2_8  and  C7_10 
REMARK    5  A    between atoms: C10_17  and  O1_18 
ROOT
HETATM    1  C3  UNL     1      22.691  -6.265  11.532  1.00  0.00    -0.003 A 
HETATM    2  C4  UNL     1      22.131  -5.001  11.597  1.00  0.00     0.022 A 
HETATM    3  C5  UNL     1      22.683  -3.922  10.909  1.00  0.00    -0.041 A 
HETATM    4  C8  UNL     1      23.813  -4.165  10.162  1.00  0.00     0.011 A 
HETATM    5  C9  UNL     1      24.372  -5.438  10.100  1.00  0.00     0.038 A 
HETATM    6  C10 UNL     1      23.831  -6.506  10.776  1.00  0.00     0.078 A 
ENDROOT
BRANCH   3   7
HETATM    7  C6  UNL     1      22.103  -2.560  10.963  1.00  0.00     0.173 C 
BRANCH   7   8
HETATM    8  N1  UNL     1      21.442  -2.369  12.213  1.00  0.00    -0.135 NA
BRANCH   8   9
HETATM    9  N2  UNL     1      20.054  -2.301  12.097  1.00  0.00    -0.278 N 
HETATM   10  C7  UNL     1      19.178  -2.666  13.157  1.00  0.00     0.197 C 
HETATM   11  N3  UNL     1      18.004  -3.107  12.910  1.00  0.00    -0.373 N 
HETATM   12  N4  UNL     1      19.560  -2.563  14.525  1.00  0.00    -0.063 NA
ATOM     13  H32 UNL     1      17.731  -3.181  11.930  1.00  0.00     0.158 HD
ATOM     14  H31 UNL     1      17.376  -3.369  13.670  1.00  0.00     0.158 HD
ATOM     15  H2  UNL     1      19.651  -1.976  11.218  1.00  0.00     0.185 HD
ENDBRANCH   8   9
ENDBRANCH   7   8
ENDBRANCH   3   7
BRANCH   1  16
HETATM   16  C2  UNL     1      22.124  -7.398  12.244  1.00  0.00     0.004 C 
HETATM   17  C1  UNL     1      21.298  -7.226  13.247  1.00  0.00     0.012 C 
ENDBRANCH   1  16
BRANCH   6  18
HETATM   18  O1  UNL     1      24.390  -7.782  10.715  1.00  0.00    -0.355 OA
HETATM   19  C11 UNL     1      23.934  -8.794   9.878  1.00  0.00     0.210 C 
ENDBRANCH   6  18
TORSDOF 5
ENDMDL
