MODEL 1
REMARK VINA RESULT: -7.140080251      0.000      0.000
REMARK  6 active torsions:
REMARK  status: ('A' for Active; 'I' for Inactive)
REMARK       I    between atoms: C1_2  and  N2_4 
REMARK    1  A    between atoms: N2_4  and  C2_6 
REMARK    2  A    between atoms: C2_6  and  C3_7 
REMARK    3  A    between atoms: C3_7  and  N3_8 
REMARK    4  A    between atoms: N3_8  and  C4_10 
REMARK    5  A    between atoms: C4_10  and  N4_11 
REMARK    6  A    between atoms: C4_10  and  C5_15 
ROOT
HETATM    1  C4  UNL     1      23.687  -4.468   9.458  1.00  0.00     0.311 C 
ENDROOT
BRANCH   1   2
HETATM    2  N3  UNL     1      24.102  -3.433  10.356  1.00  0.00    -0.391 N 
ATOM      3  H3  UNL     1      25.052  -3.061  10.356  1.00  0.00     0.155 HD
BRANCH   2   4
HETATM    4  C3  UNL     1      23.100  -2.958  11.251  1.00  0.00     0.136 C 
BRANCH   4   5
HETATM    5  C2  UNL     1      21.760  -2.950  10.601  1.00  0.00     0.143 C 
BRANCH   5   6
HETATM    6  N2  UNL     1      20.717  -2.346  11.378  1.00  0.00    -0.344 N 
HETATM    7  C1  UNL     1      20.014  -2.968  12.412  1.00  0.00     0.328 C 
HETATM    8  N1  UNL     1      19.000  -2.275  13.115  1.00  0.00    -0.040 NA
HETATM    9  O1  UNL     1      20.267  -4.149  12.741  1.00  0.00    -0.251 OA
ATOM     10  H2  UNL     1      20.468  -1.382  11.156  1.00  0.00     0.163 HD
ENDBRANCH   5   6
ENDBRANCH   4   5
ENDBRANCH   2   4
ENDBRANCH   1   2
BRANCH   1  11
HETATM   11  N4  UNL     1      24.470  -4.325   8.244  1.00  0.00    -0.054 N 
ATOM     12  H43 UNL     1      24.983  -3.445   8.202  1.00  0.00     0.277 HD
ATOM     13  H42 UNL     1      25.276  -4.950   8.214  1.00  0.00     0.277 HD
ATOM     14  H41 UNL     1      23.834  -4.456   7.457  1.00  0.00     0.277 HD
ENDBRANCH   1  11
BRANCH   1  15
HETATM   15  C5  UNL     1      23.967  -5.827  10.004  1.00  0.00    -0.009 A 
HETATM   16  C6  UNL     1      23.127  -6.896   9.782  1.00  0.00     0.011 A 
HETATM   17  C7  UNL     1      23.370  -8.160  10.280  1.00  0.00     0.001 A 
HETATM   18  C8  UNL     1      24.503  -8.365  11.034  1.00  0.00     0.000 A 
HETATM   19  C9  UNL     1      25.359  -7.305  11.268  1.00  0.00     0.001 A 
HETATM   20  C10 UNL     1      25.096  -6.046  10.759  1.00  0.00     0.011 A 
ENDBRANCH   1  15
TORSDOF 6
ENDMDL
MODEL 2
REMARK VINA RESULT: -7.136449561      1.163      1.305
REMARK  6 active torsions:
REMARK  status: ('A' for Active; 'I' for Inactive)
REMARK       I    between atoms: C1_2  and  N2_4 
REMARK    1  A    between atoms: N2_4  and  C2_6 
REMARK    2  A    between atoms: C2_6  and  C3_7 
REMARK    3  A    between atoms: C3_7  and  N3_8 
REMARK    4  A    between atoms: N3_8  and  C4_10 
REMARK    5  A    between atoms: C4_10  and  N4_11 
REMARK    6  A    between atoms: C4_10  and  C5_15 
ROOT
HETATM    1  C4  UNL     1      24.380  -4.950  10.737  1.00  0.00     0.311 C 
ENDROOT
BRANCH   1   2
HETATM    2  N3  UNL     1      23.496  -4.226  11.599  1.00  0.00    -0.391 N 
ATOM      3  H3  UNL     1      23.166  -4.608  12.486  1.00  0.00     0.155 HD
BRANCH   2   4
HETATM    4  C3  UNL     1      23.107  -2.936  11.136  1.00  0.00     0.136 C 
BRANCH   4   5
HETATM    5  C2  UNL     1      21.750  -2.972  10.522  1.00  0.00     0.143 C 
BRANCH   5   6
HETATM    6  N2  UNL     1      20.714  -2.377  11.313  1.00  0.00    -0.344 N 
HETATM    7  C1  UNL     1      20.059  -2.990  12.384  1.00  0.00     0.328 C 
HETATM    8  N1  UNL     1      19.046  -2.306  13.098  1.00  0.00    -0.040 NA
HETATM    9  O1  UNL     1      20.354  -4.155  12.734  1.00  0.00    -0.251 OA
ATOM     10  H2  UNL     1      20.432  -1.426  11.075  1.00  0.00     0.163 HD
ENDBRANCH   5   6
ENDBRANCH   4   5
ENDBRANCH   2   4
ENDBRANCH   1   2
BRANCH   1  11
HETATM   11  N4  UNL     1      25.701  -4.906  11.339  1.00  0.00    -0.054 N 
ATOM     12  H43 UNL     1      26.453  -4.943  10.651  1.00  0.00     0.277 HD
ATOM     13  H42 UNL     1      25.928  -3.995  11.736  1.00  0.00     0.277 HD
ATOM     14  H41 UNL     1      25.748  -5.662  12.022  1.00  0.00     0.277 HD
ENDBRANCH   1  11
BRANCH   1  15
HETATM   15  C5  UNL     1      23.997  -6.387  10.623  1.00  0.00    -0.009 A 
HETATM   16  C6  UNL     1      22.717  -6.782  10.301  1.00  0.00     0.011 A 
HETATM   17  C7  UNL     1      22.345  -8.107  10.191  1.00  0.00     0.001 A 
HETATM   18  C8  UNL     1      23.294  -9.080  10.413  1.00  0.00     0.000 A 
HETATM   19  C9  UNL     1      24.585  -8.702  10.736  1.00  0.00     0.001 A 
HETATM   20  C10 UNL     1      24.936  -7.368  10.840  1.00  0.00     0.011 A 
ENDBRANCH   1  15
TORSDOF 6
ENDMDL
MODEL 3
REMARK VINA RESULT: -7.134363929      1.170      1.701
REMARK  6 active torsions:
REMARK  status: ('A' for Active; 'I' for Inactive)
REMARK       I    between atoms: C1_2  and  N2_4 
REMARK    1  A    between atoms: N2_4  and  C2_6 
REMARK    2  A    between atoms: C2_6  and  C3_7 
REMARK    3  A    between atoms: C3_7  and  N3_8 
REMARK    4  A    between atoms: N3_8  and  C4_10 
REMARK    5  A    between atoms: C4_10  and  N4_11 
REMARK    6  A    between atoms: C4_10  and  C5_15 
ROOT
HETATM    1  C4  UNL     1      24.420  -4.978  10.735  1.00  0.00     0.311 C 
ENDROOT
BRANCH   1   2
HETATM    2  N3  UNL     1      23.560  -4.245  11.614  1.00  0.00    -0.391 N 
ATOM      3  H3  UNL     1      23.241  -4.625  12.505  1.00  0.00     0.155 HD
BRANCH   2   4
HETATM    4  C3  UNL     1      23.181  -2.948  11.161  1.00  0.00     0.136 C 
BRANCH   4   5
HETATM    5  C2  UNL     1      21.831  -2.971  10.534  1.00  0.00     0.143 C 
BRANCH   5   6
HETATM    6  N2  UNL     1      20.789  -2.380  11.323  1.00  0.00    -0.344 N 
HETATM    7  C1  UNL     1      20.119  -3.004  12.378  1.00  0.00     0.328 C 
HETATM    8  N1  UNL     1      19.103  -2.324  13.091  1.00  0.00    -0.040 NA
HETATM    9  O1  UNL     1      20.403  -4.176  12.715  1.00  0.00    -0.251 OA
ATOM     10  H2  UNL     1      20.516  -1.424  11.095  1.00  0.00     0.163 HD
ENDBRANCH   5   6
ENDBRANCH   4   5
ENDBRANCH   2   4
ENDBRANCH   1   2
BRANCH   1  11
HETATM   11  N4  UNL     1      25.752  -4.949  11.310  1.00  0.00    -0.054 N 
ATOM     12  H43 UNL     1      26.222  -5.854  11.273  1.00  0.00     0.277 HD
ATOM     13  H42 UNL     1      26.421  -4.429  10.742  1.00  0.00     0.277 HD
ATOM     14  H41 UNL     1      25.665  -4.584  12.259  1.00  0.00     0.277 HD
ENDBRANCH   1  11
BRANCH   1  15
HETATM   15  C5  UNL     1      24.018  -6.410  10.628  1.00  0.00    -0.009 A 
HETATM   16  C6  UNL     1      24.907  -7.441  10.840  1.00  0.00     0.011 A 
HETATM   17  C7  UNL     1      24.552  -8.771  10.744  1.00  0.00     0.001 A 
HETATM   18  C8  UNL     1      23.251  -9.086  10.422  1.00  0.00     0.000 A 
HETATM   19  C9  UNL     1      22.343  -8.066  10.206  1.00  0.00     0.001 A 
HETATM   20  C10 UNL     1      22.720  -6.738  10.307  1.00  0.00     0.011 A 
ENDBRANCH   1  15
TORSDOF 6
ENDMDL
MODEL 4
REMARK VINA RESULT: -7.119777966      0.141      1.226
REMARK  6 active torsions:
REMARK  status: ('A' for Active; 'I' for Inactive)
REMARK       I    between atoms: C1_2  and  N2_4 
REMARK    1  A    between atoms: N2_4  and  C2_6 
REMARK    2  A    between atoms: C2_6  and  C3_7 
REMARK    3  A    between atoms: C3_7  and  N3_8 
REMARK    4  A    between atoms: N3_8  and  C4_10 
REMARK    5  A    between atoms: C4_10  and  N4_11 
REMARK    6  A    between atoms: C4_10  and  C5_15 
ROOT
HETATM    1  C4  UNL     1      23.631  -4.443   9.413  1.00  0.00     0.311 C 
ENDROOT
BRANCH   1   2
HETATM    2  N3  UNL     1      24.073  -3.399  10.287  1.00  0.00    -0.391 N 
ATOM      3  H3  UNL     1      25.013  -3.007  10.234  1.00  0.00     0.155 HD
BRANCH   2   4
HETATM    4  C3  UNL     1      23.112  -2.944  11.235  1.00  0.00     0.136 C 
BRANCH   4   5
HETATM    5  C2  UNL     1      21.744  -2.924  10.646  1.00  0.00     0.143 C 
BRANCH   5   6
HETATM    6  N2  UNL     1      20.740  -2.322  11.474  1.00  0.00    -0.344 N 
HETATM    7  C1  UNL     1      20.032  -2.970  12.489  1.00  0.00     0.328 C 
HETATM    8  N1  UNL     1      19.058  -2.276  13.247  1.00  0.00    -0.040 NA
HETATM    9  O1  UNL     1      20.244  -4.176  12.750  1.00  0.00    -0.251 OA
ATOM     10  H2  UNL     1      20.525  -1.339  11.308  1.00  0.00     0.163 HD
ENDBRANCH   5   6
ENDBRANCH   4   5
ENDBRANCH   2   4
ENDBRANCH   1   2
BRANCH   1  11
HETATM   11  N4  UNL     1      24.419  -4.352   8.198  1.00  0.00    -0.054 N 
ATOM     12  H43 UNL     1      24.504  -3.398   7.848  1.00  0.00     0.277 HD
ATOM     13  H42 UNL     1      25.412  -4.526   8.353  1.00  0.00     0.277 HD
ATOM     14  H41 UNL     1      24.003  -4.991   7.519  1.00  0.00     0.277 HD
ENDBRANCH   1  11
BRANCH   1  15
HETATM   15  C5  UNL     1      23.872  -5.796   9.993  1.00  0.00    -0.009 A 
HETATM   16  C6  UNL     1      25.035  -6.113  10.660  1.00  0.00     0.011 A 
HETATM   17  C7  UNL     1      25.274  -7.360  11.203  1.00  0.00     0.001 A 
HETATM   18  C8  UNL     1      24.309  -8.333  11.072  1.00  0.00     0.000 A 
HETATM   19  C9  UNL     1      23.135  -8.034  10.407  1.00  0.00     0.001 A 
HETATM   20  C10 UNL     1      22.915  -6.778   9.871  1.00  0.00     0.011 A 
ENDBRANCH   1  15
TORSDOF 6
ENDMDL
MODEL 5
REMARK VINA RESULT: -7.118976864      0.824      1.582
REMARK  6 active torsions:
REMARK  status: ('A' for Active; 'I' for Inactive)
REMARK       I    between atoms: C1_2  and  N2_4 
REMARK    1  A    between atoms: N2_4  and  C2_6 
REMARK    2  A    between atoms: C2_6  and  C3_7 
REMARK    3  A    between atoms: C3_7  and  N3_8 
REMARK    4  A    between atoms: N3_8  and  C4_10 
REMARK    5  A    between atoms: C4_10  and  N4_11 
REMARK    6  A    between atoms: C4_10  and  C5_15 
ROOT
HETATM    1  C4  UNL     1      23.849  -4.703   8.875  1.00  0.00     0.311 C 
ENDROOT
BRANCH   1   2
HETATM    2  N3  UNL     1      23.380  -3.480   9.453  1.00  0.00    -0.391 N 
ATOM      3  H3  UNL     1      23.936  -2.625   9.442  1.00  0.00     0.155 HD
BRANCH   2   4
HETATM    4  C3  UNL     1      22.085  -3.538  10.045  1.00  0.00     0.136 C 
BRANCH   4   5
HETATM    5  C2  UNL     1      22.048  -2.787  11.330  1.00  0.00     0.143 C 
BRANCH   5   6
HETATM    6  N2  UNL     1      20.758  -2.280  11.695  1.00  0.00    -0.344 N 
HETATM    7  C1  UNL     1      19.821  -2.944  12.489  1.00  0.00     0.328 C 
HETATM    8  N1  UNL     1      18.573  -2.347  12.788  1.00  0.00    -0.040 NA
HETATM    9  O1  UNL     1      20.065  -4.081  12.955  1.00  0.00    -0.251 OA
ATOM     10  H2  UNL     1      20.503  -1.356  11.346  1.00  0.00     0.163 HD
ENDBRANCH   5   6
ENDBRANCH   4   5
ENDBRANCH   2   4
ENDBRANCH   1   2
BRANCH   1  11
HETATM   11  N4  UNL     1      24.836  -4.354   7.869  1.00  0.00    -0.054 N 
ATOM     12  H43 UNL     1      24.542  -3.579   7.274  1.00  0.00     0.277 HD
ATOM     13  H42 UNL     1      25.667  -3.911   8.262  1.00  0.00     0.277 HD
ATOM     14  H41 UNL     1      25.046  -5.203   7.343  1.00  0.00     0.277 HD
ENDBRANCH   1  11
BRANCH   1  15
HETATM   15  C5  UNL     1      24.532  -5.570   9.878  1.00  0.00    -0.009 A 
HETATM   16  C6  UNL     1      25.576  -5.115  10.653  1.00  0.00     0.011 A 
HETATM   17  C7  UNL     1      26.219  -5.903  11.585  1.00  0.00     0.001 A 
HETATM   18  C8  UNL     1      25.801  -7.204  11.751  1.00  0.00     0.000 A 
HETATM   19  C9  UNL     1      24.754  -7.679  10.983  1.00  0.00     0.001 A 
HETATM   20  C10 UNL     1      24.123  -6.872  10.054  1.00  0.00     0.011 A 
ENDBRANCH   1  15
TORSDOF 6
ENDMDL
