MODEL 1
REMARK VINA RESULT: -6.762850709      0.000      0.000
REMARK  5 active torsions:
REMARK  status: ('A' for Active; 'I' for Inactive)
REMARK       I    between atoms: C1_4  and  N3_6 
REMARK    1  A    between atoms: N3_6  and  C2_8 
REMARK    2  A    between atoms: C2_8  and  C3_9 
REMARK    3  A    between atoms: C3_9  and  N4_10 
REMARK    4  A    between atoms: N4_10  and  C4_13 
REMARK    5  A    between atoms: C4_13  and  C5_14 
ROOT
HETATM    1  N4  UNL     1      25.024  -4.636  10.207  1.00  0.00    -0.073 N 
ATOM      2  H41 UNL     1      24.383  -4.411  10.968  1.00  0.00     0.277 HD
ATOM      3  H42 UNL     1      25.551  -3.763  10.166  1.00  0.00     0.277 HD
ENDROOT
BRANCH   1   4
HETATM    4  C3  UNL     1      24.311  -4.853   8.994  1.00  0.00     0.251 C 
BRANCH   4   5
HETATM    5  C2  UNL     1      22.903  -4.282   9.171  1.00  0.00     0.150 C 
BRANCH   5   6
HETATM    6  N3  UNL     1      22.820  -3.201  10.095  1.00  0.00    -0.363 N 
HETATM    7  C1  UNL     1      21.606  -2.731  10.659  1.00  0.00     0.181 C 
HETATM    8  N1  UNL     1      20.510  -2.590  10.045  1.00  0.00    -0.374 N 
HETATM    9  N2  UNL     1      21.596  -2.364  12.067  1.00  0.00    -0.064 NA
ATOM     10  H12 UNL     1      19.637  -2.253  10.451  1.00  0.00     0.158 HD
ATOM     11  H11 UNL     1      20.517  -2.847   9.057  1.00  0.00     0.158 HD
ATOM     12  H3  UNL     1      23.686  -2.736  10.367  1.00  0.00     0.162 HD
ENDBRANCH   5   6
ENDBRANCH   4   5
ENDBRANCH   1   4
BRANCH   1  13
HETATM   13  C4  UNL     1      25.870  -5.721  10.564  1.00  0.00     0.239 C 
BRANCH  13  14
HETATM   14  C5  UNL     1      25.141  -6.673  11.499  1.00  0.00     0.035 C 
HETATM   15  C6  UNL     1      24.375  -7.705  10.665  1.00  0.00     0.010 C 
HETATM   16  C7  UNL     1      23.165  -8.119  11.450  1.00  0.00     0.027 C 
HETATM   17  C8  UNL     1      22.291  -6.936  11.701  1.00  0.00     0.167 C 
HETATM   18  O1  UNL     1      22.958  -5.773  11.950  1.00  0.00    -0.391 OA
HETATM   19  C9  UNL     1      24.236  -5.958  12.462  1.00  0.00     0.173 C 
ENDBRANCH  13  14
ENDBRANCH   1  13
TORSDOF 5
ENDMDL
MODEL 2
REMARK VINA RESULT: -6.566530010      1.153      1.209
REMARK  5 active torsions:
REMARK  status: ('A' for Active; 'I' for Inactive)
REMARK       I    between atoms: C1_4  and  N3_6 
REMARK    1  A    between atoms: N3_6  and  C2_8 
REMARK    2  A    between atoms: C2_8  and  C3_9 
REMARK    3  A    between atoms: C3_9  and  N4_10 
REMARK    4  A    between atoms: N4_10  and  C4_13 
REMARK    5  A    between atoms: C4_13  and  C5_14 
ROOT
HETATM    1  N4  UNL     1      24.541  -5.253   9.379  1.00  0.00    -0.073 N 
ATOM      2  H41 UNL     1      25.263  -5.000   8.703  1.00  0.00     0.277 HD
ATOM      3  H42 UNL     1      24.211  -6.121   8.956  1.00  0.00     0.277 HD
ENDROOT
BRANCH   1   4
HETATM    4  C3  UNL     1      23.506  -4.276   9.401  1.00  0.00     0.251 C 
BRANCH   4   5
HETATM    5  C2  UNL     1      23.887  -3.215  10.435  1.00  0.00     0.150 C 
BRANCH   5   6
HETATM    6  N3  UNL     1      22.895  -2.985  11.432  1.00  0.00    -0.363 N 
HETATM    7  C1  UNL     1      21.501  -2.937  11.169  1.00  0.00     0.181 C 
HETATM    8  N1  UNL     1      20.956  -2.382  10.172  1.00  0.00    -0.374 N 
HETATM    9  N2  UNL     1      20.598  -3.567  12.118  1.00  0.00    -0.064 NA
ATOM     10  H12 UNL     1      19.954  -2.347   9.983  1.00  0.00     0.158 HD
ATOM     11  H11 UNL     1      21.589  -1.939   9.506  1.00  0.00     0.158 HD
ATOM     12  H3  UNL     1      23.205  -2.847  12.393  1.00  0.00     0.162 HD
ENDBRANCH   5   6
ENDBRANCH   4   5
ENDBRANCH   1   4
BRANCH   1  13
HETATM   13  C4  UNL     1      25.111  -5.499  10.658  1.00  0.00     0.239 C 
BRANCH  13  14
HETATM   14  C5  UNL     1      24.568  -6.797  11.235  1.00  0.00     0.035 C 
HETATM   15  C6  UNL     1      24.476  -7.842  10.120  1.00  0.00     0.010 C 
HETATM   16  C7  UNL     1      23.345  -8.770  10.455  1.00  0.00     0.027 C 
HETATM   17  C8  UNL     1      22.065  -8.007  10.526  1.00  0.00     0.167 C 
HETATM   18  O1  UNL     1      22.170  -6.760  11.069  1.00  0.00    -0.391 OA
HETATM   19  C9  UNL     1      23.249  -6.614  11.931  1.00  0.00     0.173 C 
ENDBRANCH  13  14
ENDBRANCH   1  13
TORSDOF 5
ENDMDL
MODEL 3
REMARK VINA RESULT: -6.486956387      1.779      2.437
REMARK  5 active torsions:
REMARK  status: ('A' for Active; 'I' for Inactive)
REMARK       I    between atoms: C1_4  and  N3_6 
REMARK    1  A    between atoms: N3_6  and  C2_8 
REMARK    2  A    between atoms: C2_8  and  C3_9 
REMARK    3  A    between atoms: C3_9  and  N4_10 
REMARK    4  A    between atoms: N4_10  and  C4_13 
REMARK    5  A    between atoms: C4_13  and  C5_14 
ROOT
HETATM    1  N4  UNL     1      22.836  -4.565  10.893  1.00  0.00    -0.073 N 
ATOM      2  H41 UNL     1      22.760  -4.869   9.922  1.00  0.00     0.277 HD
ATOM      3  H42 UNL     1      22.030  -5.052  11.286  1.00  0.00     0.277 HD
ENDROOT
BRANCH   1   4
HETATM    4  C3  UNL     1      22.673  -3.154  10.995  1.00  0.00     0.251 C 
BRANCH   4   5
HETATM    5  C2  UNL     1      21.174  -2.854  10.977  1.00  0.00     0.150 C 
BRANCH   5   6
HETATM    6  N3  UNL     1      20.689  -2.216  12.155  1.00  0.00    -0.363 N 
HETATM    7  C1  UNL     1      19.494  -2.588  12.824  1.00  0.00     0.181 C 
HETATM    8  N1  UNL     1      18.402  -2.901  12.269  1.00  0.00    -0.374 N 
HETATM    9  N2  UNL     1      19.496  -2.611  14.278  1.00  0.00    -0.064 NA
ATOM     10  H12 UNL     1      17.543  -3.169  12.749  1.00  0.00     0.158 HD
ATOM     11  H11 UNL     1      18.400  -2.885  11.249  1.00  0.00     0.158 HD
ATOM     12  H3  UNL     1      21.234  -1.446  12.541  1.00  0.00     0.162 HD
ENDBRANCH   5   6
ENDBRANCH   4   5
ENDBRANCH   1   4
BRANCH   1  13
HETATM   13  C4  UNL     1      24.044  -5.036  11.476  1.00  0.00     0.239 C 
BRANCH  13  14
HETATM   14  C5  UNL     1      23.929  -6.517  11.803  1.00  0.00     0.035 C 
HETATM   15  C6  UNL     1      24.678  -7.324  10.739  1.00  0.00     0.010 C 
HETATM   16  C7  UNL     1      23.999  -8.657  10.615  1.00  0.00     0.027 C 
HETATM   17  C8  UNL     1      22.582  -8.469  10.189  1.00  0.00     0.167 C 
HETATM   18  O1  UNL     1      21.959  -7.382  10.729  1.00  0.00    -0.391 OA
HETATM   19  C9  UNL     1      22.503  -6.970  11.939  1.00  0.00     0.173 C 
ENDBRANCH  13  14
ENDBRANCH   1  13
TORSDOF 5
ENDMDL
MODEL 4
REMARK VINA RESULT: -6.331481540      1.854      2.589
REMARK  5 active torsions:
REMARK  status: ('A' for Active; 'I' for Inactive)
REMARK       I    between atoms: C1_4  and  N3_6 
REMARK    1  A    between atoms: N3_6  and  C2_8 
REMARK    2  A    between atoms: C2_8  and  C3_9 
REMARK    3  A    between atoms: C3_9  and  N4_10 
REMARK    4  A    between atoms: N4_10  and  C4_13 
REMARK    5  A    between atoms: C4_13  and  C5_14 
ROOT
HETATM    1  N4  UNL     1      23.490  -4.278  11.441  1.00  0.00    -0.073 N 
ATOM      2  H41 UNL     1      23.717  -4.012  12.399  1.00  0.00     0.277 HD
ATOM      3  H42 UNL     1      24.418  -4.552  11.117  1.00  0.00     0.277 HD
ENDROOT
BRANCH   1   4
HETATM    4  C3  UNL     1      23.010  -3.156  10.707  1.00  0.00     0.251 C 
BRANCH   4   5
HETATM    5  C2  UNL     1      21.488  -3.117  10.856  1.00  0.00     0.150 C 
BRANCH   5   6
HETATM    6  N3  UNL     1      21.027  -2.368  11.977  1.00  0.00    -0.363 N 
HETATM    7  C1  UNL     1      19.739  -2.515  12.554  1.00  0.00     0.181 C 
HETATM    8  N1  UNL     1      18.656  -2.663  11.918  1.00  0.00    -0.374 N 
HETATM    9  N2  UNL     1      19.626  -2.488  14.003  1.00  0.00    -0.064 NA
ATOM     10  H12 UNL     1      17.730  -2.768  12.333  1.00  0.00     0.158 HD
ATOM     11  H11 UNL     1      18.735  -2.681  10.901  1.00  0.00     0.158 HD
ATOM     12  H3  UNL     1      21.662  -1.686  12.390  1.00  0.00     0.162 HD
ENDBRANCH   5   6
ENDBRANCH   4   5
ENDBRANCH   1   4
BRANCH   1  13
HETATM   13  C4  UNL     1      22.600  -5.386  11.421  1.00  0.00     0.239 C 
BRANCH  13  14
HETATM   14  C5  UNL     1      23.000  -6.363  10.326  1.00  0.00     0.035 C 
HETATM   15  C6  UNL     1      22.279  -7.694  10.554  1.00  0.00     0.010 C 
HETATM   16  C7  UNL     1      23.153  -8.787  10.012  1.00  0.00     0.027 C 
HETATM   17  C8  UNL     1      24.458  -8.801  10.733  1.00  0.00     0.167 C 
HETATM   18  O1  UNL     1      24.948  -7.570  11.057  1.00  0.00    -0.391 OA
HETATM   19  C9  UNL     1      24.488  -6.550  10.233  1.00  0.00     0.173 C 
ENDBRANCH  13  14
ENDBRANCH   1  13
TORSDOF 5
ENDMDL
MODEL 5
REMARK VINA RESULT: -6.269502729      1.447      1.982
REMARK  5 active torsions:
REMARK  status: ('A' for Active; 'I' for Inactive)
REMARK       I    between atoms: C1_4  and  N3_6 
REMARK    1  A    between atoms: N3_6  and  C2_8 
REMARK    2  A    between atoms: C2_8  and  C3_9 
REMARK    3  A    between atoms: C3_9  and  N4_10 
REMARK    4  A    between atoms: N4_10  and  C4_13 
REMARK    5  A    between atoms: C4_13  and  C5_14 
ROOT
HETATM    1  N4  UNL     1      23.968  -4.301  10.484  1.00  0.00    -0.073 N 
ATOM      2  H41 UNL     1      24.696  -4.117   9.794  1.00  0.00     0.277 HD
ATOM      3  H42 UNL     1      23.491  -5.077  10.023  1.00  0.00     0.277 HD
ENDROOT
BRANCH   1   4
HETATM    4  C3  UNL     1      23.100  -3.181  10.616  1.00  0.00     0.251 C 
BRANCH   4   5
HETATM    5  C2  UNL     1      21.805  -3.502   9.867  1.00  0.00     0.150 C 
BRANCH   5   6
HETATM    6  N3  UNL     1      20.665  -2.786  10.334  1.00  0.00    -0.363 N 
HETATM    7  C1  UNL     1      19.422  -2.741   9.650  1.00  0.00     0.181 C 
HETATM    8  N1  UNL     1      19.270  -2.623   8.400  1.00  0.00    -0.374 N 
HETATM    9  N2  UNL     1      18.200  -2.826  10.433  1.00  0.00    -0.064 NA
ATOM     10  H12 UNL     1      18.377  -2.591   7.908  1.00  0.00     0.158 HD
ATOM     11  H11 UNL     1      20.127  -2.563   7.850  1.00  0.00     0.158 HD
ATOM     12  H3  UNL     1      20.746  -2.276  11.212  1.00  0.00     0.162 HD
ENDBRANCH   5   6
ENDBRANCH   4   5
ENDBRANCH   1   4
BRANCH   1  13
HETATM   13  C4  UNL     1      24.538  -4.720  11.718  1.00  0.00     0.239 C 
BRANCH  13  14
HETATM   14  C5  UNL     1      24.266  -6.199  11.948  1.00  0.00     0.035 C 
HETATM   15  C6  UNL     1      24.827  -7.001  10.772  1.00  0.00     0.010 C 
HETATM   16  C7  UNL     1      23.982  -8.231  10.613  1.00  0.00     0.027 C 
HETATM   17  C8  UNL     1      22.571  -7.845  10.321  1.00  0.00     0.167 C 
HETATM   18  O1  UNL     1      22.130  -6.739  10.986  1.00  0.00    -0.391 OA
HETATM   19  C9  UNL     1      22.809  -6.491  12.172  1.00  0.00     0.173 C 
ENDBRANCH  13  14
ENDBRANCH   1  13
TORSDOF 5
ENDMDL
