MODEL 1
REMARK VINA RESULT: -5.699550810      0.000      0.000
REMARK  5 active torsions:
REMARK  status: ('A' for Active; 'I' for Inactive)
REMARK    1  A    between atoms: C2_2  and  C3_3 
REMARK    2  A    between atoms: C3_3  and  N1_4 
REMARK    3  A    between atoms: N1_4  and  C4_7 
REMARK    4  A    between atoms: C6_9  and  N2_10 
REMARK    5  A    between atoms: C8_15  and  C9_16 
ROOT
HETATM    1  C4  UNL     1      22.211  -4.775  10.120  1.00  0.00     0.201 C 
HETATM    2  C5  UNL     1      22.758  -5.444   8.862  1.00  0.00     0.066 C 
HETATM    3  C6  UNL     1      24.269  -5.126   8.860  1.00  0.00     0.186 C 
HETATM    4  C7  UNL     1      24.507  -4.470  10.231  1.00  0.00     0.048 C 
HETATM    5  C8  UNL     1      23.213  -3.676  10.304  1.00  0.00     0.107 C 
ENDROOT
BRANCH   1   6
HETATM    6  N1  UNL     1      22.130  -5.694  11.201  1.00  0.00    -0.067 N 
ATOM      7  H12 UNL     1      21.344  -5.465  11.810  1.00  0.00     0.277 HD
ATOM      8  H11 UNL     1      22.899  -5.550  11.855  1.00  0.00     0.277 HD
BRANCH   6   9
HETATM    9  C3  UNL     1      22.067  -7.050  10.792  1.00  0.00     0.259 C 
BRANCH   9  10
HETATM   10  C2  UNL     1      23.190  -7.901  11.230  1.00  0.00    -0.010 C 
HETATM   11  C1  UNL     1      23.856  -8.678  10.399  1.00  0.00     0.008 C 
ENDBRANCH   9  10
ENDBRANCH   6   9
ENDBRANCH   1   6
BRANCH   5  12
HETATM   12  C9  UNL     1      23.060  -2.823  11.454  1.00  0.00     0.237 C 
HETATM   13  N3  UNL     1      21.811  -2.223  11.732  1.00  0.00    -0.062 NA
HETATM   14  O1  UNL     1      24.017  -2.594  12.227  1.00  0.00    -0.276 OA
ENDBRANCH   5  12
BRANCH   3  15
HETATM   15  N2  UNL     1      24.562  -4.127   7.839  1.00  0.00    -0.075 N 
ATOM     16  H23 UNL     1      24.553  -3.179   8.216  1.00  0.00     0.274 HD
ATOM     17  H22 UNL     1      25.537  -4.158   7.541  1.00  0.00     0.274 HD
ATOM     18  H21 UNL     1      23.918  -4.233   7.055  1.00  0.00     0.274 HD
ENDBRANCH   3  15
TORSDOF 5
ENDMDL
MODEL 2
REMARK VINA RESULT: -5.534190657      1.503      2.893
REMARK  5 active torsions:
REMARK  status: ('A' for Active; 'I' for Inactive)
REMARK    1  A    between atoms: C2_2  and  C3_3 
REMARK    2  A    between atoms: C3_3  and  N1_4 
REMARK    3  A    between atoms: N1_4  and  C4_7 
REMARK    4  A    between atoms: C6_9  and  N2_10 
REMARK    5  A    between atoms: C8_15  and  C9_16 
ROOT
HETATM    1  C4  UNL     1      22.475  -4.725  11.116  1.00  0.00     0.201 C 
HETATM    2  C5  UNL     1      21.247  -3.864  11.398  1.00  0.00     0.066 C 
HETATM    3  C6  UNL     1      20.910  -3.189  10.051  1.00  0.00     0.186 C 
HETATM    4  C7  UNL     1      21.852  -3.880   9.049  1.00  0.00     0.048 C 
HETATM    5  C8  UNL     1      23.068  -3.987   9.954  1.00  0.00     0.107 C 
ENDROOT
BRANCH   1   6
HETATM    6  N1  UNL     1      22.110  -6.072  10.843  1.00  0.00    -0.067 N 
ATOM      7  H12 UNL     1      22.287  -6.301   9.865  1.00  0.00     0.277 HD
ATOM      8  H11 UNL     1      21.096  -6.182  10.863  1.00  0.00     0.277 HD
BRANCH   6   9
HETATM    9  C3  UNL     1      22.733  -7.015  11.698  1.00  0.00     0.259 C 
BRANCH   9  10
HETATM   10  C2  UNL     1      23.564  -8.034  11.028  1.00  0.00    -0.010 C 
HETATM   11  C1  UNL     1      23.303  -8.475   9.813  1.00  0.00     0.008 C 
ENDBRANCH   9  10
ENDBRANCH   6   9
ENDBRANCH   1   6
BRANCH   5  12
HETATM   12  C9  UNL     1      24.255  -4.537   9.353  1.00  0.00     0.237 C 
HETATM   13  N3  UNL     1      24.421  -4.503   7.950  1.00  0.00    -0.062 NA
HETATM   14  O1  UNL     1      25.159  -5.052  10.048  1.00  0.00    -0.276 OA
ENDBRANCH   5  12
BRANCH   3  15
HETATM   15  N2  UNL     1      21.278  -1.779  10.098  1.00  0.00    -0.075 N 
ATOM     16  H23 UNL     1      21.993  -1.592  10.801  1.00  0.00     0.274 HD
ATOM     17  H22 UNL     1      21.804  -1.492   9.272  1.00  0.00     0.274 HD
ATOM     18  H21 UNL     1      20.445  -1.207  10.239  1.00  0.00     0.274 HD
ENDBRANCH   3  15
TORSDOF 5
ENDMDL
MODEL 3
REMARK VINA RESULT: -5.341386213      1.901      2.246
REMARK  5 active torsions:
REMARK  status: ('A' for Active; 'I' for Inactive)
REMARK    1  A    between atoms: C2_2  and  C3_3 
REMARK    2  A    between atoms: C3_3  and  N1_4 
REMARK    3  A    between atoms: N1_4  and  C4_7 
REMARK    4  A    between atoms: C6_9  and  N2_10 
REMARK    5  A    between atoms: C8_15  and  C9_16 
ROOT
HETATM    1  C4  UNL     1      22.241  -5.383  10.547  1.00  0.00     0.201 C 
HETATM    2  C5  UNL     1      23.377  -6.010   9.743  1.00  0.00     0.066 C 
HETATM    3  C6  UNL     1      24.400  -4.874   9.536  1.00  0.00     0.186 C 
HETATM    4  C7  UNL     1      23.863  -3.732  10.418  1.00  0.00     0.048 C 
HETATM    5  C8  UNL     1      22.382  -3.946  10.148  1.00  0.00     0.107 C 
ENDROOT
BRANCH   1   6
HETATM    6  N1  UNL     1      22.392  -5.633  11.938  1.00  0.00    -0.067 N 
ATOM      7  H12 UNL     1      22.078  -4.831  12.484  1.00  0.00     0.277 HD
ATOM      8  H11 UNL     1      23.378  -5.639  12.198  1.00  0.00     0.277 HD
BRANCH   6   9
HETATM    9  C3  UNL     1      21.751  -6.818  12.376  1.00  0.00     0.259 C 
BRANCH   9  10
HETATM   10  C2  UNL     1      20.577  -6.625  13.249  1.00  0.00    -0.010 C 
HETATM   11  C1  UNL     1      20.369  -7.352  14.329  1.00  0.00     0.008 C 
ENDBRANCH   9  10
ENDBRANCH   6   9
ENDBRANCH   1   6
BRANCH   5  12
HETATM   12  C9  UNL     1      21.487  -2.995  10.755  1.00  0.00     0.237 C 
HETATM   13  N3  UNL     1      20.480  -3.436  11.644  1.00  0.00    -0.062 NA
HETATM   14  O1  UNL     1      21.576  -1.771  10.514  1.00  0.00    -0.276 OA
ENDBRANCH   5  12
BRANCH   3  15
HETATM   15  N2  UNL     1      24.357  -4.415   8.152  1.00  0.00    -0.075 N 
ATOM     16  H23 UNL     1      23.484  -4.669   7.691  1.00  0.00     0.274 HD
ATOM     17  H22 UNL     1      24.270  -3.401   8.087  1.00  0.00     0.274 HD
ATOM     18  H21 UNL     1      25.172  -4.764   7.647  1.00  0.00     0.274 HD
ENDBRANCH   3  15
TORSDOF 5
ENDMDL
MODEL 4
REMARK VINA RESULT: -5.309385846      1.999      4.011
REMARK  5 active torsions:
REMARK  status: ('A' for Active; 'I' for Inactive)
REMARK    1  A    between atoms: C2_2  and  C3_3 
REMARK    2  A    between atoms: C3_3  and  N1_4 
REMARK    3  A    between atoms: N1_4  and  C4_7 
REMARK    4  A    between atoms: C6_9  and  N2_10 
REMARK    5  A    between atoms: C8_15  and  C9_16 
ROOT
HETATM    1  C4  UNL     1      22.182  -5.425  10.264  1.00  0.00     0.201 C 
HETATM    2  C5  UNL     1      22.102  -6.774  10.973  1.00  0.00     0.066 C 
HETATM    3  C6  UNL     1      23.568  -7.179  11.238  1.00  0.00     0.186 C 
HETATM    4  C7  UNL     1      24.371  -5.927  10.841  1.00  0.00     0.048 C 
HETATM    5  C8  UNL     1      23.538  -5.525   9.634  1.00  0.00     0.107 C 
ENDROOT
BRANCH   1   6
HETATM    6  N1  UNL     1      22.029  -4.349  11.180  1.00  0.00    -0.067 N 
ATOM      7  H12 UNL     1      22.935  -3.946  11.417  1.00  0.00     0.277 HD
ATOM      8  H11 UNL     1      21.751  -4.695  12.099  1.00  0.00     0.277 HD
BRANCH   6   9
HETATM    9  C3  UNL     1      21.135  -3.345  10.734  1.00  0.00     0.259 C 
BRANCH   9  10
HETATM   10  C2  UNL     1      20.533  -2.510  11.791  1.00  0.00    -0.010 C 
HETATM   11  C1  UNL     1      19.307  -2.705  12.236  1.00  0.00     0.008 C 
ENDBRANCH   9  10
ENDBRANCH   6   9
ENDBRANCH   1   6
BRANCH   5  12
HETATM   12  C9  UNL     1      24.013  -4.386   8.892  1.00  0.00     0.237 C 
HETATM   13  N3  UNL     1      24.634  -4.567   7.635  1.00  0.00    -0.062 NA
HETATM   14  O1  UNL     1      23.889  -3.223   9.334  1.00  0.00    -0.276 OA
ENDBRANCH   5  12
BRANCH   3  15
HETATM   15  N2  UNL     1      23.956  -8.253  10.331  1.00  0.00    -0.075 N 
ATOM     16  H23 UNL     1      24.217  -9.102  10.831  1.00  0.00     0.274 HD
ATOM     17  H22 UNL     1      23.159  -8.625   9.813  1.00  0.00     0.274 HD
ATOM     18  H21 UNL     1      24.699  -7.931   9.710  1.00  0.00     0.274 HD
ENDBRANCH   3  15
TORSDOF 5
ENDMDL
MODEL 5
REMARK VINA RESULT: -5.185806100      1.955      3.158
REMARK  5 active torsions:
REMARK  status: ('A' for Active; 'I' for Inactive)
REMARK    1  A    between atoms: C2_2  and  C3_3 
REMARK    2  A    between atoms: C3_3  and  N1_4 
REMARK    3  A    between atoms: N1_4  and  C4_7 
REMARK    4  A    between atoms: C6_9  and  N2_10 
REMARK    5  A    between atoms: C8_15  and  C9_16 
ROOT
HETATM    1  C4  UNL     1      23.648  -5.505  10.335  1.00  0.00     0.201 C 
HETATM    2  C5  UNL     1      23.639  -4.854  11.715  1.00  0.00     0.066 C 
HETATM    3  C6  UNL     1      23.354  -3.359  11.455  1.00  0.00     0.186 C 
HETATM    4  C7  UNL     1      23.016  -3.306   9.955  1.00  0.00     0.048 C 
HETATM    5  C8  UNL     1      24.032  -4.334   9.482  1.00  0.00     0.107 C 
ENDROOT
BRANCH   1   6
HETATM    6  N1  UNL     1      22.385  -6.079  10.026  1.00  0.00    -0.067 N 
ATOM      7  H12 UNL     1      22.238  -6.103   9.017  1.00  0.00     0.277 HD
ATOM      8  H11 UNL     1      21.628  -5.449  10.293  1.00  0.00     0.277 HD
BRANCH   6   9
HETATM    9  C3  UNL     1      22.190  -7.363  10.591  1.00  0.00     0.259 C 
BRANCH   9  10
HETATM   10  C2  UNL     1      23.031  -8.440  10.035  1.00  0.00    -0.010 C 
HETATM   11  C1  UNL     1      24.035  -8.972  10.703  1.00  0.00     0.008 C 
ENDBRANCH   9  10
ENDBRANCH   6   9
ENDBRANCH   1   6
BRANCH   5  12
HETATM   12  C9  UNL     1      24.101  -4.543   8.059  1.00  0.00     0.237 C 
HETATM   13  N3  UNL     1      25.331  -4.393   7.379  1.00  0.00    -0.062 NA
HETATM   14  O1  UNL     1      23.088  -4.859   7.396  1.00  0.00    -0.276 OA
ENDBRANCH   5  12
BRANCH   3  15
HETATM   15  N2  UNL     1      24.571  -2.581  11.658  1.00  0.00    -0.075 N 
ATOM     16  H23 UNL     1      24.960  -2.241  10.779  1.00  0.00     0.274 HD
ATOM     17  H22 UNL     1      24.381  -1.679  12.094  1.00  0.00     0.274 HD
ATOM     18  H21 UNL     1      25.248  -3.129  12.190  1.00  0.00     0.274 HD
ENDBRANCH   3  15
TORSDOF 5
ENDMDL
