MODEL 1
REMARK VINA RESULT: -6.084835908      0.000      0.000
REMARK  4 active torsions:
REMARK  status: ('A' for Active; 'I' for Inactive)
REMARK    1  A    between atoms: C2_2  and  C3_3 
REMARK    2  A    between atoms: C3_3  and  N1_4 
REMARK       I    between atoms: N1_4  and  C4_6 
REMARK    3  A    between atoms: C4_6  and  C5_8 
REMARK    4  A    between atoms: C5_8  and  N2_9 
REMARK       I    between atoms: N2_9  and  C6_11 
ROOT
HETATM    1  N1  UNL     1      22.091  -4.642  10.404  1.00  0.00    -0.347 N 
ATOM      2  H1  UNL     1      21.357  -5.007   9.796  1.00  0.00     0.163 HD
HETATM    3  C4  UNL     1      21.875  -3.377  10.961  1.00  0.00     0.236 C 
HETATM    4  O1  UNL     1      22.780  -2.897  11.732  1.00  0.00    -0.272 OA
ENDROOT
BRANCH   3   5
HETATM    5  C5  UNL     1      20.667  -2.550  10.723  1.00  0.00     0.225 C 
BRANCH   5   6
HETATM    6  N2  UNL     1      20.007  -2.099  11.912  1.00  0.00    -0.356 N 
HETATM    7  C6  UNL     1      18.637  -2.441  12.102  1.00  0.00     0.182 C 
HETATM    8  N3  UNL     1      18.062  -2.488  13.253  1.00  0.00    -0.374 N 
HETATM    9  N4  UNL     1      17.827  -2.748  10.946  1.00  0.00    -0.064 NA
ATOM     10  H32 UNL     1      18.634  -2.271  14.070  1.00  0.00     0.158 HD
ATOM     11  H31 UNL     1      17.080  -2.732  13.390  1.00  0.00     0.158 HD
ATOM     12  H2  UNL     1      20.507  -1.545  12.606  1.00  0.00     0.162 HD
ENDBRANCH   5   6
ENDBRANCH   3   5
BRANCH   1  13
HETATM   13  C3  UNL     1      23.237  -5.474  10.603  1.00  0.00     0.050 A 
HETATM   14  C7  UNL     1      23.960  -6.076   9.419  1.00  0.00     0.038 A 
HETATM   15  C8  UNL     1      24.601  -5.000  10.239  1.00  0.00     0.038 A 
BRANCH  13  16
HETATM   16  C2  UNL     1      23.146  -6.425  11.786  1.00  0.00    -0.006 C 
HETATM   17  C1  UNL     1      21.931  -6.750  12.179  1.00  0.00     0.009 C 
ENDBRANCH  13  16
ENDBRANCH   1  13
TORSDOF 4
ENDMDL
MODEL 2
REMARK VINA RESULT: -6.079310076      0.678      1.834
REMARK  4 active torsions:
REMARK  status: ('A' for Active; 'I' for Inactive)
REMARK    1  A    between atoms: C2_2  and  C3_3 
REMARK    2  A    between atoms: C3_3  and  N1_4 
REMARK       I    between atoms: N1_4  and  C4_6 
REMARK    3  A    between atoms: C4_6  and  C5_8 
REMARK    4  A    between atoms: C5_8  and  N2_9 
REMARK       I    between atoms: N2_9  and  C6_11 
ROOT
HETATM    1  N1  UNL     1      22.061  -4.752  10.432  1.00  0.00    -0.347 N 
ATOM      2  H1  UNL     1      21.269  -5.175   9.945  1.00  0.00     0.163 HD
HETATM    3  C4  UNL     1      21.878  -3.455  10.922  1.00  0.00     0.236 C 
HETATM    4  O1  UNL     1      22.856  -2.903  11.541  1.00  0.00    -0.272 OA
ENDROOT
BRANCH   3   5
HETATM    5  C5  UNL     1      20.627  -2.672  10.779  1.00  0.00     0.225 C 
BRANCH   5   6
HETATM    6  N2  UNL     1      20.118  -2.127  12.001  1.00  0.00    -0.356 N 
HETATM    7  C6  UNL     1      18.769  -2.409  12.364  1.00  0.00     0.182 C 
HETATM    8  N3  UNL     1      18.326  -2.367  13.572  1.00  0.00    -0.374 N 
HETATM    9  N4  UNL     1      17.826  -2.758  11.327  1.00  0.00    -0.064 NA
ATOM     10  H32 UNL     1      18.993  -2.121  14.305  1.00  0.00     0.158 HD
ATOM     11  H31 UNL     1      17.360  -2.569  13.832  1.00  0.00     0.158 HD
ATOM     12  H2  UNL     1      20.708  -1.549  12.599  1.00  0.00     0.162 HD
ENDBRANCH   5   6
ENDBRANCH   3   5
BRANCH   1  13
HETATM   13  C3  UNL     1      23.245  -5.546  10.546  1.00  0.00     0.050 A 
HETATM   14  C7  UNL     1      23.674  -6.092  11.889  1.00  0.00     0.038 A 
HETATM   15  C8  UNL     1      23.165  -7.008  10.820  1.00  0.00     0.038 A 
BRANCH  13  16
HETATM   16  C2  UNL     1      24.417  -5.083   9.695  1.00  0.00    -0.006 C 
HETATM   17  C1  UNL     1      24.134  -4.742   8.453  1.00  0.00     0.009 C 
ENDBRANCH  13  16
ENDBRANCH   1  13
TORSDOF 4
ENDMDL
MODEL 3
REMARK VINA RESULT: -6.077097302      1.878      2.582
REMARK  4 active torsions:
REMARK  status: ('A' for Active; 'I' for Inactive)
REMARK    1  A    between atoms: C2_2  and  C3_3 
REMARK    2  A    between atoms: C3_3  and  N1_4 
REMARK       I    between atoms: N1_4  and  C4_6 
REMARK    3  A    between atoms: C4_6  and  C5_8 
REMARK    4  A    between atoms: C5_8  and  N2_9 
REMARK       I    between atoms: N2_9  and  C6_11 
ROOT
HETATM    1  N1  UNL     1      22.492  -5.860  10.034  1.00  0.00    -0.347 N 
ATOM      2  H1  UNL     1      21.623  -5.617   9.558  1.00  0.00     0.163 HD
HETATM    3  C4  UNL     1      23.457  -4.852  10.134  1.00  0.00     0.236 C 
HETATM    4  O1  UNL     1      24.557  -5.130  10.731  1.00  0.00    -0.272 OA
ENDROOT
BRANCH   3   5
HETATM    5  C5  UNL     1      23.294  -3.478   9.599  1.00  0.00     0.225 C 
BRANCH   5   6
HETATM    6  N2  UNL     1      22.659  -2.559  10.494  1.00  0.00    -0.356 N 
HETATM    7  C6  UNL     1      21.241  -2.605  10.625  1.00  0.00     0.182 C 
HETATM    8  N3  UNL     1      20.600  -2.174  11.656  1.00  0.00    -0.374 N 
HETATM    9  N4  UNL     1      20.457  -3.158   9.545  1.00  0.00    -0.064 NA
ATOM     10  H32 UNL     1      21.153  -1.784  12.419  1.00  0.00     0.158 HD
ATOM     11  H31 UNL     1      19.584  -2.207  11.750  1.00  0.00     0.158 HD
ATOM     12  H2  UNL     1      23.209  -1.885  11.026  1.00  0.00     0.162 HD
ENDBRANCH   5   6
ENDBRANCH   3   5
BRANCH   1  13
HETATM   13  C3  UNL     1      22.603  -7.196  10.533  1.00  0.00     0.050 A 
HETATM   14  C7  UNL     1      22.172  -8.369   9.680  1.00  0.00     0.038 A 
HETATM   15  C8  UNL     1      23.620  -8.137   9.984  1.00  0.00     0.038 A 
BRANCH  13  16
HETATM   16  C2  UNL     1      22.246  -7.369  12.000  1.00  0.00    -0.006 C 
HETATM   17  C1  UNL     1      21.446  -6.456  12.515  1.00  0.00     0.009 C 
ENDBRANCH  13  16
ENDBRANCH   1  13
TORSDOF 4
ENDMDL
MODEL 4
REMARK VINA RESULT: -5.959011953      1.195      1.975
REMARK  4 active torsions:
REMARK  status: ('A' for Active; 'I' for Inactive)
REMARK    1  A    between atoms: C2_2  and  C3_3 
REMARK    2  A    between atoms: C3_3  and  N1_4 
REMARK       I    between atoms: N1_4  and  C4_6 
REMARK    3  A    between atoms: C4_6  and  C5_8 
REMARK    4  A    between atoms: C5_8  and  N2_9 
REMARK       I    between atoms: N2_9  and  C6_11 
ROOT
HETATM    1  N1  UNL     1      22.068  -4.556  11.320  1.00  0.00    -0.347 N 
ATOM      2  H1  UNL     1      21.934  -4.169  12.255  1.00  0.00     0.163 HD
HETATM    3  C4  UNL     1      21.587  -3.795  10.249  1.00  0.00     0.236 C 
HETATM    4  O1  UNL     1      21.746  -4.256   9.064  1.00  0.00    -0.272 OA
ENDROOT
BRANCH   3   5
HETATM    5  C5  UNL     1      20.907  -2.484  10.390  1.00  0.00     0.225 C 
BRANCH   5   6
HETATM    6  N2  UNL     1      20.442  -2.189  11.712  1.00  0.00    -0.356 N 
HETATM    7  C6  UNL     1      19.115  -2.567  12.067  1.00  0.00     0.182 C 
HETATM    8  N3  UNL     1      18.723  -2.762  13.278  1.00  0.00    -0.374 N 
HETATM    9  N4  UNL     1      18.134  -2.740  11.021  1.00  0.00    -0.064 NA
ATOM     10  H32 UNL     1      19.416  -2.641  14.018  1.00  0.00     0.158 HD
ATOM     11  H31 UNL     1      17.772  -3.033  13.533  1.00  0.00     0.158 HD
ATOM     12  H2  UNL     1      21.047  -1.719  12.385  1.00  0.00     0.162 HD
ENDBRANCH   5   6
ENDBRANCH   3   5
BRANCH   1  13
HETATM   13  C3  UNL     1      22.728  -5.821  11.235  1.00  0.00     0.050 A 
HETATM   14  C7  UNL     1      22.183  -7.020  11.979  1.00  0.00     0.038 A 
HETATM   15  C8  UNL     1      22.119  -6.955  10.484  1.00  0.00     0.038 A 
BRANCH  13  16
HETATM   16  C2  UNL     1      24.247  -5.759  11.246  1.00  0.00    -0.006 C 
HETATM   17  C1  UNL     1      24.822  -5.397  10.116  1.00  0.00     0.009 C 
ENDBRANCH  13  16
ENDBRANCH   1  13
TORSDOF 4
ENDMDL
MODEL 5
REMARK VINA RESULT: -5.822243216      1.225      2.205
REMARK  4 active torsions:
REMARK  status: ('A' for Active; 'I' for Inactive)
REMARK    1  A    between atoms: C2_2  and  C3_3 
REMARK    2  A    between atoms: C3_3  and  N1_4 
REMARK       I    between atoms: N1_4  and  C4_6 
REMARK    3  A    between atoms: C4_6  and  C5_8 
REMARK    4  A    between atoms: C5_8  and  N2_9 
REMARK       I    between atoms: N2_9  and  C6_11 
ROOT
HETATM    1  N1  UNL     1      22.440  -4.377  11.366  1.00  0.00    -0.347 N 
ATOM      2  H1  UNL     1      22.670  -4.207  12.345  1.00  0.00     0.163 HD
HETATM    3  C4  UNL     1      21.477  -3.541  10.791  1.00  0.00     0.236 C 
HETATM    4  O1  UNL     1      21.174  -3.732   9.560  1.00  0.00    -0.272 OA
ENDROOT
BRANCH   3   5
HETATM    5  C5  UNL     1      20.784  -2.443  11.507  1.00  0.00     0.225 C 
BRANCH   5   6
HETATM    6  N2  UNL     1      19.360  -2.434  11.355  1.00  0.00    -0.356 N 
HETATM    7  C6  UNL     1      18.552  -2.240  12.512  1.00  0.00     0.182 C 
HETATM    8  N3  UNL     1      17.346  -1.789  12.479  1.00  0.00    -0.374 N 
HETATM    9  N4  UNL     1      19.097  -2.572  13.808  1.00  0.00    -0.064 NA
ATOM     10  H32 UNL     1      16.961  -1.554  11.564  1.00  0.00     0.158 HD
ATOM     11  H31 UNL     1      16.767  -1.650  13.308  1.00  0.00     0.158 HD
ATOM     12  H2  UNL     1      18.934  -2.563  10.438  1.00  0.00     0.162 HD
ENDBRANCH   5   6
ENDBRANCH   3   5
BRANCH   1  13
HETATM   13  C3  UNL     1      23.135  -5.446  10.717  1.00  0.00     0.050 A 
HETATM   14  C7  UNL     1      23.325  -6.772  11.419  1.00  0.00     0.038 A 
HETATM   15  C8  UNL     1      22.407  -6.656  10.242  1.00  0.00     0.038 A 
BRANCH  13  16
HETATM   16  C2  UNL     1      24.350  -5.028   9.905  1.00  0.00    -0.006 C 
HETATM   17  C1  UNL     1      24.138  -4.782   8.627  1.00  0.00     0.009 C 
ENDBRANCH  13  16
ENDBRANCH   1  13
TORSDOF 4
ENDMDL
