MODEL 1
REMARK VINA RESULT: -5.657391699      0.000      0.000
REMARK  4 active torsions:
REMARK  status: ('A' for Active; 'I' for Inactive)
REMARK       I    between atoms: C1_4  and  N3_6 
REMARK    1  A    between atoms: N3_6  and  C2_8 
REMARK    2  A    between atoms: C5_11  and  C6_12 
REMARK    3  A    between atoms: C6_12  and  N4_13 
REMARK    4  A    between atoms: N4_13  and  C7_16 
ROOT
HETATM    1  C2  UNL     1      23.187  -4.774  11.185  1.00  0.00     0.089 C 
HETATM    2  C3  UNL     1      23.875  -4.838   9.838  1.00  0.00     0.026 C 
HETATM    3  C4  UNL     1      23.208  -3.488   9.540  1.00  0.00     0.010 C 
HETATM    4  C5  UNL     1      22.115  -3.911  10.497  1.00  0.00     0.034 C 
ENDROOT
BRANCH   4   5
HETATM    5  C6  UNL     1      21.658  -2.770  11.387  1.00  0.00     0.241 C 
BRANCH   5   6
HETATM    6  N4  UNL     1      20.297  -2.432  11.092  1.00  0.00    -0.049 N 
ATOM      7  H42 UNL     1      20.184  -1.440  10.878  1.00  0.00     0.280 HD
ATOM      8  H41 UNL     1      19.990  -2.810  10.196  1.00  0.00     0.280 HD
BRANCH   6   9
HETATM    9  C7  UNL     1      19.448  -2.856  12.185  1.00  0.00     0.322 A 
HETATM   10  C8  UNL     1      18.036  -2.474  12.240  1.00  0.00     0.111 A 
HETATM   11  N5  UNL     1      18.950  -1.797  13.010  1.00  0.00    -0.368 N 
ATOM     12  H5  UNL     1      19.140  -1.060  13.689  1.00  0.00     0.161 HD
ENDBRANCH   6   9
ENDBRANCH   5   6
ENDBRANCH   4   5
BRANCH   1  13
HETATM   13  N3  UNL     1      22.705  -6.015  11.715  1.00  0.00    -0.360 N 
HETATM   14  C1  UNL     1      22.795  -7.177  10.923  1.00  0.00     0.182 C 
HETATM   15  N1  UNL     1      21.846  -7.628  10.192  1.00  0.00    -0.374 N 
HETATM   16  N2  UNL     1      24.029  -7.909  10.930  1.00  0.00    -0.064 NA
ATOM     17  H12 UNL     1      21.911  -8.469   9.618  1.00  0.00     0.158 HD
ATOM     18  H11 UNL     1      20.969  -7.108  10.187  1.00  0.00     0.158 HD
ATOM     19  H3  UNL     1      22.304  -6.056  12.652  1.00  0.00     0.162 HD
ENDBRANCH   1  13
TORSDOF 4
ENDMDL
MODEL 2
REMARK VINA RESULT: -5.412601467      2.710      6.145
REMARK  4 active torsions:
REMARK  status: ('A' for Active; 'I' for Inactive)
REMARK       I    between atoms: C1_4  and  N3_6 
REMARK    1  A    between atoms: N3_6  and  C2_8 
REMARK    2  A    between atoms: C5_11  and  C6_12 
REMARK    3  A    between atoms: C6_12  and  N4_13 
REMARK    4  A    between atoms: N4_13  and  C7_16 
ROOT
HETATM    1  C2  UNL     1      18.545  -2.852  13.511  1.00  0.00     0.089 C 
HETATM    2  C3  UNL     1      17.233  -2.393  12.910  1.00  0.00     0.026 C 
HETATM    3  C4  UNL     1      17.885  -2.630  11.541  1.00  0.00     0.010 C 
HETATM    4  C5  UNL     1      19.210  -2.350  12.217  1.00  0.00     0.034 C 
ENDROOT
BRANCH   4   5
HETATM    5  C6  UNL     1      20.304  -3.290  11.748  1.00  0.00     0.241 C 
BRANCH   5   6
HETATM    6  N4  UNL     1      21.403  -2.539  11.216  1.00  0.00    -0.049 N 
ATOM      7  H42 UNL     1      21.106  -1.876  10.499  1.00  0.00     0.280 HD
ATOM      8  H41 UNL     1      21.774  -1.869  11.889  1.00  0.00     0.280 HD
BRANCH   6   9
HETATM    9  C7  UNL     1      22.420  -3.449  10.733  1.00  0.00     0.322 A 
HETATM   10  C8  UNL     1      23.760  -3.469  11.322  1.00  0.00     0.111 A 
HETATM   11  N5  UNL     1      23.555  -2.821  10.128  1.00  0.00    -0.368 N 
ATOM     12  H5  UNL     1      23.940  -2.276   9.357  1.00  0.00     0.161 HD
ENDBRANCH   6   9
ENDBRANCH   5   6
ENDBRANCH   4   5
BRANCH   1  13
HETATM   13  N3  UNL     1      18.972  -2.181  14.702  1.00  0.00    -0.360 N 
HETATM   14  C1  UNL     1      18.360  -2.512  15.928  1.00  0.00     0.182 C 
HETATM   15  N1  UNL     1      17.382  -1.869  16.444  1.00  0.00    -0.374 N 
HETATM   16  N2  UNL     1      18.862  -3.645  16.653  1.00  0.00    -0.064 NA
ATOM     17  H12 UNL     1      16.939  -2.108  17.331  1.00  0.00     0.158 HD
ATOM     18  H11 UNL     1      17.025  -1.064  15.929  1.00  0.00     0.158 HD
ATOM     19  H3  UNL     1      19.707  -1.476  14.664  1.00  0.00     0.162 HD
ENDBRANCH   1  13
TORSDOF 4
ENDMDL
MODEL 3
REMARK VINA RESULT: -5.381431479      2.234      3.432
REMARK  4 active torsions:
REMARK  status: ('A' for Active; 'I' for Inactive)
REMARK       I    between atoms: C1_4  and  N3_6 
REMARK    1  A    between atoms: N3_6  and  C2_8 
REMARK    2  A    between atoms: C5_11  and  C6_12 
REMARK    3  A    between atoms: C6_12  and  N4_13 
REMARK    4  A    between atoms: N4_13  and  C7_16 
ROOT
HETATM    1  C2  UNL     1      23.526  -6.457   9.881  1.00  0.00     0.089 C 
HETATM    2  C3  UNL     1      23.913  -7.898  10.143  1.00  0.00     0.026 C 
HETATM    3  C4  UNL     1      22.832  -7.891  11.232  1.00  0.00     0.010 C 
HETATM    4  C5  UNL     1      23.080  -6.403  11.353  1.00  0.00     0.034 C 
ENDROOT
BRANCH   4   5
HETATM    5  C6  UNL     1      21.792  -5.618  11.520  1.00  0.00     0.241 C 
BRANCH   5   6
HETATM    6  N4  UNL     1      22.066  -4.212  11.485  1.00  0.00    -0.049 N 
ATOM      7  H42 UNL     1      22.582  -3.899  12.309  1.00  0.00     0.280 HD
ATOM      8  H41 UNL     1      22.761  -3.971  10.779  1.00  0.00     0.280 HD
BRANCH   6   9
HETATM    9  C7  UNL     1      20.828  -3.484  11.305  1.00  0.00     0.322 A 
HETATM   10  C8  UNL     1      20.496  -2.859  10.024  1.00  0.00     0.111 A 
HETATM   11  N5  UNL     1      20.982  -2.084  11.048  1.00  0.00    -0.368 N 
ATOM     12  H5  UNL     1      21.258  -1.162  11.386  1.00  0.00     0.161 HD
ENDBRANCH   6   9
ENDBRANCH   5   6
ENDBRANCH   4   5
BRANCH   1  13
HETATM   13  N3  UNL     1      24.591  -5.560   9.545  1.00  0.00    -0.360 N 
HETATM   14  C1  UNL     1      24.310  -4.440   8.737  1.00  0.00     0.182 C 
HETATM   15  N1  UNL     1      24.471  -4.406   7.468  1.00  0.00    -0.374 N 
HETATM   16  N2  UNL     1      23.810  -3.254   9.372  1.00  0.00    -0.064 NA
ATOM     17  H12 UNL     1      24.268  -3.595   6.883  1.00  0.00     0.158 HD
ATOM     18  H11 UNL     1      24.827  -5.249   7.017  1.00  0.00     0.158 HD
ATOM     19  H3  UNL     1      25.537  -5.729   9.885  1.00  0.00     0.162 HD
ENDBRANCH   1  13
TORSDOF 4
ENDMDL
MODEL 4
REMARK VINA RESULT: -5.339583073      3.093      5.194
REMARK  4 active torsions:
REMARK  status: ('A' for Active; 'I' for Inactive)
REMARK       I    between atoms: C1_4  and  N3_6 
REMARK    1  A    between atoms: N3_6  and  C2_8 
REMARK    2  A    between atoms: C5_11  and  C6_12 
REMARK    3  A    between atoms: C6_12  and  N4_13 
REMARK    4  A    between atoms: N4_13  and  C7_16 
ROOT
HETATM    1  C2  UNL     1      19.162  -2.475  12.131  1.00  0.00     0.089 C 
HETATM    2  C3  UNL     1      17.833  -2.603  11.416  1.00  0.00     0.026 C 
HETATM    3  C4  UNL     1      17.183  -2.268  12.765  1.00  0.00     0.010 C 
HETATM    4  C5  UNL     1      18.410  -2.872  13.413  1.00  0.00     0.034 C 
ENDROOT
BRANCH   4   5
HETATM    5  C6  UNL     1      18.881  -2.069  14.611  1.00  0.00     0.241 C 
BRANCH   5   6
HETATM    6  N4  UNL     1      18.560  -2.763  15.824  1.00  0.00    -0.049 N 
ATOM      7  H42 UNL     1      17.603  -3.114  15.825  1.00  0.00     0.280 HD
ATOM      8  H41 UNL     1      19.044  -3.658  15.896  1.00  0.00     0.280 HD
BRANCH   6   9
HETATM    9  C7  UNL     1      18.829  -1.902  16.956  1.00  0.00     0.322 A 
HETATM   10  C8  UNL     1      17.932  -1.867  18.111  1.00  0.00     0.111 A 
HETATM   11  N5  UNL     1      17.863  -0.867  17.171  1.00  0.00    -0.368 N 
ATOM     12  H5  UNL     1      17.430  -0.001  16.852  1.00  0.00     0.161 HD
ENDBRANCH   6   9
ENDBRANCH   5   6
ENDBRANCH   4   5
BRANCH   1  13
HETATM   13  N3  UNL     1      20.192  -3.388  11.734  1.00  0.00    -0.360 N 
HETATM   14  C1  UNL     1      21.257  -2.914  10.942  1.00  0.00     0.182 C 
HETATM   15  N1  UNL     1      21.301  -2.997   9.666  1.00  0.00    -0.374 N 
HETATM   16  N2  UNL     1      22.370  -2.294  11.603  1.00  0.00    -0.064 NA
ATOM     17  H12 UNL     1      22.072  -2.654   9.093  1.00  0.00     0.158 HD
ATOM     18  H11 UNL     1      20.511  -3.437   9.196  1.00  0.00     0.158 HD
ATOM     19  H3  UNL     1      20.154  -4.366  12.020  1.00  0.00     0.162 HD
ENDBRANCH   1  13
TORSDOF 4
ENDMDL
MODEL 5
REMARK VINA RESULT: -5.335132677      1.594      5.123
REMARK  4 active torsions:
REMARK  status: ('A' for Active; 'I' for Inactive)
REMARK       I    between atoms: C1_4  and  N3_6 
REMARK    1  A    between atoms: N3_6  and  C2_8 
REMARK    2  A    between atoms: C5_11  and  C6_12 
REMARK    3  A    between atoms: C6_12  and  N4_13 
REMARK    4  A    between atoms: N4_13  and  C7_16 
ROOT
HETATM    1  C2  UNL     1      23.158  -3.331  10.506  1.00  0.00     0.089 C 
HETATM    2  C3  UNL     1      24.449  -3.261  11.295  1.00  0.00     0.026 C 
HETATM    3  C4  UNL     1      24.446  -4.795  11.253  1.00  0.00     0.010 C 
HETATM    4  C5  UNL     1      22.938  -4.708  11.158  1.00  0.00     0.034 C 
ENDROOT
BRANCH   4   5
HETATM    5  C6  UNL     1      22.367  -5.710  10.172  1.00  0.00     0.241 C 
BRANCH   5   6
HETATM    6  N4  UNL     1      21.986  -6.910  10.856  1.00  0.00    -0.049 N 
ATOM      7  H42 UNL     1      22.259  -6.896  11.839  1.00  0.00     0.280 HD
ATOM      8  H41 UNL     1      20.976  -6.977  10.986  1.00  0.00     0.280 HD
BRANCH   6   9
HETATM    9  C7  UNL     1      22.524  -8.056  10.154  1.00  0.00     0.322 A 
HETATM   10  C8  UNL     1      23.666  -8.801  10.684  1.00  0.00     0.111 A 
HETATM   11  N5  UNL     1      23.862  -7.895   9.671  1.00  0.00    -0.368 N 
ATOM     12  H5  UNL     1      24.505  -7.434   9.029  1.00  0.00     0.161 HD
ENDBRANCH   6   9
ENDBRANCH   5   6
ENDBRANCH   4   5
BRANCH   1  13
HETATM   13  N3  UNL     1      22.160  -2.353  10.825  1.00  0.00    -0.360 N 
HETATM   14  C1  UNL     1      20.800  -2.700  10.703  1.00  0.00     0.182 C 
HETATM   15  N1  UNL     1      20.081  -2.456   9.673  1.00  0.00    -0.374 N 
HETATM   16  N2  UNL     1      20.171  -3.375  11.803  1.00  0.00    -0.064 NA
ATOM     17  H12 UNL     1      19.096  -2.707   9.585  1.00  0.00     0.158 HD
ATOM     18  H11 UNL     1      20.528  -1.976   8.891  1.00  0.00     0.158 HD
ATOM     19  H3  UNL     1      22.431  -1.420  11.134  1.00  0.00     0.162 HD
ENDBRANCH   1  13
TORSDOF 4
ENDMDL
