MODEL 1
REMARK VINA RESULT: -6.387342738      0.000      0.000
REMARK  3 active torsions:
REMARK  status: ('A' for Active; 'I' for Inactive)
REMARK    1  A    between atoms: C1_4  and  C2_6 
REMARK    2  A    between atoms: C5_9  and  N3_10 
REMARK    3  A    between atoms: N3_10  and  S1_12 
ROOT
HETATM    1  C2  UNL     1      22.709  -3.984  11.545  1.00  0.00     0.006 A 
HETATM    2  C3  UNL     1      22.362  -5.144  12.177  1.00  0.00     0.017 A 
HETATM    3  C4  UNL     1      23.220  -6.247  12.241  1.00  0.00     0.033 A 
HETATM    4  C5  UNL     1      24.462  -6.208  11.663  1.00  0.00     0.067 A 
HETATM    5  C6  UNL     1      24.812  -5.021  11.019  1.00  0.00     0.074 A 
HETATM    6  N4  UNL     1      26.090  -4.967  10.418  1.00  0.00    -0.100 NA
HETATM    7  C7  UNL     1      23.965  -3.936  10.956  1.00  0.00     0.043 A 
ENDROOT
BRANCH   1   8
HETATM    8  C1  UNL     1      21.806  -2.825  11.477  1.00  0.00     0.120 C 
HETATM    9  N1  UNL     1      21.252  -2.437  10.389  1.00  0.00    -0.387 N 
ATOM     10  H12 UNL     1      20.627  -1.633  10.342  1.00  0.00     0.157 HD
ATOM     11  H11 UNL     1      21.451  -2.958   9.535  1.00  0.00     0.157 HD
HETATM   12  N2  UNL     1      21.532  -2.105  12.656  1.00  0.00    -0.082 NA
ENDBRANCH   1   8
BRANCH   4  13
HETATM   13  N3  UNL     1      25.390  -7.274  11.692  1.00  0.00    -0.269 N 
ATOM     14  H3  UNL     1      26.287  -7.154  12.161  1.00  0.00     0.179 HD
BRANCH  13  15
HETATM   15  S1  UNL     1      25.009  -8.771  10.936  1.00  0.00     0.358 S 
HETATM   16  O1  UNL     1      24.400  -9.659  11.971  1.00  0.00    -0.187 OA
HETATM   17  O2  UNL     1      24.093  -8.576   9.759  1.00  0.00    -0.187 OA
ENDBRANCH  13  15
ENDBRANCH   4  13
TORSDOF 3
ENDMDL
MODEL 2
REMARK VINA RESULT: -6.029948021      3.611      5.229
REMARK  3 active torsions:
REMARK  status: ('A' for Active; 'I' for Inactive)
REMARK    1  A    between atoms: C1_4  and  C2_6 
REMARK    2  A    between atoms: C5_9  and  N3_10 
REMARK    3  A    between atoms: N3_10  and  S1_12 
ROOT
HETATM    1  C2  UNL     1      24.129  -7.203  11.092  1.00  0.00     0.006 A 
HETATM    2  C3  UNL     1      23.375  -6.614  12.068  1.00  0.00     0.017 A 
HETATM    3  C4  UNL     1      23.185  -5.230  12.134  1.00  0.00     0.033 A 
HETATM    4  C5  UNL     1      23.757  -4.396  11.210  1.00  0.00     0.067 A 
HETATM    5  C6  UNL     1      24.527  -5.001  10.216  1.00  0.00     0.074 A 
HETATM    6  N4  UNL     1      25.123  -4.151   9.257  1.00  0.00    -0.100 NA
HETATM    7  C7  UNL     1      24.714  -6.364  10.153  1.00  0.00     0.043 A 
ENDROOT
BRANCH   1   8
HETATM    8  C1  UNL     1      24.330  -8.659  11.023  1.00  0.00     0.120 C 
HETATM    9  N1  UNL     1      25.432  -9.225  11.347  1.00  0.00    -0.387 N 
ATOM     10  H12 UNL     1      25.571 -10.234  11.298  1.00  0.00     0.157 HD
ATOM     11  H11 UNL     1      26.202  -8.636  11.664  1.00  0.00     0.157 HD
HETATM   12  N2  UNL     1      23.266  -9.472  10.585  1.00  0.00    -0.082 NA
ENDBRANCH   1   8
BRANCH   4  13
HETATM   13  N3  UNL     1      23.606  -2.990  11.203  1.00  0.00    -0.269 N 
ATOM     14  H3  UNL     1      24.427  -2.391  11.120  1.00  0.00     0.179 HD
BRANCH  13  15
HETATM   15  S1  UNL     1      22.042  -2.288  11.333  1.00  0.00     0.358 S 
HETATM   16  O1  UNL     1      21.101  -3.125  10.529  1.00  0.00    -0.187 OA
HETATM   17  O2  UNL     1      21.605  -2.181  12.769  1.00  0.00    -0.187 OA
ENDBRANCH  13  15
ENDBRANCH   4  13
TORSDOF 3
ENDMDL
MODEL 3
REMARK VINA RESULT: -5.951081492      0.783      1.795
REMARK  3 active torsions:
REMARK  status: ('A' for Active; 'I' for Inactive)
REMARK    1  A    between atoms: C1_4  and  C2_6 
REMARK    2  A    between atoms: C5_9  and  N3_10 
REMARK    3  A    between atoms: N3_10  and  S1_12 
ROOT
HETATM    1  C2  UNL     1      22.756  -3.944  11.451  1.00  0.00     0.006 A 
HETATM    2  C3  UNL     1      23.988  -3.968  10.859  1.00  0.00     0.017 A 
HETATM    3  C4  UNL     1      24.845  -5.069  10.959  1.00  0.00     0.033 A 
HETATM    4  C5  UNL     1      24.479  -6.185  11.665  1.00  0.00     0.067 A 
HETATM    5  C6  UNL     1      23.220  -6.156  12.267  1.00  0.00     0.074 A 
HETATM    6  N4  UNL     1      22.831  -7.301  12.999  1.00  0.00    -0.100 NA
HETATM    7  C7  UNL     1      22.378  -5.071  12.169  1.00  0.00     0.043 A 
ENDROOT
BRANCH   1   8
HETATM    8  C1  UNL     1      21.855  -2.786  11.347  1.00  0.00     0.120 C 
HETATM    9  N1  UNL     1      21.297  -2.436  10.249  1.00  0.00    -0.387 N 
ATOM     10  H12 UNL     1      20.672  -1.633  10.177  1.00  0.00     0.157 HD
ATOM     11  H11 UNL     1      21.490  -2.988   9.413  1.00  0.00     0.157 HD
HETATM   12  N2  UNL     1      21.589  -2.025  12.502  1.00  0.00    -0.082 NA
ENDBRANCH   1   8
BRANCH   4  13
HETATM   13  N3  UNL     1      25.282  -7.340  11.805  1.00  0.00    -0.269 N 
ATOM     14  H3  UNL     1      26.075  -7.333  12.445  1.00  0.00     0.179 HD
BRANCH  13  15
HETATM   15  S1  UNL     1      24.925  -8.756  10.896  1.00  0.00     0.358 S 
HETATM   16  O1  UNL     1      24.562  -9.835  11.863  1.00  0.00    -0.187 OA
HETATM   17  O2  UNL     1      23.826  -8.507   9.899  1.00  0.00    -0.187 OA
ENDBRANCH  13  15
ENDBRANCH   4  13
TORSDOF 3
ENDMDL
MODEL 4
REMARK VINA RESULT: -5.577529978      4.916      6.457
REMARK  3 active torsions:
REMARK  status: ('A' for Active; 'I' for Inactive)
REMARK    1  A    between atoms: C1_4  and  C2_6 
REMARK    2  A    between atoms: C5_9  and  N3_10 
REMARK    3  A    between atoms: N3_10  and  S1_12 
ROOT
HETATM    1  C2  UNL     1      18.266  -3.187  15.095  1.00  0.00     0.006 A 
HETATM    2  C3  UNL     1      19.602  -2.943  15.248  1.00  0.00     0.017 A 
HETATM    3  C4  UNL     1      20.440  -2.657  14.165  1.00  0.00     0.033 A 
HETATM    4  C5  UNL     1      19.947  -2.608  12.887  1.00  0.00     0.067 A 
HETATM    5  C6  UNL     1      18.583  -2.858  12.735  1.00  0.00     0.074 A 
HETATM    6  N4  UNL     1      18.063  -2.812  11.422  1.00  0.00    -0.100 NA
HETATM    7  C7  UNL     1      17.759  -3.141  13.802  1.00  0.00     0.043 A 
ENDROOT
BRANCH   1   8
HETATM    8  C1  UNL     1      17.386  -3.489  16.233  1.00  0.00     0.120 C 
HETATM    9  N1  UNL     1      16.865  -4.644  16.422  1.00  0.00    -0.387 N 
ATOM     10  H12 UNL     1      16.254  -4.853  17.212  1.00  0.00     0.157 HD
ATOM     11  H11 UNL     1      17.072  -5.382  15.749  1.00  0.00     0.157 HD
HETATM   12  N2  UNL     1      17.100  -2.469  17.162  1.00  0.00    -0.082 NA
ENDBRANCH   1   8
BRANCH   4  13
HETATM   13  N3  UNL     1      20.725  -2.317  11.743  1.00  0.00    -0.269 N 
ATOM     14  H3  UNL     1      20.426  -1.585  11.099  1.00  0.00     0.179 HD
BRANCH  13  15
HETATM   15  S1  UNL     1      22.172  -3.193  11.435  1.00  0.00     0.358 S 
HETATM   16  O1  UNL     1      23.287  -2.486  12.131  1.00  0.00    -0.187 OA
HETATM   17  O2  UNL     1      22.053  -4.625  11.883  1.00  0.00    -0.187 OA
ENDBRANCH  13  15
ENDBRANCH   4  13
TORSDOF 3
ENDMDL
MODEL 5
REMARK VINA RESULT: -5.481461743      3.890      5.399
REMARK  3 active torsions:
REMARK  status: ('A' for Active; 'I' for Inactive)
REMARK    1  A    between atoms: C1_4  and  C2_6 
REMARK    2  A    between atoms: C5_9  and  N3_10 
REMARK    3  A    between atoms: N3_10  and  S1_12 
ROOT
HETATM    1  C2  UNL     1      24.334  -6.525  11.551  1.00  0.00     0.006 A 
HETATM    2  C3  UNL     1      23.145  -6.545  12.225  1.00  0.00     0.017 A 
HETATM    3  C4  UNL     1      22.302  -5.430  12.290  1.00  0.00     0.033 A 
HETATM    4  C5  UNL     1      22.641  -4.255  11.673  1.00  0.00     0.067 A 
HETATM    5  C6  UNL     1      23.856  -4.239  10.986  1.00  0.00     0.074 A 
HETATM    6  N4  UNL     1      24.216  -3.032  10.345  1.00  0.00    -0.100 NA
HETATM    7  C7  UNL     1      24.685  -5.337  10.923  1.00  0.00     0.043 A 
ENDROOT
BRANCH   1   8
HETATM    8  C1  UNL     1      25.219  -7.697  11.483  1.00  0.00     0.120 C 
HETATM    9  N1  UNL     1      26.444  -7.666  11.856  1.00  0.00    -0.387 N 
ATOM     10  H12 UNL     1      27.058  -8.479  11.809  1.00  0.00     0.157 HD
ATOM     11  H11 UNL     1      26.817  -6.786  12.214  1.00  0.00     0.157 HD
HETATM   12  N2  UNL     1      24.704  -8.912  10.990  1.00  0.00    -0.082 NA
ENDBRANCH   1   8
BRANCH   4  13
HETATM   13  N3  UNL     1      21.842  -3.089  11.684  1.00  0.00    -0.269 N 
ATOM     14  H3  UNL     1      22.107  -2.286  11.114  1.00  0.00     0.179 HD
BRANCH  13  15
HETATM   15  S1  UNL     1      20.425  -3.021  12.656  1.00  0.00     0.358 S 
HETATM   16  O1  UNL     1      20.672  -2.033  13.749  1.00  0.00    -0.187 OA
HETATM   17  O2  UNL     1      19.215  -2.658  11.839  1.00  0.00    -0.187 OA
ENDBRANCH  13  15
ENDBRANCH   4  13
TORSDOF 3
ENDMDL
