MODEL 1
REMARK VINA RESULT: -5.668102840      0.000      0.000
REMARK  3 active torsions:
REMARK  status: ('A' for Active; 'I' for Inactive)
REMARK    1  A    between atoms: N1_2  and  S1_4 
REMARK    2  A    between atoms: S1_4  and  C2_7 
REMARK    3  A    between atoms: C5_10  and  C6_11 
ROOT
HETATM    1  C2  UNL     1      22.580  -4.285  11.281  1.00  0.00     0.079 A 
HETATM    2  C3  UNL     1      23.663  -4.357  10.431  1.00  0.00     0.026 A 
HETATM    3  C4  UNL     1      24.479  -5.438  10.500  1.00  0.00     0.016 A 
HETATM    4  C5  UNL     1      24.238  -6.464  11.406  1.00  0.00     0.005 A 
HETATM    5  C7  UNL     1      23.156  -6.373  12.241  1.00  0.00     0.016 A 
HETATM    6  C8  UNL     1      22.325  -5.292  12.188  1.00  0.00     0.026 A 
ENDROOT
BRANCH   1   7
HETATM    7  S1  UNL     1      21.512  -2.889  11.206  1.00  0.00     0.258 S 
HETATM    8  O1  UNL     1      20.479  -3.058  10.133  1.00  0.00    -0.201 OA
HETATM    9  O2  UNL     1      22.379  -1.698  10.905  1.00  0.00    -0.201 OA
BRANCH   7  10
HETATM   10  N1  UNL     1      20.777  -2.639  12.726  1.00  0.00    -0.320 N 
HETATM   11  C1  UNL     1      19.347  -2.580  12.687  1.00  0.00     0.159 C 
ATOM     12  H1  UNL     1      21.311  -2.542  13.590  1.00  0.00     0.171 HD
ENDBRANCH   7  10
ENDBRANCH   1   7
BRANCH   4  13
HETATM   13  C6  UNL     1      25.123  -7.616  11.465  1.00  0.00     0.120 C 
HETATM   14  N2  UNL     1      26.313  -7.535  11.843  1.00  0.00    -0.387 N 
ATOM     15  H22 UNL     1      26.682  -6.626  12.123  1.00  0.00     0.157 HD
ATOM     16  H21 UNL     1      26.934  -8.343  11.884  1.00  0.00     0.157 HD
HETATM   17  N3  UNL     1      24.610  -8.881  11.076  1.00  0.00    -0.082 NA
ENDBRANCH   4  13
TORSDOF 3
ENDMDL
MODEL 2
REMARK VINA RESULT: -5.653591154      0.014      1.277
REMARK  3 active torsions:
REMARK  status: ('A' for Active; 'I' for Inactive)
REMARK    1  A    between atoms: N1_2  and  S1_4 
REMARK    2  A    between atoms: S1_4  and  C2_7 
REMARK    3  A    between atoms: C5_10  and  C6_11 
ROOT
HETATM    1  C2  UNL     1      22.576  -4.287  11.284  1.00  0.00     0.079 A 
HETATM    2  C3  UNL     1      22.310  -5.293  12.188  1.00  0.00     0.026 A 
HETATM    3  C4  UNL     1      23.136  -6.367  12.235  1.00  0.00     0.016 A 
HETATM    4  C5  UNL     1      24.237  -6.464  11.391  1.00  0.00     0.005 A 
HETATM    5  C7  UNL     1      24.483  -5.453  10.501  1.00  0.00     0.016 A 
HETATM    6  C8  UNL     1      23.663  -4.365  10.439  1.00  0.00     0.026 A 
ENDROOT
BRANCH   1   7
HETATM    7  S1  UNL     1      21.514  -2.886  11.210  1.00  0.00     0.258 S 
HETATM    8  O1  UNL     1      20.480  -3.050  10.137  1.00  0.00    -0.201 OA
HETATM    9  O2  UNL     1      22.385  -1.699  10.910  1.00  0.00    -0.201 OA
BRANCH   7  10
HETATM   10  N1  UNL     1      20.780  -2.635  12.731  1.00  0.00    -0.320 N 
HETATM   11  C1  UNL     1      19.350  -2.572  12.692  1.00  0.00     0.159 C 
ATOM     12  H1  UNL     1      21.315  -2.537  13.594  1.00  0.00     0.171 HD
ENDBRANCH   7  10
ENDBRANCH   1   7
BRANCH   4  13
HETATM   13  C6  UNL     1      25.112  -7.623  11.456  1.00  0.00     0.120 C 
HETATM   14  N2  UNL     1      26.303  -7.550  11.835  1.00  0.00    -0.387 N 
ATOM     15  H22 UNL     1      26.679  -6.643  12.111  1.00  0.00     0.157 HD
ATOM     16  H21 UNL     1      26.917  -8.363  11.880  1.00  0.00     0.157 HD
HETATM   17  N3  UNL     1      24.589  -8.886  11.072  1.00  0.00    -0.082 NA
ENDBRANCH   4  13
TORSDOF 3
ENDMDL
MODEL 3
REMARK VINA RESULT: -5.223844949      3.193      6.701
REMARK  3 active torsions:
REMARK  status: ('A' for Active; 'I' for Inactive)
REMARK    1  A    between atoms: N1_2  and  S1_4 
REMARK    2  A    between atoms: S1_4  and  C2_7 
REMARK    3  A    between atoms: C5_10  and  C6_11 
ROOT
HETATM    1  C2  UNL     1      19.982  -3.405  13.436  1.00  0.00     0.079 A 
HETATM    2  C3  UNL     1      18.881  -2.576  13.396  1.00  0.00     0.026 A 
HETATM    3  C4  UNL     1      17.916  -2.722  14.337  1.00  0.00     0.016 A 
HETATM    4  C5  UNL     1      18.023  -3.687  15.331  1.00  0.00     0.005 A 
HETATM    5  C7  UNL     1      19.125  -4.500  15.353  1.00  0.00     0.016 A 
HETATM    6  C8  UNL     1      20.106  -4.369  14.414  1.00  0.00     0.026 A 
ENDROOT
BRANCH   1   7
HETATM    7  S1  UNL     1      21.243  -3.229  12.222  1.00  0.00     0.258 S 
HETATM    8  O1  UNL     1      22.170  -2.103  12.568  1.00  0.00    -0.201 OA
HETATM    9  O2  UNL     1      20.551  -2.945  10.918  1.00  0.00    -0.201 OA
BRANCH   7  10
HETATM   10  N1  UNL     1      22.099  -4.696  12.059  1.00  0.00    -0.320 N 
HETATM   11  C1  UNL     1      23.424  -4.550  11.535  1.00  0.00     0.159 C 
ATOM     12  H1  UNL     1      21.701  -5.600  12.314  1.00  0.00     0.171 HD
ENDBRANCH   7  10
ENDBRANCH   1   7
BRANCH   4  13
HETATM   13  C6  UNL     1      16.978  -3.829  16.333  1.00  0.00     0.120 C 
HETATM   14  N2  UNL     1      16.260  -4.851  16.419  1.00  0.00    -0.387 N 
ATOM     15  H22 UNL     1      16.409  -5.617  15.763  1.00  0.00     0.157 HD
ATOM     16  H21 UNL     1      15.527  -4.950  17.122  1.00  0.00     0.157 HD
HETATM   17  N3  UNL     1      16.770  -2.763  17.246  1.00  0.00    -0.082 NA
ENDBRANCH   4  13
TORSDOF 3
ENDMDL
MODEL 4
REMARK VINA RESULT: -5.119086115      2.443      5.572
REMARK  3 active torsions:
REMARK  status: ('A' for Active; 'I' for Inactive)
REMARK    1  A    between atoms: N1_2  and  S1_4 
REMARK    2  A    between atoms: S1_4  and  C2_7 
REMARK    3  A    between atoms: C5_10  and  C6_11 
ROOT
HETATM    1  C2  UNL     1      23.476  -4.518  10.947  1.00  0.00     0.079 A 
HETATM    2  C3  UNL     1      22.769  -5.207  11.911  1.00  0.00     0.026 A 
HETATM    3  C4  UNL     1      21.709  -4.603  12.503  1.00  0.00     0.016 A 
HETATM    4  C5  UNL     1      21.329  -3.313  12.152  1.00  0.00     0.005 A 
HETATM    5  C7  UNL     1      22.043  -2.647  11.192  1.00  0.00     0.016 A 
HETATM    6  C8  UNL     1      23.114  -3.237  10.586  1.00  0.00     0.026 A 
ENDROOT
BRANCH   1   7
HETATM    7  S1  UNL     1      24.854  -5.286  10.170  1.00  0.00     0.258 S 
HETATM    8  O1  UNL     1      26.141  -4.851  10.804  1.00  0.00    -0.201 OA
HETATM    9  O2  UNL     1      24.824  -4.869   8.727  1.00  0.00    -0.201 OA
BRANCH   7  10
HETATM   10  N1  UNL     1      24.686  -6.983  10.236  1.00  0.00    -0.320 N 
HETATM   11  C1  UNL     1      25.254  -7.587  11.403  1.00  0.00     0.159 C 
ATOM     12  H1  UNL     1      24.219  -7.521   9.506  1.00  0.00     0.171 HD
ENDBRANCH   7  10
ENDBRANCH   1   7
BRANCH   4  13
HETATM   13  C6  UNL     1      20.188  -2.682  12.796  1.00  0.00     0.120 C 
HETATM   14  N2  UNL     1      19.188  -2.282  12.158  1.00  0.00    -0.387 N 
ATOM     15  H22 UNL     1      19.168  -2.402  11.146  1.00  0.00     0.157 HD
ATOM     16  H21 UNL     1      18.388  -1.840  12.611  1.00  0.00     0.157 HD
HETATM   17  N3  UNL     1      20.217  -2.516  14.206  1.00  0.00    -0.082 NA
ENDBRANCH   4  13
TORSDOF 3
ENDMDL
MODEL 5
REMARK VINA RESULT: -5.070213448      5.815      7.310
REMARK  3 active torsions:
REMARK  status: ('A' for Active; 'I' for Inactive)
REMARK    1  A    between atoms: N1_2  and  S1_4 
REMARK    2  A    between atoms: S1_4  and  C2_7 
REMARK    3  A    between atoms: C5_10  and  C6_11 
ROOT
HETATM    1  C2  UNL     1      18.654  -3.833  14.837  1.00  0.00     0.079 A 
HETATM    2  C3  UNL     1      18.920  -5.183  14.919  1.00  0.00     0.026 A 
HETATM    3  C4  UNL     1      18.156  -5.954  15.732  1.00  0.00     0.016 A 
HETATM    4  C5  UNL     1      17.119  -5.404  16.475  1.00  0.00     0.005 A 
HETATM    5  C7  UNL     1      16.870  -4.061  16.379  1.00  0.00     0.016 A 
HETATM    6  C8  UNL     1      17.628  -3.269  15.567  1.00  0.00     0.026 A 
ENDROOT
BRANCH   1   7
HETATM    7  S1  UNL     1      19.635  -2.819  13.787  1.00  0.00     0.258 S 
HETATM    8  O1  UNL     1      20.565  -3.648  12.953  1.00  0.00    -0.201 OA
HETATM    9  O2  UNL     1      20.422  -1.904  14.683  1.00  0.00    -0.201 OA
BRANCH   7  10
HETATM   10  N1  UNL     1      18.626  -1.857  12.801  1.00  0.00    -0.320 N 
HETATM   11  C1  UNL     1      18.019  -2.563  11.714  1.00  0.00     0.159 C 
ATOM     12  H1  UNL     1      18.469  -0.864  12.973  1.00  0.00     0.171 HD
ENDBRANCH   7  10
ENDBRANCH   1   7
BRANCH   4  13
HETATM   13  C6  UNL     1      16.309  -6.246  17.342  1.00  0.00     0.120 C 
HETATM   14  N2  UNL     1      15.114  -6.521  17.092  1.00  0.00    -0.387 N 
ATOM     15  H22 UNL     1      14.686  -6.141  16.248  1.00  0.00     0.157 HD
ATOM     16  H21 UNL     1      14.546  -7.111  17.700  1.00  0.00     0.157 HD
HETATM   17  N3  UNL     1      16.905  -6.774  18.517  1.00  0.00    -0.082 NA
ENDBRANCH   4  13
TORSDOF 3
ENDMDL
