MODEL 1
REMARK VINA RESULT: -6.075543725      0.000      0.000
REMARK  6 active torsions:
REMARK  status: ('A' for Active; 'I' for Inactive)
REMARK    1  A    between atoms: C2_2  and  C3_3 
REMARK    2  A    between atoms: C4_4  and  C5_5 
REMARK    3  A    between atoms: C7_9  and  C8_10 
REMARK    4  A    between atoms: C8_10  and  C9_11 
REMARK    5  A    between atoms: C9_11  and  N3_15 
REMARK    6  A    between atoms: N3_15  and  N4_17 
ROOT
HETATM    1  C5  UNL     1       0.954  -4.397  12.769  1.00  0.00     0.103 A 
HETATM    2  C6  UNL     1       0.878  -3.171  13.397  1.00  0.00     0.128 A 
HETATM    3  N1  UNL     1       1.634  -2.320  12.704  1.00  0.00    -0.353 N 
ATOM      4  H1  UNL     1       1.767  -1.335  12.934  1.00  0.00     0.166 HD
HETATM    5  C7  UNL     1       2.194  -2.952  11.654  1.00  0.00     0.089 A 
HETATM    6  N5  UNL     1       1.764  -4.223  11.713  1.00  0.00    -0.337 N 
ATOM      7  H5  UNL     1       2.018  -4.953  11.047  1.00  0.00     0.168 HD
ENDROOT
BRANCH   5   8
HETATM    8  C8  UNL     1       3.088  -2.298  10.685  1.00  0.00     0.153 C 
BRANCH   8   9
HETATM    9  C9  UNL     1       4.502  -2.562  11.086  1.00  0.00     0.096 C 
HETATM   10  N2  UNL     1       5.434  -2.686  10.200  1.00  0.00    -0.388 N 
ATOM     11  H22 UNL     1       5.248  -2.609   9.200  1.00  0.00     0.157 HD
ATOM     12  H21 UNL     1       6.400  -2.867  10.474  1.00  0.00     0.157 HD
BRANCH   9  13
HETATM   13  N3  UNL     1       4.763  -2.670  12.489  1.00  0.00    -0.296 N 
ATOM     14  H3  UNL     1       4.182  -3.248  13.096  1.00  0.00     0.187 HD
BRANCH  13  15
HETATM   15  N4  UNL     1       5.841  -1.952  12.987  1.00  0.00    -0.344 N 
ATOM     16  H42 UNL     1       5.830  -1.598  13.944  1.00  0.00     0.176 HD
ATOM     17  H41 UNL     1       6.629  -1.802  12.358  1.00  0.00     0.176 HD
ENDBRANCH  13  15
ENDBRANCH   9  13
ENDBRANCH   8   9
ENDBRANCH   5   8
BRANCH   1  18
HETATM   18  C4  UNL     1       0.311  -5.625  13.143  1.00  0.00    -0.043 C 
HETATM   19  C3  UNL     1      -0.215  -6.667  13.445  1.00  0.00    -0.072 C 
BRANCH  19  20
HETATM   20  C2  UNL     1      -0.835  -7.938  13.796  1.00  0.00     0.054 C 
HETATM   21  C1  UNL     1      -1.068  -8.782  12.820  1.00  0.00     0.021 C 
ENDBRANCH  19  20
ENDBRANCH   1  18
TORSDOF 6
ENDMDL
MODEL 2
REMARK VINA RESULT: -6.038541921      3.143      4.688
REMARK  6 active torsions:
REMARK  status: ('A' for Active; 'I' for Inactive)
REMARK    1  A    between atoms: C2_2  and  C3_3 
REMARK    2  A    between atoms: C4_4  and  C5_5 
REMARK    3  A    between atoms: C7_9  and  C8_10 
REMARK    4  A    between atoms: C8_10  and  C9_11 
REMARK    5  A    between atoms: C9_11  and  N3_15 
REMARK    6  A    between atoms: N3_15  and  N4_17 
ROOT
HETATM    1  C5  UNL     1       0.871  -6.833  11.653  1.00  0.00     0.103 A 
HETATM    2  C6  UNL     1       0.105  -7.577  12.527  1.00  0.00     0.128 A 
HETATM    3  N1  UNL     1      -0.263  -6.770  13.522  1.00  0.00    -0.353 N 
ATOM      4  H1  UNL     1      -0.839  -7.047  14.318  1.00  0.00     0.166 HD
HETATM    5  C7  UNL     1       0.238  -5.534  13.322  1.00  0.00     0.089 A 
HETATM    6  N5  UNL     1       0.928  -5.595  12.172  1.00  0.00    -0.337 N 
ATOM      7  H5  UNL     1       1.426  -4.811  11.751  1.00  0.00     0.168 HD
ENDROOT
BRANCH   5   8
HETATM    8  C8  UNL     1       0.019  -4.404  14.237  1.00  0.00     0.153 C 
BRANCH   8   9
HETATM    9  C9  UNL     1       0.118  -3.133  13.458  1.00  0.00     0.096 C 
HETATM   10  N2  UNL     1      -0.886  -2.688  12.778  1.00  0.00    -0.388 N 
ATOM     11  H22 UNL     1      -1.780  -3.177  12.743  1.00  0.00     0.157 HD
ATOM     12  H21 UNL     1      -0.818  -1.820  12.246  1.00  0.00     0.157 HD
BRANCH   9  13
HETATM   13  N3  UNL     1       1.372  -2.446  13.507  1.00  0.00    -0.296 N 
ATOM     14  H3  UNL     1       1.720  -2.034  14.372  1.00  0.00     0.187 HD
BRANCH  13  15
HETATM   15  N4  UNL     1       2.094  -2.365  12.325  1.00  0.00    -0.344 N 
ATOM     16  H42 UNL     1       2.438  -1.465  11.988  1.00  0.00     0.176 HD
ATOM     17  H41 UNL     1       2.258  -3.236  11.821  1.00  0.00     0.176 HD
ENDBRANCH  13  15
ENDBRANCH   9  13
ENDBRANCH   8   9
ENDBRANCH   5   8
BRANCH   1  18
HETATM   18  C4  UNL     1       1.491  -7.263  10.433  1.00  0.00    -0.043 C 
HETATM   19  C3  UNL     1       2.008  -7.646   9.412  1.00  0.00    -0.072 C 
BRANCH  19  20
HETATM   20  C2  UNL     1       2.625  -8.130   8.184  1.00  0.00     0.054 C 
HETATM   21  C1  UNL     1       2.280  -9.324   7.769  1.00  0.00     0.021 C 
ENDBRANCH  19  20
ENDBRANCH   1  18
TORSDOF 6
ENDMDL
MODEL 3
REMARK VINA RESULT: -6.008737303      0.382      1.461
REMARK  6 active torsions:
REMARK  status: ('A' for Active; 'I' for Inactive)
REMARK    1  A    between atoms: C2_2  and  C3_3 
REMARK    2  A    between atoms: C4_4  and  C5_5 
REMARK    3  A    between atoms: C7_9  and  C8_10 
REMARK    4  A    between atoms: C8_10  and  C9_11 
REMARK    5  A    between atoms: C9_11  and  N3_15 
REMARK    6  A    between atoms: N3_15  and  N4_17 
ROOT
HETATM    1  C5  UNL     1       0.969  -4.411  12.779  1.00  0.00     0.103 A 
HETATM    2  C6  UNL     1       0.883  -3.185  13.408  1.00  0.00     0.128 A 
HETATM    3  N1  UNL     1       1.649  -2.332  12.727  1.00  0.00    -0.353 N 
ATOM      4  H1  UNL     1       1.778  -1.347  12.961  1.00  0.00     0.166 HD
HETATM    5  C7  UNL     1       2.225  -2.962  11.684  1.00  0.00     0.089 A 
HETATM    6  N5  UNL     1       1.795  -4.234  11.735  1.00  0.00    -0.337 N 
ATOM      7  H5  UNL     1       2.060  -4.963  11.073  1.00  0.00     0.168 HD
ENDROOT
BRANCH   5   8
HETATM    8  C8  UNL     1       3.132  -2.306  10.730  1.00  0.00     0.153 C 
BRANCH   8   9
HETATM    9  C9  UNL     1       4.540  -2.533  11.176  1.00  0.00     0.096 C 
HETATM   10  N2  UNL     1       4.841  -2.586  12.431  1.00  0.00    -0.388 N 
ATOM     11  H22 UNL     1       4.140  -2.479  13.164  1.00  0.00     0.157 HD
ATOM     12  H21 UNL     1       5.802  -2.740  12.736  1.00  0.00     0.157 HD
BRANCH   9  13
HETATM   13  N3  UNL     1       5.523  -2.684  10.148  1.00  0.00    -0.296 N 
ATOM     14  H3  UNL     1       6.518  -2.737  10.366  1.00  0.00     0.187 HD
BRANCH  13  15
HETATM   15  N4  UNL     1       5.063  -2.754   8.841  1.00  0.00    -0.344 N 
ATOM     16  H42 UNL     1       4.483  -2.009   8.455  1.00  0.00     0.176 HD
ATOM     17  H41 UNL     1       5.331  -3.575   8.298  1.00  0.00     0.176 HD
ENDBRANCH  13  15
ENDBRANCH   9  13
ENDBRANCH   8   9
ENDBRANCH   5   8
BRANCH   1  18
HETATM   18  C4  UNL     1       0.323  -5.639  13.142  1.00  0.00    -0.043 C 
HETATM   19  C3  UNL     1      -0.205  -6.682  13.439  1.00  0.00    -0.072 C 
BRANCH  19  20
HETATM   20  C2  UNL     1      -0.822  -7.955  13.789  1.00  0.00     0.054 C 
HETATM   21  C1  UNL     1      -1.075  -8.789  12.811  1.00  0.00     0.021 C 
ENDBRANCH  19  20
ENDBRANCH   1  18
TORSDOF 6
ENDMDL
MODEL 4
REMARK VINA RESULT: -5.916171470      4.136      5.679
REMARK  6 active torsions:
REMARK  status: ('A' for Active; 'I' for Inactive)
REMARK    1  A    between atoms: C2_2  and  C3_3 
REMARK    2  A    between atoms: C4_4  and  C5_5 
REMARK    3  A    between atoms: C7_9  and  C8_10 
REMARK    4  A    between atoms: C8_10  and  C9_11 
REMARK    5  A    between atoms: C9_11  and  N3_15 
REMARK    6  A    between atoms: N3_15  and  N4_17 
ROOT
HETATM    1  C5  UNL     1       0.676  -6.958  11.680  1.00  0.00     0.103 A 
HETATM    2  C6  UNL     1       0.600  -7.614  12.892  1.00  0.00     0.128 A 
HETATM    3  N1  UNL     1      -0.337  -7.004  13.618  1.00  0.00    -0.353 N 
ATOM      4  H1  UNL     1      -0.613  -7.274  14.562  1.00  0.00     0.166 HD
HETATM    5  C7  UNL     1      -0.866  -5.980  12.920  1.00  0.00     0.089 A 
HETATM    6  N5  UNL     1      -0.232  -5.969  11.737  1.00  0.00    -0.337 N 
ATOM      7  H5  UNL     1      -0.414  -5.304  10.985  1.00  0.00     0.168 HD
ENDROOT
BRANCH   5   8
HETATM    8  C8  UNL     1      -1.927  -5.100  13.434  1.00  0.00     0.153 C 
BRANCH   8   9
HETATM    9  C9  UNL     1      -1.301  -3.837  13.930  1.00  0.00     0.096 C 
HETATM   10  N2  UNL     1      -1.038  -2.862  13.124  1.00  0.00    -0.388 N 
ATOM     11  H22 UNL     1      -1.244  -2.910  12.127  1.00  0.00     0.157 HD
ATOM     12  H21 UNL     1      -0.610  -2.000  13.463  1.00  0.00     0.157 HD
BRANCH   9  13
HETATM   13  N3  UNL     1      -1.013  -3.770  15.330  1.00  0.00    -0.296 N 
ATOM     14  H3  UNL     1      -0.091  -3.501  15.672  1.00  0.00     0.187 HD
BRANCH  13  15
HETATM   15  N4  UNL     1      -2.045  -4.086  16.203  1.00  0.00    -0.344 N 
ATOM     16  H42 UNL     1      -2.919  -3.561  16.183  1.00  0.00     0.176 HD
ATOM     17  H41 UNL     1      -1.884  -4.857  16.851  1.00  0.00     0.176 HD
ENDBRANCH  13  15
ENDBRANCH   9  13
ENDBRANCH   8   9
ENDBRANCH   5   8
BRANCH   1  18
HETATM   18  C4  UNL     1       1.537  -7.247  10.570  1.00  0.00    -0.043 C 
HETATM   19  C3  UNL     1       2.252  -7.510   9.635  1.00  0.00    -0.072 C 
BRANCH  19  20
HETATM   20  C2  UNL     1       3.106  -7.850   8.503  1.00  0.00     0.054 C 
HETATM   21  C1  UNL     1       3.277  -9.123   8.241  1.00  0.00     0.021 C 
ENDBRANCH  19  20
ENDBRANCH   1  18
TORSDOF 6
ENDMDL
MODEL 5
REMARK VINA RESULT: -5.839125849      4.125      5.669
REMARK  6 active torsions:
REMARK  status: ('A' for Active; 'I' for Inactive)
REMARK    1  A    between atoms: C2_2  and  C3_3 
REMARK    2  A    between atoms: C4_4  and  C5_5 
REMARK    3  A    between atoms: C7_9  and  C8_10 
REMARK    4  A    between atoms: C8_10  and  C9_11 
REMARK    5  A    between atoms: C9_11  and  N3_15 
REMARK    6  A    between atoms: N3_15  and  N4_17 
ROOT
HETATM    1  C5  UNL     1       0.582  -6.905  11.929  1.00  0.00     0.103 A 
HETATM    2  C6  UNL     1       0.568  -7.562  13.142  1.00  0.00     0.128 A 
HETATM    3  N1  UNL     1      -0.373  -6.991  13.894  1.00  0.00    -0.353 N 
ATOM      4  H1  UNL     1      -0.611  -7.270  14.846  1.00  0.00     0.166 HD
HETATM    5  C7  UNL     1      -0.965  -5.991  13.210  1.00  0.00     0.089 A 
HETATM    6  N5  UNL     1      -0.365  -5.956  12.010  1.00  0.00    -0.337 N 
ATOM      7  H5  UNL     1      -0.596  -5.300  11.263  1.00  0.00     0.168 HD
ENDROOT
BRANCH   5   8
HETATM    8  C8  UNL     1      -2.047  -5.155  13.753  1.00  0.00     0.153 C 
BRANCH   8   9
HETATM    9  C9  UNL     1      -1.458  -4.179  14.719  1.00  0.00     0.096 C 
HETATM   10  N2  UNL     1      -1.705  -4.262  15.984  1.00  0.00    -0.388 N 
ATOM     11  H22 UNL     1      -2.304  -4.989  16.375  1.00  0.00     0.157 HD
ATOM     12  H21 UNL     1      -1.304  -3.595  16.643  1.00  0.00     0.157 HD
BRANCH   9  13
HETATM   13  N3  UNL     1      -0.617  -3.159  14.170  1.00  0.00    -0.296 N 
ATOM     14  H3  UNL     1       0.192  -2.806  14.679  1.00  0.00     0.187 HD
BRANCH  13  15
HETATM   15  N4  UNL     1      -0.952  -2.673  12.915  1.00  0.00    -0.344 N 
ATOM     16  H42 UNL     1      -1.019  -1.669  12.749  1.00  0.00     0.176 HD
ATOM     17  H41 UNL     1      -1.124  -3.361  12.182  1.00  0.00     0.176 HD
ENDBRANCH  13  15
ENDBRANCH   9  13
ENDBRANCH   8   9
ENDBRANCH   5   8
BRANCH   1  18
HETATM   18  C4  UNL     1       1.423  -7.161  10.794  1.00  0.00    -0.043 C 
HETATM   19  C3  UNL     1       2.114  -7.385   9.831  1.00  0.00    -0.072 C 
BRANCH  19  20
HETATM   20  C2  UNL     1       2.929  -7.667   8.657  1.00  0.00     0.054 C 
HETATM   21  C1  UNL     1       2.757  -8.826   8.070  1.00  0.00     0.021 C 
ENDBRANCH  19  20
ENDBRANCH   1  18
TORSDOF 6
ENDMDL
