MODEL 1
REMARK VINA RESULT: -5.885482469      0.000      0.000
REMARK  4 active torsions:
REMARK  status: ('A' for Active; 'I' for Inactive)
REMARK    1  A    between atoms: N1_1  and  C1_4 
REMARK    2  A    between atoms: C5_13  and  C6_14 
REMARK    3  A    between atoms: C6_14  and  C7_15 
REMARK    4  A    between atoms: C7_15  and  N4_16 
ROOT
HETATM    1  C1  UNL     1      -0.865  -4.744  14.248  1.00  0.00     0.115 A 
HETATM    2  N2  UNL     1      -1.317  -6.006  14.049  1.00  0.00    -0.294 N 
ATOM      3  H2  UNL     1      -2.060  -6.382  14.637  1.00  0.00     0.172 HD
HETATM    4  C2  UNL     1      -0.788  -6.757  13.080  1.00  0.00     0.326 A 
HETATM    5  O1  UNL     1      -1.244  -7.931  12.933  1.00  0.00    -0.247 OA
HETATM    6  N3  UNL     1       0.196  -6.287  12.284  1.00  0.00    -0.308 N 
ATOM      7  H3  UNL     1       0.575  -6.892  11.555  1.00  0.00     0.170 HD
HETATM    8  C3  UNL     1       0.692  -5.048  12.423  1.00  0.00     0.050 A 
HETATM    9  C4  UNL     1       1.693  -4.563  11.615  1.00  0.00     0.037 A 
HETATM   10  C5  UNL     1       2.196  -3.296  11.763  1.00  0.00    -0.054 A 
HETATM   11  C8  UNL     1       1.641  -2.530  12.768  1.00  0.00     0.008 A 
HETATM   12  C9  UNL     1       0.626  -3.005  13.595  1.00  0.00     0.018 A 
HETATM   13  C10 UNL     1       0.146  -4.265  13.427  1.00  0.00     0.034 A 
ENDROOT
BRANCH  10  14
HETATM   14  C6  UNL     1       3.263  -2.717  10.936  1.00  0.00     0.066 C 
BRANCH  14  15
HETATM   15  C7  UNL     1       4.632  -2.821  11.559  1.00  0.00     0.234 C 
BRANCH  15  16
HETATM   16  N4  UNL     1       5.290  -1.527  11.317  1.00  0.00    -0.079 N 
ATOM     17  H43 UNL     1       5.463  -1.338  10.331  1.00  0.00     0.274 HD
ATOM     18  H42 UNL     1       4.686  -0.725  11.494  1.00  0.00     0.274 HD
ATOM     19  H41 UNL     1       6.137  -1.530  11.885  1.00  0.00     0.274 HD
ENDBRANCH  15  16
ENDBRANCH  14  15
ENDBRANCH  10  14
BRANCH   1  20
HETATM   20  N1  UNL     1      -1.393  -4.067  15.177  1.00  0.00    -0.385 N 
ATOM     21  H12 UNL     1      -2.394  -4.064  15.377  1.00  0.00     0.157 HD
ATOM     22  H11 UNL     1      -0.781  -3.493  15.756  1.00  0.00     0.157 HD
ENDBRANCH   1  20
TORSDOF 4
ENDMDL
MODEL 2
REMARK VINA RESULT: -5.864823374      3.144      4.496
REMARK  4 active torsions:
REMARK  status: ('A' for Active; 'I' for Inactive)
REMARK    1  A    between atoms: N1_1  and  C1_4 
REMARK    2  A    between atoms: C5_13  and  C6_14 
REMARK    3  A    between atoms: C6_14  and  C7_15 
REMARK    4  A    between atoms: C7_15  and  N4_16 
ROOT
HETATM    1  C1  UNL     1       3.666  -2.686  13.536  1.00  0.00     0.115 A 
HETATM    2  N2  UNL     1       2.378  -2.658  13.960  1.00  0.00    -0.294 N 
ATOM      3  H2  UNL     1       2.169  -2.609  14.957  1.00  0.00     0.172 HD
HETATM    4  C2  UNL     1       1.384  -2.694  13.071  1.00  0.00     0.326 A 
HETATM    5  O1  UNL     1       0.198  -2.665  13.516  1.00  0.00    -0.247 OA
HETATM    6  N3  UNL     1       1.629  -2.759  11.744  1.00  0.00    -0.308 N 
ATOM      7  H3  UNL     1       0.841  -2.786  11.096  1.00  0.00     0.170 HD
HETATM    8  C3  UNL     1       2.877  -2.790  11.253  1.00  0.00     0.050 A 
HETATM    9  C4  UNL     1       3.133  -2.855   9.903  1.00  0.00     0.037 A 
HETATM   10  C5  UNL     1       4.410  -2.888   9.407  1.00  0.00    -0.054 A 
HETATM   11  C8  UNL     1       5.430  -2.849  10.337  1.00  0.00     0.008 A 
HETATM   12  C9  UNL     1       5.189  -2.782  11.707  1.00  0.00     0.018 A 
HETATM   13  C10 UNL     1       3.912  -2.752  12.172  1.00  0.00     0.034 A 
ENDROOT
BRANCH  10  14
HETATM   14  C6  UNL     1       4.753  -2.957   7.981  1.00  0.00     0.066 C 
BRANCH  14  15
HETATM   15  C7  UNL     1       3.865  -2.109   7.106  1.00  0.00     0.234 C 
BRANCH  15  16
HETATM   16  N4  UNL     1       4.751  -1.134   6.448  1.00  0.00    -0.079 N 
ATOM     17  H43 UNL     1       5.220  -1.505   5.622  1.00  0.00     0.274 HD
ATOM     18  H42 UNL     1       4.248  -0.381   5.978  1.00  0.00     0.274 HD
ATOM     19  H41 UNL     1       5.394  -0.806   7.167  1.00  0.00     0.274 HD
ENDBRANCH  15  16
ENDBRANCH  14  15
ENDBRANCH  10  14
BRANCH   1  20
HETATM   20  N1  UNL     1       4.578  -2.650  14.412  1.00  0.00    -0.385 N 
ATOM     21  H12 UNL     1       4.768  -1.836  14.997  1.00  0.00     0.157 HD
ATOM     22  H11 UNL     1       5.151  -3.484  14.537  1.00  0.00     0.157 HD
ENDBRANCH   1  20
TORSDOF 4
ENDMDL
MODEL 3
REMARK VINA RESULT: -5.658156364      2.618      5.060
REMARK  4 active torsions:
REMARK  status: ('A' for Active; 'I' for Inactive)
REMARK    1  A    between atoms: N1_1  and  C1_4 
REMARK    2  A    between atoms: C5_13  and  C6_14 
REMARK    3  A    between atoms: C6_14  and  C7_15 
REMARK    4  A    between atoms: C7_15  and  N4_16 
ROOT
HETATM    1  C1  UNL     1       1.408  -2.539  12.858  1.00  0.00     0.115 A 
HETATM    2  N2  UNL     1       2.489  -2.429  12.047  1.00  0.00    -0.294 N 
ATOM      3  H2  UNL     1       3.043  -1.573  12.049  1.00  0.00     0.172 HD
HETATM    4  C2  UNL     1       2.829  -3.442  11.248  1.00  0.00     0.326 A 
HETATM    5  O1  UNL     1       3.847  -3.291  10.509  1.00  0.00    -0.247 OA
HETATM    6  N3  UNL     1       2.115  -4.589  11.224  1.00  0.00    -0.308 N 
ATOM      7  H3  UNL     1       2.406  -5.340  10.598  1.00  0.00     0.170 HD
HETATM    8  C3  UNL     1       1.034  -4.769  11.999  1.00  0.00     0.050 A 
HETATM    9  C4  UNL     1       0.304  -5.934  11.980  1.00  0.00     0.037 A 
HETATM   10  C5  UNL     1      -0.800  -6.112  12.773  1.00  0.00    -0.054 A 
HETATM   11  C8  UNL     1      -1.140  -5.057  13.595  1.00  0.00     0.008 A 
HETATM   12  C9  UNL     1      -0.412  -3.870  13.627  1.00  0.00     0.018 A 
HETATM   13  C10 UNL     1       0.678  -3.720  12.830  1.00  0.00     0.034 A 
ENDROOT
BRANCH  10  14
HETATM   14  C6  UNL     1      -1.623  -7.328  12.802  1.00  0.00     0.066 C 
BRANCH  14  15
HETATM   15  C7  UNL     1      -0.815  -8.601  12.828  1.00  0.00     0.234 C 
BRANCH  15  16
HETATM   16  N4  UNL     1       0.021  -8.529  14.037  1.00  0.00    -0.079 N 
ATOM     17  H43 UNL     1      -0.438  -8.069  14.822  1.00  0.00     0.274 HD
ATOM     18  H42 UNL     1       0.161  -9.433  14.488  1.00  0.00     0.274 HD
ATOM     19  H41 UNL     1       0.890  -8.078  13.754  1.00  0.00     0.274 HD
ENDBRANCH  15  16
ENDBRANCH  14  15
ENDBRANCH  10  14
BRANCH   1  20
HETATM   20  N1  UNL     1       1.121  -1.556  13.599  1.00  0.00    -0.385 N 
ATOM     21  H12 UNL     1       1.758  -0.779  13.780  1.00  0.00     0.157 HD
ATOM     22  H11 UNL     1       0.201  -1.542  14.039  1.00  0.00     0.157 HD
ENDBRANCH   1  20
TORSDOF 4
ENDMDL
MODEL 4
REMARK VINA RESULT: -5.509530104      7.625      8.796
REMARK  4 active torsions:
REMARK  status: ('A' for Active; 'I' for Inactive)
REMARK    1  A    between atoms: N1_1  and  C1_4 
REMARK    2  A    between atoms: C5_13  and  C6_14 
REMARK    3  A    between atoms: C6_14  and  C7_15 
REMARK    4  A    between atoms: C7_15  and  N4_16 
ROOT
HETATM    1  C1  UNL     1       4.655 -12.139   9.492  1.00  0.00     0.115 A 
HETATM    2  N2  UNL     1       5.646 -11.683  10.298  1.00  0.00    -0.294 N 
ATOM      3  H2  UNL     1       6.161 -12.332  10.891  1.00  0.00     0.172 HD
HETATM    4  C2  UNL     1       5.946 -10.382  10.313  1.00  0.00     0.326 A 
HETATM    5  O1  UNL     1       6.879 -10.005  11.083  1.00  0.00    -0.247 OA
HETATM    6  N3  UNL     1       5.281  -9.498   9.539  1.00  0.00    -0.308 N 
ATOM      7  H3  UNL     1       5.539  -8.511   9.581  1.00  0.00     0.170 HD
HETATM    8  C3  UNL     1       4.290  -9.877   8.718  1.00  0.00     0.050 A 
HETATM    9  C4  UNL     1       3.610  -8.982   7.926  1.00  0.00     0.037 A 
HETATM   10  C5  UNL     1       2.598  -9.375   7.089  1.00  0.00    -0.054 A 
HETATM   11  C8  UNL     1       2.298 -10.722   7.082  1.00  0.00     0.008 A 
HETATM   12  C9  UNL     1       2.976 -11.643   7.876  1.00  0.00     0.018 A 
HETATM   13  C10 UNL     1       3.976 -11.226   8.698  1.00  0.00     0.034 A 
ENDROOT
BRANCH  10  14
HETATM   14  C6  UNL     1       1.833  -8.472   6.219  1.00  0.00     0.066 C 
BRANCH  14  15
HETATM   15  C7  UNL     1       1.984  -7.016   6.579  1.00  0.00     0.234 C 
BRANCH  15  16
HETATM   16  N4  UNL     1       1.595  -6.256   5.381  1.00  0.00    -0.079 N 
ATOM     17  H43 UNL     1       1.053  -5.418   5.589  1.00  0.00     0.274 HD
ATOM     18  H42 UNL     1       2.377  -5.788   4.924  1.00  0.00     0.274 HD
ATOM     19  H41 UNL     1       1.106  -6.915   4.774  1.00  0.00     0.274 HD
ENDBRANCH  15  16
ENDBRANCH  14  15
ENDBRANCH  10  14
BRANCH   1  20
HETATM   20  N1  UNL     1       4.403 -13.378   9.508  1.00  0.00    -0.385 N 
ATOM     21  H12 UNL     1       4.488 -13.983   8.691  1.00  0.00     0.157 HD
ATOM     22  H11 UNL     1       4.099 -13.791  10.389  1.00  0.00     0.157 HD
ENDBRANCH   1  20
TORSDOF 4
ENDMDL
MODEL 5
REMARK VINA RESULT: -5.400504282      1.507      2.439
REMARK  4 active torsions:
REMARK  status: ('A' for Active; 'I' for Inactive)
REMARK    1  A    between atoms: N1_1  and  C1_4 
REMARK    2  A    between atoms: C5_13  and  C6_14 
REMARK    3  A    between atoms: C6_14  and  C7_15 
REMARK    4  A    between atoms: C7_15  and  N4_16 
ROOT
HETATM    1  C1  UNL     1      -0.719  -6.092  13.473  1.00  0.00     0.115 A 
HETATM    2  N2  UNL     1      -1.443  -5.663  14.536  1.00  0.00    -0.294 N 
ATOM      3  H2  UNL     1      -2.137  -6.276  14.962  1.00  0.00     0.172 HD
HETATM    4  C2  UNL     1      -1.247  -4.436  15.024  1.00  0.00     0.326 A 
HETATM    5  O1  UNL     1      -1.949  -4.081  16.018  1.00  0.00    -0.247 OA
HETATM    6  N3  UNL     1      -0.335  -3.601  14.481  1.00  0.00    -0.308 N 
ATOM      7  H3  UNL     1      -0.215  -2.670  14.883  1.00  0.00     0.170 HD
HETATM    8  C3  UNL     1       0.418  -3.958  13.429  1.00  0.00     0.050 A 
HETATM    9  C4  UNL     1       1.348  -3.112  12.873  1.00  0.00     0.037 A 
HETATM   10  C5  UNL     1       2.114  -3.482  11.797  1.00  0.00    -0.054 A 
HETATM   11  C8  UNL     1       1.901  -4.753  11.302  1.00  0.00     0.008 A 
HETATM   12  C9  UNL     1       0.963  -5.622  11.854  1.00  0.00     0.018 A 
HETATM   13  C10 UNL     1       0.217  -5.230  12.920  1.00  0.00     0.034 A 
ENDROOT
BRANCH  10  14
HETATM   14  C6  UNL     1       3.124  -2.630  11.156  1.00  0.00     0.066 C 
BRANCH  14  15
HETATM   15  C7  UNL     1       4.497  -2.763  11.763  1.00  0.00     0.234 C 
BRANCH  15  16
HETATM   16  N4  UNL     1       5.391  -1.936  10.936  1.00  0.00    -0.079 N 
ATOM     17  H43 UNL     1       6.104  -2.475  10.446  1.00  0.00     0.274 HD
ATOM     18  H42 UNL     1       4.937  -1.550  10.108  1.00  0.00     0.274 HD
ATOM     19  H41 UNL     1       5.775  -1.225  11.557  1.00  0.00     0.274 HD
ENDBRANCH  15  16
ENDBRANCH  14  15
ENDBRANCH  10  14
BRANCH   1  20
HETATM   20  N1  UNL     1      -0.937  -7.261  13.042  1.00  0.00    -0.385 N 
ATOM     21  H12 UNL     1      -0.198  -7.927  12.818  1.00  0.00     0.157 HD
ATOM     22  H11 UNL     1      -1.907  -7.548  12.913  1.00  0.00     0.157 HD
ENDBRANCH   1  20
TORSDOF 4
ENDMDL
