MODEL 1
REMARK VINA RESULT: -5.820379996      0.000      0.000
REMARK  4 active torsions:
REMARK  status: ('A' for Active; 'I' for Inactive)
REMARK    1  A    between atoms: C2_2  and  C3_3 
REMARK    2  A    between atoms: C3_3  and  N1_4 
REMARK    3  A    between atoms: N1_4  and  C4_6 
REMARK    4  A    between atoms: C8_14  and  N5_15 
ROOT
HETATM    1  C4  UNL     1       2.089  -3.172  11.978  1.00  0.00     0.681 A 
HETATM    2  N2  UNL     1       2.086  -4.466  11.675  1.00  0.00    -0.177 N 
ATOM      3  H2  UNL     1       2.916  -4.877  11.249  1.00  0.00     0.185 HD
HETATM    4  C5  UNL     1       1.016  -5.250  11.915  1.00  0.00     0.156 A 
HETATM    5  N3  UNL     1       1.009  -6.636  11.592  1.00  0.00    -0.080 NA
HETATM    6  C6  UNL     1      -0.137  -4.735  12.494  1.00  0.00     0.130 A 
HETATM    7  C7  UNL     1      -1.278  -5.570  12.752  1.00  0.00     0.106 C 
HETATM    8  N4  UNL     1      -2.202  -6.248  12.972  1.00  0.00    -0.191 NA
HETATM    9  C8  UNL     1      -0.119  -3.390  12.803  1.00  0.00     0.139 A 
HETATM   10  N6  UNL     1       0.976  -2.653  12.542  1.00  0.00    -0.176 N 
ATOM     11  H6  UNL     1       0.965  -1.661  12.780  1.00  0.00     0.186 HD
ENDROOT
BRANCH   9  12
HETATM   12  N5  UNL     1      -1.186  -2.890  13.346  1.00  0.00    -0.384 N 
ATOM     13  H52 UNL     1      -2.103  -3.329  13.263  1.00  0.00     0.157 HD
ATOM     14  H51 UNL     1      -1.081  -2.022  13.872  1.00  0.00     0.157 HD
ENDBRANCH   9  12
BRANCH   1  15
HETATM   15  N1  UNL     1       3.065  -2.370  11.779  1.00  0.00    -0.226 N 
ATOM     16  H1  UNL     1       3.121  -1.556  12.391  1.00  0.00     0.177 HD
BRANCH  15  17
HETATM   17  C3  UNL     1       4.082  -2.499  10.792  1.00  0.00     0.137 C 
BRANCH  17  18
HETATM   18  C2  UNL     1       5.412  -2.163  11.437  1.00  0.00     0.016 C 
HETATM   19  C1  UNL     1       5.508  -2.617  12.857  1.00  0.00     0.006 C 
ENDBRANCH  17  18
ENDBRANCH  15  17
ENDBRANCH   1  15
TORSDOF 4
ENDMDL
MODEL 2
REMARK VINA RESULT: -5.774383377      2.243      5.543
REMARK  4 active torsions:
REMARK  status: ('A' for Active; 'I' for Inactive)
REMARK    1  A    between atoms: C2_2  and  C3_3 
REMARK    2  A    between atoms: C3_3  and  N1_4 
REMARK    3  A    between atoms: N1_4  and  C4_6 
REMARK    4  A    between atoms: C8_14  and  N5_15 
ROOT
HETATM    1  C4  UNL     1       2.682  -2.991  12.055  1.00  0.00     0.681 A 
HETATM    2  N2  UNL     1       2.483  -3.769  10.997  1.00  0.00    -0.177 N 
ATOM      3  H2  UNL     1       1.620  -4.308  10.933  1.00  0.00     0.185 HD
HETATM    4  C5  UNL     1       3.390  -3.866  10.005  1.00  0.00     0.156 A 
HETATM    5  N3  UNL     1       3.180  -4.699   8.869  1.00  0.00    -0.080 NA
HETATM    6  C6  UNL     1       4.580  -3.151  10.047  1.00  0.00     0.130 A 
HETATM    7  C7  UNL     1       5.548  -3.253   8.989  1.00  0.00     0.106 C 
HETATM    8  N4  UNL     1       6.330  -3.325   8.126  1.00  0.00    -0.191 NA
HETATM    9  C8  UNL     1       4.773  -2.347  11.152  1.00  0.00     0.139 A 
HETATM   10  N6  UNL     1       3.834  -2.288  12.114  1.00  0.00    -0.176 N 
ATOM     11  H6  UNL     1       3.999  -1.687  12.921  1.00  0.00     0.186 HD
ENDROOT
BRANCH   9  12
HETATM   12  N5  UNL     1       5.878  -1.670  11.209  1.00  0.00    -0.384 N 
ATOM     13  H52 UNL     1       6.704  -1.919  10.665  1.00  0.00     0.157 HD
ATOM     14  H51 UNL     1       5.900  -0.861  11.831  1.00  0.00     0.157 HD
ENDBRANCH   9  12
BRANCH   1  15
HETATM   15  N1  UNL     1       1.868  -2.851  13.032  1.00  0.00    -0.226 N 
ATOM     16  H1  UNL     1       2.206  -2.328  13.839  1.00  0.00     0.177 HD
BRANCH  15  17
HETATM   17  C3  UNL     1       0.537  -3.349  13.104  1.00  0.00     0.137 C 
BRANCH  17  18
HETATM   18  C2  UNL     1       0.455  -4.307  14.277  1.00  0.00     0.016 C 
HETATM   19  C1  UNL     1      -0.927  -4.446  14.828  1.00  0.00     0.006 C 
ENDBRANCH  17  18
ENDBRANCH  15  17
ENDBRANCH   1  15
TORSDOF 4
ENDMDL
MODEL 3
REMARK VINA RESULT: -5.666583698      0.314      2.162
REMARK  4 active torsions:
REMARK  status: ('A' for Active; 'I' for Inactive)
REMARK    1  A    between atoms: C2_2  and  C3_3 
REMARK    2  A    between atoms: C3_3  and  N1_4 
REMARK    3  A    between atoms: N1_4  and  C4_6 
REMARK    4  A    between atoms: C8_14  and  N5_15 
ROOT
HETATM    1  C4  UNL     1       2.064  -3.055  12.068  1.00  0.00     0.681 A 
HETATM    2  N2  UNL     1       1.052  -2.692  12.847  1.00  0.00    -0.177 N 
ATOM      3  H2  UNL     1       1.033  -1.746  13.227  1.00  0.00     0.185 HD
HETATM    4  C5  UNL     1       0.049  -3.540  13.150  1.00  0.00     0.156 A 
HETATM    5  N3  UNL     1      -1.038  -3.155  13.986  1.00  0.00    -0.080 NA
HETATM    6  C6  UNL     1       0.030  -4.838  12.657  1.00  0.00     0.130 A 
HETATM    7  C7  UNL     1      -1.039  -5.743  12.979  1.00  0.00     0.106 C 
HETATM    8  N4  UNL     1      -1.912  -6.475  13.230  1.00  0.00    -0.191 NA
HETATM    9  C8  UNL     1       1.089  -5.200  11.849  1.00  0.00     0.139 A 
HETATM   10  N6  UNL     1       2.064  -4.314  11.577  1.00  0.00    -0.176 N 
ATOM     11  H6  UNL     1       2.836  -4.606  10.978  1.00  0.00     0.186 HD
ENDROOT
BRANCH   9  12
HETATM   12  N5  UNL     1       1.089  -6.409  11.376  1.00  0.00    -0.384 N 
ATOM     13  H52 UNL     1       1.180  -6.610  10.381  1.00  0.00     0.157 HD
ATOM     14  H51 UNL     1       0.994  -7.173  12.046  1.00  0.00     0.157 HD
ENDBRANCH   9  12
BRANCH   1  15
HETATM   15  N1  UNL     1       3.048  -2.306  11.738  1.00  0.00    -0.226 N 
ATOM     16  H1  UNL     1       3.079  -1.379  12.161  1.00  0.00     0.177 HD
BRANCH  15  17
HETATM   17  C3  UNL     1       4.102  -2.636  10.841  1.00  0.00     0.137 C 
BRANCH  17  18
HETATM   18  C2  UNL     1       5.410  -2.192  11.467  1.00  0.00     0.016 C 
HETATM   19  C1  UNL     1       5.551  -2.612  12.895  1.00  0.00     0.006 C 
ENDBRANCH  17  18
ENDBRANCH  15  17
ENDBRANCH   1  15
TORSDOF 4
ENDMDL
MODEL 4
REMARK VINA RESULT: -5.614940885      1.894      2.339
REMARK  4 active torsions:
REMARK  status: ('A' for Active; 'I' for Inactive)
REMARK    1  A    between atoms: C2_2  and  C3_3 
REMARK    2  A    between atoms: C3_3  and  N1_4 
REMARK    3  A    between atoms: N1_4  and  C4_6 
REMARK    4  A    between atoms: C8_14  and  N5_15 
ROOT
HETATM    1  C4  UNL     1       1.745  -2.699  12.272  1.00  0.00     0.681 A 
HETATM    2  N2  UNL     1       0.451  -2.663  11.974  1.00  0.00    -0.177 N 
ATOM      3  H2  UNL     1       0.158  -2.257  11.086  1.00  0.00     0.185 HD
HETATM    4  C5  UNL     1      -0.485  -3.148  12.813  1.00  0.00     0.156 A 
HETATM    5  N3  UNL     1      -1.873  -3.111  12.497  1.00  0.00    -0.080 NA
HETATM    6  C6  UNL     1      -0.135  -3.710  14.033  1.00  0.00     0.130 A 
HETATM    7  C7  UNL     1      -1.133  -4.229  14.929  1.00  0.00     0.106 C 
HETATM    8  N4  UNL     1      -1.940  -4.661  15.653  1.00  0.00    -0.191 NA
HETATM    9  C8  UNL     1       1.213  -3.740  14.329  1.00  0.00     0.139 A 
HETATM   10  N6  UNL     1       2.106  -3.242  13.455  1.00  0.00    -0.176 N 
ATOM     11  H6  UNL     1       3.097  -3.275  13.696  1.00  0.00     0.186 HD
ENDROOT
BRANCH   9  12
HETATM   12  N5  UNL     1       1.561  -4.263  15.465  1.00  0.00    -0.384 N 
ATOM     13  H52 UNL     1       1.660  -3.711  16.317  1.00  0.00     0.157 HD
ATOM     14  H51 UNL     1       1.739  -5.267  15.483  1.00  0.00     0.157 HD
ENDBRANCH   9  12
BRANCH   1  15
HETATM   15  N1  UNL     1       2.687  -2.258  11.526  1.00  0.00    -0.226 N 
ATOM     16  H1  UNL     1       2.660  -1.266  11.292  1.00  0.00     0.177 HD
BRANCH  15  17
HETATM   17  C3  UNL     1       3.768  -3.013  10.991  1.00  0.00     0.137 C 
BRANCH  17  18
HETATM   18  C2  UNL     1       5.060  -2.308  11.353  1.00  0.00     0.016 C 
HETATM   19  C1  UNL     1       5.540  -2.630  12.731  1.00  0.00     0.006 C 
ENDBRANCH  17  18
ENDBRANCH  15  17
ENDBRANCH   1  15
TORSDOF 4
ENDMDL
MODEL 5
REMARK VINA RESULT: -5.546450445      2.342      5.125
REMARK  4 active torsions:
REMARK  status: ('A' for Active; 'I' for Inactive)
REMARK    1  A    between atoms: C2_2  and  C3_3 
REMARK    2  A    between atoms: C3_3  and  N1_4 
REMARK    3  A    between atoms: N1_4  and  C4_6 
REMARK    4  A    between atoms: C8_14  and  N5_15 
ROOT
HETATM    1  C4  UNL     1      -1.105  -6.321  12.566  1.00  0.00     0.681 A 
HETATM    2  N2  UNL     1       0.011  -6.044  11.902  1.00  0.00    -0.177 N 
ATOM      3  H2  UNL     1       0.363  -6.716  11.221  1.00  0.00     0.185 HD
HETATM    4  C5  UNL     1       0.692  -4.898  12.104  1.00  0.00     0.156 A 
HETATM    5  N3  UNL     1       1.889  -4.597  11.394  1.00  0.00    -0.080 NA
HETATM    6  C6  UNL     1       0.253  -3.952  13.020  1.00  0.00     0.130 A 
HETATM    7  C7  UNL     1       0.977  -2.730  13.236  1.00  0.00     0.106 C 
HETATM    8  N4  UNL     1       1.558  -1.732  13.404  1.00  0.00    -0.191 NA
HETATM    9  C8  UNL     1      -0.909  -4.254  13.702  1.00  0.00     0.139 A 
HETATM   10  N6  UNL     1      -1.550  -5.413  13.463  1.00  0.00    -0.176 N 
ATOM     11  H6  UNL     1      -2.406  -5.614  13.979  1.00  0.00     0.186 HD
ENDROOT
BRANCH   9  12
HETATM   12  N5  UNL     1      -1.337  -3.383  14.563  1.00  0.00    -0.384 N 
ATOM     13  H52 UNL     1      -1.592  -2.431  14.301  1.00  0.00     0.157 HD
ATOM     14  H51 UNL     1      -1.412  -3.683  15.535  1.00  0.00     0.157 HD
ENDBRANCH   9  12
BRANCH   1  15
HETATM   15  N1  UNL     1      -1.802  -7.385  12.427  1.00  0.00    -0.226 N 
ATOM     16  H1  UNL     1      -2.710  -7.282  11.975  1.00  0.00     0.177 HD
BRANCH  15  17
HETATM   17  C3  UNL     1      -1.437  -8.698  12.839  1.00  0.00     0.137 C 
BRANCH  17  18
HETATM   18  C2  UNL     1      -0.703  -8.590  14.161  1.00  0.00     0.016 C 
HETATM   19  C1  UNL     1       0.782  -8.541  14.007  1.00  0.00     0.006 C 
ENDBRANCH  17  18
ENDBRANCH  15  17
ENDBRANCH   1  15
TORSDOF 4
ENDMDL
