MODEL 1
REMARK VINA RESULT: -6.142605956      0.000      0.000
REMARK  2 active torsions:
REMARK  status: ('A' for Active; 'I' for Inactive)
REMARK       I    between atoms: C2_2  and  N1_4 
REMARK    1  A    between atoms: N1_4  and  C3_6 
REMARK    2  A    between atoms: C6_11  and  N3_12 
ROOT
HETATM    1  C3  UNL     1       0.797  -4.105  12.615  1.00  0.00     0.127 A 
HETATM    2  C4  UNL     1       0.226  -5.328  13.009  1.00  0.00     0.055 A 
HETATM    3  C5  UNL     1       0.568  -6.564  12.292  1.00  0.00     0.071 C 
HETATM    4  N2  UNL     1      -0.620  -5.345  14.030  1.00  0.00    -0.194 N 
ATOM      5  H2  UNL     1      -1.020  -6.245  14.297  1.00  0.00     0.184 HD
HETATM    6  C6  UNL     1      -0.987  -4.273  14.735  1.00  0.00     0.679 A 
HETATM    7  N4  UNL     1      -0.456  -3.095  14.379  1.00  0.00    -0.154 N 
ATOM      8  H4  UNL     1      -0.711  -2.253  14.896  1.00  0.00     0.187 HD
HETATM    9  C7  UNL     1       0.428  -3.002  13.332  1.00  0.00     0.288 A 
HETATM   10  O2  UNL     1       0.847  -1.869  13.099  1.00  0.00    -0.265 OA
ENDROOT
BRANCH   1  11
HETATM   11  N1  UNL     1       1.679  -4.108  11.545  1.00  0.00    -0.321 N 
HETATM   12  C2  UNL     1       2.944  -3.581  11.323  1.00  0.00     0.218 C 
HETATM   13  C1  UNL     1       3.603  -3.806   9.977  1.00  0.00     0.117 C 
HETATM   14  O1  UNL     1       3.624  -2.933  12.099  1.00  0.00    -0.274 OA
ATOM     15  H1  UNL     1       1.315  -4.614  10.737  1.00  0.00     0.169 HD
ENDBRANCH   1  11
BRANCH   6  16
HETATM   16  N3  UNL     1      -1.803  -4.318  15.714  1.00  0.00    -0.234 N 
ATOM     17  H32 UNL     1      -2.348  -5.167  15.870  1.00  0.00     0.174 HD
ATOM     18  H31 UNL     1      -1.948  -3.544  16.362  1.00  0.00     0.174 HD
ENDBRANCH   6  16
TORSDOF 2
ENDMDL
MODEL 2
REMARK VINA RESULT: -6.086395256      2.663      4.172
REMARK  2 active torsions:
REMARK  status: ('A' for Active; 'I' for Inactive)
REMARK       I    between atoms: C2_2  and  N1_4 
REMARK    1  A    between atoms: N1_4  and  C3_6 
REMARK    2  A    between atoms: C6_11  and  N3_12 
ROOT
HETATM    1  C3  UNL     1      -0.298  -5.505  13.031  1.00  0.00     0.127 A 
HETATM    2  C4  UNL     1       0.797  -5.195  12.206  1.00  0.00     0.055 A 
HETATM    3  C5  UNL     1       1.257  -6.161  11.199  1.00  0.00     0.071 C 
HETATM    4  N2  UNL     1       1.402  -4.024  12.352  1.00  0.00    -0.194 N 
ATOM      5  H2  UNL     1       2.193  -3.822  11.742  1.00  0.00     0.184 HD
HETATM    6  C6  UNL     1       1.053  -3.090  13.240  1.00  0.00     0.679 A 
HETATM    7  N4  UNL     1       0.011  -3.362  14.038  1.00  0.00    -0.154 N 
ATOM      8  H4  UNL     1      -0.286  -2.672  14.728  1.00  0.00     0.187 HD
HETATM    9  C7  UNL     1      -0.663  -4.555  13.942  1.00  0.00     0.288 A 
HETATM   10  O2  UNL     1      -1.601  -4.691  14.727  1.00  0.00    -0.265 OA
ENDROOT
BRANCH   1  11
HETATM   11  N1  UNL     1      -0.917  -6.735  12.862  1.00  0.00    -0.321 N 
HETATM   12  C2  UNL     1      -0.631  -8.033  13.263  1.00  0.00     0.218 C 
HETATM   13  C1  UNL     1      -1.582  -9.145  12.869  1.00  0.00     0.117 C 
HETATM   14  O1  UNL     1       0.325  -8.415  13.915  1.00  0.00    -0.274 OA
ATOM     15  H1  UNL     1      -1.779  -6.671  12.321  1.00  0.00     0.169 HD
ENDBRANCH   1  11
BRANCH   6  16
HETATM   16  N3  UNL     1       1.653  -1.972  13.359  1.00  0.00    -0.234 N 
ATOM     17  H32 UNL     1       2.636  -1.960  13.633  1.00  0.00     0.174 HD
ATOM     18  H31 UNL     1       1.203  -1.071  13.196  1.00  0.00     0.174 HD
ENDBRANCH   6  16
TORSDOF 2
ENDMDL
MODEL 3
REMARK VINA RESULT: -6.042487336      2.543      4.277
REMARK  2 active torsions:
REMARK  status: ('A' for Active; 'I' for Inactive)
REMARK       I    between atoms: C2_2  and  N1_4 
REMARK    1  A    between atoms: N1_4  and  C3_6 
REMARK    2  A    between atoms: C6_11  and  N3_12 
ROOT
HETATM    1  C3  UNL     1      -0.042  -5.462  12.966  1.00  0.00     0.127 A 
HETATM    2  C4  UNL     1      -0.484  -4.585  13.971  1.00  0.00     0.055 A 
HETATM    3  C5  UNL     1      -1.592  -4.975  14.854  1.00  0.00     0.071 C 
HETATM    4  N2  UNL     1       0.113  -3.409  14.108  1.00  0.00    -0.194 N 
ATOM      5  H2  UNL     1      -0.225  -2.790  14.845  1.00  0.00     0.184 HD
HETATM    6  C6  UNL     1       1.123  -2.973  13.351  1.00  0.00     0.679 A 
HETATM    7  N4  UNL     1       1.562  -3.792  12.386  1.00  0.00    -0.154 N 
ATOM      8  H4  UNL     1       2.334  -3.494  11.788  1.00  0.00     0.187 HD
HETATM    9  C7  UNL     1       0.992  -5.025  12.187  1.00  0.00     0.288 A 
HETATM   10  O2  UNL     1       1.480  -5.687  11.271  1.00  0.00    -0.265 OA
ENDROOT
BRANCH   1  11
HETATM   11  N1  UNL     1      -0.679  -6.688  12.840  1.00  0.00    -0.321 N 
HETATM   12  C2  UNL     1      -0.392  -7.982  13.253  1.00  0.00     0.218 C 
HETATM   13  C1  UNL     1      -1.368  -9.090  12.912  1.00  0.00     0.117 C 
HETATM   14  O1  UNL     1       0.581  -8.363  13.880  1.00  0.00    -0.274 OA
ATOM     15  H1  UNL     1      -1.558  -6.624  12.326  1.00  0.00     0.169 HD
ENDBRANCH   1  11
BRANCH   6  16
HETATM   16  N3  UNL     1       1.678  -1.836  13.505  1.00  0.00    -0.234 N 
ATOM     17  H32 UNL     1       1.392  -1.241  14.283  1.00  0.00     0.174 HD
ATOM     18  H31 UNL     1       2.404  -1.476  12.885  1.00  0.00     0.174 HD
ENDBRANCH   6  16
TORSDOF 2
ENDMDL
MODEL 4
REMARK VINA RESULT: -5.919980693      1.335      1.335
REMARK  2 active torsions:
REMARK  status: ('A' for Active; 'I' for Inactive)
REMARK       I    between atoms: C2_2  and  N1_4 
REMARK    1  A    between atoms: N1_4  and  C3_6 
REMARK    2  A    between atoms: C6_11  and  N3_12 
ROOT
HETATM    1  C3  UNL     1       1.090  -4.076  12.366  1.00  0.00     0.127 A 
HETATM    2  C4  UNL     1       0.480  -5.317  12.114  1.00  0.00     0.055 A 
HETATM    3  C5  UNL     1       1.228  -6.379  11.427  1.00  0.00     0.071 C 
HETATM    4  N2  UNL     1      -0.773  -5.511  12.505  1.00  0.00    -0.194 N 
ATOM      5  H2  UNL     1      -1.193  -6.420  12.311  1.00  0.00     0.184 HD
HETATM    6  C6  UNL     1      -1.525  -4.604  13.132  1.00  0.00     0.679 A 
HETATM    7  N4  UNL     1      -0.966  -3.413  13.385  1.00  0.00    -0.154 N 
ATOM      8  H4  UNL     1      -1.509  -2.695  13.864  1.00  0.00     0.187 HD
HETATM    9  C7  UNL     1       0.327  -3.142  13.009  1.00  0.00     0.288 A 
HETATM   10  O2  UNL     1       0.731  -2.015  13.294  1.00  0.00    -0.265 OA
ENDROOT
BRANCH   1  11
HETATM   11  N1  UNL     1       2.400  -3.894  11.950  1.00  0.00    -0.321 N 
HETATM   12  C2  UNL     1       3.026  -3.047  11.045  1.00  0.00     0.218 C 
HETATM   13  C1  UNL     1       4.527  -3.155  10.863  1.00  0.00     0.117 C 
HETATM   14  O1  UNL     1       2.508  -2.193  10.347  1.00  0.00    -0.274 OA
ATOM     15  H1  UNL     1       3.052  -4.526  12.415  1.00  0.00     0.169 HD
ENDBRANCH   1  11
BRANCH   6  16
HETATM   16  N3  UNL     1      -2.728  -4.817  13.497  1.00  0.00    -0.234 N 
ATOM     17  H32 UNL     1      -3.172  -5.704  13.256  1.00  0.00     0.174 HD
ATOM     18  H31 UNL     1      -3.285  -4.144  14.022  1.00  0.00     0.174 HD
ENDBRANCH   6  16
TORSDOF 2
ENDMDL
MODEL 5
REMARK VINA RESULT: -5.919036965      2.090      2.442
REMARK  2 active torsions:
REMARK  status: ('A' for Active; 'I' for Inactive)
REMARK       I    between atoms: C2_2  and  N1_4 
REMARK    1  A    between atoms: N1_4  and  C3_6 
REMARK    2  A    between atoms: C6_11  and  N3_12 
ROOT
HETATM    1  C3  UNL     1      -0.062  -5.180  12.940  1.00  0.00     0.127 A 
HETATM    2  C4  UNL     1      -1.339  -5.669  13.266  1.00  0.00     0.055 A 
HETATM    3  C5  UNL     1      -1.980  -6.680  12.413  1.00  0.00     0.071 C 
HETATM    4  N2  UNL     1      -1.950  -5.206  14.348  1.00  0.00    -0.194 N 
ATOM      5  H2  UNL     1      -2.875  -5.577  14.564  1.00  0.00     0.184 HD
HETATM    6  C6  UNL     1      -1.443  -4.289  15.176  1.00  0.00     0.679 A 
HETATM    7  N4  UNL     1      -0.226  -3.808  14.887  1.00  0.00    -0.154 N 
ATOM      8  H4  UNL     1       0.194  -3.107  15.498  1.00  0.00     0.187 HD
HETATM    9  C7  UNL     1       0.464  -4.243  13.782  1.00  0.00     0.288 A 
HETATM   10  O2  UNL     1       1.570  -3.728  13.620  1.00  0.00    -0.265 OA
ENDROOT
BRANCH   1  11
HETATM   11  N1  UNL     1       0.559  -5.678  11.804  1.00  0.00    -0.321 N 
HETATM   12  C2  UNL     1       1.322  -6.803  11.525  1.00  0.00     0.218 C 
HETATM   13  C1  UNL     1       1.839  -7.004  10.114  1.00  0.00     0.117 C 
HETATM   14  O1  UNL     1       1.646  -7.690  12.295  1.00  0.00    -0.274 OA
ATOM     15  H1  UNL     1       0.425  -5.080  10.988  1.00  0.00     0.169 HD
ENDBRANCH   1  11
BRANCH   6  16
HETATM   16  N3  UNL     1      -2.053  -3.862  16.211  1.00  0.00    -0.234 N 
ATOM     17  H32 UNL     1      -2.368  -4.529  16.916  1.00  0.00     0.174 HD
ATOM     18  H31 UNL     1      -2.250  -2.875  16.381  1.00  0.00     0.174 HD
ENDBRANCH   6  16
TORSDOF 2
ENDMDL
