MODEL 1
REMARK VINA RESULT: -7.347950089      0.000      0.000
REMARK  4 active torsions:
REMARK  status: ('A' for Active; 'I' for Inactive)
REMARK    1  A    between atoms: N1_1  and  N2_4 
REMARK    2  A    between atoms: N2_4  and  C1_6 
REMARK    3  A    between atoms: N3_8  and  C3_9 
REMARK    4  A    between atoms: C3_9  and  C4_10 
ROOT
HETATM    1  C1  UNL     1       1.770  -3.015  13.736  1.00  0.00     0.139 A 
HETATM    2  C2  UNL     1       1.040  -3.930  14.464  1.00  0.00     0.145 A 
HETATM    3  N3  UNL     1      -0.158  -4.029  13.865  1.00  0.00    -0.302 N 
HETATM    4  C10 UNL     1      -0.205  -3.214  12.797  1.00  0.00     0.328 A 
HETATM    5  O1  UNL     1      -1.147  -3.015  11.974  1.00  0.00    -0.246 OA
HETATM    6  N4  UNL     1       0.979  -2.603  12.732  1.00  0.00    -0.292 N 
ATOM      7  H4  UNL     1       1.245  -1.921  12.022  1.00  0.00     0.172 HD
ENDROOT
BRANCH   3   8
HETATM    8  C3  UNL     1      -1.229  -4.867  14.286  1.00  0.00     0.171 C 
BRANCH   8   9
HETATM    9  C4  UNL     1      -1.199  -6.234  13.740  1.00  0.00    -0.040 A 
HETATM   10  C5  UNL     1      -1.983  -6.642  12.685  1.00  0.00     0.009 A 
HETATM   11  C6  UNL     1      -1.887  -7.936  12.245  1.00  0.00     0.001 A 
HETATM   12  C7  UNL     1      -1.041  -8.841  12.814  1.00  0.00     0.000 A 
HETATM   13  C8  UNL     1      -0.244  -8.458  13.873  1.00  0.00     0.001 A 
HETATM   14  C9  UNL     1      -0.339  -7.139  14.324  1.00  0.00     0.009 A 
ENDBRANCH   8   9
ENDBRANCH   3   8
BRANCH   1  15
HETATM   15  N2  UNL     1       3.104  -2.563  13.965  1.00  0.00    -0.291 N 
ATOM     16  H2  UNL     1       3.669  -2.278  13.166  1.00  0.00     0.188 HD
BRANCH  15  17
HETATM   17  N1  UNL     1       3.664  -2.496  15.241  1.00  0.00    -0.344 N 
ATOM     18  H12 UNL     1       3.946  -3.372  15.682  1.00  0.00     0.176 HD
ATOM     19  H11 UNL     1       3.797  -1.615  15.736  1.00  0.00     0.176 HD
ENDBRANCH  15  17
ENDBRANCH   1  15
TORSDOF 4
ENDMDL
MODEL 2
REMARK VINA RESULT: -7.311630556      1.059      1.325
REMARK  4 active torsions:
REMARK  status: ('A' for Active; 'I' for Inactive)
REMARK    1  A    between atoms: N1_1  and  N2_4 
REMARK    2  A    between atoms: N2_4  and  C1_6 
REMARK    3  A    between atoms: N3_8  and  C3_9 
REMARK    4  A    between atoms: C3_9  and  C4_10 
ROOT
HETATM    1  C1  UNL     1       1.561  -2.839  12.645  1.00  0.00     0.139 A 
HETATM    2  C2  UNL     1       1.305  -3.827  13.572  1.00  0.00     0.145 A 
HETATM    3  N3  UNL     1      -0.027  -3.998  13.590  1.00  0.00    -0.302 N 
HETATM    4  C10 UNL     1      -0.610  -3.158  12.716  1.00  0.00     0.328 A 
HETATM    5  O1  UNL     1      -1.836  -3.006  12.436  1.00  0.00    -0.246 OA
HETATM    6  N4  UNL     1       0.373  -2.458  12.148  1.00  0.00    -0.292 N 
ATOM      7  H4  UNL     1       0.242  -1.738  11.439  1.00  0.00     0.172 HD
ENDROOT
BRANCH   3   8
HETATM    8  C3  UNL     1      -0.734  -4.926  14.407  1.00  0.00     0.171 C 
BRANCH   8   9
HETATM    9  C4  UNL     1      -0.891  -6.269  13.826  1.00  0.00    -0.040 A 
HETATM   10  C5  UNL     1      -1.872  -6.586  12.913  1.00  0.00     0.009 A 
HETATM   11  C6  UNL     1      -1.941  -7.865  12.426  1.00  0.00     0.001 A 
HETATM   12  C7  UNL     1      -1.073  -8.843  12.813  1.00  0.00     0.000 A 
HETATM   13  C8  UNL     1      -0.081  -8.552  13.727  1.00  0.00     0.001 A 
HETATM   14  C9  UNL     1      -0.007  -7.249  14.225  1.00  0.00     0.009 A 
ENDBRANCH   8   9
ENDBRANCH   3   8
BRANCH   1  15
HETATM   15  N2  UNL     1       2.823  -2.295  12.259  1.00  0.00    -0.291 N 
ATOM     16  H2  UNL     1       3.434  -1.913  12.980  1.00  0.00     0.188 HD
BRANCH  15  17
HETATM   17  N1  UNL     1       3.251  -2.264  10.932  1.00  0.00    -0.344 N 
ATOM     18  H12 UNL     1       2.599  -1.914  10.230  1.00  0.00     0.176 HD
ATOM     19  H11 UNL     1       4.180  -2.576  10.648  1.00  0.00     0.176 HD
ENDBRANCH  15  17
ENDBRANCH   1  15
TORSDOF 4
ENDMDL
MODEL 3
REMARK VINA RESULT: -7.276107422      0.046      1.226
REMARK  4 active torsions:
REMARK  status: ('A' for Active; 'I' for Inactive)
REMARK    1  A    between atoms: N1_1  and  N2_4 
REMARK    2  A    between atoms: N2_4  and  C1_6 
REMARK    3  A    between atoms: N3_8  and  C3_9 
REMARK    4  A    between atoms: C3_9  and  C4_10 
ROOT
HETATM    1  C1  UNL     1       1.768  -3.012  13.739  1.00  0.00     0.139 A 
HETATM    2  C2  UNL     1       1.039  -3.934  14.459  1.00  0.00     0.145 A 
HETATM    3  N3  UNL     1      -0.156  -4.034  13.853  1.00  0.00    -0.302 N 
HETATM    4  C10 UNL     1      -0.202  -3.213  12.789  1.00  0.00     0.328 A 
HETATM    5  O1  UNL     1      -1.140  -3.012  11.963  1.00  0.00    -0.246 OA
HETATM    6  N4  UNL     1       0.980  -2.597  12.734  1.00  0.00    -0.292 N 
ATOM      7  H4  UNL     1       1.247  -1.909  12.029  1.00  0.00     0.172 HD
ENDROOT
BRANCH   3   8
HETATM    8  C3  UNL     1      -1.226  -4.878  14.263  1.00  0.00     0.171 C 
BRANCH   8   9
HETATM    9  C4  UNL     1      -1.141  -6.267  13.780  1.00  0.00    -0.040 A 
HETATM   10  C5  UNL     1      -0.289  -7.203  14.320  1.00  0.00     0.009 A 
HETATM   11  C6  UNL     1      -0.279  -8.472  13.805  1.00  0.00     0.001 A 
HETATM   12  C7  UNL     1      -1.084  -8.847  12.770  1.00  0.00     0.000 A 
HETATM   13  C8  UNL     1      -1.948  -7.928  12.210  1.00  0.00     0.001 A 
HETATM   14  C9  UNL     1      -1.961  -6.633  12.734  1.00  0.00     0.009 A 
ENDBRANCH   8   9
ENDBRANCH   3   8
BRANCH   1  15
HETATM   15  N2  UNL     1       3.100  -2.556  13.978  1.00  0.00    -0.291 N 
ATOM     16  H2  UNL     1       3.662  -2.248  13.185  1.00  0.00     0.188 HD
BRANCH  15  17
HETATM   17  N1  UNL     1       3.661  -2.516  15.254  1.00  0.00    -0.344 N 
ATOM     18  H12 UNL     1       3.041  -2.669  16.050  1.00  0.00     0.176 HD
ATOM     19  H11 UNL     1       4.653  -2.342  15.411  1.00  0.00     0.176 HD
ENDBRANCH  15  17
ENDBRANCH   1  15
TORSDOF 4
ENDMDL
MODEL 4
REMARK VINA RESULT: -6.922702510      1.526      2.120
REMARK  4 active torsions:
REMARK  status: ('A' for Active; 'I' for Inactive)
REMARK    1  A    between atoms: N1_1  and  N2_4 
REMARK    2  A    between atoms: N2_4  and  C1_6 
REMARK    3  A    between atoms: N3_8  and  C3_9 
REMARK    4  A    between atoms: C3_9  and  C4_10 
ROOT
HETATM    1  C1  UNL     1       1.935  -2.940  12.577  1.00  0.00     0.139 A 
HETATM    2  C2  UNL     1       1.264  -3.942  11.910  1.00  0.00     0.145 A 
HETATM    3  N3  UNL     1       0.085  -4.096  12.535  1.00  0.00    -0.302 N 
HETATM    4  C10 UNL     1      -0.005  -3.234  13.563  1.00  0.00     0.328 A 
HETATM    5  O1  UNL     1      -0.946  -3.062  14.394  1.00  0.00    -0.246 OA
HETATM    6  N4  UNL     1       1.132  -2.536  13.574  1.00  0.00    -0.292 N 
ATOM      7  H4  UNL     1       1.358  -1.801  14.244  1.00  0.00     0.172 HD
ENDROOT
BRANCH   3   8
HETATM    8  C3  UNL     1      -0.929  -5.028  12.177  1.00  0.00     0.171 C 
BRANCH   8   9
HETATM    9  C4  UNL     1      -0.711  -6.400  12.665  1.00  0.00    -0.040 A 
HETATM   10  C5  UNL     1       0.420  -6.787  13.348  1.00  0.00     0.009 A 
HETATM   11  C6  UNL     1       0.536  -8.087  13.764  1.00  0.00     0.001 A 
HETATM   12  C7  UNL     1      -0.430  -9.020  13.527  1.00  0.00     0.000 A 
HETATM   13  C8  UNL     1      -1.574  -8.659  12.844  1.00  0.00     0.001 A 
HETATM   14  C9  UNL     1      -1.695  -7.333  12.419  1.00  0.00     0.009 A 
ENDBRANCH   8   9
ENDBRANCH   3   8
BRANCH   1  15
HETATM   15  N2  UNL     1       3.229  -2.405  12.299  1.00  0.00    -0.291 N 
ATOM     16  H2  UNL     1       3.769  -2.006  13.067  1.00  0.00     0.188 HD
BRANCH  15  17
HETATM   17  N1  UNL     1       3.782  -2.406  11.019  1.00  0.00    -0.344 N 
ATOM     18  H12 UNL     1       3.196  -2.727  10.249  1.00  0.00     0.176 HD
ATOM     19  H11 UNL     1       4.738  -2.101  10.835  1.00  0.00     0.176 HD
ENDBRANCH  15  17
ENDBRANCH   1  15
TORSDOF 4
ENDMDL
MODEL 5
REMARK VINA RESULT: -6.543701572      1.576      1.933
REMARK  4 active torsions:
REMARK  status: ('A' for Active; 'I' for Inactive)
REMARK    1  A    between atoms: N1_1  and  N2_4 
REMARK    2  A    between atoms: N2_4  and  C1_6 
REMARK    3  A    between atoms: N3_8  and  C3_9 
REMARK    4  A    between atoms: C3_9  and  C4_10 
ROOT
HETATM    1  C1  UNL     1       2.877  -2.826  14.210  1.00  0.00     0.139 A 
HETATM    2  C2  UNL     1       1.602  -3.350  14.251  1.00  0.00     0.145 A 
HETATM    3  N3  UNL     1       1.119  -3.278  13.000  1.00  0.00    -0.302 N 
HETATM    4  C10 UNL     1       2.037  -2.732  12.183  1.00  0.00     0.328 A 
HETATM    5  O1  UNL     1       1.973  -2.492  10.941  1.00  0.00    -0.246 OA
HETATM    6  N4  UNL     1       3.104  -2.462  12.938  1.00  0.00    -0.292 N 
ATOM      7  H4  UNL     1       3.967  -2.039  12.597  1.00  0.00     0.172 HD
ENDROOT
BRANCH   3   8
HETATM    8  C3  UNL     1      -0.171  -3.712  12.583  1.00  0.00     0.171 C 
BRANCH   8   9
HETATM    9  C4  UNL     1      -0.360  -5.172  12.567  1.00  0.00    -0.040 A 
HETATM   10  C5  UNL     1      -1.491  -5.791  13.049  1.00  0.00     0.009 A 
HETATM   11  C6  UNL     1      -1.578  -7.158  12.993  1.00  0.00     0.001 A 
HETATM   12  C7  UNL     1      -0.582  -7.933  12.477  1.00  0.00     0.000 A 
HETATM   13  C8  UNL     1       0.562  -7.338  11.988  1.00  0.00     0.001 A 
HETATM   14  C9  UNL     1       0.654  -5.945  12.043  1.00  0.00     0.009 A 
ENDBRANCH   8   9
ENDBRANCH   3   8
BRANCH   1  15
HETATM   15  N2  UNL     1       3.808  -2.679  15.282  1.00  0.00    -0.291 N 
ATOM     16  H2  UNL     1       4.643  -2.113  15.132  1.00  0.00     0.188 HD
BRANCH  15  17
HETATM   17  N1  UNL     1       3.619  -3.278  16.527  1.00  0.00    -0.344 N 
ATOM     18  H12 UNL     1       2.790  -3.014  17.060  1.00  0.00     0.176 HD
ATOM     19  H11 UNL     1       4.273  -3.959  16.913  1.00  0.00     0.176 HD
ENDBRANCH  15  17
ENDBRANCH   1  15
TORSDOF 4
ENDMDL
