MODEL 1
REMARK VINA RESULT: -6.000474119      0.000      0.000
REMARK  3 active torsions:
REMARK  status: ('A' for Active; 'I' for Inactive)
REMARK       I    between atoms: C1_4  and  N3_6 
REMARK       I    between atoms: N3_6  and  C2_7 
REMARK       I    between atoms: C2_7  and  N4_9 
REMARK    1  A    between atoms: C5_12  and  C6_13 
REMARK    2  A    between atoms: C6_13  and  C7_14 
REMARK    3  A    between atoms: C7_14  and  N5_15 
ROOT
HETATM    1  N1  UNL     1      21.573  -2.131  10.986  1.00  0.00    -0.362 N 
ATOM      2  H11 UNL     1      22.449  -2.394  10.536  1.00  0.00     0.159 HD
ATOM      3  H12 UNL     1      21.023  -1.275  10.909  1.00  0.00     0.159 HD
HETATM    4  C1  UNL     1      21.113  -3.093  11.805  1.00  0.00     0.266 C 
HETATM    5  N2  UNL     1      19.907  -2.731  12.425  1.00  0.00    -0.049 NA
HETATM    6  N3  UNL     1      21.833  -4.215  11.907  1.00  0.00    -0.319 NA
HETATM    7  C2  UNL     1      22.577  -5.373  12.013  1.00  0.00     0.399 C 
HETATM    8  O1  UNL     1      22.266  -6.354  12.777  1.00  0.00    -0.230 OA
HETATM    9  N4  UNL     1      23.793  -5.579  11.253  1.00  0.00    -0.317 N 
HETATM   10  C3  UNL     1      24.558  -4.839  10.280  1.00  0.00     0.131 C 
HETATM   11  C4  UNL     1      25.789  -5.530  10.785  1.00  0.00     0.045 C 
HETATM   12  C5  UNL     1      24.787  -6.621  11.174  1.00  0.00     0.093 C 
ENDROOT
BRANCH  12  13
HETATM   13  C6  UNL     1      24.526  -7.631  10.097  1.00  0.00     0.052 C 
BRANCH  13  14
HETATM   14  C7  UNL     1      23.601  -8.732  10.596  1.00  0.00     0.231 C 
BRANCH  14  15
HETATM   15  N5  UNL     1      22.249  -8.486  10.242  1.00  0.00    -0.079 N 
ATOM     16  H53 UNL     1      22.006  -7.503  10.366  1.00  0.00     0.274 HD
ATOM     17  H52 UNL     1      22.110  -8.559   9.234  1.00  0.00     0.274 HD
ATOM     18  H51 UNL     1      21.608  -9.094  10.749  1.00  0.00     0.274 HD
ENDBRANCH  14  15
ENDBRANCH  13  14
ENDBRANCH  12  13
TORSDOF 3
ENDMDL
MODEL 2
REMARK VINA RESULT: -5.750360487      1.840      2.939
REMARK  3 active torsions:
REMARK  status: ('A' for Active; 'I' for Inactive)
REMARK       I    between atoms: C1_4  and  N3_6 
REMARK       I    between atoms: N3_6  and  C2_7 
REMARK       I    between atoms: C2_7  and  N4_9 
REMARK    1  A    between atoms: C5_12  and  C6_13 
REMARK    2  A    between atoms: C6_13  and  C7_14 
REMARK    3  A    between atoms: C7_14  and  N5_15 
ROOT
HETATM    1  N1  UNL     1      19.672  -4.399  14.300  1.00  0.00    -0.362 N 
ATOM      2  H11 UNL     1      20.077  -5.321  14.142  1.00  0.00     0.159 HD
ATOM      3  H12 UNL     1      18.972  -4.093  14.977  1.00  0.00     0.159 HD
HETATM    4  C1  UNL     1      20.164  -3.476  13.455  1.00  0.00     0.266 C 
HETATM    5  N2  UNL     1      19.606  -2.207  13.672  1.00  0.00    -0.049 NA
HETATM    6  N3  UNL     1      21.081  -3.876  12.568  1.00  0.00    -0.319 NA
HETATM    7  C2  UNL     1      22.027  -4.289  11.652  1.00  0.00     0.399 C 
HETATM    8  O1  UNL     1      22.555  -3.519  10.774  1.00  0.00    -0.230 OA
HETATM    9  N4  UNL     1      22.510  -5.654  11.606  1.00  0.00    -0.317 N 
HETATM   10  C3  UNL     1      22.273  -6.874  12.338  1.00  0.00     0.131 C 
HETATM   11  C4  UNL     1      22.600  -7.636  11.090  1.00  0.00     0.045 C 
HETATM   12  C5  UNL     1      23.428  -6.388  10.772  1.00  0.00     0.093 C 
ENDROOT
BRANCH  12  13
HETATM   13  C6  UNL     1      24.832  -6.427  11.297  1.00  0.00     0.052 C 
BRANCH  13  14
HETATM   14  C7  UNL     1      25.739  -5.503  10.497  1.00  0.00     0.231 C 
BRANCH  14  15
HETATM   15  N5  UNL     1      25.020  -4.784   9.509  1.00  0.00    -0.079 N 
ATOM     16  H53 UNL     1      25.641  -4.199   8.950  1.00  0.00     0.274 HD
ATOM     17  H52 UNL     1      24.678  -5.404   8.774  1.00  0.00     0.274 HD
ATOM     18  H51 UNL     1      24.260  -4.238   9.915  1.00  0.00     0.274 HD
ENDBRANCH  14  15
ENDBRANCH  13  14
ENDBRANCH  12  13
TORSDOF 3
ENDMDL
MODEL 3
REMARK VINA RESULT: -5.371227768      2.550      5.994
REMARK  3 active torsions:
REMARK  status: ('A' for Active; 'I' for Inactive)
REMARK       I    between atoms: C1_4  and  N3_6 
REMARK       I    between atoms: N3_6  and  C2_7 
REMARK       I    between atoms: C2_7  and  N4_9 
REMARK    1  A    between atoms: C5_12  and  C6_13 
REMARK    2  A    between atoms: C6_13  and  C7_14 
REMARK    3  A    between atoms: C7_14  and  N5_15 
ROOT
HETATM    1  N1  UNL     1      23.141  -6.482  12.379  1.00  0.00    -0.362 N 
ATOM      2  H11 UNL     1      22.404  -6.446  13.083  1.00  0.00     0.159 HD
ATOM      3  H12 UNL     1      23.826  -7.210  12.179  1.00  0.00     0.159 HD
HETATM    4  C1  UNL     1      23.178  -5.369  11.626  1.00  0.00     0.266 C 
HETATM    5  N2  UNL     1      24.192  -5.418  10.657  1.00  0.00    -0.049 NA
HETATM    6  N3  UNL     1      22.280  -4.413  11.887  1.00  0.00    -0.319 NA
HETATM    7  C2  UNL     1      21.353  -3.427  12.158  1.00  0.00     0.399 C 
HETATM    8  O1  UNL     1      21.297  -2.309  11.535  1.00  0.00    -0.230 OA
HETATM    9  N4  UNL     1      20.347  -3.578  13.190  1.00  0.00    -0.317 N 
HETATM   10  C3  UNL     1      19.966  -4.593  14.141  1.00  0.00     0.131 C 
HETATM   11  C4  UNL     1      19.485  -3.502  15.049  1.00  0.00     0.045 C 
HETATM   12  C5  UNL     1      19.301  -2.746  13.730  1.00  0.00     0.093 C 
ENDROOT
BRANCH  12  13
HETATM   13  C6  UNL     1      17.964  -2.950  13.083  1.00  0.00     0.052 C 
BRANCH  13  14
HETATM   14  C7  UNL     1      17.715  -1.904  12.006  1.00  0.00     0.231 C 
BRANCH  14  15
HETATM   15  N5  UNL     1      18.164  -2.340  10.733  1.00  0.00    -0.079 N 
ATOM     16  H53 UNL     1      18.688  -3.213  10.804  1.00  0.00     0.274 HD
ATOM     17  H52 UNL     1      17.388  -2.665  10.157  1.00  0.00     0.274 HD
ATOM     18  H51 UNL     1      18.704  -1.620  10.254  1.00  0.00     0.274 HD
ENDBRANCH  14  15
ENDBRANCH  13  14
ENDBRANCH  12  13
TORSDOF 3
ENDMDL
MODEL 4
REMARK VINA RESULT: -5.159336814      2.596      3.941
REMARK  3 active torsions:
REMARK  status: ('A' for Active; 'I' for Inactive)
REMARK       I    between atoms: C1_4  and  N3_6 
REMARK       I    between atoms: N3_6  and  C2_7 
REMARK       I    between atoms: C2_7  and  N4_9 
REMARK    1  A    between atoms: C5_12  and  C6_13 
REMARK    2  A    between atoms: C6_13  and  C7_14 
REMARK    3  A    between atoms: C7_14  and  N5_15 
ROOT
HETATM    1  N1  UNL     1      21.102  -8.467  15.218  1.00  0.00    -0.362 N 
ATOM      2  H11 UNL     1      21.761  -8.940  14.599  1.00  0.00     0.159 HD
ATOM      3  H12 UNL     1      20.632  -8.802  16.060  1.00  0.00     0.159 HD
HETATM    4  C1  UNL     1      20.840  -7.211  14.817  1.00  0.00     0.266 C 
HETATM    5  N2  UNL     1      19.934  -6.561  15.669  1.00  0.00    -0.049 NA
HETATM    6  N3  UNL     1      21.456  -6.772  13.715  1.00  0.00    -0.319 NA
HETATM    7  C2  UNL     1      22.092  -6.319  12.577  1.00  0.00     0.399 C 
HETATM    8  O1  UNL     1      21.911  -5.154  12.073  1.00  0.00    -0.230 OA
HETATM    9  N4  UNL     1      23.036  -7.138  11.845  1.00  0.00    -0.317 N 
HETATM   10  C3  UNL     1      23.593  -8.462  11.972  1.00  0.00     0.131 C 
HETATM   11  C4  UNL     1      23.731  -8.501  10.480  1.00  0.00     0.045 C 
HETATM   12  C5  UNL     1      23.808  -6.980  10.637  1.00  0.00     0.093 C 
ENDROOT
BRANCH  12  13
HETATM   13  C6  UNL     1      25.193  -6.452  10.863  1.00  0.00     0.052 C 
BRANCH  13  14
HETATM   14  C7  UNL     1      25.360  -5.076  10.233  1.00  0.00     0.231 C 
BRANCH  14  15
HETATM   15  N5  UNL     1      24.575  -4.095  10.893  1.00  0.00    -0.079 N 
ATOM     16  H53 UNL     1      23.656  -4.003  10.459  1.00  0.00     0.274 HD
ATOM     17  H52 UNL     1      24.285  -4.412  11.818  1.00  0.00     0.274 HD
ATOM     18  H51 UNL     1      25.055  -3.197  10.943  1.00  0.00     0.274 HD
ENDBRANCH  14  15
ENDBRANCH  13  14
ENDBRANCH  12  13
TORSDOF 3
ENDMDL
MODEL 5
REMARK VINA RESULT: -5.139889084      1.054      1.138
REMARK  3 active torsions:
REMARK  status: ('A' for Active; 'I' for Inactive)
REMARK       I    between atoms: C1_4  and  N3_6 
REMARK       I    between atoms: N3_6  and  C2_7 
REMARK       I    between atoms: C2_7  and  N4_9 
REMARK    1  A    between atoms: C5_12  and  C6_13 
REMARK    2  A    between atoms: C6_13  and  C7_14 
REMARK    3  A    between atoms: C7_14  and  N5_15 
ROOT
HETATM    1  N1  UNL     1      20.557  -2.395  11.277  1.00  0.00    -0.362 N 
ATOM      2  H11 UNL     1      21.137  -2.596  10.462  1.00  0.00     0.159 HD
ATOM      3  H12 UNL     1      19.817  -1.704  11.405  1.00  0.00     0.159 HD
HETATM    4  C1  UNL     1      20.857  -3.187  12.321  1.00  0.00     0.266 C 
HETATM    5  N2  UNL     1      20.059  -2.911  13.443  1.00  0.00    -0.049 NA
HETATM    6  N3  UNL     1      21.827  -4.092  12.153  1.00  0.00    -0.319 NA
HETATM    7  C2  UNL     1      22.828  -5.026  11.980  1.00  0.00     0.399 C 
HETATM    8  O1  UNL     1      23.230  -5.822  12.901  1.00  0.00    -0.230 OA
HETATM    9  N4  UNL     1      23.521  -5.187  10.718  1.00  0.00    -0.317 N 
HETATM   10  C3  UNL     1      23.463  -4.588   9.407  1.00  0.00     0.131 C 
HETATM   11  C4  UNL     1      24.923  -4.886   9.253  1.00  0.00     0.045 C 
HETATM   12  C5  UNL     1      24.604  -6.010  10.243  1.00  0.00     0.093 C 
ENDROOT
BRANCH  12  13
HETATM   13  C6  UNL     1      24.161  -7.291   9.601  1.00  0.00     0.052 C 
BRANCH  13  14
HETATM   14  C7  UNL     1      24.533  -8.489  10.462  1.00  0.00     0.231 C 
BRANCH  14  15
HETATM   15  N5  UNL     1      23.698  -8.598  11.603  1.00  0.00    -0.079 N 
ATOM     16  H53 UNL     1      23.134  -7.758  11.731  1.00  0.00     0.274 HD
ATOM     17  H52 UNL     1      22.948  -9.273  11.452  1.00  0.00     0.274 HD
ATOM     18  H51 UNL     1      24.231  -8.820  12.443  1.00  0.00     0.274 HD
ENDBRANCH  14  15
ENDBRANCH  13  14
ENDBRANCH  12  13
TORSDOF 3
ENDMDL
