MODEL 1
REMARK VINA RESULT: -6.255437154      0.000      0.000
REMARK  4 active torsions:
REMARK  status: ('A' for Active; 'I' for Inactive)
REMARK    1  A    between atoms: C2_2  and  N1_4 
REMARK    2  A    between atoms: C2_2  and  C4_8 
REMARK    3  A    between atoms: C4_8  and  C5_9 
REMARK    4  A    between atoms: C8_12  and  C9_13 
ROOT
HETATM    1  C5  UNL     1      23.970  -5.536  11.264  1.00  0.00     0.189 C 
HETATM    2  C6  UNL     1      24.819  -4.435  10.617  1.00  0.00     0.035 C 
HETATM    3  C7  UNL     1      24.075  -3.225  11.097  1.00  0.00     0.044 C 
HETATM    4  C8  UNL     1      22.725  -3.761  11.705  1.00  0.00     0.274 C 
HETATM    5  N3  UNL     1      22.667  -4.992  10.913  1.00  0.00    -0.058 N 
ATOM      6  H31 UNL     1      21.863  -5.598  11.075  1.00  0.00     0.278 HD
ATOM      7  H32 UNL     1      22.473  -4.882   9.918  1.00  0.00     0.278 HD
ENDROOT
BRANCH   1   8
HETATM    8  C4  UNL     1      24.365  -6.823  10.654  1.00  0.00     0.070 C 
BRANCH   8   9
HETATM    9  C2  UNL     1      23.617  -8.041  11.140  1.00  0.00     0.118 C 
HETATM   10  C1  UNL     1      24.686  -9.147  11.200  1.00  0.00     0.045 C 
HETATM   11  C3  UNL     1      22.586  -8.546  10.167  1.00  0.00     0.045 C 
BRANCH   9  12
HETATM   12  N1  UNL     1      23.000  -7.795  12.388  1.00  0.00    -0.071 N 
ATOM     13  H13 UNL     1      22.075  -7.383  12.262  1.00  0.00     0.275 HD
ATOM     14  H12 UNL     1      22.734  -8.669  12.840  1.00  0.00     0.275 HD
ATOM     15  H11 UNL     1      23.569  -7.222  13.012  1.00  0.00     0.275 HD
ENDBRANCH   9  12
ENDBRANCH   8   9
ENDBRANCH   1   8
BRANCH   4  16
HETATM   16  C9  UNL     1      21.754  -2.728  11.303  1.00  0.00     0.262 C 
HETATM   17  N2  UNL     1      20.336  -2.910  11.556  1.00  0.00    -0.060 NA
HETATM   18  O1  UNL     1      22.085  -1.695  10.755  1.00  0.00    -0.275 OA
ENDBRANCH   4  16
TORSDOF 4
ENDMDL
MODEL 2
REMARK VINA RESULT: -6.102846700      0.802      1.182
REMARK  4 active torsions:
REMARK  status: ('A' for Active; 'I' for Inactive)
REMARK    1  A    between atoms: C2_2  and  N1_4 
REMARK    2  A    between atoms: C2_2  and  C4_8 
REMARK    3  A    between atoms: C4_8  and  C5_9 
REMARK    4  A    between atoms: C8_12  and  C9_13 
ROOT
HETATM    1  C5  UNL     1      23.862  -5.611  11.153  1.00  0.00     0.189 C 
HETATM    2  C6  UNL     1      24.782  -4.506  10.620  1.00  0.00     0.035 C 
HETATM    3  C7  UNL     1      24.065  -3.300  11.150  1.00  0.00     0.044 C 
HETATM    4  C8  UNL     1      22.669  -3.819  11.661  1.00  0.00     0.274 C 
HETATM    5  N3  UNL     1      22.599  -4.990  10.786  1.00  0.00    -0.058 N 
ATOM      6  H31 UNL     1      21.765  -5.571  10.871  1.00  0.00     0.278 HD
ATOM      7  H32 UNL     1      22.455  -4.806   9.793  1.00  0.00     0.278 HD
ENDROOT
BRANCH   1   8
HETATM    8  C4  UNL     1      24.234  -6.869  10.474  1.00  0.00     0.070 C 
BRANCH   8   9
HETATM    9  C2  UNL     1      23.558  -8.120  10.985  1.00  0.00     0.118 C 
HETATM   10  C1  UNL     1      22.967  -7.706  12.344  1.00  0.00     0.045 C 
HETATM   11  C3  UNL     1      24.514  -9.240  11.298  1.00  0.00     0.045 C 
BRANCH   9  12
HETATM   12  N1  UNL     1      22.583  -8.580  10.070  1.00  0.00    -0.071 N 
ATOM     13  H13 UNL     1      21.649  -8.522  10.475  1.00  0.00     0.275 HD
ATOM     14  H12 UNL     1      22.472  -7.924   9.297  1.00  0.00     0.275 HD
ATOM     15  H11 UNL     1      22.769  -9.521   9.723  1.00  0.00     0.275 HD
ENDBRANCH   9  12
ENDBRANCH   8   9
ENDBRANCH   1   8
BRANCH   4  16
HETATM   16  C9  UNL     1      21.758  -2.720  11.290  1.00  0.00     0.262 C 
HETATM   17  N2  UNL     1      20.333  -2.826  11.546  1.00  0.00    -0.060 NA
HETATM   18  O1  UNL     1      22.146  -1.696  10.766  1.00  0.00    -0.275 OA
ENDBRANCH   4  16
TORSDOF 4
ENDMDL
MODEL 3
REMARK VINA RESULT: -6.021986236      1.102      1.393
REMARK  4 active torsions:
REMARK  status: ('A' for Active; 'I' for Inactive)
REMARK    1  A    between atoms: C2_2  and  N1_4 
REMARK    2  A    between atoms: C2_2  and  C4_8 
REMARK    3  A    between atoms: C4_8  and  C5_9 
REMARK    4  A    between atoms: C8_12  and  C9_13 
ROOT
HETATM    1  C5  UNL     1      24.161  -5.597  10.735  1.00  0.00     0.189 C 
HETATM    2  C6  UNL     1      24.423  -4.580   9.618  1.00  0.00     0.035 C 
HETATM    3  C7  UNL     1      23.879  -3.342  10.268  1.00  0.00     0.044 C 
HETATM    4  C8  UNL     1      23.100  -3.833  11.545  1.00  0.00     0.274 C 
HETATM    5  N3  UNL     1      22.803  -5.178  11.049  1.00  0.00    -0.058 N 
ATOM      6  H31 UNL     1      22.274  -5.786  11.674  1.00  0.00     0.278 HD
ATOM      7  H32 UNL     1      22.122  -5.243  10.294  1.00  0.00     0.278 HD
ENDROOT
BRANCH   1   8
HETATM    8  C4  UNL     1      24.351  -6.947  10.165  1.00  0.00     0.070 C 
BRANCH   8   9
HETATM    9  C2  UNL     1      23.803  -8.092  10.982  1.00  0.00     0.118 C 
HETATM   10  C1  UNL     1      22.610  -8.612  10.160  1.00  0.00     0.045 C 
HETATM   11  C3  UNL     1      23.215  -7.667  12.301  1.00  0.00     0.045 C 
BRANCH   9  12
HETATM   12  N1  UNL     1      24.794  -9.075  11.208  1.00  0.00    -0.071 N 
ATOM     13  H13 UNL     1      24.370  -9.991  11.359  1.00  0.00     0.275 HD
ATOM     14  H12 UNL     1      25.314  -9.269  10.352  1.00  0.00     0.275 HD
ATOM     15  H11 UNL     1      25.428  -8.840  11.972  1.00  0.00     0.275 HD
ENDBRANCH   9  12
ENDBRANCH   8   9
ENDBRANCH   1   8
BRANCH   4  16
HETATM   16  C9  UNL     1      21.939  -2.926  11.587  1.00  0.00     0.262 C 
HETATM   17  N2  UNL     1      20.932  -2.968  10.542  1.00  0.00    -0.060 NA
HETATM   18  O1  UNL     1      21.771  -2.116  12.477  1.00  0.00    -0.275 OA
ENDBRANCH   4  16
TORSDOF 4
ENDMDL
MODEL 4
REMARK VINA RESULT: -5.725416855      1.383      1.640
REMARK  4 active torsions:
REMARK  status: ('A' for Active; 'I' for Inactive)
REMARK    1  A    between atoms: C2_2  and  N1_4 
REMARK    2  A    between atoms: C2_2  and  C4_8 
REMARK    3  A    between atoms: C4_8  and  C5_9 
REMARK    4  A    between atoms: C8_12  and  C9_13 
ROOT
HETATM    1  C5  UNL     1      23.447  -5.746  11.163  1.00  0.00     0.189 C 
HETATM    2  C6  UNL     1      23.651  -5.093   9.791  1.00  0.00     0.035 C 
HETATM    3  C7  UNL     1      23.569  -3.648  10.183  1.00  0.00     0.044 C 
HETATM    4  C8  UNL     1      23.031  -3.632  11.663  1.00  0.00     0.274 C 
HETATM    5  N3  UNL     1      22.333  -4.917  11.597  1.00  0.00    -0.058 N 
ATOM      6  H31 UNL     1      21.848  -5.215  12.444  1.00  0.00     0.278 HD
ATOM      7  H32 UNL     1      21.492  -4.948  11.020  1.00  0.00     0.278 HD
ENDROOT
BRANCH   1   8
HETATM    8  C4  UNL     1      23.190  -7.184  10.940  1.00  0.00     0.070 C 
BRANCH   8   9
HETATM    9  C2  UNL     1      24.412  -8.063  10.821  1.00  0.00     0.118 C 
HETATM   10  C1  UNL     1      24.069  -9.309  11.657  1.00  0.00     0.045 C 
HETATM   11  C3  UNL     1      25.640  -7.483  11.469  1.00  0.00     0.045 C 
BRANCH   9  12
HETATM   12  N1  UNL     1      24.694  -8.361   9.468  1.00  0.00    -0.071 N 
ATOM     13  H13 UNL     1      23.940  -8.906   9.051  1.00  0.00     0.275 HD
ATOM     14  H12 UNL     1      24.633  -7.521   8.892  1.00  0.00     0.275 HD
ATOM     15  H11 UNL     1      25.592  -8.826   9.337  1.00  0.00     0.275 HD
ENDBRANCH   9  12
ENDBRANCH   8   9
ENDBRANCH   1   8
BRANCH   4  16
HETATM   16  C9  UNL     1      22.146  -2.453  11.675  1.00  0.00     0.262 C 
HETATM   17  N2  UNL     1      21.284  -2.190  12.813  1.00  0.00    -0.060 NA
HETATM   18  O1  UNL     1      22.095  -1.662  10.755  1.00  0.00    -0.275 OA
ENDBRANCH   4  16
TORSDOF 4
ENDMDL
MODEL 5
REMARK VINA RESULT: -5.460739812      5.945      7.935
REMARK  4 active torsions:
REMARK  status: ('A' for Active; 'I' for Inactive)
REMARK    1  A    between atoms: C2_2  and  N1_4 
REMARK    2  A    between atoms: C2_2  and  C4_8 
REMARK    3  A    between atoms: C4_8  and  C5_9 
REMARK    4  A    between atoms: C8_12  and  C9_13 
ROOT
HETATM    1  C5  UNL     1      17.965  -3.616  15.653  1.00  0.00     0.189 C 
HETATM    2  C6  UNL     1      18.528  -4.964  15.189  1.00  0.00     0.035 C 
HETATM    3  C7  UNL     1      19.715  -4.488  14.405  1.00  0.00     0.044 C 
HETATM    4  C8  UNL     1      19.534  -2.931  14.253  1.00  0.00     0.274 C 
HETATM    5  N3  UNL     1      18.076  -2.922  14.379  1.00  0.00    -0.058 N 
ATOM      6  H31 UNL     1      17.620  -2.012  14.316  1.00  0.00     0.278 HD
ATOM      7  H32 UNL     1      17.551  -3.318  13.599  1.00  0.00     0.278 HD
ENDROOT
BRANCH   1   8
HETATM    8  C4  UNL     1      16.609  -3.858  16.190  1.00  0.00     0.070 C 
BRANCH   8   9
HETATM    9  C2  UNL     1      16.397  -3.488  17.638  1.00  0.00     0.118 C 
HETATM   10  C1  UNL     1      17.442  -2.391  17.909  1.00  0.00     0.045 C 
HETATM   11  C3  UNL     1      16.734  -4.595  18.601  1.00  0.00     0.045 C 
BRANCH   9  12
HETATM   12  N1  UNL     1      15.068  -3.060  17.865  1.00  0.00    -0.071 N 
ATOM     13  H13 UNL     1      14.895  -2.161  17.417  1.00  0.00     0.275 HD
ATOM     14  H12 UNL     1      14.408  -3.637  17.344  1.00  0.00     0.275 HD
ATOM     15  H11 UNL     1      14.820  -3.027  18.853  1.00  0.00     0.275 HD
ENDBRANCH   9  12
ENDBRANCH   8   9
ENDBRANCH   1   8
BRANCH   4  16
HETATM   16  C9  UNL     1      20.033  -2.678  12.889  1.00  0.00     0.262 C 
HETATM   17  N2  UNL     1      21.411  -2.275  12.671  1.00  0.00    -0.060 NA
HETATM   18  O1  UNL     1      19.333  -2.793  11.903  1.00  0.00    -0.275 OA
ENDBRANCH   4  16
TORSDOF 4
ENDMDL
