MODEL 1
REMARK VINA RESULT: -5.618248737      0.000      0.000
REMARK  5 active torsions:
REMARK  status: ('A' for Active; 'I' for Inactive)
REMARK    1  A    between atoms: N1_1  and  C1_5 
REMARK    2  A    between atoms: C1_5  and  C2_6 
REMARK    3  A    between atoms: C2_6  and  C3_7 
REMARK       I    between atoms: C3_7  and  N2_9 
REMARK    4  A    between atoms: N2_9  and  C4_11 
REMARK    5  A    between atoms: C8_15  and  N3_16 
ROOT
HETATM    1  C4  UNL     1      23.000  -4.341  11.258  1.00  0.00     0.086 C 
HETATM    2  C5  UNL     1      23.295  -4.018   9.830  1.00  0.00     0.025 C 
HETATM    3  C6  UNL     1      24.497  -4.655   9.253  1.00  0.00     0.004 C 
HETATM    4  C7  UNL     1      25.321  -5.292  10.365  1.00  0.00     0.033 C 
HETATM    5  C8  UNL     1      24.413  -6.381  10.905  1.00  0.00     0.185 C 
HETATM    6  C9  UNL     1      23.357  -5.701  11.707  1.00  0.00     0.057 C 
ENDROOT
BRANCH   1   7
HETATM    7  N2  UNL     1      21.612  -4.052  11.559  1.00  0.00    -0.356 N 
HETATM    8  C3  UNL     1      21.193  -2.899  12.262  1.00  0.00     0.219 C 
HETATM    9  O1  UNL     1      22.001  -2.027  12.685  1.00  0.00    -0.274 OA
ATOM     10  H2  UNL     1      20.900  -4.714  11.247  1.00  0.00     0.162 HD
BRANCH   8  11
HETATM   11  C2  UNL     1      19.761  -2.680  12.527  1.00  0.00     0.130 C 
BRANCH  11  12
HETATM   12  C1  UNL     1      19.295  -3.272  13.815  1.00  0.00     0.238 C 
BRANCH  12  13
HETATM   13  N1  UNL     1      19.619  -2.346  14.905  1.00  0.00    -0.079 N 
ATOM     14  H13 UNL     1      18.930  -1.599  15.000  1.00  0.00     0.274 HD
ATOM     15  H12 UNL     1      19.496  -2.769  15.825  1.00  0.00     0.274 HD
ATOM     16  H11 UNL     1      20.563  -1.989  14.764  1.00  0.00     0.274 HD
ENDBRANCH  12  13
ENDBRANCH  11  12
ENDBRANCH   8  11
ENDBRANCH   1   7
BRANCH   5  17
HETATM   17  N3  UNL     1      25.194  -7.320  11.658  1.00  0.00    -0.075 N 
ATOM     18  H33 UNL     1      25.690  -6.878  12.432  1.00  0.00     0.274 HD
ATOM     19  H32 UNL     1      24.613  -7.956  12.204  1.00  0.00     0.274 HD
ATOM     20  H31 UNL     1      25.824  -7.816  11.028  1.00  0.00     0.274 HD
ENDBRANCH   5  17
TORSDOF 5
ENDMDL
MODEL 2
REMARK VINA RESULT: -5.574839101      0.955      1.048
REMARK  5 active torsions:
REMARK  status: ('A' for Active; 'I' for Inactive)
REMARK    1  A    between atoms: N1_1  and  C1_5 
REMARK    2  A    between atoms: C1_5  and  C2_6 
REMARK    3  A    between atoms: C2_6  and  C3_7 
REMARK       I    between atoms: C3_7  and  N2_9 
REMARK    4  A    between atoms: N2_9  and  C4_11 
REMARK    5  A    between atoms: C8_15  and  N3_16 
ROOT
HETATM    1  C4  UNL     1      22.887  -4.436  11.547  1.00  0.00     0.086 C 
HETATM    2  C5  UNL     1      22.903  -4.036  10.108  1.00  0.00     0.025 C 
HETATM    3  C6  UNL     1      24.029  -4.551   9.301  1.00  0.00     0.004 C 
HETATM    4  C7  UNL     1      25.080  -5.159  10.221  1.00  0.00     0.033 C 
HETATM    5  C8  UNL     1      24.363  -6.338  10.853  1.00  0.00     0.185 C 
HETATM    6  C9  UNL     1      23.417  -5.778  11.858  1.00  0.00     0.057 C 
ENDROOT
BRANCH   1   7
HETATM    7  N2  UNL     1      21.555  -4.273  12.096  1.00  0.00    -0.356 N 
HETATM    8  C3  UNL     1      21.062  -3.041  12.585  1.00  0.00     0.219 C 
HETATM    9  O1  UNL     1      21.748  -1.982  12.581  1.00  0.00    -0.274 OA
ATOM     10  H2  UNL     1      20.942  -5.089  12.131  1.00  0.00     0.162 HD
BRANCH   8  11
HETATM   11  C2  UNL     1      19.695  -2.961  13.127  1.00  0.00     0.130 C 
BRANCH  11  12
HETATM   12  C1  UNL     1      18.677  -2.543  12.119  1.00  0.00     0.238 C 
BRANCH  12  13
HETATM   13  N1  UNL     1      17.685  -1.686  12.776  1.00  0.00    -0.079 N 
ATOM     14  H13 UNL     1      18.092  -1.117  13.519  1.00  0.00     0.274 HD
ATOM     15  H12 UNL     1      17.367  -0.927  12.174  1.00  0.00     0.274 HD
ATOM     16  H11 UNL     1      16.916  -2.268  13.108  1.00  0.00     0.274 HD
ENDBRANCH  12  13
ENDBRANCH  11  12
ENDBRANCH   8  11
ENDBRANCH   1   7
BRANCH   5  17
HETATM   17  N3  UNL     1      25.332  -7.238  11.412  1.00  0.00    -0.075 N 
ATOM     18  H33 UNL     1      24.960  -8.179  11.536  1.00  0.00     0.274 HD
ATOM     19  H32 UNL     1      26.077  -7.463  10.753  1.00  0.00     0.274 HD
ATOM     20  H31 UNL     1      25.692  -6.846  12.283  1.00  0.00     0.274 HD
ENDBRANCH   5  17
TORSDOF 5
ENDMDL
MODEL 3
REMARK VINA RESULT: -5.242701234      1.827      2.631
REMARK  5 active torsions:
REMARK  status: ('A' for Active; 'I' for Inactive)
REMARK    1  A    between atoms: N1_1  and  C1_5 
REMARK    2  A    between atoms: C1_5  and  C2_6 
REMARK    3  A    between atoms: C2_6  and  C3_7 
REMARK       I    between atoms: C3_7  and  N2_9 
REMARK    4  A    between atoms: N2_9  and  C4_11 
REMARK    5  A    between atoms: C8_15  and  N3_16 
ROOT
HETATM    1  C4  UNL     1      23.252  -6.032  10.644  1.00  0.00     0.086 C 
HETATM    2  C5  UNL     1      22.406  -7.262  10.679  1.00  0.00     0.025 C 
HETATM    3  C6  UNL     1      23.131  -8.550  10.723  1.00  0.00     0.004 C 
HETATM    4  C7  UNL     1      24.609  -8.313  10.440  1.00  0.00     0.033 C 
HETATM    5  C8  UNL     1      25.066  -7.464  11.611  1.00  0.00     0.185 C 
HETATM    6  C9  UNL     1      24.526  -6.094  11.386  1.00  0.00     0.057 C 
ENDROOT
BRANCH   1   7
HETATM    7  N2  UNL     1      22.474  -4.881  11.060  1.00  0.00    -0.356 N 
HETATM    8  C3  UNL     1      22.807  -3.552  10.709  1.00  0.00     0.219 C 
HETATM    9  O1  UNL     1      23.812  -3.263  10.003  1.00  0.00    -0.274 OA
ATOM     10  H2  UNL     1      21.646  -5.037  11.634  1.00  0.00     0.162 HD
BRANCH   8  11
HETATM   11  C2  UNL     1      21.964  -2.437  11.173  1.00  0.00     0.130 C 
BRANCH  11  12
HETATM   12  C1  UNL     1      21.043  -2.809  12.287  1.00  0.00     0.238 C 
BRANCH  12  13
HETATM   13  N1  UNL     1      19.678  -2.417  11.923  1.00  0.00    -0.079 N 
ATOM     14  H13 UNL     1      19.071  -2.315  12.736  1.00  0.00     0.274 HD
ATOM     15  H12 UNL     1      19.625  -1.457  11.585  1.00  0.00     0.274 HD
ATOM     16  H11 UNL     1      19.312  -3.089  11.248  1.00  0.00     0.274 HD
ENDBRANCH  12  13
ENDBRANCH  11  12
ENDBRANCH   8  11
ENDBRANCH   1   7
BRANCH   5  17
HETATM   17  N3  UNL     1      26.499  -7.510  11.700  1.00  0.00    -0.075 N 
ATOM     18  H33 UNL     1      26.855  -8.466  11.708  1.00  0.00     0.274 HD
ATOM     19  H32 UNL     1      26.950  -7.196  10.841  1.00  0.00     0.274 HD
ATOM     20  H31 UNL     1      26.803  -6.977  12.514  1.00  0.00     0.274 HD
ENDBRANCH   5  17
TORSDOF 5
ENDMDL
MODEL 4
REMARK VINA RESULT: -5.175080314      1.163      1.300
REMARK  5 active torsions:
REMARK  status: ('A' for Active; 'I' for Inactive)
REMARK    1  A    between atoms: N1_1  and  C1_5 
REMARK    2  A    between atoms: C1_5  and  C2_6 
REMARK    3  A    between atoms: C2_6  and  C3_7 
REMARK       I    between atoms: C3_7  and  N2_9 
REMARK    4  A    between atoms: N2_9  and  C4_11 
REMARK    5  A    between atoms: C8_15  and  N3_16 
ROOT
HETATM    1  C4  UNL     1      23.216  -5.305  11.729  1.00  0.00     0.086 C 
HETATM    2  C5  UNL     1      24.142  -4.685  10.734  1.00  0.00     0.025 C 
HETATM    3  C6  UNL     1      25.268  -5.528  10.280  1.00  0.00     0.004 C 
HETATM    4  C7  UNL     1      25.372  -6.763  11.166  1.00  0.00     0.033 C 
HETATM    5  C8  UNL     1      24.077  -7.506  10.896  1.00  0.00     0.185 C 
HETATM    6  C9  UNL     1      22.997  -6.759  11.600  1.00  0.00     0.057 C 
ENDROOT
BRANCH   1   7
HETATM    7  N2  UNL     1      21.951  -4.597  11.741  1.00  0.00    -0.356 N 
HETATM    8  C3  UNL     1      21.834  -3.220  12.042  1.00  0.00     0.219 C 
HETATM    9  O1  UNL     1      22.829  -2.497  12.324  1.00  0.00    -0.274 OA
ATOM     10  H2  UNL     1      21.102  -5.119  11.523  1.00  0.00     0.162 HD
BRANCH   8  11
HETATM   11  C2  UNL     1      20.510  -2.576  12.033  1.00  0.00     0.130 C 
BRANCH  11  12
HETATM   12  C1  UNL     1      19.754  -2.750  13.307  1.00  0.00     0.238 C 
BRANCH  12  13
HETATM   13  N1  UNL     1      18.604  -1.839  13.303  1.00  0.00    -0.079 N 
ATOM     14  H13 UNL     1      17.813  -2.208  13.832  1.00  0.00     0.274 HD
ATOM     15  H12 UNL     1      18.769  -1.002  13.861  1.00  0.00     0.274 HD
ATOM     16  H11 UNL     1      18.360  -1.623  12.337  1.00  0.00     0.274 HD
ENDBRANCH  12  13
ENDBRANCH  11  12
ENDBRANCH   8  11
ENDBRANCH   1   7
BRANCH   5  17
HETATM   17  N3  UNL     1      24.212  -8.868  11.330  1.00  0.00    -0.075 N 
ATOM     18  H33 UNL     1      24.983  -9.347  10.865  1.00  0.00     0.274 HD
ATOM     19  H32 UNL     1      24.557  -8.936  12.288  1.00  0.00     0.274 HD
ATOM     20  H31 UNL     1      23.323  -9.351  11.205  1.00  0.00     0.274 HD
ENDBRANCH   5  17
TORSDOF 5
ENDMDL
MODEL 5
REMARK VINA RESULT: -5.067579521      1.854      2.315
REMARK  5 active torsions:
REMARK  status: ('A' for Active; 'I' for Inactive)
REMARK    1  A    between atoms: N1_1  and  C1_5 
REMARK    2  A    between atoms: C1_5  and  C2_6 
REMARK    3  A    between atoms: C2_6  and  C3_7 
REMARK       I    between atoms: C3_7  and  N2_9 
REMARK    4  A    between atoms: N2_9  and  C4_11 
REMARK    5  A    between atoms: C8_15  and  N3_16 
ROOT
HETATM    1  C4  UNL     1      22.806  -4.995  11.184  1.00  0.00     0.086 C 
HETATM    2  C5  UNL     1      23.628  -5.988  11.937  1.00  0.00     0.025 C 
HETATM    3  C6  UNL     1      24.741  -6.613  11.190  1.00  0.00     0.004 C 
HETATM    4  C7  UNL     1      24.608  -6.285   9.708  1.00  0.00     0.033 C 
HETATM    5  C8  UNL     1      24.782  -4.779   9.658  1.00  0.00     0.185 C 
HETATM    6  C9  UNL     1      23.520  -4.183  10.180  1.00  0.00     0.057 C 
ENDROOT
BRANCH   1   7
HETATM    7  N2  UNL     1      22.081  -4.145  12.107  1.00  0.00    -0.356 N 
HETATM    8  C3  UNL     1      21.099  -3.213  11.698  1.00  0.00     0.219 C 
HETATM    9  O1  UNL     1      20.775  -3.050  10.489  1.00  0.00    -0.274 OA
ATOM     10  H2  UNL     1      22.290  -4.222  13.103  1.00  0.00     0.162 HD
BRANCH   8  11
HETATM   11  C2  UNL     1      20.408  -2.385  12.702  1.00  0.00     0.130 C 
BRANCH  11  12
HETATM   12  C1  UNL     1      18.970  -2.739  12.879  1.00  0.00     0.238 C 
BRANCH  12  13
HETATM   13  N1  UNL     1      18.230  -2.327  11.682  1.00  0.00    -0.079 N 
ATOM     14  H13 UNL     1      18.754  -2.492  10.823  1.00  0.00     0.274 HD
ATOM     15  H12 UNL     1      17.438  -2.937  11.484  1.00  0.00     0.274 HD
ATOM     16  H11 UNL     1      17.954  -1.351  11.787  1.00  0.00     0.274 HD
ENDBRANCH  12  13
ENDBRANCH  11  12
ENDBRANCH   8  11
ENDBRANCH   1   7
BRANCH   5  17
HETATM   17  N3  UNL     1      25.094  -4.382   8.314  1.00  0.00    -0.075 N 
ATOM     18  H33 UNL     1      25.175  -5.180   7.684  1.00  0.00     0.274 HD
ATOM     19  H32 UNL     1      24.310  -3.917   7.857  1.00  0.00     0.274 HD
ATOM     20  H31 UNL     1      25.935  -3.805   8.320  1.00  0.00     0.274 HD
ENDBRANCH   5  17
TORSDOF 5
ENDMDL
