MODEL 1
REMARK VINA RESULT: -5.202155896      0.000      0.000
REMARK  4 active torsions:
REMARK  status: ('A' for Active; 'I' for Inactive)
REMARK    1  A    between atoms: N1_1  and  C1_5 
REMARK    2  A    between atoms: C5_11  and  N3_12 
REMARK    3  A    between atoms: C6_16  and  C7_17 
REMARK    4  A    between atoms: C7_17  and  C8_19 
ROOT
HETATM    1  C1  UNL     1      24.038  -3.308  11.141  1.00  0.00     0.198 C 
HETATM    2  C2  UNL     1      22.884  -2.862  12.050  1.00  0.00     0.052 C 
HETATM    3  C3  UNL     1      21.568  -3.076  11.331  1.00  0.00     0.115 C 
HETATM    4  N2  UNL     1      21.705  -3.045   9.900  1.00  0.00    -0.419 N 
ATOM      5  H2  UNL     1      21.647  -2.177   9.368  1.00  0.00     0.153 HD
HETATM    6  C4  UNL     1      21.928  -4.301   9.275  1.00  0.00     0.147 C 
HETATM    7  C5  UNL     1      23.373  -4.765   9.315  1.00  0.00     0.214 C 
HETATM    8  C6  UNL     1      23.790  -4.747  10.764  1.00  0.00     0.118 C 
ENDROOT
BRANCH   8   9
HETATM    9  C7  UNL     1      24.924  -5.640  11.048  1.00  0.00     0.139 C 
HETATM   10  O1  UNL     1      26.060  -5.384  10.639  1.00  0.00    -0.297 OA
BRANCH   9  11
HETATM   11  C8  UNL     1      24.759  -6.885  11.837  1.00  0.00     0.056 A 
HETATM   12  C9  UNL     1      23.539  -7.750  11.492  1.00  0.00     0.013 A 
HETATM   13  C10 UNL     1      24.957  -8.212  11.208  1.00  0.00     0.013 A 
ENDBRANCH   9  11
ENDBRANCH   8   9
BRANCH   1  14
HETATM   14  N1  UNL     1      25.259  -3.120  11.888  1.00  0.00    -0.074 N 
ATOM     15  H13 UNL     1      25.309  -2.215  12.353  1.00  0.00     0.274 HD
ATOM     16  H12 UNL     1      25.310  -3.700  12.725  1.00  0.00     0.274 HD
ATOM     17  H11 UNL     1      26.032  -3.282  11.241  1.00  0.00     0.274 HD
ENDBRANCH   1  14
BRANCH   7  18
HETATM   18  N3  UNL     1      24.191  -3.967   8.465  1.00  0.00    -0.073 N 
ATOM     19  H33 UNL     1      23.714  -3.112   8.179  1.00  0.00     0.274 HD
ATOM     20  H32 UNL     1      24.967  -3.547   8.977  1.00  0.00     0.274 HD
ATOM     21  H31 UNL     1      24.518  -4.503   7.661  1.00  0.00     0.274 HD
ENDBRANCH   7  18
TORSDOF 4
ENDMDL
MODEL 2
REMARK VINA RESULT: -4.968196800      2.085      2.394
REMARK  4 active torsions:
REMARK  status: ('A' for Active; 'I' for Inactive)
REMARK    1  A    between atoms: N1_1  and  C1_5 
REMARK    2  A    between atoms: C5_11  and  N3_12 
REMARK    3  A    between atoms: C6_16  and  C7_17 
REMARK    4  A    between atoms: C7_17  and  C8_19 
ROOT
HETATM    1  C1  UNL     1      23.169  -5.056  11.781  1.00  0.00     0.198 C 
HETATM    2  C2  UNL     1      22.077  -3.980  11.709  1.00  0.00     0.052 C 
HETATM    3  C3  UNL     1      22.349  -3.067  10.531  1.00  0.00     0.115 C 
HETATM    4  N2  UNL     1      23.741  -3.021  10.175  1.00  0.00    -0.419 N 
ATOM      5  H2  UNL     1      24.389  -2.361  10.604  1.00  0.00     0.153 HD
HETATM    6  C4  UNL     1      24.155  -3.954   9.186  1.00  0.00     0.147 C 
HETATM    7  C5  UNL     1      24.431  -5.346   9.726  1.00  0.00     0.214 C 
HETATM    8  C6  UNL     1      23.184  -5.778  10.457  1.00  0.00     0.118 C 
ENDROOT
BRANCH   8   9
HETATM    9  C7  UNL     1      23.064  -7.239  10.575  1.00  0.00     0.139 C 
HETATM   10  O1  UNL     1      21.988  -7.774  10.852  1.00  0.00    -0.297 OA
BRANCH   9  11
HETATM   11  C8  UNL     1      24.227  -8.137  10.365  1.00  0.00     0.056 A 
HETATM   12  C9  UNL     1      25.273  -8.165  11.488  1.00  0.00     0.013 A 
HETATM   13  C10 UNL     1      24.393  -9.363  11.180  1.00  0.00     0.013 A 
ENDBRANCH   9  11
ENDBRANCH   8   9
BRANCH   1  14
HETATM   14  N1  UNL     1      22.840  -5.918  12.892  1.00  0.00    -0.074 N 
ATOM     15  H13 UNL     1      22.927  -6.909  12.670  1.00  0.00     0.274 HD
ATOM     16  H12 UNL     1      23.533  -5.890  13.639  1.00  0.00     0.274 HD
ATOM     17  H11 UNL     1      21.904  -5.657  13.204  1.00  0.00     0.274 HD
ENDBRANCH   1  14
BRANCH   7  18
HETATM   18  N3  UNL     1      25.609  -5.361  10.527  1.00  0.00    -0.073 N 
ATOM     19  H33 UNL     1      25.985  -6.303  10.625  1.00  0.00     0.274 HD
ATOM     20  H32 UNL     1      26.397  -4.929  10.044  1.00  0.00     0.274 HD
ATOM     21  H31 UNL     1      25.441  -4.927  11.435  1.00  0.00     0.274 HD
ENDBRANCH   7  18
TORSDOF 4
ENDMDL
MODEL 3
REMARK VINA RESULT: -4.871888164      6.718      8.562
REMARK  4 active torsions:
REMARK  status: ('A' for Active; 'I' for Inactive)
REMARK    1  A    between atoms: N1_1  and  C1_5 
REMARK    2  A    between atoms: C5_11  and  N3_12 
REMARK    3  A    between atoms: C6_16  and  C7_17 
REMARK    4  A    between atoms: C7_17  and  C8_19 
ROOT
HETATM    1  C1  UNL     1      17.679  -4.524  16.615  1.00  0.00     0.198 C 
HETATM    2  C2  UNL     1      16.178  -4.331  16.874  1.00  0.00     0.052 C 
HETATM    3  C3  UNL     1      15.966  -3.064  17.675  1.00  0.00     0.115 C 
HETATM    4  N2  UNL     1      17.110  -2.712  18.470  1.00  0.00    -0.419 N 
ATOM      5  H2  UNL     1      17.246  -3.071  19.415  1.00  0.00     0.153 HD
HETATM    6  C4  UNL     1      18.040  -1.831  17.855  1.00  0.00     0.147 C 
HETATM    7  C5  UNL     1      19.015  -2.519  16.916  1.00  0.00     0.214 C 
HETATM    8  C6  UNL     1      18.183  -3.285  15.919  1.00  0.00     0.118 C 
ENDROOT
BRANCH   8   9
HETATM    9  C7  UNL     1      18.898  -3.558  14.663  1.00  0.00     0.139 C 
HETATM   10  O1  UNL     1      20.064  -3.961  14.662  1.00  0.00    -0.297 OA
BRANCH   9  11
HETATM   11  C8  UNL     1      18.253  -3.365  13.340  1.00  0.00     0.056 A 
HETATM   12  C9  UNL     1      17.874  -1.924  12.974  1.00  0.00     0.013 A 
HETATM   13  C10 UNL     1      18.970  -2.676  12.242  1.00  0.00     0.013 A 
ENDBRANCH   9  11
ENDBRANCH   8   9
BRANCH   1  14
HETATM   14  N1  UNL     1      17.819  -5.719  15.818  1.00  0.00    -0.074 N 
ATOM     15  H13 UNL     1      17.455  -5.615  14.871  1.00  0.00     0.274 HD
ATOM     16  H12 UNL     1      18.786  -5.919  15.563  1.00  0.00     0.274 HD
ATOM     17  H11 UNL     1      17.376  -6.478  16.337  1.00  0.00     0.274 HD
ENDBRANCH   1  14
BRANCH   7  18
HETATM   18  N3  UNL     1      19.943  -3.322  17.639  1.00  0.00    -0.073 N 
ATOM     19  H33 UNL     1      19.876  -3.161  18.644  1.00  0.00     0.274 HD
ATOM     20  H32 UNL     1      19.679  -4.308  17.622  1.00  0.00     0.274 HD
ATOM     21  H31 UNL     1      20.894  -3.182  17.298  1.00  0.00     0.274 HD
ENDBRANCH   7  18
TORSDOF 4
ENDMDL
MODEL 4
REMARK VINA RESULT: -4.836556261      6.945      8.622
REMARK  4 active torsions:
REMARK  status: ('A' for Active; 'I' for Inactive)
REMARK    1  A    between atoms: N1_1  and  C1_5 
REMARK    2  A    between atoms: C5_11  and  N3_12 
REMARK    3  A    between atoms: C6_16  and  C7_17 
REMARK    4  A    between atoms: C7_17  and  C8_19 
ROOT
HETATM    1  C1  UNL     1      18.561  -4.895  16.925  1.00  0.00     0.198 C 
HETATM    2  C2  UNL     1      17.685  -6.146  16.768  1.00  0.00     0.052 C 
HETATM    3  C3  UNL     1      16.250  -5.798  17.106  1.00  0.00     0.115 C 
HETATM    4  N2  UNL     1      16.146  -4.684  18.008  1.00  0.00    -0.419 N 
ATOM      5  H2  UNL     1      16.166  -4.802  19.020  1.00  0.00     0.153 HD
HETATM    6  C4  UNL     1      16.014  -3.408  17.397  1.00  0.00     0.147 C 
HETATM    7  C5  UNL     1      17.330  -2.801  16.941  1.00  0.00     0.214 C 
HETATM    8  C6  UNL     1      17.982  -3.820  16.040  1.00  0.00     0.118 C 
ENDROOT
BRANCH   8   9
HETATM    9  C7  UNL     1      18.956  -3.226  15.111  1.00  0.00     0.139 C 
HETATM   10  O1  UNL     1      19.853  -2.481  15.512  1.00  0.00    -0.297 OA
BRANCH   9  11
HETATM   11  C8  UNL     1      18.906  -3.494  13.653  1.00  0.00     0.056 A 
HETATM   12  C9  UNL     1      18.168  -2.456  12.797  1.00  0.00     0.013 A 
HETATM   13  C10 UNL     1      19.670  -2.652  12.702  1.00  0.00     0.013 A 
ENDBRANCH   9  11
ENDBRANCH   8   9
BRANCH   1  14
HETATM   14  N1  UNL     1      19.905  -5.272  16.554  1.00  0.00    -0.074 N 
ATOM     15  H13 UNL     1      20.265  -6.056  17.096  1.00  0.00     0.274 HD
ATOM     16  H12 UNL     1      19.957  -5.713  15.636  1.00  0.00     0.274 HD
ATOM     17  H11 UNL     1      20.481  -4.433  16.629  1.00  0.00     0.274 HD
ENDBRANCH   1  14
BRANCH   7  18
HETATM   18  N3  UNL     1      18.129  -2.414  18.054  1.00  0.00    -0.073 N 
ATOM     19  H33 UNL     1      17.744  -1.597  18.528  1.00  0.00     0.274 HD
ATOM     20  H32 UNL     1      18.057  -3.085  18.820  1.00  0.00     0.274 HD
ATOM     21  H31 UNL     1      19.098  -2.264  17.775  1.00  0.00     0.274 HD
ENDBRANCH   7  18
TORSDOF 4
ENDMDL
MODEL 5
REMARK VINA RESULT: -4.732846875      1.830      2.391
REMARK  4 active torsions:
REMARK  status: ('A' for Active; 'I' for Inactive)
REMARK    1  A    between atoms: N1_1  and  C1_5 
REMARK    2  A    between atoms: C5_11  and  N3_12 
REMARK    3  A    between atoms: C6_16  and  C7_17 
REMARK    4  A    between atoms: C7_17  and  C8_19 
ROOT
HETATM    1  C1  UNL     1      23.832  -5.246  11.686  1.00  0.00     0.198 C 
HETATM    2  C2  UNL     1      22.489  -4.556  11.407  1.00  0.00     0.052 C 
HETATM    3  C3  UNL     1      22.561  -3.840  10.074  1.00  0.00     0.115 C 
HETATM    4  N2  UNL     1      23.902  -3.470   9.714  1.00  0.00    -0.419 N 
ATOM      5  H2  UNL     1      24.318  -2.585  10.006  1.00  0.00     0.153 HD
HETATM    6  C4  UNL     1      24.611  -4.414   8.925  1.00  0.00     0.147 C 
HETATM    7  C5  UNL     1      25.234  -5.545   9.725  1.00  0.00     0.214 C 
HETATM    8  C6  UNL     1      24.118  -6.168  10.527  1.00  0.00     0.118 C 
ENDROOT
BRANCH   8   9
HETATM    9  C7  UNL     1      24.402  -7.555  10.927  1.00  0.00     0.139 C 
HETATM   10  O1  UNL     1      25.495  -7.875  11.401  1.00  0.00    -0.297 OA
BRANCH   9  11
HETATM   11  C8  UNL     1      23.392  -8.631  10.781  1.00  0.00     0.056 A 
HETATM   12  C9  UNL     1      21.953  -8.268  11.173  1.00  0.00     0.013 A 
HETATM   13  C10 UNL     1      22.346  -8.551   9.734  1.00  0.00     0.013 A 
ENDBRANCH   9  11
ENDBRANCH   8   9
BRANCH   1  14
HETATM   14  N1  UNL     1      23.695  -5.942  12.943  1.00  0.00    -0.074 N 
ATOM     15  H13 UNL     1      23.078  -6.752  12.888  1.00  0.00     0.274 HD
ATOM     16  H12 UNL     1      24.541  -6.442  13.218  1.00  0.00     0.274 HD
ATOM     17  H11 UNL     1      23.394  -5.254  13.634  1.00  0.00     0.274 HD
ENDBRANCH   1  14
BRANCH   7  18
HETATM   18  N3  UNL     1      26.324  -5.077  10.512  1.00  0.00    -0.073 N 
ATOM     19  H33 UNL     1      26.044  -4.903  11.477  1.00  0.00     0.274 HD
ATOM     20  H32 UNL     1      27.010  -5.813  10.680  1.00  0.00     0.274 HD
ATOM     21  H31 UNL     1      26.753  -4.253  10.090  1.00  0.00     0.274 HD
ENDBRANCH   7  18
TORSDOF 4
ENDMDL
