MODEL 1
REMARK VINA RESULT: -10.341679453      0.000      0.000
REMARK  12 active torsions:
REMARK  status: ('A' for Active; 'I' for Inactive)
REMARK    1  A    between atoms: N1_1  and  C1_5 
REMARK    2  A    between atoms: C1_5  and  C2_6 
REMARK    3  A    between atoms: C2_6  and  C3_7 
REMARK    4  A    between atoms: C3_7  and  C4_8 
REMARK    5  A    between atoms: C4_8  and  C5_9 
REMARK    6  A    between atoms: C5_9  and  C6_10 
REMARK    7  A    between atoms: C6_10  and  C7_11 
REMARK    8  A    between atoms: C10_14  and  C11_15 
REMARK    9  A    between atoms: C11_15  and  C12_16 
REMARK   10  A    between atoms: C12_16  and  N2_17 
REMARK   11  A    between atoms: N2_17  and  C13_19 
REMARK   12  A    between atoms: C16_22  and  C17_23 
ROOT
HETATM    1  N2  UNL     1      25.655  -0.921   9.260  1.00  0.00    -0.390 N 
ATOM      2  H2  UNL     1      26.270  -1.028  10.067  1.00  0.00     0.159 HD
ENDROOT
BRANCH   1   3
HETATM    3  C12 UNL     1      25.598  -2.015   8.344  1.00  0.00     0.120 C 
BRANCH   3   4
HETATM    4  C11 UNL     1      26.472  -1.833   7.117  1.00  0.00     0.024 C 
BRANCH   4   5
HETATM    5  C10 UNL     1      27.739  -1.149   7.593  1.00  0.00    -0.012 C 
HETATM    6  C9  UNL     1      28.125   0.012   6.758  1.00  0.00     0.005 C 
HETATM    7  C8  UNL     1      29.486  -0.275   6.203  1.00  0.00     0.009 C 
HETATM    8  C7  UNL     1      30.097  -1.245   7.289  1.00  0.00     0.008 C 
HETATM    9  C25 UNL     1      28.925  -2.088   7.536  1.00  0.00     0.013 C 
BRANCH   8  10
HETATM   10  C6  UNL     1      31.365  -1.730   6.765  1.00  0.00    -0.022 C 
BRANCH  10  11
HETATM   11  C5  UNL     1      31.571  -2.202   5.424  1.00  0.00    -0.008 C 
BRANCH  11  12
HETATM   12  C4  UNL     1      32.166  -1.610   4.255  1.00  0.00    -0.027 C 
BRANCH  12  13
HETATM   13  C3  UNL     1      33.042  -0.438   4.225  1.00  0.00     0.028 C 
BRANCH  13  14
HETATM   14  C2  UNL     1      34.373  -0.712   3.506  1.00  0.00     0.031 C 
BRANCH  14  15
HETATM   15  C1  UNL     1      35.283   0.464   3.462  1.00  0.00     0.230 C 
BRANCH  15  16
HETATM   16  N1  UNL     1      35.971   0.545   2.170  1.00  0.00    -0.079 N 
ATOM     17  H13 UNL     1      36.909   0.934   2.267  1.00  0.00     0.274 HD
ATOM     18  H12 UNL     1      36.223  -0.379   1.818  1.00  0.00     0.274 HD
ATOM     19  H11 UNL     1      35.415   1.068   1.493  1.00  0.00     0.274 HD
ENDBRANCH  15  16
ENDBRANCH  14  15
ENDBRANCH  13  14
ENDBRANCH  12  13
ENDBRANCH  11  12
ENDBRANCH  10  11
ENDBRANCH   8  10
ENDBRANCH   4   5
ENDBRANCH   3   4
ENDBRANCH   1   3
BRANCH   1  20
HETATM   20  C13 UNL     1      24.944   0.293   9.157  1.00  0.00     0.028 A 
HETATM   21  C14 UNL     1      24.230   0.653   8.024  1.00  0.00     0.030 A 
HETATM   22  C15 UNL     1      23.557   1.857   7.964  1.00  0.00     0.017 A 
HETATM   23  C16 UNL     1      23.580   2.718   9.022  1.00  0.00     0.008 A 
HETATM   24  C23 UNL     1      24.275   2.398  10.161  1.00  0.00     0.017 A 
HETATM   25  C24 UNL     1      24.942   1.195  10.210  1.00  0.00     0.030 A 
BRANCH  23  26
HETATM   26  C17 UNL     1      22.856   3.999   8.939  1.00  0.00     0.117 A 
HETATM   27  N3  UNL     1      23.335   5.228   9.190  1.00  0.00    -0.326 N 
HETATM   28  C18 UNL     1      22.387   6.168   9.012  1.00  0.00     0.134 A 
ATOM     29  H3  UNL     1      24.293   5.425   9.479  1.00  0.00     0.169 HD
HETATM   30  N4  UNL     1      22.346   7.508   9.128  1.00  0.00    -0.350 N 
HETATM   31  C22 UNL     1      21.246   5.474   8.625  1.00  0.00     0.078 A 
HETATM   32  C19 UNL     1      21.219   8.198   8.876  1.00  0.00     0.090 A 
ATOM     33  H4  UNL     1      23.187   8.011   9.413  1.00  0.00     0.166 HD
HETATM   34  C20 UNL     1      20.049   7.570   8.486  1.00  0.00     0.019 A 
HETATM   35  C21 UNL     1      20.099   6.198   8.370  1.00  0.00     0.035 A 
HETATM   36  N5  UNL     1      21.569   4.167   8.592  1.00  0.00    -0.339 N 
ATOM     37  H5  UNL     1      20.929   3.413   8.340  1.00  0.00     0.167 HD
ENDBRANCH  23  26
ENDBRANCH   1  20
TORSDOF 12
ENDMDL
MODEL 2
REMARK VINA RESULT: -10.293385918      0.689      1.300
REMARK  12 active torsions:
REMARK  status: ('A' for Active; 'I' for Inactive)
REMARK    1  A    between atoms: N1_1  and  C1_5 
REMARK    2  A    between atoms: C1_5  and  C2_6 
REMARK    3  A    between atoms: C2_6  and  C3_7 
REMARK    4  A    between atoms: C3_7  and  C4_8 
REMARK    5  A    between atoms: C4_8  and  C5_9 
REMARK    6  A    between atoms: C5_9  and  C6_10 
REMARK    7  A    between atoms: C6_10  and  C7_11 
REMARK    8  A    between atoms: C10_14  and  C11_15 
REMARK    9  A    between atoms: C11_15  and  C12_16 
REMARK   10  A    between atoms: C12_16  and  N2_17 
REMARK   11  A    between atoms: N2_17  and  C13_19 
REMARK   12  A    between atoms: C16_22  and  C17_23 
ROOT
HETATM    1  N2  UNL     1      25.610  -0.950   9.085  1.00  0.00    -0.390 N 
ATOM      2  H2  UNL     1      25.338  -1.635   9.790  1.00  0.00     0.159 HD
ENDROOT
BRANCH   1   3
HETATM    3  C12 UNL     1      26.639  -1.336   8.173  1.00  0.00     0.120 C 
BRANCH   3   4
HETATM    4  C11 UNL     1      27.636  -0.232   7.871  1.00  0.00     0.024 C 
BRANCH   4   5
HETATM    5  C10 UNL     1      29.013  -0.824   8.103  1.00  0.00    -0.012 C 
HETATM    6  C9  UNL     1      30.101   0.176   8.015  1.00  0.00     0.005 C 
HETATM    7  C8  UNL     1      31.017  -0.260   6.914  1.00  0.00     0.009 C 
HETATM    8  C7  UNL     1      30.803  -1.825   6.895  1.00  0.00     0.008 C 
HETATM    9  C25 UNL     1      29.347  -1.864   7.054  1.00  0.00     0.013 C 
BRANCH   8  10
HETATM   10  C6  UNL     1      31.520  -2.342   5.740  1.00  0.00    -0.022 C 
BRANCH  10  11
HETATM   11  C5  UNL     1      31.865  -1.571   4.577  1.00  0.00    -0.008 C 
BRANCH  11  12
HETATM   12  C4  UNL     1      33.044  -0.837   4.200  1.00  0.00    -0.027 C 
BRANCH  12  13
HETATM   13  C3  UNL     1      33.255   0.603   4.352  1.00  0.00     0.028 C 
BRANCH  13  14
HETATM   14  C2  UNL     1      34.663   1.045   3.918  1.00  0.00     0.031 C 
BRANCH  14  15
HETATM   15  C1  UNL     1      35.374   0.042   3.082  1.00  0.00     0.230 C 
BRANCH  15  16
HETATM   16  N1  UNL     1      36.131   0.696   2.010  1.00  0.00    -0.079 N 
ATOM     17  H13 UNL     1      35.685   1.562   1.709  1.00  0.00     0.274 HD
ATOM     18  H12 UNL     1      37.009   1.086   2.353  1.00  0.00     0.274 HD
ATOM     19  H11 UNL     1      36.281   0.058   1.229  1.00  0.00     0.274 HD
ENDBRANCH  15  16
ENDBRANCH  14  15
ENDBRANCH  13  14
ENDBRANCH  12  13
ENDBRANCH  11  12
ENDBRANCH  10  11
ENDBRANCH   8  10
ENDBRANCH   4   5
ENDBRANCH   3   4
ENDBRANCH   1   3
BRANCH   1  20
HETATM   20  C13 UNL     1      24.933   0.288   9.105  1.00  0.00     0.028 A 
HETATM   21  C14 UNL     1      24.979   1.154  10.187  1.00  0.00     0.030 A 
HETATM   22  C15 UNL     1      24.292   2.350  10.166  1.00  0.00     0.017 A 
HETATM   23  C16 UNL     1      23.552   2.706   9.077  1.00  0.00     0.008 A 
HETATM   24  C23 UNL     1      23.481   1.877   7.986  1.00  0.00     0.017 A 
HETATM   25  C24 UNL     1      24.170   0.686   8.017  1.00  0.00     0.030 A 
BRANCH  23  26
HETATM   26  C17 UNL     1      22.824   3.988   9.073  1.00  0.00     0.117 A 
HETATM   27  N3  UNL     1      23.344   5.225   9.036  1.00  0.00    -0.326 N 
HETATM   28  C18 UNL     1      22.377   6.162   9.045  1.00  0.00     0.134 A 
ATOM     29  H3  UNL     1      24.343   5.429   9.006  1.00  0.00     0.169 HD
HETATM   30  N4  UNL     1      22.360   7.508   9.021  1.00  0.00    -0.350 N 
HETATM   31  C22 UNL     1      21.179   5.458   9.089  1.00  0.00     0.078 A 
HETATM   32  C19 UNL     1      21.202   8.193   9.039  1.00  0.00     0.090 A 
ATOM     33  H4  UNL     1      23.243   8.018   8.988  1.00  0.00     0.166 HD
HETATM   34  C20 UNL     1      19.975   7.555   9.082  1.00  0.00     0.019 A 
HETATM   35  C21 UNL     1      20.002   6.177   9.107  1.00  0.00     0.035 A 
HETATM   36  N5  UNL     1      21.490   4.148   9.105  1.00  0.00    -0.339 N 
ATOM     37  H5  UNL     1      20.812   3.387   9.136  1.00  0.00     0.167 HD
ENDBRANCH  23  26
ENDBRANCH   1  20
TORSDOF 12
ENDMDL
MODEL 3
REMARK VINA RESULT: -10.235863231      1.057      1.632
REMARK  12 active torsions:
REMARK  status: ('A' for Active; 'I' for Inactive)
REMARK    1  A    between atoms: N1_1  and  C1_5 
REMARK    2  A    between atoms: C1_5  and  C2_6 
REMARK    3  A    between atoms: C2_6  and  C3_7 
REMARK    4  A    between atoms: C3_7  and  C4_8 
REMARK    5  A    between atoms: C4_8  and  C5_9 
REMARK    6  A    between atoms: C5_9  and  C6_10 
REMARK    7  A    between atoms: C6_10  and  C7_11 
REMARK    8  A    between atoms: C10_14  and  C11_15 
REMARK    9  A    between atoms: C11_15  and  C12_16 
REMARK   10  A    between atoms: C12_16  and  N2_17 
REMARK   11  A    between atoms: N2_17  and  C13_19 
REMARK   12  A    between atoms: C16_22  and  C17_23 
ROOT
HETATM    1  N2  UNL     1      25.394  -0.558   9.040  1.00  0.00    -0.390 N 
ATOM      2  H2  UNL     1      25.107  -1.314   9.661  1.00  0.00     0.159 HD
ENDROOT
BRANCH   1   3
HETATM    3  C12 UNL     1      26.463  -0.838   8.134  1.00  0.00     0.120 C 
BRANCH   3   4
HETATM    4  C11 UNL     1      27.443   0.309   7.971  1.00  0.00     0.024 C 
BRANCH   4   5
HETATM    5  C10 UNL     1      28.810  -0.243   8.325  1.00  0.00    -0.012 C 
HETATM    6  C9  UNL     1      29.917   0.688   8.005  1.00  0.00     0.005 C 
HETATM    7  C8  UNL     1      30.813  -0.009   7.028  1.00  0.00     0.009 C 
HETATM    8  C7  UNL     1      30.569  -1.531   7.370  1.00  0.00     0.008 C 
HETATM    9  C25 UNL     1      29.114  -1.502   7.540  1.00  0.00     0.013 C 
BRANCH   8  10
HETATM   10  C6  UNL     1      31.265  -2.314   6.360  1.00  0.00    -0.022 C 
BRANCH  10  11
HETATM   11  C5  UNL     1      31.332  -1.978   4.965  1.00  0.00    -0.008 C 
BRANCH  11  12
HETATM   12  C4  UNL     1      32.417  -1.602   4.097  1.00  0.00    -0.027 C 
BRANCH  12  13
HETATM   13  C3  UNL     1      33.215  -0.379   4.184  1.00  0.00     0.028 C 
BRANCH  13  14
HETATM   14  C2  UNL     1      34.600  -0.527   3.532  1.00  0.00     0.031 C 
BRANCH  14  15
HETATM   15  C1  UNL     1      35.293   0.767   3.296  1.00  0.00     0.230 C 
BRANCH  15  16
HETATM   16  N1  UNL     1      36.140   0.698   2.102  1.00  0.00    -0.079 N 
ATOM     17  H13 UNL     1      36.602  -0.207   2.020  1.00  0.00     0.274 HD
ATOM     18  H12 UNL     1      35.584   0.665   1.247  1.00  0.00     0.274 HD
ATOM     19  H11 UNL     1      36.810   1.466   2.085  1.00  0.00     0.274 HD
ENDBRANCH  15  16
ENDBRANCH  14  15
ENDBRANCH  13  14
ENDBRANCH  12  13
ENDBRANCH  11  12
ENDBRANCH  10  11
ENDBRANCH   8  10
ENDBRANCH   4   5
ENDBRANCH   3   4
ENDBRANCH   1   3
BRANCH   1  20
HETATM   20  C13 UNL     1      24.697   0.663   9.157  1.00  0.00     0.028 A 
HETATM   21  C14 UNL     1      24.798   1.484  10.270  1.00  0.00     0.030 A 
HETATM   22  C15 UNL     1      24.088   2.665  10.345  1.00  0.00     0.017 A 
HETATM   23  C16 UNL     1      23.272   3.050   9.323  1.00  0.00     0.008 A 
HETATM   24  C23 UNL     1      23.145   2.266   8.204  1.00  0.00     0.017 A 
HETATM   25  C24 UNL     1      23.857   1.090   8.139  1.00  0.00     0.030 A 
BRANCH  23  26
HETATM   26  C17 UNL     1      22.521   4.315   9.421  1.00  0.00     0.117 A 
HETATM   27  N3  UNL     1      21.289   4.500   9.922  1.00  0.00    -0.326 N 
HETATM   28  C18 UNL     1      20.921   5.793   9.849  1.00  0.00     0.134 A 
ATOM     29  H3  UNL     1      20.707   3.756  10.307  1.00  0.00     0.169 HD
HETATM   30  N4  UNL     1      19.823   6.488  10.200  1.00  0.00    -0.350 N 
HETATM   31  C22 UNL     1      21.997   6.452   9.265  1.00  0.00     0.078 A 
HETATM   32  C19 UNL     1      19.740   7.815   9.998  1.00  0.00     0.090 A 
ATOM     33  H4  UNL     1      19.037   5.997  10.628  1.00  0.00     0.166 HD
HETATM   34  C20 UNL     1      20.775   8.533   9.423  1.00  0.00     0.019 A 
HETATM   35  C21 UNL     1      21.895   7.814   9.066  1.00  0.00     0.035 A 
HETATM   36  N5  UNL     1      22.944   5.526   9.022  1.00  0.00    -0.339 N 
ATOM     37  H5  UNL     1      23.851   5.717   8.595  1.00  0.00     0.167 HD
ENDBRANCH  23  26
ENDBRANCH   1  20
TORSDOF 12
ENDMDL
MODEL 4
REMARK VINA RESULT: -10.210929162      0.787      1.593
REMARK  12 active torsions:
REMARK  status: ('A' for Active; 'I' for Inactive)
REMARK    1  A    between atoms: N1_1  and  C1_5 
REMARK    2  A    between atoms: C1_5  and  C2_6 
REMARK    3  A    between atoms: C2_6  and  C3_7 
REMARK    4  A    between atoms: C3_7  and  C4_8 
REMARK    5  A    between atoms: C4_8  and  C5_9 
REMARK    6  A    between atoms: C5_9  and  C6_10 
REMARK    7  A    between atoms: C6_10  and  C7_11 
REMARK    8  A    between atoms: C10_14  and  C11_15 
REMARK    9  A    between atoms: C11_15  and  C12_16 
REMARK   10  A    between atoms: C12_16  and  N2_17 
REMARK   11  A    between atoms: N2_17  and  C13_19 
REMARK   12  A    between atoms: C16_22  and  C17_23 
ROOT
HETATM    1  N2  UNL     1      25.533  -0.912   9.007  1.00  0.00    -0.390 N 
ATOM      2  H2  UNL     1      25.198  -1.597   8.329  1.00  0.00     0.159 HD
ENDROOT
BRANCH   1   3
HETATM    3  C12 UNL     1      26.634  -1.304   9.829  1.00  0.00     0.120 C 
BRANCH   3   4
HETATM    4  C11 UNL     1      27.962  -0.712   9.395  1.00  0.00     0.024 C 
BRANCH   4   5
HETATM    5  C10 UNL     1      28.178  -1.151   7.961  1.00  0.00    -0.012 C 
HETATM    6  C9  UNL     1      29.382  -1.997   7.783  1.00  0.00     0.005 C 
HETATM    7  C8  UNL     1      30.283  -1.287   6.821  1.00  0.00     0.009 C 
HETATM    8  C7  UNL     1      29.265  -0.433   5.968  1.00  0.00     0.008 C 
HETATM    9  C25 UNL     1      28.393   0.038   7.048  1.00  0.00     0.013 C 
BRANCH   8  10
HETATM   10  C6  UNL     1      30.051   0.436   5.106  1.00  0.00    -0.022 C 
BRANCH  10  11
HETATM   11  C5  UNL     1      31.445   0.730   5.289  1.00  0.00    -0.008 C 
BRANCH  11  12
HETATM   12  C4  UNL     1      32.631   0.351   4.568  1.00  0.00    -0.027 C 
BRANCH  12  13
HETATM   13  C3  UNL     1      33.022  -1.008   4.191  1.00  0.00     0.028 C 
BRANCH  13  14
HETATM   14  C2  UNL     1      34.363  -1.053   3.442  1.00  0.00     0.031 C 
BRANCH  14  15
HETATM   15  C1  UNL     1      35.094   0.242   3.442  1.00  0.00     0.230 C 
BRANCH  15  16
HETATM   16  N1  UNL     1      35.857   0.413   2.202  1.00  0.00    -0.079 N 
ATOM     17  H13 UNL     1      35.318   0.912   1.494  1.00  0.00     0.274 HD
ATOM     18  H12 UNL     1      36.618   1.083   2.316  1.00  0.00     0.274 HD
ATOM     19  H11 UNL     1      36.194  -0.485   1.854  1.00  0.00     0.274 HD
ENDBRANCH  15  16
ENDBRANCH  14  15
ENDBRANCH  13  14
ENDBRANCH  12  13
ENDBRANCH  11  12
ENDBRANCH  10  11
ENDBRANCH   8  10
ENDBRANCH   4   5
ENDBRANCH   3   4
ENDBRANCH   1   3
BRANCH   1  20
HETATM   20  C13 UNL     1      24.865   0.330   9.041  1.00  0.00     0.028 A 
HETATM   21  C14 UNL     1      24.882   1.163  10.150  1.00  0.00     0.030 A 
HETATM   22  C15 UNL     1      24.205   2.366  10.142  1.00  0.00     0.017 A 
HETATM   23  C16 UNL     1      23.505   2.760   9.041  1.00  0.00     0.008 A 
HETATM   24  C23 UNL     1      23.463   1.964   7.923  1.00  0.00     0.017 A 
HETATM   25  C24 UNL     1      24.142   0.767   7.942  1.00  0.00     0.030 A 
BRANCH  23  26
HETATM   26  C17 UNL     1      22.787   4.048   9.051  1.00  0.00     0.117 A 
HETATM   27  N3  UNL     1      23.318   5.281   9.050  1.00  0.00    -0.326 N 
HETATM   28  C18 UNL     1      22.358   6.226   9.062  1.00  0.00     0.134 A 
ATOM     29  H3  UNL     1      24.318   5.477   9.041  1.00  0.00     0.169 HD
HETATM   30  N4  UNL     1      22.352   7.572   9.066  1.00  0.00    -0.350 N 
HETATM   31  C22 UNL     1      21.154   5.531   9.071  1.00  0.00     0.078 A 
HETATM   32  C19 UNL     1      21.200   8.267   9.079  1.00  0.00     0.090 A 
ATOM     33  H4  UNL     1      23.240   8.075   9.060  1.00  0.00     0.166 HD
HETATM   34  C20 UNL     1      19.967   7.638   9.087  1.00  0.00     0.019 A 
HETATM   35  C21 UNL     1      19.982   6.260   9.084  1.00  0.00     0.035 A 
HETATM   36  N5  UNL     1      21.454   4.218   9.064  1.00  0.00    -0.339 N 
ATOM     37  H5  UNL     1      20.769   3.462   9.067  1.00  0.00     0.167 HD
ENDBRANCH  23  26
ENDBRANCH   1  20
TORSDOF 12
ENDMDL
MODEL 5
REMARK VINA RESULT: -10.179756062      1.073      1.699
REMARK  12 active torsions:
REMARK  status: ('A' for Active; 'I' for Inactive)
REMARK    1  A    between atoms: N1_1  and  C1_5 
REMARK    2  A    between atoms: C1_5  and  C2_6 
REMARK    3  A    between atoms: C2_6  and  C3_7 
REMARK    4  A    between atoms: C3_7  and  C4_8 
REMARK    5  A    between atoms: C4_8  and  C5_9 
REMARK    6  A    between atoms: C5_9  and  C6_10 
REMARK    7  A    between atoms: C6_10  and  C7_11 
REMARK    8  A    between atoms: C10_14  and  C11_15 
REMARK    9  A    between atoms: C11_15  and  C12_16 
REMARK   10  A    between atoms: C12_16  and  N2_17 
REMARK   11  A    between atoms: N2_17  and  C13_19 
REMARK   12  A    between atoms: C16_22  and  C17_23 
ROOT
HETATM    1  N2  UNL     1      25.593  -0.634   8.875  1.00  0.00    -0.390 N 
ATOM      2  H2  UNL     1      25.383  -1.245   8.085  1.00  0.00     0.159 HD
ENDROOT
BRANCH   1   3
HETATM    3  C12 UNL     1      26.611  -1.073   9.776  1.00  0.00     0.120 C 
BRANCH   3   4
HETATM    4  C11 UNL     1      28.009  -0.637   9.379  1.00  0.00     0.024 C 
BRANCH   4   5
HETATM    5  C10 UNL     1      28.217  -1.113   7.955  1.00  0.00    -0.012 C 
HETATM    6  C9  UNL     1      29.418  -1.965   7.793  1.00  0.00     0.005 C 
HETATM    7  C8  UNL     1      30.315  -1.282   6.808  1.00  0.00     0.009 C 
HETATM    8  C7  UNL     1      29.293  -0.449   5.939  1.00  0.00     0.008 C 
HETATM    9  C25 UNL     1      28.429   0.052   7.011  1.00  0.00     0.013 C 
BRANCH   8  10
HETATM   10  C6  UNL     1      30.076   0.397   5.051  1.00  0.00    -0.022 C 
BRANCH  10  11
HETATM   11  C5  UNL     1      31.438   0.792   5.283  1.00  0.00    -0.008 C 
BRANCH  11  12
HETATM   12  C4  UNL     1      32.686   0.417   4.673  1.00  0.00    -0.027 C 
BRANCH  12  13
HETATM   13  C3  UNL     1      33.049  -0.913   4.183  1.00  0.00     0.028 C 
BRANCH  13  14
HETATM   14  C2  UNL     1      34.411  -0.931   3.469  1.00  0.00     0.031 C 
BRANCH  14  15
HETATM   15  C1  UNL     1      35.117   0.377   3.494  1.00  0.00     0.230 C 
BRANCH  15  16
HETATM   16  N1  UNL     1      35.937   0.552   2.291  1.00  0.00    -0.079 N 
ATOM     17  H13 UNL     1      36.912   0.741   2.524  1.00  0.00     0.274 HD
ATOM     18  H12 UNL     1      36.066  -0.328   1.791  1.00  0.00     0.274 HD
ATOM     19  H11 UNL     1      35.547   1.274   1.686  1.00  0.00     0.274 HD
ENDBRANCH  15  16
ENDBRANCH  14  15
ENDBRANCH  13  14
ENDBRANCH  12  13
ENDBRANCH  11  12
ENDBRANCH  10  11
ENDBRANCH   8  10
ENDBRANCH   4   5
ENDBRANCH   3   4
ENDBRANCH   1   3
BRANCH   1  20
HETATM   20  C13 UNL     1      24.850   0.561   8.971  1.00  0.00     0.028 A 
HETATM   21  C14 UNL     1      24.060   1.042   7.938  1.00  0.00     0.030 A 
HETATM   22  C15 UNL     1      23.359   2.223   8.074  1.00  0.00     0.017 A 
HETATM   23  C16 UNL     1      23.429   2.943   9.230  1.00  0.00     0.008 A 
HETATM   24  C23 UNL     1      24.200   2.500  10.276  1.00  0.00     0.017 A 
HETATM   25  C24 UNL     1      24.895   1.321  10.130  1.00  0.00     0.030 A 
BRANCH  23  26
HETATM   26  C17 UNL     1      22.674   4.202   9.356  1.00  0.00     0.117 A 
HETATM   27  N3  UNL     1      21.505   4.397   9.988  1.00  0.00    -0.326 N 
HETATM   28  C18 UNL     1      21.109   5.681   9.899  1.00  0.00     0.134 A 
ATOM     29  H3  UNL     1      20.984   3.666  10.473  1.00  0.00     0.169 HD
HETATM   30  N4  UNL     1      20.047   6.379  10.343  1.00  0.00    -0.350 N 
HETATM   31  C22 UNL     1      22.099   6.323   9.163  1.00  0.00     0.078 A 
HETATM   32  C19 UNL     1      19.920   7.694  10.090  1.00  0.00     0.090 A 
ATOM     33  H4  UNL     1      19.325   5.900  10.882  1.00  0.00     0.166 HD
HETATM   34  C20 UNL     1      20.868   8.395   9.366  1.00  0.00     0.019 A 
HETATM   35  C21 UNL     1      21.951   7.672   8.914  1.00  0.00     0.035 A 
HETATM   36  N5  UNL     1      23.027   5.398   8.854  1.00  0.00    -0.339 N 
ATOM     37  H5  UNL     1      23.875   5.578   8.317  1.00  0.00     0.167 HD
ENDBRANCH  23  26
ENDBRANCH   1  20
TORSDOF 12
ENDMDL
