MODEL 1
REMARK VINA RESULT: -9.558669460      0.000      0.000
REMARK  11 active torsions:
REMARK  status: ('A' for Active; 'I' for Inactive)
REMARK    1  A    between atoms: C5_8  and  C6_9 
REMARK    2  A    between atoms: C6_9  and  C7_10 
REMARK    3  A    between atoms: C7_10  and  C8_11 
REMARK    4  A    between atoms: C8_11  and  C9_12 
REMARK    5  A    between atoms: C9_12  and  C10_13 
REMARK    6  A    between atoms: C10_13  and  C11_14 
REMARK    7  A    between atoms: C11_14  and  C12_15 
REMARK    8  A    between atoms: C12_15  and  C13_16 
REMARK    9  A    between atoms: C13_16  and  C14_17 
REMARK   10  A    between atoms: C14_17  and  C15_18 
REMARK   11  A    between atoms: C15_18  and  N2_19 
ROOT
HETATM    1  C12 UNL     1      26.201   0.616   9.975  1.00  0.00     0.000 C 
ENDROOT
BRANCH   1   2
HETATM    2  C11 UNL     1      26.877  -0.715  10.262  1.00  0.00     0.000 C 
BRANCH   2   3
HETATM    3  C10 UNL     1      26.449  -1.781   9.298  1.00  0.00     0.000 C 
BRANCH   3   4
HETATM    4  C9  UNL     1      27.487  -2.072   8.250  1.00  0.00     0.000 C 
BRANCH   4   5
HETATM    5  C8  UNL     1      27.232  -1.356   6.939  1.00  0.00     0.000 C 
BRANCH   5   6
HETATM    6  C7  UNL     1      28.199  -0.249   6.695  1.00  0.00     0.002 C 
BRANCH   6   7
HETATM    7  C6  UNL     1      29.352  -0.184   7.634  1.00  0.00     0.025 C 
BRANCH   7   8
HETATM    8  C5  UNL     1      30.673  -0.570   7.049  1.00  0.00     0.082 C 
HETATM    9  C4  UNL     1      30.637  -2.008   6.576  1.00  0.00     0.025 C 
HETATM   10  C3  UNL     1      31.791  -2.356   5.685  1.00  0.00     0.009 C 
HETATM   11  C2  UNL     1      31.970  -1.445   4.526  1.00  0.00     0.075 C 
HETATM   12  C1  UNL     1      32.013  -0.046   5.011  1.00  0.00     0.070 C 
HETATM   13  N1  UNL     1      32.882   0.782   4.549  1.00  0.00    -0.389 N 
HETATM   14  N4  UNL     1      31.069   0.345   5.996  1.00  0.00    -0.376 N 
ATOM     15  H12 UNL     1      33.561   0.500   3.841  1.00  0.00     0.157 HD
ATOM     16  H11 UNL     1      32.912   1.745   4.883  1.00  0.00     0.157 HD
ATOM     17  H4  UNL     1      30.664   1.281   5.962  1.00  0.00     0.161 HD
ENDBRANCH   7   8
ENDBRANCH   6   7
ENDBRANCH   5   6
ENDBRANCH   4   5
ENDBRANCH   3   4
ENDBRANCH   2   3
ENDBRANCH   1   2
BRANCH   1  18
HETATM   18  C13 UNL     1      24.925   0.460   9.230  1.00  0.00     0.002 C 
BRANCH  18  19
HETATM   19  C14 UNL     1      24.797   1.249   7.987  1.00  0.00     0.020 C 
BRANCH  19  20
HETATM   20  C15 UNL     1      23.488   1.845   7.652  1.00  0.00     0.121 C 
BRANCH  20  21
HETATM   21  N2  UNL     1      22.507   1.907   8.676  1.00  0.00    -0.379 N 
HETATM   22  C16 UNL     1      22.151   3.064   9.117  1.00  0.00     0.084 C 
HETATM   23  C17 UNL     1      21.119   3.077  10.190  1.00  0.00     0.160 C 
HETATM   24  N3  UNL     1      22.654   4.293   8.669  1.00  0.00    -0.345 N 
HETATM   25  C18 UNL     1      20.452   4.380  10.310  1.00  0.00     0.168 C 
HETATM   26  O1  UNL     1      19.325   4.426  10.870  1.00  0.00    -0.292 OA
HETATM   27  C19 UNL     1      21.004   5.629   9.824  1.00  0.00     0.037 A 
HETATM   28  C20 UNL     1      20.471   6.863  10.151  1.00  0.00     0.017 A 
HETATM   29  C24 UNL     1      22.105   5.566   9.006  1.00  0.00     0.047 A 
HETATM   30  C21 UNL     1      21.030   8.048   9.664  1.00  0.00     0.001 A 
HETATM   31  C22 UNL     1      22.135   7.987   8.840  1.00  0.00     0.002 A 
HETATM   32  C23 UNL     1      22.652   6.750   8.527  1.00  0.00     0.030 A 
ATOM     33  H3  UNL     1      23.471   4.277   8.059  1.00  0.00     0.167 HD
ATOM     34  H2  UNL     1      22.092   1.055   9.054  1.00  0.00     0.160 HD
ENDBRANCH  20  21
ENDBRANCH  19  20
ENDBRANCH  18  19
ENDBRANCH   1  18
TORSDOF 11
ENDMDL
MODEL 2
REMARK VINA RESULT: -9.507386517      1.138      1.623
REMARK  11 active torsions:
REMARK  status: ('A' for Active; 'I' for Inactive)
REMARK    1  A    between atoms: C5_8  and  C6_9 
REMARK    2  A    between atoms: C6_9  and  C7_10 
REMARK    3  A    between atoms: C7_10  and  C8_11 
REMARK    4  A    between atoms: C8_11  and  C9_12 
REMARK    5  A    between atoms: C9_12  and  C10_13 
REMARK    6  A    between atoms: C10_13  and  C11_14 
REMARK    7  A    between atoms: C11_14  and  C12_15 
REMARK    8  A    between atoms: C12_15  and  C13_16 
REMARK    9  A    between atoms: C13_16  and  C14_17 
REMARK   10  A    between atoms: C14_17  and  C15_18 
REMARK   11  A    between atoms: C15_18  and  N2_19 
ROOT
HETATM    1  C12 UNL     1      26.852  -0.851   9.984  1.00  0.00     0.000 C 
ENDROOT
BRANCH   1   2
HETATM    2  C11 UNL     1      26.943  -1.829   8.822  1.00  0.00     0.000 C 
BRANCH   2   3
HETATM    3  C10 UNL     1      28.318  -1.864   8.225  1.00  0.00     0.000 C 
BRANCH   3   4
HETATM    4  C9  UNL     1      29.235  -0.824   8.806  1.00  0.00     0.000 C 
BRANCH   4   5
HETATM    5  C8  UNL     1      29.608   0.264   7.821  1.00  0.00     0.000 C 
BRANCH   5   6
HETATM    6  C7  UNL     1      28.985   0.061   6.482  1.00  0.00     0.002 C 
BRANCH   6   7
HETATM    7  C6  UNL     1      29.838   0.415   5.316  1.00  0.00     0.025 C 
BRANCH   7   8
HETATM    8  C5  UNL     1      31.261  -0.038   5.405  1.00  0.00     0.082 C 
HETATM    9  C4  UNL     1      31.383  -1.473   4.937  1.00  0.00     0.025 C 
HETATM   10  C3  UNL     1      32.803  -1.881   4.679  1.00  0.00     0.009 C 
HETATM   11  C2  UNL     1      33.543  -0.981   3.758  1.00  0.00     0.075 C 
HETATM   12  C1  UNL     1      33.418   0.415   4.237  1.00  0.00     0.070 C 
HETATM   13  N1  UNL     1      34.439   1.196   4.252  1.00  0.00    -0.389 N 
HETATM   14  N4  UNL     1      32.143   0.855   4.678  1.00  0.00    -0.376 N 
ATOM     15  H12 UNL     1      35.356   0.880   3.935  1.00  0.00     0.157 HD
ATOM     16  H11 UNL     1      34.354   2.158   4.583  1.00  0.00     0.157 HD
ATOM     17  H4  UNL     1      31.843   1.809   4.480  1.00  0.00     0.161 HD
ENDBRANCH   7   8
ENDBRANCH   6   7
ENDBRANCH   5   6
ENDBRANCH   4   5
ENDBRANCH   3   4
ENDBRANCH   2   3
ENDBRANCH   1   2
BRANCH   1  18
HETATM   18  C13 UNL     1      25.920   0.275   9.710  1.00  0.00     0.002 C 
BRANCH  18  19
HETATM   19  C14 UNL     1      25.583   0.508   8.290  1.00  0.00     0.020 C 
BRANCH  19  20
HETATM   20  C15 UNL     1      24.161   0.626   7.905  1.00  0.00     0.121 C 
BRANCH  20  21
HETATM   21  N2  UNL     1      23.204   0.771   8.944  1.00  0.00    -0.379 N 
HETATM   22  C16 UNL     1      22.822   1.958   9.266  1.00  0.00     0.084 C 
HETATM   23  C17 UNL     1      21.816   2.058  10.359  1.00  0.00     0.160 C 
HETATM   24  N3  UNL     1      23.273   3.146   8.673  1.00  0.00    -0.345 N 
HETATM   25  C18 UNL     1      21.110   3.346  10.354  1.00  0.00     0.168 C 
HETATM   26  O1  UNL     1      19.996   3.420  10.937  1.00  0.00    -0.292 OA
HETATM   27  C19 UNL     1      21.609   4.550   9.721  1.00  0.00     0.037 A 
HETATM   28  C20 UNL     1      21.045   5.796   9.926  1.00  0.00     0.017 A 
HETATM   29  C24 UNL     1      22.691   4.430   8.884  1.00  0.00     0.047 A 
HETATM   30  C21 UNL     1      21.553   6.937   9.298  1.00  0.00     0.001 A 
HETATM   31  C22 UNL     1      22.640   6.819   8.455  1.00  0.00     0.002 A 
HETATM   32  C23 UNL     1      23.188   5.571   8.265  1.00  0.00     0.030 A 
ATOM     33  H3  UNL     1      24.076   3.086   8.046  1.00  0.00     0.167 HD
ATOM     34  H2  UNL     1      22.826  -0.047   9.423  1.00  0.00     0.160 HD
ENDBRANCH  20  21
ENDBRANCH  19  20
ENDBRANCH  18  19
ENDBRANCH   1  18
TORSDOF 11
ENDMDL
MODEL 3
REMARK VINA RESULT: -9.358975734      2.871     10.190
REMARK  11 active torsions:
REMARK  status: ('A' for Active; 'I' for Inactive)
REMARK    1  A    between atoms: C5_8  and  C6_9 
REMARK    2  A    between atoms: C6_9  and  C7_10 
REMARK    3  A    between atoms: C7_10  and  C8_11 
REMARK    4  A    between atoms: C8_11  and  C9_12 
REMARK    5  A    between atoms: C9_12  and  C10_13 
REMARK    6  A    between atoms: C10_13  and  C11_14 
REMARK    7  A    between atoms: C11_14  and  C12_15 
REMARK    8  A    between atoms: C12_15  and  C13_16 
REMARK    9  A    between atoms: C13_16  and  C14_17 
REMARK   10  A    between atoms: C14_17  and  C15_18 
REMARK   11  A    between atoms: C15_18  and  N2_19 
ROOT
HETATM    1  C12 UNL     1      24.299  -0.147   7.621  1.00  0.00     0.000 C 
ENDROOT
BRANCH   1   2
HETATM    2  C11 UNL     1      24.945   1.047   8.308  1.00  0.00     0.000 C 
BRANCH   2   3
HETATM    3  C10 UNL     1      24.334   1.320   9.650  1.00  0.00     0.000 C 
BRANCH   3   4
HETATM    4  C9  UNL     1      22.844   1.122   9.666  1.00  0.00     0.000 C 
BRANCH   4   5
HETATM    5  C8  UNL     1      22.167   1.765  10.859  1.00  0.00     0.000 C 
BRANCH   5   6
HETATM    6  C7  UNL     1      21.213   2.839  10.463  1.00  0.00     0.002 C 
BRANCH   6   7
HETATM    7  C6  UNL     1      20.825   2.857   9.026  1.00  0.00     0.025 C 
BRANCH   7   8
HETATM    8  C5  UNL     1      21.152   4.118   8.293  1.00  0.00     0.082 C 
HETATM    9  C4  UNL     1      20.120   5.184   8.598  1.00  0.00     0.025 C 
HETATM   10  C3  UNL     1      20.559   6.555   8.178  1.00  0.00     0.009 C 
HETATM   11  C2  UNL     1      21.885   6.964   8.706  1.00  0.00     0.075 C 
HETATM   12  C1  UNL     1      22.880   5.914   8.390  1.00  0.00     0.070 C 
HETATM   13  N1  UNL     1      24.047   6.228   7.951  1.00  0.00    -0.389 N 
HETATM   14  N4  UNL     1      22.502   4.560   8.584  1.00  0.00    -0.376 N 
ATOM     15  H12 UNL     1      24.319   7.202   7.811  1.00  0.00     0.157 HD
ATOM     16  H11 UNL     1      24.733   5.505   7.732  1.00  0.00     0.157 HD
ATOM     17  H4  UNL     1      23.188   3.891   8.932  1.00  0.00     0.161 HD
ENDBRANCH   7   8
ENDBRANCH   6   7
ENDBRANCH   5   6
ENDBRANCH   4   5
ENDBRANCH   3   4
ENDBRANCH   2   3
ENDBRANCH   1   2
BRANCH   1  18
HETATM   18  C13 UNL     1      25.295  -1.155   7.174  1.00  0.00     0.002 C 
BRANCH  18  19
HETATM   19  C14 UNL     1      25.771  -2.100   8.206  1.00  0.00     0.020 C 
BRANCH  19  20
HETATM   20  C15 UNL     1      27.226  -2.269   8.402  1.00  0.00     0.121 C 
BRANCH  20  21
HETATM   21  N2  UNL     1      27.992  -1.113   8.706  1.00  0.00    -0.379 N 
HETATM   22  C16 UNL     1      29.054  -0.881   8.015  1.00  0.00     0.084 C 
HETATM   23  C17 UNL     1      29.823   0.343   8.370  1.00  0.00     0.160 C 
HETATM   24  N3  UNL     1      29.533  -1.680   6.968  1.00  0.00    -0.345 N 
HETATM   25  C18 UNL     1      30.716   0.779   7.289  1.00  0.00     0.168 C 
HETATM   26  O1  UNL     1      31.110   1.974   7.282  1.00  0.00    -0.292 OA
HETATM   27  C19 UNL     1      31.182  -0.080   6.218  1.00  0.00     0.037 A 
HETATM   28  C20 UNL     1      32.196   0.284   5.352  1.00  0.00     0.017 A 
HETATM   29  C24 UNL     1      30.579  -1.305   6.073  1.00  0.00     0.047 A 
HETATM   30  C21 UNL     1      32.620  -0.570   4.329  1.00  0.00     0.001 A 
HETATM   31  C22 UNL     1      32.015  -1.802   4.180  1.00  0.00     0.002 A 
HETATM   32  C23 UNL     1      31.008  -2.146   5.054  1.00  0.00     0.030 A 
ATOM     33  H3  UNL     1      29.103  -2.595   6.836  1.00  0.00     0.167 HD
ATOM     34  H2  UNL     1      27.707  -0.481   9.454  1.00  0.00     0.160 HD
ENDBRANCH  20  21
ENDBRANCH  19  20
ENDBRANCH  18  19
ENDBRANCH   1  18
TORSDOF 11
ENDMDL
MODEL 4
REMARK VINA RESULT: -9.280284382      3.071     10.508
REMARK  11 active torsions:
REMARK  status: ('A' for Active; 'I' for Inactive)
REMARK    1  A    between atoms: C5_8  and  C6_9 
REMARK    2  A    between atoms: C6_9  and  C7_10 
REMARK    3  A    between atoms: C7_10  and  C8_11 
REMARK    4  A    between atoms: C8_11  and  C9_12 
REMARK    5  A    between atoms: C9_12  and  C10_13 
REMARK    6  A    between atoms: C10_13  and  C11_14 
REMARK    7  A    between atoms: C11_14  and  C12_15 
REMARK    8  A    between atoms: C12_15  and  C13_16 
REMARK    9  A    between atoms: C13_16  and  C14_17 
REMARK   10  A    between atoms: C14_17  and  C15_18 
REMARK   11  A    between atoms: C15_18  and  N2_19 
ROOT
HETATM    1  C12 UNL     1      24.607   0.034   7.722  1.00  0.00     0.000 C 
ENDROOT
BRANCH   1   2
HETATM    2  C11 UNL     1      24.943   0.410   9.157  1.00  0.00     0.000 C 
BRANCH   2   3
HETATM    3  C10 UNL     1      23.863   1.237   9.788  1.00  0.00     0.000 C 
BRANCH   3   4
HETATM    4  C9  UNL     1      24.398   2.272  10.737  1.00  0.00     0.000 C 
BRANCH   4   5
HETATM    5  C8  UNL     1      23.868   3.665  10.466  1.00  0.00     0.000 C 
BRANCH   5   6
HETATM    6  C7  UNL     1      23.377   3.827   9.069  1.00  0.00     0.002 C 
BRANCH   6   7
HETATM    7  C6  UNL     1      23.720   5.118   8.412  1.00  0.00     0.025 C 
BRANCH   7   8
HETATM    8  C5  UNL     1      22.561   6.023   8.141  1.00  0.00     0.082 C 
HETATM    9  C4  UNL     1      21.261   5.250   8.230  1.00  0.00     0.025 C 
HETATM   10  C3  UNL     1      20.059   6.143   8.306  1.00  0.00     0.009 C 
HETATM   11  C2  UNL     1      20.119   7.164   9.384  1.00  0.00     0.075 C 
HETATM   12  C1  UNL     1      21.392   7.913   9.273  1.00  0.00     0.070 C 
HETATM   13  N1  UNL     1      21.412   9.193   9.401  1.00  0.00    -0.389 N 
HETATM   14  N4  UNL     1      22.577   7.176   9.021  1.00  0.00    -0.376 N 
ATOM     15  H12 UNL     1      20.560   9.723   9.582  1.00  0.00     0.157 HD
ATOM     16  H11 UNL     1      22.289   9.709   9.324  1.00  0.00     0.157 HD
ATOM     17  H4  UNL     1      23.451   7.459   9.464  1.00  0.00     0.161 HD
ENDBRANCH   7   8
ENDBRANCH   6   7
ENDBRANCH   5   6
ENDBRANCH   4   5
ENDBRANCH   3   4
ENDBRANCH   2   3
ENDBRANCH   1   2
BRANCH   1  18
HETATM   18  C13 UNL     1      25.296  -1.208   7.282  1.00  0.00     0.002 C 
BRANCH  18  19
HETATM   19  C14 UNL     1      25.878  -2.043   8.354  1.00  0.00     0.020 C 
BRANCH  19  20
HETATM   20  C15 UNL     1      27.346  -2.201   8.416  1.00  0.00     0.121 C 
BRANCH  20  21
HETATM   21  N2  UNL     1      28.125  -1.051   8.710  1.00  0.00    -0.379 N 
HETATM   22  C16 UNL     1      29.178  -0.826   8.005  1.00  0.00     0.084 C 
HETATM   23  C17 UNL     1      29.961   0.392   8.351  1.00  0.00     0.160 C 
HETATM   24  N3  UNL     1      29.636  -1.627   6.950  1.00  0.00    -0.345 N 
HETATM   25  C18 UNL     1      30.842   0.822   7.257  1.00  0.00     0.168 C 
HETATM   26  O1  UNL     1      31.244   2.015   7.246  1.00  0.00    -0.292 OA
HETATM   27  C19 UNL     1      31.286  -0.038   6.179  1.00  0.00     0.037 A 
HETATM   28  C20 UNL     1      32.290   0.319   5.298  1.00  0.00     0.017 A 
HETATM   29  C24 UNL     1      30.672  -1.259   6.041  1.00  0.00     0.047 A 
HETATM   30  C21 UNL     1      32.693  -0.537   4.268  1.00  0.00     0.001 A 
HETATM   31  C22 UNL     1      32.077  -1.764   4.127  1.00  0.00     0.002 A 
HETATM   32  C23 UNL     1      31.080  -2.102   5.014  1.00  0.00     0.030 A 
ATOM     33  H3  UNL     1      29.197  -2.539   6.823  1.00  0.00     0.167 HD
ATOM     34  H2  UNL     1      27.855  -0.418   9.463  1.00  0.00     0.160 HD
ENDBRANCH  20  21
ENDBRANCH  19  20
ENDBRANCH  18  19
ENDBRANCH   1  18
TORSDOF 11
ENDMDL
MODEL 5
REMARK VINA RESULT: -9.146336779      2.919     10.084
REMARK  11 active torsions:
REMARK  status: ('A' for Active; 'I' for Inactive)
REMARK    1  A    between atoms: C5_8  and  C6_9 
REMARK    2  A    between atoms: C6_9  and  C7_10 
REMARK    3  A    between atoms: C7_10  and  C8_11 
REMARK    4  A    between atoms: C8_11  and  C9_12 
REMARK    5  A    between atoms: C9_12  and  C10_13 
REMARK    6  A    between atoms: C10_13  and  C11_14 
REMARK    7  A    between atoms: C11_14  and  C12_15 
REMARK    8  A    between atoms: C12_15  and  C13_16 
REMARK    9  A    between atoms: C13_16  and  C14_17 
REMARK   10  A    between atoms: C14_17  and  C15_18 
REMARK   11  A    between atoms: C15_18  and  N2_19 
ROOT
HETATM    1  C12 UNL     1      24.388  -0.223   7.542  1.00  0.00     0.000 C 
ENDROOT
BRANCH   1   2
HETATM    2  C11 UNL     1      25.003   0.951   8.288  1.00  0.00     0.000 C 
BRANCH   2   3
HETATM    3  C10 UNL     1      24.899   0.788   9.775  1.00  0.00     0.000 C 
BRANCH   3   4
HETATM    4  C9  UNL     1      25.459   1.959  10.532  1.00  0.00     0.000 C 
BRANCH   4   5
HETATM    5  C8  UNL     1      24.392   2.889  11.073  1.00  0.00     0.000 C 
BRANCH   5   6
HETATM    6  C7  UNL     1      23.050   2.244  11.133  1.00  0.00     0.002 C 
BRANCH   6   7
HETATM    7  C6  UNL     1      21.928   3.041  10.566  1.00  0.00     0.025 C 
BRANCH   7   8
HETATM    8  C5  UNL     1      22.314   4.022   9.506  1.00  0.00     0.082 C 
HETATM    9  C4  UNL     1      21.618   3.686   8.203  1.00  0.00     0.025 C 
HETATM   10  C3  UNL     1      21.686   4.801   7.203  1.00  0.00     0.009 C 
HETATM   11  C2  UNL     1      21.208   6.112   7.712  1.00  0.00     0.075 C 
HETATM   12  C1  UNL     1      21.907   6.426   8.979  1.00  0.00     0.070 C 
HETATM   13  N1  UNL     1      22.363   7.608   9.202  1.00  0.00    -0.389 N 
HETATM   14  N4  UNL     1      22.057   5.384   9.931  1.00  0.00    -0.376 N 
ATOM     15  H12 UNL     1      22.256   8.357   8.517  1.00  0.00     0.157 HD
ATOM     16  H11 UNL     1      22.845   7.824  10.074  1.00  0.00     0.157 HD
ATOM     17  H4  UNL     1      21.982   5.596  10.926  1.00  0.00     0.161 HD
ENDBRANCH   7   8
ENDBRANCH   6   7
ENDBRANCH   5   6
ENDBRANCH   4   5
ENDBRANCH   3   4
ENDBRANCH   2   3
ENDBRANCH   1   2
BRANCH   1  18
HETATM   18  C13 UNL     1      25.404  -1.210   7.093  1.00  0.00     0.002 C 
BRANCH  18  19
HETATM   19  C14 UNL     1      25.860  -2.181   8.109  1.00  0.00     0.020 C 
BRANCH  19  20
HETATM   20  C15 UNL     1      27.308  -2.306   8.377  1.00  0.00     0.121 C 
BRANCH  20  21
HETATM   21  N2  UNL     1      28.032  -1.120   8.669  1.00  0.00    -0.379 N 
HETATM   22  C16 UNL     1      29.093  -0.864   7.984  1.00  0.00     0.084 C 
HETATM   23  C17 UNL     1      29.817   0.390   8.326  1.00  0.00     0.160 C 
HETATM   24  N3  UNL     1      29.608  -1.664   6.955  1.00  0.00    -0.345 N 
HETATM   25  C18 UNL     1      30.706   0.837   7.246  1.00  0.00     0.168 C 
HETATM   26  O1  UNL     1      31.061   2.045   7.223  1.00  0.00    -0.292 OA
HETATM   27  C19 UNL     1      31.211  -0.023   6.195  1.00  0.00     0.037 A 
HETATM   28  C20 UNL     1      32.222   0.360   5.332  1.00  0.00     0.017 A 
HETATM   29  C24 UNL     1      30.650  -1.270   6.065  1.00  0.00     0.047 A 
HETATM   30  C21 UNL     1      32.683  -0.496   4.328  1.00  0.00     0.001 A 
HETATM   31  C22 UNL     1      32.121  -1.750   4.194  1.00  0.00     0.002 A 
HETATM   32  C23 UNL     1      31.117  -2.113   5.063  1.00  0.00     0.030 A 
ATOM     33  H3  UNL     1      29.210  -2.595   6.835  1.00  0.00     0.167 HD
ATOM     34  H2  UNL     1      27.719  -0.485   9.403  1.00  0.00     0.160 HD
ENDBRANCH  20  21
ENDBRANCH  19  20
ENDBRANCH  18  19
ENDBRANCH   1  18
TORSDOF 11
ENDMDL
