MODEL 1
REMARK VINA RESULT: -9.965305091      0.000      0.000
REMARK  12 active torsions:
REMARK  status: ('A' for Active; 'I' for Inactive)
REMARK    1  A    between atoms: N1_1  and  C1_4 
REMARK    2  A    between atoms: N4_14  and  C7_15 
REMARK    3  A    between atoms: C7_15  and  C8_16 
REMARK    4  A    between atoms: C8_16  and  C9_17 
REMARK    5  A    between atoms: C9_17  and  C10_18 
REMARK    6  A    between atoms: C10_18  and  C11_19 
REMARK    7  A    between atoms: C11_19  and  C12_20 
REMARK    8  A    between atoms: C12_20  and  C13_21 
REMARK    9  A    between atoms: C13_21  and  C14_22 
REMARK   10  A    between atoms: C14_22  and  C15_23 
REMARK   11  A    between atoms: C15_23  and  N5_24 
REMARK   12  A    between atoms: N5_24  and  C16_26 
ROOT
HETATM    1  C1  UNL     1      21.100   3.980   9.500  1.00  0.00     0.049 A 
HETATM    2  C2  UNL     1      21.863   5.062   9.062  1.00  0.00    -0.008 A 
HETATM    3  C3  UNL     1      23.186   4.828   8.724  1.00  0.00     0.019 A 
HETATM    4  N2  UNL     1      23.715   3.597   8.817  1.00  0.00    -0.343 N 
ATOM      5  H2  UNL     1      24.692   3.454   8.562  1.00  0.00     0.167 HD
HETATM    6  C4  UNL     1      22.988   2.546   9.239  1.00  0.00     0.136 A 
HETATM    7  C5  UNL     1      21.662   2.711   9.591  1.00  0.00     0.053 A 
HETATM    8  C6  UNL     1      21.214   1.465   9.970  1.00  0.00     0.125 A 
HETATM    9  N3  UNL     1      22.229   0.630   9.842  1.00  0.00    -0.307 N 
ATOM     10  H3  UNL     1      22.177  -0.366  10.057  1.00  0.00     0.186 HD
HETATM   11  N4  UNL     1      23.317   1.233   9.405  1.00  0.00    -0.276 N 
HETATM   12  C22 UNL     1      23.838   6.100   8.276  1.00  0.00     0.058 A 
HETATM   13  C23 UNL     1      22.748   7.117   8.315  1.00  0.00     0.011 A 
HETATM   14  C24 UNL     1      21.511   6.492   8.884  1.00  0.00     0.043 A 
ENDROOT
BRANCH  11  15
HETATM   15  C7  UNL     1      24.598   0.669   9.150  1.00  0.00     0.151 C 
BRANCH  15  16
HETATM   16  C8  UNL     1      24.907   0.424   7.706  1.00  0.00     0.022 C 
BRANCH  16  17
HETATM   17  C9  UNL     1      24.537  -0.963   7.303  1.00  0.00     0.002 C 
BRANCH  17  18
HETATM   18  C10 UNL     1      25.680  -1.849   6.936  1.00  0.00     0.000 C 
BRANCH  18  19
HETATM   19  C11 UNL     1      26.451  -2.208   8.214  1.00  0.00     0.000 C 
BRANCH  19  20
HETATM   20  C12 UNL     1      27.942  -1.981   7.994  1.00  0.00     0.000 C 
BRANCH  20  21
HETATM   21  C13 UNL     1      28.368  -0.650   8.496  1.00  0.00     0.002 C 
BRANCH  21  22
HETATM   22  C14 UNL     1      29.819  -0.316   8.346  1.00  0.00     0.019 C 
BRANCH  22  23
HETATM   23  C15 UNL     1      30.644  -1.478   7.898  1.00  0.00     0.114 C 
BRANCH  23  24
HETATM   24  N5  UNL     1      31.317  -1.323   6.656  1.00  0.00    -0.417 N 
ATOM     25  H5  UNL     1      32.331  -1.216   6.637  1.00  0.00     0.153 HD
BRANCH  24  26
HETATM   26  C16 UNL     1      30.587  -1.318   5.454  1.00  0.00     0.076 C 
HETATM   27  C17 UNL     1      30.307   0.148   5.055  1.00  0.00     0.024 C 
HETATM   28  C18 UNL     1      31.589   0.894   5.119  1.00  0.00     0.002 C 
HETATM   29  C19 UNL     1      32.803   0.273   4.550  1.00  0.00     0.000 C 
HETATM   30  C20 UNL     1      32.811  -1.198   4.342  1.00  0.00     0.002 C 
HETATM   31  C21 UNL     1      31.443  -1.830   4.292  1.00  0.00     0.024 C 
ENDBRANCH  24  26
ENDBRANCH  23  24
ENDBRANCH  22  23
ENDBRANCH  21  22
ENDBRANCH  20  21
ENDBRANCH  19  20
ENDBRANCH  18  19
ENDBRANCH  17  18
ENDBRANCH  16  17
ENDBRANCH  15  16
ENDBRANCH  11  15
BRANCH   1  32
HETATM   32  N1  UNL     1      19.876   4.154   9.815  1.00  0.00    -0.398 N 
ATOM     33  H12 UNL     1      19.215   4.484   9.111  1.00  0.00     0.156 HD
ATOM     34  H11 UNL     1      19.566   3.966  10.769  1.00  0.00     0.156 HD
ENDBRANCH   1  32
TORSDOF 12
ENDMDL
MODEL 2
REMARK VINA RESULT: -9.619714639      1.449      1.757
REMARK  12 active torsions:
REMARK  status: ('A' for Active; 'I' for Inactive)
REMARK    1  A    between atoms: N1_1  and  C1_4 
REMARK    2  A    between atoms: N4_14  and  C7_15 
REMARK    3  A    between atoms: C7_15  and  C8_16 
REMARK    4  A    between atoms: C8_16  and  C9_17 
REMARK    5  A    between atoms: C9_17  and  C10_18 
REMARK    6  A    between atoms: C10_18  and  C11_19 
REMARK    7  A    between atoms: C11_19  and  C12_20 
REMARK    8  A    between atoms: C12_20  and  C13_21 
REMARK    9  A    between atoms: C13_21  and  C14_22 
REMARK   10  A    between atoms: C14_22  and  C15_23 
REMARK   11  A    between atoms: C15_23  and  N5_24 
REMARK   12  A    between atoms: N5_24  and  C16_26 
ROOT
HETATM    1  C1  UNL     1      23.376   3.667  10.100  1.00  0.00     0.049 A 
HETATM    2  C2  UNL     1      22.586   4.356   9.181  1.00  0.00    -0.008 A 
HETATM    3  C3  UNL     1      22.360   3.764   7.949  1.00  0.00     0.019 A 
HETATM    4  N2  UNL     1      22.886   2.565   7.652  1.00  0.00    -0.343 N 
ATOM      5  H2  UNL     1      22.702   2.154   6.737  1.00  0.00     0.167 HD
HETATM    6  C4  UNL     1      23.650   1.891   8.531  1.00  0.00     0.136 A 
HETATM    7  C5  UNL     1      23.914   2.425   9.778  1.00  0.00     0.053 A 
HETATM    8  C6  UNL     1      24.709   1.504  10.422  1.00  0.00     0.125 A 
HETATM    9  N3  UNL     1      24.891   0.495   9.591  1.00  0.00    -0.307 N 
ATOM     10  H3  UNL     1      25.445  -0.332   9.811  1.00  0.00     0.186 HD
HETATM   11  N4  UNL     1      24.273   0.681   8.440  1.00  0.00    -0.276 N 
HETATM   12  C22 UNL     1      21.492   4.645   7.104  1.00  0.00     0.058 A 
HETATM   13  C23 UNL     1      21.162   5.805   7.981  1.00  0.00     0.011 A 
HETATM   14  C24 UNL     1      21.911   5.673   9.273  1.00  0.00     0.043 A 
ENDROOT
BRANCH  11  15
HETATM   15  C7  UNL     1      24.240  -0.175   7.306  1.00  0.00     0.151 C 
BRANCH  15  16
HETATM   16  C8  UNL     1      24.698  -1.578   7.555  1.00  0.00     0.022 C 
BRANCH  16  17
HETATM   17  C9  UNL     1      25.761  -1.979   6.590  1.00  0.00     0.002 C 
BRANCH  17  18
HETATM   18  C10 UNL     1      27.161  -1.747   7.047  1.00  0.00     0.000 C 
BRANCH  18  19
HETATM   19  C11 UNL     1      27.247  -2.072   8.546  1.00  0.00     0.000 C 
BRANCH  19  20
HETATM   20  C12 UNL     1      28.013  -0.970   9.267  1.00  0.00     0.000 C 
BRANCH  20  21
HETATM   21  C13 UNL     1      28.380   0.131   8.340  1.00  0.00     0.002 C 
BRANCH  21  22
HETATM   22  C14 UNL     1      29.844   0.367   8.135  1.00  0.00     0.019 C 
BRANCH  22  23
HETATM   23  C15 UNL     1      30.629  -0.898   8.013  1.00  0.00     0.114 C 
BRANCH  23  24
HETATM   24  N5  UNL     1      31.289  -1.107   6.772  1.00  0.00    -0.417 N 
ATOM     25  H5  UNL     1      32.302  -1.214   6.745  1.00  0.00     0.153 HD
BRANCH  24  26
HETATM   26  C16 UNL     1      30.545  -1.166   5.579  1.00  0.00     0.076 C 
HETATM   27  C17 UNL     1      30.398   0.267   5.020  1.00  0.00     0.024 C 
HETATM   28  C18 UNL     1      31.747   0.890   4.995  1.00  0.00     0.002 C 
HETATM   29  C19 UNL     1      32.888   0.096   4.494  1.00  0.00     0.000 C 
HETATM   30  C20 UNL     1      32.754  -1.383   4.452  1.00  0.00     0.002 C 
HETATM   31  C21 UNL     1      31.332  -1.883   4.479  1.00  0.00     0.024 C 
ENDBRANCH  24  26
ENDBRANCH  23  24
ENDBRANCH  22  23
ENDBRANCH  21  22
ENDBRANCH  20  21
ENDBRANCH  19  20
ENDBRANCH  18  19
ENDBRANCH  17  18
ENDBRANCH  16  17
ENDBRANCH  15  16
ENDBRANCH  11  15
BRANCH   1  32
HETATM   32  N1  UNL     1      23.603   4.176  11.248  1.00  0.00    -0.398 N 
ATOM     33  H12 UNL     1      24.528   4.550  11.461  1.00  0.00     0.156 HD
ATOM     34  H11 UNL     1      22.860   4.203  11.947  1.00  0.00     0.156 HD
ENDBRANCH   1  32
TORSDOF 12
ENDMDL
MODEL 3
REMARK VINA RESULT: -9.560464192      0.816      1.360
REMARK  12 active torsions:
REMARK  status: ('A' for Active; 'I' for Inactive)
REMARK    1  A    between atoms: N1_1  and  C1_4 
REMARK    2  A    between atoms: N4_14  and  C7_15 
REMARK    3  A    between atoms: C7_15  and  C8_16 
REMARK    4  A    between atoms: C8_16  and  C9_17 
REMARK    5  A    between atoms: C9_17  and  C10_18 
REMARK    6  A    between atoms: C10_18  and  C11_19 
REMARK    7  A    between atoms: C11_19  and  C12_20 
REMARK    8  A    between atoms: C12_20  and  C13_21 
REMARK    9  A    between atoms: C13_21  and  C14_22 
REMARK   10  A    between atoms: C14_22  and  C15_23 
REMARK   11  A    between atoms: C15_23  and  N5_24 
REMARK   12  A    between atoms: N5_24  and  C16_26 
ROOT
HETATM    1  C1  UNL     1      20.964   3.968   9.600  1.00  0.00     0.049 A 
HETATM    2  C2  UNL     1      21.692   5.069   9.153  1.00  0.00    -0.008 A 
HETATM    3  C3  UNL     1      23.005   4.863   8.763  1.00  0.00     0.019 A 
HETATM    4  N2  UNL     1      23.557   3.639   8.815  1.00  0.00    -0.343 N 
ATOM      5  H2  UNL     1      24.526   3.518   8.522  1.00  0.00     0.167 HD
HETATM    6  C4  UNL     1      22.863   2.570   9.246  1.00  0.00     0.136 A 
HETATM    7  C5  UNL     1      21.548   2.706   9.649  1.00  0.00     0.053 A 
HETATM    8  C6  UNL     1      21.135   1.447  10.023  1.00  0.00     0.125 A 
HETATM    9  N3  UNL     1      22.158   0.631   9.844  1.00  0.00    -0.307 N 
ATOM     10  H3  UNL     1      22.130  -0.368  10.043  1.00  0.00     0.186 HD
HETATM   11  N4  UNL     1      23.219   1.260   9.377  1.00  0.00    -0.276 N 
HETATM   12  C22 UNL     1      23.620   6.153   8.313  1.00  0.00     0.058 A 
HETATM   13  C23 UNL     1      22.516   7.151   8.409  1.00  0.00     0.011 A 
HETATM   14  C24 UNL     1      21.311   6.496   9.013  1.00  0.00     0.043 A 
ENDROOT
BRANCH  11  15
HETATM   15  C7  UNL     1      24.498   0.722   9.065  1.00  0.00     0.151 C 
BRANCH  15  16
HETATM   16  C8  UNL     1      24.724   0.421   7.617  1.00  0.00     0.022 C 
BRANCH  16  17
HETATM   17  C9  UNL     1      24.298  -0.967   7.280  1.00  0.00     0.002 C 
BRANCH  17  18
HETATM   18  C10 UNL     1      25.401  -1.911   6.939  1.00  0.00     0.000 C 
BRANCH  18  19
HETATM   19  C11 UNL     1      26.067  -2.376   8.242  1.00  0.00     0.000 C 
BRANCH  19  20
HETATM   20  C12 UNL     1      27.562  -2.088   8.185  1.00  0.00     0.000 C 
BRANCH  20  21
HETATM   21  C13 UNL     1      27.900  -0.833   8.904  1.00  0.00     0.002 C 
BRANCH  21  22
HETATM   22  C14 UNL     1      28.314   0.329   8.057  1.00  0.00     0.019 C 
BRANCH  22  23
HETATM   23  C15 UNL     1      28.299   0.021   6.595  1.00  0.00     0.114 C 
BRANCH  23  24
HETATM   24  N5  UNL     1      29.561  -0.253   6.002  1.00  0.00    -0.417 N 
ATOM     25  H5  UNL     1      29.625  -0.432   5.000  1.00  0.00     0.153 HD
BRANCH  24  26
HETATM   26  C16 UNL     1      30.722  -0.279   6.795  1.00  0.00     0.076 C 
HETATM   27  C17 UNL     1      31.255  -1.728   6.840  1.00  0.00     0.024 C 
HETATM   28  C18 UNL     1      31.327  -2.234   5.446  1.00  0.00     0.002 C 
HETATM   29  C19 UNL     1      31.886  -1.356   4.397  1.00  0.00     0.000 C 
HETATM   30  C20 UNL     1      31.943   0.106   4.659  1.00  0.00     0.002 C 
HETATM   31  C21 UNL     1      31.865   0.484   6.117  1.00  0.00     0.024 C 
ENDBRANCH  24  26
ENDBRANCH  23  24
ENDBRANCH  22  23
ENDBRANCH  21  22
ENDBRANCH  20  21
ENDBRANCH  19  20
ENDBRANCH  18  19
ENDBRANCH  17  18
ENDBRANCH  16  17
ENDBRANCH  15  16
ENDBRANCH  11  15
BRANCH   1  32
HETATM   32  N1  UNL     1      19.749   4.116   9.963  1.00  0.00    -0.398 N 
ATOM     33  H12 UNL     1      19.011   4.136   9.260  1.00  0.00     0.156 HD
ATOM     34  H11 UNL     1      19.524   4.218  10.953  1.00  0.00     0.156 HD
ENDBRANCH   1  32
TORSDOF 12
ENDMDL
MODEL 4
REMARK VINA RESULT: -9.342738274      1.128      1.497
REMARK  12 active torsions:
REMARK  status: ('A' for Active; 'I' for Inactive)
REMARK    1  A    between atoms: N1_1  and  C1_4 
REMARK    2  A    between atoms: N4_14  and  C7_15 
REMARK    3  A    between atoms: C7_15  and  C8_16 
REMARK    4  A    between atoms: C8_16  and  C9_17 
REMARK    5  A    between atoms: C9_17  and  C10_18 
REMARK    6  A    between atoms: C10_18  and  C11_19 
REMARK    7  A    between atoms: C11_19  and  C12_20 
REMARK    8  A    between atoms: C12_20  and  C13_21 
REMARK    9  A    between atoms: C13_21  and  C14_22 
REMARK   10  A    between atoms: C14_22  and  C15_23 
REMARK   11  A    between atoms: C15_23  and  N5_24 
REMARK   12  A    between atoms: N5_24  and  C16_26 
ROOT
HETATM    1  C1  UNL     1      20.186   4.921   9.879  1.00  0.00     0.049 A 
HETATM    2  C2  UNL     1      20.783   6.139   9.557  1.00  0.00    -0.008 A 
HETATM    3  C3  UNL     1      22.060   6.113   9.020  1.00  0.00     0.019 A 
HETATM    4  N2  UNL     1      22.701   4.950   8.818  1.00  0.00    -0.343 N 
ATOM      5  H2  UNL     1      23.640   4.961   8.421  1.00  0.00     0.167 HD
HETATM    6  C4  UNL     1      22.134   3.769   9.126  1.00  0.00     0.136 A 
HETATM    7  C5  UNL     1      20.862   3.724   9.664  1.00  0.00     0.053 A 
HETATM    8  C6  UNL     1      20.581   2.391   9.859  1.00  0.00     0.125 A 
HETATM    9  N3  UNL     1      21.635   1.706   9.455  1.00  0.00    -0.307 N 
ATOM     10  H3  UNL     1      21.700   0.689   9.488  1.00  0.00     0.186 HD
HETATM   11  N4  UNL     1      22.595   2.491   9.005  1.00  0.00    -0.276 N 
HETATM   12  C22 UNL     1      22.530   7.507   8.736  1.00  0.00     0.058 A 
HETATM   13  C23 UNL     1      21.374   8.377   9.097  1.00  0.00     0.011 A 
HETATM   14  C24 UNL     1      20.289   7.531   9.690  1.00  0.00     0.043 A 
ENDROOT
BRANCH  11  15
HETATM   15  C7  UNL     1      23.870   2.124   8.493  1.00  0.00     0.151 C 
BRANCH  15  16
HETATM   16  C8  UNL     1      24.328   0.747   8.858  1.00  0.00     0.022 C 
BRANCH  16  17
HETATM   17  C9  UNL     1      25.198   0.771  10.068  1.00  0.00     0.002 C 
BRANCH  17  18
HETATM   18  C10 UNL     1      26.573   0.223   9.880  1.00  0.00     0.000 C 
BRANCH  18  19
HETATM   19  C11 UNL     1      26.466  -1.133   9.167  1.00  0.00     0.000 C 
BRANCH  19  20
HETATM   20  C12 UNL     1      27.730  -1.386   8.355  1.00  0.00     0.000 C 
BRANCH  20  21
HETATM   21  C13 UNL     1      28.519  -0.141   8.177  1.00  0.00     0.002 C 
BRANCH  21  22
HETATM   22  C14 UNL     1      29.998  -0.257   8.373  1.00  0.00     0.019 C 
BRANCH  22  23
HETATM   23  C15 UNL     1      30.564  -1.524   7.818  1.00  0.00     0.114 C 
BRANCH  23  24
HETATM   24  N5  UNL     1      31.279  -1.406   6.596  1.00  0.00    -0.417 N 
ATOM     25  H5  UNL     1      32.297  -1.350   6.604  1.00  0.00     0.153 HD
BRANCH  24  26
HETATM   26  C16 UNL     1      30.584  -1.366   5.374  1.00  0.00     0.076 C 
HETATM   27  C17 UNL     1      30.287   0.110   5.025  1.00  0.00     0.024 C 
HETATM   28  C18 UNL     1      31.553   0.876   5.156  1.00  0.00     0.002 C 
HETATM   29  C19 UNL     1      32.794   0.300   4.598  1.00  0.00     0.000 C 
HETATM   30  C20 UNL     1      32.836  -1.162   4.333  1.00  0.00     0.002 C 
HETATM   31  C21 UNL     1      31.482  -1.815   4.218  1.00  0.00     0.024 C 
ENDBRANCH  24  26
ENDBRANCH  23  24
ENDBRANCH  22  23
ENDBRANCH  21  22
ENDBRANCH  20  21
ENDBRANCH  19  20
ENDBRANCH  18  19
ENDBRANCH  17  18
ENDBRANCH  16  17
ENDBRANCH  15  16
ENDBRANCH  11  15
BRANCH   1  32
HETATM   32  N1  UNL     1      19.008   4.903  10.370  1.00  0.00    -0.398 N 
ATOM     33  H12 UNL     1      18.848   5.263  11.310  1.00  0.00     0.156 HD
ATOM     34  H11 UNL     1      18.236   4.525   9.821  1.00  0.00     0.156 HD
ENDBRANCH   1  32
TORSDOF 12
ENDMDL
MODEL 5
REMARK VINA RESULT: -9.317374965      1.392      2.251
REMARK  12 active torsions:
REMARK  status: ('A' for Active; 'I' for Inactive)
REMARK    1  A    between atoms: N1_1  and  C1_4 
REMARK    2  A    between atoms: N4_14  and  C7_15 
REMARK    3  A    between atoms: C7_15  and  C8_16 
REMARK    4  A    between atoms: C8_16  and  C9_17 
REMARK    5  A    between atoms: C9_17  and  C10_18 
REMARK    6  A    between atoms: C10_18  and  C11_19 
REMARK    7  A    between atoms: C11_19  and  C12_20 
REMARK    8  A    between atoms: C12_20  and  C13_21 
REMARK    9  A    between atoms: C13_21  and  C14_22 
REMARK   10  A    between atoms: C14_22  and  C15_23 
REMARK   11  A    between atoms: C15_23  and  N5_24 
REMARK   12  A    between atoms: N5_24  and  C16_26 
ROOT
HETATM    1  C1  UNL     1      20.126   4.986   9.872  1.00  0.00     0.049 A 
HETATM    2  C2  UNL     1      20.704   6.224   9.598  1.00  0.00    -0.008 A 
HETATM    3  C3  UNL     1      21.977   6.238   9.050  1.00  0.00     0.019 A 
HETATM    4  N2  UNL     1      22.631   5.093   8.794  1.00  0.00    -0.343 N 
ATOM      5  H2  UNL     1      23.567   5.134   8.391  1.00  0.00     0.167 HD
HETATM    6  C4  UNL     1      22.082   3.893   9.055  1.00  0.00     0.136 A 
HETATM    7  C5  UNL     1      20.815   3.808   9.601  1.00  0.00     0.053 A 
HETATM    8  C6  UNL     1      20.554   2.464   9.742  1.00  0.00     0.125 A 
HETATM    9  N3  UNL     1      21.613   1.811   9.300  1.00  0.00    -0.307 N 
ATOM     10  H3  UNL     1      21.692   0.795   9.289  1.00  0.00     0.186 HD
HETATM   11  N4  UNL     1      22.559   2.627   8.876  1.00  0.00    -0.276 N 
HETATM   12  C22 UNL     1      22.426   7.649   8.822  1.00  0.00     0.058 A 
HETATM   13  C23 UNL     1      21.262   8.487   9.229  1.00  0.00     0.011 A 
HETATM   14  C24 UNL     1      20.193   7.602   9.794  1.00  0.00     0.043 A 
ENDROOT
BRANCH  11  15
HETATM   15  C7  UNL     1      23.834   2.299   8.339  1.00  0.00     0.151 C 
BRANCH  15  16
HETATM   16  C8  UNL     1      24.251   0.874   8.519  1.00  0.00     0.022 C 
BRANCH  16  17
HETATM   17  C9  UNL     1      24.976   0.682   9.807  1.00  0.00     0.002 C 
BRANCH  17  18
HETATM   18  C10 UNL     1      26.462   0.603   9.699  1.00  0.00     0.000 C 
BRANCH  18  19
HETATM   19  C11 UNL     1      26.919  -0.766  10.224  1.00  0.00     0.000 C 
BRANCH  19  20
HETATM   20  C12 UNL     1      26.486  -1.858   9.255  1.00  0.00     0.000 C 
BRANCH  20  21
HETATM   21  C13 UNL     1      27.539  -2.135   8.244  1.00  0.00     0.002 C 
BRANCH  21  22
HETATM   22  C14 UNL     1      27.292  -1.608   6.865  1.00  0.00     0.019 C 
BRANCH  22  23
HETATM   23  C15 UNL     1      27.843  -0.235   6.655  1.00  0.00     0.114 C 
BRANCH  23  24
HETATM   24  N5  UNL     1      29.179  -0.166   6.176  1.00  0.00    -0.417 N 
ATOM     25  H5  UNL     1      29.365  -0.228   5.175  1.00  0.00     0.153 HD
BRANCH  24  26
HETATM   26  C16 UNL     1      30.245  -0.010   7.080  1.00  0.00     0.076 C 
HETATM   27  C17 UNL     1      31.013  -1.348   7.170  1.00  0.00     0.024 C 
HETATM   28  C18 UNL     1      31.306  -1.802   5.786  1.00  0.00     0.002 C 
HETATM   29  C19 UNL     1      31.803  -0.817   4.804  1.00  0.00     0.000 C 
HETATM   30  C20 UNL     1      31.582   0.627   5.079  1.00  0.00     0.002 C 
HETATM   31  C21 UNL     1      31.299   0.952   6.523  1.00  0.00     0.024 C 
ENDBRANCH  24  26
ENDBRANCH  23  24
ENDBRANCH  22  23
ENDBRANCH  21  22
ENDBRANCH  20  21
ENDBRANCH  19  20
ENDBRANCH  18  19
ENDBRANCH  17  18
ENDBRANCH  16  17
ENDBRANCH  15  16
ENDBRANCH  11  15
BRANCH   1  32
HETATM   32  N1  UNL     1      18.953   4.931  10.371  1.00  0.00    -0.398 N 
ATOM     33  H12 UNL     1      18.158   5.274   9.832  1.00  0.00     0.156 HD
ATOM     34  H11 UNL     1      18.817   4.549  11.308  1.00  0.00     0.156 HD
ENDBRANCH   1  32
TORSDOF 12
ENDMDL
