MODEL 1
REMARK VINA RESULT: -9.409474880      0.000      0.000
REMARK  10 active torsions:
REMARK  status: ('A' for Active; 'I' for Inactive)
REMARK    1  A    between atoms: C2_3  and  C3_4 
REMARK    2  A    between atoms: C2_3  and  C12_20 
REMARK    3  A    between atoms: C3_4  and  C4_5 
REMARK    4  A    between atoms: C4_5  and  C5_6 
REMARK    5  A    between atoms: C5_6  and  C6_7 
REMARK    6  A    between atoms: C6_7  and  C7_8 
REMARK    7  A    between atoms: C7_8  and  N2_9 
REMARK    8  A    between atoms: N2_9  and  C8_12 
REMARK    9  A    between atoms: C8_12  and  C9_13 
REMARK   10  A    between atoms: C14_22  and  C15_23 
ROOT
HETATM    1  N1  UNL     1      24.657  -1.965   6.797  1.00  0.00    -0.197 NA
HETATM    2  C1  UNL     1      25.482  -1.290   7.234  1.00  0.00     0.070 C 
HETATM    3  C2  UNL     1      26.567  -0.359   7.812  1.00  0.00     0.142 C 
ENDROOT
BRANCH   3   4
HETATM    4  C3  UNL     1      27.525  -1.265   8.431  1.00  0.00     0.025 C 
BRANCH   4   5
HETATM    5  C4  UNL     1      28.956  -0.712   8.613  1.00  0.00     0.002 C 
BRANCH   5   6
HETATM    6  C5  UNL     1      29.315   0.104   7.439  1.00  0.00     0.002 C 
BRANCH   6   7
HETATM    7  C6  UNL     1      30.184  -0.470   6.406  1.00  0.00     0.027 C 
BRANCH   7   8
HETATM    8  C7  UNL     1      31.103  -1.577   6.728  1.00  0.00     0.232 C 
BRANCH   8   9
HETATM    9  N2  UNL     1      31.760  -2.287   5.717  1.00  0.00    -0.069 N 
ATOM     10  H22 UNL     1      32.675  -2.604   6.037  1.00  0.00     0.277 HD
ATOM     11  H21 UNL     1      31.310  -3.190   5.561  1.00  0.00     0.277 HD
BRANCH   9  12
HETATM   12  C8  UNL     1      31.879  -1.560   4.478  1.00  0.00     0.308 C 
BRANCH  12  13
HETATM   13  C9  UNL     1      33.113  -0.860   4.157  1.00  0.00     0.106 A 
HETATM   14  N3  UNL     1      34.273  -1.162   3.573  1.00  0.00    -0.353 N 
HETATM   15  C10 UNL     1      35.075  -0.085   3.445  1.00  0.00     0.106 A 
ATOM     16  H3  UNL     1      34.525  -2.099   3.260  1.00  0.00     0.166 HD
HETATM   17  C11 UNL     1      34.358   0.980   3.994  1.00  0.00     0.106 A 
HETATM   18  N4  UNL     1      33.195   0.505   4.410  1.00  0.00    -0.353 N 
ATOM     19  H4  UNL     1      32.463   1.060   4.854  1.00  0.00     0.166 HD
ENDBRANCH  12  13
ENDBRANCH   9  12
ENDBRANCH   8   9
ENDBRANCH   7   8
ENDBRANCH   6   7
ENDBRANCH   5   6
ENDBRANCH   4   5
ENDBRANCH   3   4
BRANCH   3  20
HETATM   20  C12 UNL     1      25.790   0.515   8.762  1.00  0.00     0.027 A 
HETATM   21  C13 UNL     1      24.536   1.030   8.469  1.00  0.00     0.040 A 
HETATM   22  C14 UNL     1      24.097   1.734   9.599  1.00  0.00    -0.008 A 
HETATM   23  C24 UNL     1      25.117   1.609  10.510  1.00  0.00     0.100 A 
HETATM   24  N6  UNL     1      26.136   0.870   9.994  1.00  0.00    -0.367 N 
ATOM     25  H6  UNL     1      27.007   0.632  10.467  1.00  0.00     0.165 HD
BRANCH  22  26
HETATM   26  C15 UNL     1      22.794   2.398   9.729  1.00  0.00    -0.013 A 
HETATM   27  C16 UNL     1      21.733   1.671  10.292  1.00  0.00     0.013 A 
HETATM   28  C17 UNL     1      20.492   2.241  10.353  1.00  0.00     0.002 A 
HETATM   29  C18 UNL     1      20.336   3.517   9.852  1.00  0.00     0.013 A 
HETATM   30  C19 UNL     1      21.362   4.244   9.298  1.00  0.00    -0.010 A 
HETATM   31  C20 UNL     1      21.106   5.534   8.844  1.00  0.00     0.099 A 
HETATM   32  C23 UNL     1      22.623   3.670   9.235  1.00  0.00    -0.012 A 
HETATM   33  N5  UNL     1      22.153   6.224   8.327  1.00  0.00    -0.374 N 
HETATM   34  C21 UNL     1      23.379   5.697   8.257  1.00  0.00     0.088 A 
ATOM     35  H5  UNL     1      22.000   7.171   7.981  1.00  0.00     0.164 HD
HETATM   36  C22 UNL     1      23.655   4.404   8.709  1.00  0.00     0.030 A 
ENDBRANCH  22  26
ENDBRANCH   3  20
TORSDOF 10
ENDMDL
MODEL 2
REMARK VINA RESULT: -9.077769329      1.176      2.086
REMARK  10 active torsions:
REMARK  status: ('A' for Active; 'I' for Inactive)
REMARK    1  A    between atoms: C2_3  and  C3_4 
REMARK    2  A    between atoms: C2_3  and  C12_20 
REMARK    3  A    between atoms: C3_4  and  C4_5 
REMARK    4  A    between atoms: C4_5  and  C5_6 
REMARK    5  A    between atoms: C5_6  and  C6_7 
REMARK    6  A    between atoms: C6_7  and  C7_8 
REMARK    7  A    between atoms: C7_8  and  N2_9 
REMARK    8  A    between atoms: N2_9  and  C8_12 
REMARK    9  A    between atoms: C8_12  and  C9_13 
REMARK   10  A    between atoms: C14_22  and  C15_23 
ROOT
HETATM    1  N1  UNL     1      24.681  -2.212   6.645  1.00  0.00    -0.197 NA
HETATM    2  C1  UNL     1      25.544  -1.552   7.026  1.00  0.00     0.070 C 
HETATM    3  C2  UNL     1      26.681  -0.639   7.529  1.00  0.00     0.142 C 
ENDROOT
BRANCH   3   4
HETATM    4  C3  UNL     1      27.645  -1.558   8.118  1.00  0.00     0.025 C 
BRANCH   4   5
HETATM    5  C4  UNL     1      29.003  -0.943   8.524  1.00  0.00     0.002 C 
BRANCH   5   6
HETATM    6  C5  UNL     1      29.426   0.023   7.495  1.00  0.00     0.002 C 
BRANCH   6   7
HETATM    7  C6  UNL     1      30.535  -0.323   6.599  1.00  0.00     0.027 C 
BRANCH   7   8
HETATM    8  C7  UNL     1      31.281  -1.582   6.781  1.00  0.00     0.232 C 
BRANCH   8   9
HETATM    9  N2  UNL     1      31.749  -2.308   5.680  1.00  0.00    -0.069 N 
ATOM     10  H22 UNL     1      32.639  -2.757   5.898  1.00  0.00     0.277 HD
ATOM     11  H21 UNL     1      31.173  -3.136   5.525  1.00  0.00     0.277 HD
BRANCH   9  12
HETATM   12  C8  UNL     1      31.855  -1.530   4.472  1.00  0.00     0.308 C 
BRANCH  12  13
HETATM   13  C9  UNL     1      33.099  -0.853   4.145  1.00  0.00     0.106 A 
HETATM   14  N3  UNL     1      34.246  -1.172   3.544  1.00  0.00    -0.353 N 
HETATM   15  C10 UNL     1      35.069  -0.110   3.419  1.00  0.00     0.106 A 
ATOM     16  H3  UNL     1      34.474  -2.110   3.216  1.00  0.00     0.166 HD
HETATM   17  C11 UNL     1      34.382   0.963   3.990  1.00  0.00     0.106 A 
HETATM   18  N4  UNL     1      33.214   0.507   4.414  1.00  0.00    -0.353 N 
ATOM     19  H4  UNL     1      32.499   1.072   4.872  1.00  0.00     0.166 HD
ENDBRANCH  12  13
ENDBRANCH   9  12
ENDBRANCH   8   9
ENDBRANCH   7   8
ENDBRANCH   6   7
ENDBRANCH   5   6
ENDBRANCH   4   5
ENDBRANCH   3   4
BRANCH   3  20
HETATM   20  C12 UNL     1      25.976   0.274   8.498  1.00  0.00     0.027 A 
HETATM   21  C13 UNL     1      24.971   1.153   8.122  1.00  0.00     0.040 A 
HETATM   22  C14 UNL     1      24.509   1.786   9.285  1.00  0.00    -0.008 A 
HETATM   23  C24 UNL     1      25.269   1.256  10.299  1.00  0.00     0.100 A 
HETATM   24  N6  UNL     1      26.152   0.343   9.813  1.00  0.00    -0.367 N 
ATOM     25  H6  UNL     1      26.828  -0.192  10.358  1.00  0.00     0.165 HD
BRANCH  22  26
HETATM   26  C15 UNL     1      23.413   2.760   9.339  1.00  0.00    -0.013 A 
HETATM   27  C16 UNL     1      23.675   4.076   8.923  1.00  0.00     0.013 A 
HETATM   28  C17 UNL     1      22.692   5.019   9.036  1.00  0.00     0.002 A 
HETATM   29  C18 UNL     1      21.475   4.633   9.560  1.00  0.00     0.013 A 
HETATM   30  C19 UNL     1      21.201   3.351   9.971  1.00  0.00    -0.010 A 
HETATM   31  C20 UNL     1      19.933   3.058  10.463  1.00  0.00     0.099 A 
HETATM   32  C23 UNL     1      22.195   2.391   9.858  1.00  0.00    -0.012 A 
HETATM   33  N5  UNL     1      19.698   1.775  10.834  1.00  0.00    -0.374 N 
HETATM   34  C21 UNL     1      20.636   0.829  10.732  1.00  0.00     0.088 A 
ATOM     35  H5  UNL     1      18.780   1.526  11.202  1.00  0.00     0.164 HD
HETATM   36  C22 UNL     1      21.914   1.104  10.240  1.00  0.00     0.030 A 
ENDBRANCH  22  26
ENDBRANCH   3  20
TORSDOF 10
ENDMDL
MODEL 3
REMARK VINA RESULT: -8.965030507      2.905      5.781
REMARK  10 active torsions:
REMARK  status: ('A' for Active; 'I' for Inactive)
REMARK    1  A    between atoms: C2_3  and  C3_4 
REMARK    2  A    between atoms: C2_3  and  C12_20 
REMARK    3  A    between atoms: C3_4  and  C4_5 
REMARK    4  A    between atoms: C4_5  and  C5_6 
REMARK    5  A    between atoms: C5_6  and  C6_7 
REMARK    6  A    between atoms: C6_7  and  C7_8 
REMARK    7  A    between atoms: C7_8  and  N2_9 
REMARK    8  A    between atoms: N2_9  and  C8_12 
REMARK    9  A    between atoms: C8_12  and  C9_13 
REMARK   10  A    between atoms: C14_22  and  C15_23 
ROOT
HETATM    1  N1  UNL     1      20.156   0.325  10.700  1.00  0.00    -0.197 NA
HETATM    2  C1  UNL     1      21.013   0.986  10.304  1.00  0.00     0.070 C 
HETATM    3  C2  UNL     1      22.142   1.873   9.742  1.00  0.00     0.142 C 
ENDROOT
BRANCH   3   4
HETATM    4  C3  UNL     1      23.046   2.058  10.870  1.00  0.00     0.025 C 
BRANCH   4   5
HETATM    5  C4  UNL     1      24.553   2.083  10.529  1.00  0.00     0.002 C 
BRANCH   5   6
HETATM    6  C5  UNL     1      24.920   0.825   9.855  1.00  0.00     0.002 C 
BRANCH   6   7
HETATM    7  C6  UNL     1      26.331   0.428   9.798  1.00  0.00     0.027 C 
BRANCH   7   8
HETATM    8  C7  UNL     1      26.722  -0.982   9.987  1.00  0.00     0.232 C 
BRANCH   8   9
HETATM    9  N2  UNL     1      26.142  -2.000   9.222  1.00  0.00    -0.069 N 
ATOM     10  H22 UNL     1      26.315  -2.911   9.647  1.00  0.00     0.277 HD
ATOM     11  H21 UNL     1      25.125  -1.967   9.293  1.00  0.00     0.277 HD
BRANCH   9  12
HETATM   12  C8  UNL     1      26.555  -1.997   7.841  1.00  0.00     0.308 C 
BRANCH  12  13
HETATM   13  C9  UNL     1      27.905  -1.595   7.482  1.00  0.00     0.106 A 
HETATM   14  N3  UNL     1      29.135  -2.088   7.634  1.00  0.00    -0.353 N 
HETATM   15  C10 UNL     1      30.067  -1.333   7.017  1.00  0.00     0.106 A 
ATOM     16  H3  UNL     1      29.347  -2.938   8.156  1.00  0.00     0.166 HD
HETATM   17  C11 UNL     1      29.364  -0.278   6.431  1.00  0.00     0.106 A 
HETATM   18  N4  UNL     1      28.082  -0.449   6.714  1.00  0.00    -0.353 N 
ATOM     19  H4  UNL     1      27.331   0.171   6.412  1.00  0.00     0.166 HD
ENDBRANCH  12  13
ENDBRANCH   9  12
ENDBRANCH   8   9
ENDBRANCH   7   8
ENDBRANCH   6   7
ENDBRANCH   5   6
ENDBRANCH   4   5
ENDBRANCH   3   4
BRANCH   3  20
HETATM   20  C12 UNL     1      21.406   3.108   9.290  1.00  0.00     0.027 A 
HETATM   21  C13 UNL     1      21.449   4.313   9.975  1.00  0.00     0.040 A 
HETATM   22  C14 UNL     1      20.707   5.244   9.234  1.00  0.00    -0.008 A 
HETATM   23  C24 UNL     1      20.251   4.543   8.144  1.00  0.00     0.100 A 
HETATM   24  N6  UNL     1      20.679   3.253   8.188  1.00  0.00    -0.367 N 
ATOM     25  H6  UNL     1      20.478   2.528   7.499  1.00  0.00     0.165 HD
BRANCH  22  26
HETATM   26  C15 UNL     1      20.536   6.659   9.583  1.00  0.00    -0.013 A 
HETATM   27  C16 UNL     1      21.434   7.590   9.036  1.00  0.00     0.013 A 
HETATM   28  C17 UNL     1      21.342   8.903   9.406  1.00  0.00     0.002 A 
HETATM   29  C18 UNL     1      20.362   9.257  10.311  1.00  0.00     0.013 A 
HETATM   30  C19 UNL     1      19.474   8.361  10.856  1.00  0.00    -0.010 A 
HETATM   31  C20 UNL     1      18.506   8.825  11.741  1.00  0.00     0.099 A 
HETATM   32  C23 UNL     1      19.563   7.029  10.482  1.00  0.00    -0.012 A 
HETATM   33  N5  UNL     1      17.636   7.911  12.236  1.00  0.00    -0.374 N 
HETATM   34  C21 UNL     1      17.696   6.621  11.890  1.00  0.00     0.088 A 
ATOM     35  H5  UNL     1      16.915   8.215  12.890  1.00  0.00     0.164 HD
HETATM   36  C22 UNL     1      18.660   6.137  11.002  1.00  0.00     0.030 A 
ENDBRANCH  22  26
ENDBRANCH   3  20
TORSDOF 10
ENDMDL
MODEL 4
REMARK VINA RESULT: -8.756249699      1.967     10.004
REMARK  10 active torsions:
REMARK  status: ('A' for Active; 'I' for Inactive)
REMARK    1  A    between atoms: C2_3  and  C3_4 
REMARK    2  A    between atoms: C2_3  and  C12_20 
REMARK    3  A    between atoms: C3_4  and  C4_5 
REMARK    4  A    between atoms: C4_5  and  C5_6 
REMARK    5  A    between atoms: C5_6  and  C6_7 
REMARK    6  A    between atoms: C6_7  and  C7_8 
REMARK    7  A    between atoms: C7_8  and  N2_9 
REMARK    8  A    between atoms: N2_9  and  C8_12 
REMARK    9  A    between atoms: C8_12  and  C9_13 
REMARK   10  A    between atoms: C14_22  and  C15_23 
ROOT
HETATM    1  N1  UNL     1      23.861   1.075   7.609  1.00  0.00    -0.197 NA
HETATM    2  C1  UNL     1      24.449   0.797   8.559  1.00  0.00     0.070 C 
HETATM    3  C2  UNL     1      25.243   0.392   9.818  1.00  0.00     0.142 C 
ENDROOT
BRANCH   3   4
HETATM    4  C3  UNL     1      25.377   1.632  10.571  1.00  0.00     0.025 C 
BRANCH   4   5
HETATM    5  C4  UNL     1      24.092   2.149  11.255  1.00  0.00     0.002 C 
BRANCH   5   6
HETATM    6  C5  UNL     1      23.944   3.591  10.987  1.00  0.00     0.002 C 
BRANCH   6   7
HETATM    7  C6  UNL     1      24.151   4.091   9.624  1.00  0.00     0.027 C 
BRANCH   7   8
HETATM    8  C7  UNL     1      23.016   4.606   8.834  1.00  0.00     0.232 C 
BRANCH   8   9
HETATM    9  N2  UNL     1      22.329   3.781   7.936  1.00  0.00    -0.069 N 
ATOM     10  H22 UNL     1      22.338   4.184   6.999  1.00  0.00     0.277 HD
ATOM     11  H21 UNL     1      22.855   2.925   7.760  1.00  0.00     0.277 HD
BRANCH   9  12
HETATM   12  C8  UNL     1      20.981   3.473   8.343  1.00  0.00     0.308 C 
BRANCH  12  13
HETATM   13  C9  UNL     1      20.741   2.659   9.524  1.00  0.00     0.106 A 
HETATM   14  N3  UNL     1      20.126   2.811  10.697  1.00  0.00    -0.353 N 
HETATM   15  C10 UNL     1      20.122   1.675  11.422  1.00  0.00     0.106 A 
ATOM     16  H3  UNL     1      19.707   3.687  11.009  1.00  0.00     0.166 HD
HETATM   17  C11 UNL     1      20.791   0.731  10.640  1.00  0.00     0.106 A 
HETATM   18  N4  UNL     1      21.150   1.330   9.516  1.00  0.00    -0.353 N 
ATOM     19  H4  UNL     1      21.655   0.881   8.752  1.00  0.00     0.166 HD
ENDBRANCH  12  13
ENDBRANCH   9  12
ENDBRANCH   8   9
ENDBRANCH   7   8
ENDBRANCH   6   7
ENDBRANCH   5   6
ENDBRANCH   4   5
ENDBRANCH   3   4
BRANCH   3  20
HETATM   20  C12 UNL     1      26.521  -0.164   9.247  1.00  0.00     0.027 A 
HETATM   21  C13 UNL     1      27.456   0.613   8.578  1.00  0.00     0.040 A 
HETATM   22  C14 UNL     1      28.535  -0.220   8.249  1.00  0.00    -0.008 A 
HETATM   23  C24 UNL     1      28.185  -1.457   8.732  1.00  0.00     0.100 A 
HETATM   24  N6  UNL     1      26.966  -1.412   9.334  1.00  0.00    -0.367 N 
ATOM     25  H6  UNL     1      26.481  -2.195   9.772  1.00  0.00     0.165 HD
BRANCH  22  26
HETATM   26  C15 UNL     1      29.763   0.214   7.573  1.00  0.00    -0.013 A 
HETATM   27  C16 UNL     1      30.310   1.458   7.928  1.00  0.00     0.013 A 
HETATM   28  C17 UNL     1      31.410   1.919   7.259  1.00  0.00     0.002 A 
HETATM   29  C18 UNL     1      31.937   1.134   6.254  1.00  0.00     0.013 A 
HETATM   30  C19 UNL     1      31.417  -0.086   5.894  1.00  0.00    -0.010 A 
HETATM   31  C20 UNL     1      32.039  -0.812   4.883  1.00  0.00     0.099 A 
HETATM   32  C23 UNL     1      30.302  -0.557   6.570  1.00  0.00    -0.012 A 
HETATM   33  N5  UNL     1      31.506  -2.020   4.577  1.00  0.00    -0.374 N 
HETATM   34  C21 UNL     1      30.435  -2.501   5.215  1.00  0.00     0.088 A 
ATOM     35  H5  UNL     1      31.935  -2.578   3.838  1.00  0.00     0.164 HD
HETATM   36  C22 UNL     1      29.798  -1.787   6.232  1.00  0.00     0.030 A 
ENDBRANCH  22  26
ENDBRANCH   3  20
TORSDOF 10
ENDMDL
MODEL 5
REMARK VINA RESULT: -8.603669581      1.732     10.061
REMARK  10 active torsions:
REMARK  status: ('A' for Active; 'I' for Inactive)
REMARK    1  A    between atoms: C2_3  and  C3_4 
REMARK    2  A    between atoms: C2_3  and  C12_20 
REMARK    3  A    between atoms: C3_4  and  C4_5 
REMARK    4  A    between atoms: C4_5  and  C5_6 
REMARK    5  A    between atoms: C5_6  and  C6_7 
REMARK    6  A    between atoms: C6_7  and  C7_8 
REMARK    7  A    between atoms: C7_8  and  N2_9 
REMARK    8  A    between atoms: N2_9  and  C8_12 
REMARK    9  A    between atoms: C8_12  and  C9_13 
REMARK   10  A    between atoms: C14_22  and  C15_23 
ROOT
HETATM    1  N1  UNL     1      24.730  -1.845   6.454  1.00  0.00    -0.197 NA
HETATM    2  C1  UNL     1      24.932  -1.262   7.426  1.00  0.00     0.070 C 
HETATM    3  C2  UNL     1      25.223  -0.509   8.740  1.00  0.00     0.142 C 
ENDROOT
BRANCH   3   4
HETATM    4  C3  UNL     1      24.627   0.805   8.540  1.00  0.00     0.025 C 
BRANCH   4   5
HETATM    5  C4  UNL     1      23.627   1.264   9.624  1.00  0.00     0.002 C 
BRANCH   5   6
HETATM    6  C5  UNL     1      24.358   1.965  10.695  1.00  0.00     0.002 C 
BRANCH   6   7
HETATM    7  C6  UNL     1      24.163   3.408  10.870  1.00  0.00     0.027 C 
BRANCH   7   8
HETATM    8  C7  UNL     1      23.355   4.178   9.907  1.00  0.00     0.232 C 
BRANCH   8   9
HETATM    9  N2  UNL     1      23.947   4.794   8.798  1.00  0.00    -0.069 N 
ATOM     10  H22 UNL     1      24.714   5.400   9.091  1.00  0.00     0.277 HD
ATOM     11  H21 UNL     1      24.468   4.114   8.245  1.00  0.00     0.277 HD
BRANCH   9  12
HETATM   12  C8  UNL     1      23.017   5.518   7.969  1.00  0.00     0.308 C 
BRANCH  12  13
HETATM   13  C9  UNL     1      22.201   6.578   8.539  1.00  0.00     0.106 A 
HETATM   14  N3  UNL     1      22.415   7.762   9.114  1.00  0.00    -0.353 N 
HETATM   15  C10 UNL     1      21.265   8.408   9.395  1.00  0.00     0.106 A 
ATOM     16  H3  UNL     1      23.342   8.136   9.318  1.00  0.00     0.166 HD
HETATM   17  C11 UNL     1      20.245   7.559   8.961  1.00  0.00     0.106 A 
HETATM   18  N4  UNL     1      20.816   6.478   8.453  1.00  0.00    -0.353 N 
ATOM     19  H4  UNL     1      20.313   5.685   8.056  1.00  0.00     0.166 HD
ENDBRANCH  12  13
ENDBRANCH   9  12
ENDBRANCH   8   9
ENDBRANCH   7   8
ENDBRANCH   6   7
ENDBRANCH   5   6
ENDBRANCH   4   5
ENDBRANCH   3   4
BRANCH   3  20
HETATM   20  C12 UNL     1      26.728  -0.535   8.817  1.00  0.00     0.027 A 
HETATM   21  C13 UNL     1      27.549  -0.033   7.819  1.00  0.00     0.040 A 
HETATM   22  C14 UNL     1      28.874  -0.167   8.258  1.00  0.00    -0.008 A 
HETATM   23  C24 UNL     1      28.777  -0.752   9.497  1.00  0.00     0.100 A 
HETATM   24  N6  UNL     1      27.475  -0.971   9.825  1.00  0.00    -0.367 N 
ATOM     25  H6  UNL     1      27.134  -1.392  10.689  1.00  0.00     0.165 HD
BRANCH  22  26
HETATM   26  C15 UNL     1      30.060   0.285   7.521  1.00  0.00    -0.013 A 
HETATM   27  C16 UNL     1      30.595   1.545   7.835  1.00  0.00     0.013 A 
HETATM   28  C17 UNL     1      31.652   2.021   7.110  1.00  0.00     0.002 A 
HETATM   29  C18 UNL     1      32.149   1.235   6.091  1.00  0.00     0.013 A 
HETATM   30  C19 UNL     1      31.639  -0.000   5.769  1.00  0.00    -0.010 A 
HETATM   31  C20 UNL     1      32.229  -0.725   4.739  1.00  0.00     0.099 A 
HETATM   32  C23 UNL     1      30.568  -0.487   6.503  1.00  0.00    -0.012 A 
HETATM   33  N5  UNL     1      31.710  -1.949   4.472  1.00  0.00    -0.374 N 
HETATM   34  C21 UNL     1      30.680  -2.445   5.165  1.00  0.00     0.088 A 
ATOM     35  H5  UNL     1      32.116  -2.507   3.721  1.00  0.00     0.164 HD
HETATM   36  C22 UNL     1      30.076  -1.731   6.203  1.00  0.00     0.030 A 
ENDBRANCH  22  26
ENDBRANCH   3  20
TORSDOF 10
ENDMDL
