MODEL 1
REMARK VINA RESULT: -9.391748709      0.000      0.000
REMARK  14 active torsions:
REMARK  status: ('A' for Active; 'I' for Inactive)
REMARK    1  A    between atoms: C4_5  and  N1_6 
REMARK       I    between atoms: N1_6  and  C5_8 
REMARK       I    between atoms: C5_8  and  N2_10 
REMARK    2  A    between atoms: N2_10  and  C6_12 
REMARK    3  A    between atoms: C7_17  and  C8_18 
REMARK    4  A    between atoms: C8_18  and  C9_19 
REMARK    5  A    between atoms: C9_19  and  C10_20 
REMARK    6  A    between atoms: C10_20  and  C11_21 
REMARK    7  A    between atoms: C11_21  and  C12_22 
REMARK       I    between atoms: N7_28  and  C14_30 
REMARK    8  A    between atoms: C14_30  and  C15_32 
REMARK    9  A    between atoms: C15_32  and  C16_33 
REMARK   10  A    between atoms: C16_33  and  C17_34 
REMARK   11  A    between atoms: C17_34  and  C18_35 
REMARK   12  A    between atoms: C18_35  and  C19_36 
REMARK   13  A    between atoms: C19_36  and  C20_37 
REMARK       I    between atoms: C20_37  and  N8_39 
REMARK   14  A    between atoms: N8_39  and  C21_41 
ROOT
HETATM    1  C11 UNL     1      16.008  21.277  14.397  1.00  0.00     0.066 C 
ENDROOT
BRANCH   1   2
HETATM    2  C10 UNL     1      15.095  20.131  14.543  1.00  0.00     0.007 C 
BRANCH   2   3
HETATM    3  C9  UNL     1      13.668  20.347  14.184  1.00  0.00     0.007 C 
BRANCH   3   4
HETATM    4  C8  UNL     1      12.748  20.786  15.237  1.00  0.00     0.066 C 
BRANCH   4   5
HETATM    5  C7  UNL     1      12.058  19.683  15.961  1.00  0.00     0.069 A 
HETATM    6  N4  UNL     1      12.656  18.666  16.603  1.00  0.00    -0.296 N 
HETATM    7  N3  UNL     1      11.970  17.788  17.177  1.00  0.00    -0.279 N 
ATOM      8  H4  UNL     1      13.674  18.609  16.625  1.00  0.00     0.187 HD
HETATM    9  C6  UNL     1      10.632  17.869  17.145  1.00  0.00     0.169 A 
ATOM     10  H3  UNL     1      12.426  17.017  17.664  1.00  0.00     0.189 HD
HETATM   11  S3  UNL     1      10.415  19.297  16.232  1.00  0.00    -0.038 SA
BRANCH   9  12
HETATM   12  N2  UNL     1       9.782  17.035  17.695  1.00  0.00    -0.287 N 
HETATM   13  C5  UNL     1       8.641  16.584  17.037  1.00  0.00     0.328 C 
HETATM   14  N1  UNL     1       7.443  17.339  16.884  1.00  0.00    -0.288 N 
HETATM   15  O1  UNL     1       8.689  15.407  16.539  1.00  0.00    -0.247 OA
ATOM     16  H1  UNL     1       7.136  17.633  15.958  1.00  0.00     0.172 HD
ATOM     17  H2  UNL     1       9.964  16.704  18.643  1.00  0.00     0.172 HD
BRANCH  14  18
HETATM   18  C4  UNL     1       6.734  17.654  17.948  1.00  0.00     0.152 A 
HETATM   19  S1  UNL     1       5.058  17.512  18.198  1.00  0.00    -0.064 SA
HETATM   20  C3  UNL     1       4.989  18.129  19.784  1.00  0.00     0.077 A 
HETATM   21  C2  UNL     1       6.301  18.419  20.042  1.00  0.00     0.014 A 
HETATM   22  C1  UNL     1       6.722  19.008  21.388  1.00  0.00     0.068 C 
HETATM   23  N9  UNL     1       7.175  18.170  19.093  1.00  0.00    -0.340 N 
ATOM     24  H9  UNL     1       8.166  18.368  19.230  1.00  0.00     0.167 HD
ENDBRANCH  14  18
ENDBRANCH   9  12
ENDBRANCH   4   5
ENDBRANCH   3   4
ENDBRANCH   2   3
ENDBRANCH   1   2
BRANCH   1  25
HETATM   25  C12 UNL     1      16.265  22.038  15.643  1.00  0.00     0.069 A 
HETATM   26  N5  UNL     1      16.108  21.798  16.923  1.00  0.00    -0.296 N 
HETATM   27  N6  UNL     1      16.412  22.661  17.805  1.00  0.00    -0.279 N 
ATOM     28  H5  UNL     1      15.732  20.896  17.217  1.00  0.00     0.187 HD
HETATM   29  C13 UNL     1      16.904  23.838  17.419  1.00  0.00     0.167 A 
ATOM     30  H6  UNL     1      16.281  22.456  18.795  1.00  0.00     0.189 HD
HETATM   31  N7  UNL     1      17.276  24.875  18.103  1.00  0.00    -0.306 N 
HETATM   32  S2  UNL     1      16.910  23.646  15.700  1.00  0.00    -0.038 SA
HETATM   33  C14 UNL     1      17.180  24.857  19.519  1.00  0.00     0.223 C 
ATOM     34  H7  UNL     1      17.636  25.701  17.626  1.00  0.00     0.171 HD
HETATM   35  O2  UNL     1      18.166  24.666  20.257  1.00  0.00    -0.273 OA
BRANCH  33  36
HETATM   36  C15 UNL     1      15.842  25.082  20.089  1.00  0.00     0.103 C 
BRANCH  36  37
HETATM   37  C16 UNL     1      15.513  24.152  21.189  1.00  0.00     0.009 C 
BRANCH  37  38
HETATM   38  C17 UNL     1      14.146  23.551  21.197  1.00  0.00     0.001 C 
BRANCH  38  39
HETATM   39  C18 UNL     1      14.140  22.287  20.356  1.00  0.00     0.009 C 
BRANCH  39  40
HETATM   40  C19 UNL     1      13.174  22.313  19.218  1.00  0.00     0.103 C 
BRANCH  40  41
HETATM   41  C20 UNL     1      12.138  21.234  19.400  1.00  0.00     0.221 C 
HETATM   42  O3  UNL     1      12.432  20.027  19.305  1.00  0.00    -0.273 OA
HETATM   43  N8  UNL     1      10.795  21.592  19.686  1.00  0.00    -0.306 N 
ATOM     44  H8  UNL     1      10.546  22.578  19.769  1.00  0.00     0.167 HD
BRANCH  43  45
HETATM   45  C21 UNL     1       9.772  20.584  19.864  1.00  0.00     0.460 C 
HETATM   46  F1  UNL     1       8.551  21.260  19.899  1.00  0.00    -0.191 F 
HETATM   47  F2  UNL     1       9.894  19.881  21.037  1.00  0.00    -0.191 F 
ENDBRANCH  43  45
ENDBRANCH  40  41
ENDBRANCH  39  40
ENDBRANCH  38  39
ENDBRANCH  37  38
ENDBRANCH  36  37
ENDBRANCH  33  36
ENDBRANCH   1  25
TORSDOF 14
ENDMDL
MODEL 2
REMARK VINA RESULT: -9.192608901      1.715      2.312
REMARK  14 active torsions:
REMARK  status: ('A' for Active; 'I' for Inactive)
REMARK    1  A    between atoms: C4_5  and  N1_6 
REMARK       I    between atoms: N1_6  and  C5_8 
REMARK       I    between atoms: C5_8  and  N2_10 
REMARK    2  A    between atoms: N2_10  and  C6_12 
REMARK    3  A    between atoms: C7_17  and  C8_18 
REMARK    4  A    between atoms: C8_18  and  C9_19 
REMARK    5  A    between atoms: C9_19  and  C10_20 
REMARK    6  A    between atoms: C10_20  and  C11_21 
REMARK    7  A    between atoms: C11_21  and  C12_22 
REMARK       I    between atoms: N7_28  and  C14_30 
REMARK    8  A    between atoms: C14_30  and  C15_32 
REMARK    9  A    between atoms: C15_32  and  C16_33 
REMARK   10  A    between atoms: C16_33  and  C17_34 
REMARK   11  A    between atoms: C17_34  and  C18_35 
REMARK   12  A    between atoms: C18_35  and  C19_36 
REMARK   13  A    between atoms: C19_36  and  C20_37 
REMARK       I    between atoms: C20_37  and  N8_39 
REMARK   14  A    between atoms: N8_39  and  C21_41 
ROOT
HETATM    1  C11 UNL     1      15.247  20.511  14.472  1.00  0.00     0.066 C 
ENDROOT
BRANCH   1   2
HETATM    2  C10 UNL     1      13.896  20.750  13.938  1.00  0.00     0.007 C 
BRANCH   2   3
HETATM    3  C9  UNL     1      12.746  20.312  14.774  1.00  0.00     0.007 C 
BRANCH   3   4
HETATM    4  C8  UNL     1      12.904  19.105  15.589  1.00  0.00     0.066 C 
BRANCH   4   5
HETATM    5  C7  UNL     1      11.699  18.721  16.375  1.00  0.00     0.069 A 
HETATM    6  N4  UNL     1      11.682  17.918  17.451  1.00  0.00    -0.296 N 
HETATM    7  N3  UNL     1      10.602  17.659  18.032  1.00  0.00    -0.279 N 
ATOM      8  H4  UNL     1      12.553  17.515  17.797  1.00  0.00     0.187 HD
HETATM    9  C6  UNL     1       9.460  18.191  17.572  1.00  0.00     0.169 A 
ATOM     10  H3  UNL     1      10.591  17.049  18.849  1.00  0.00     0.189 HD
HETATM   11  S3  UNL     1      10.036  19.094  16.240  1.00  0.00    -0.038 SA
BRANCH   9  12
HETATM   12  N2  UNL     1       8.258  18.020  18.069  1.00  0.00    -0.287 N 
HETATM   13  C5  UNL     1       7.881  16.858  18.736  1.00  0.00     0.328 C 
HETATM   14  N1  UNL     1       7.537  15.634  18.096  1.00  0.00    -0.288 N 
HETATM   15  O1  UNL     1       7.846  16.910  20.013  1.00  0.00    -0.247 OA
ATOM     16  H1  UNL     1       8.119  14.806  18.224  1.00  0.00     0.172 HD
ATOM     17  H2  UNL     1       7.573  18.768  17.962  1.00  0.00     0.172 HD
BRANCH  14  18
HETATM   18  C4  UNL     1       6.462  15.576  17.338  1.00  0.00     0.152 A 
HETATM   19  S1  UNL     1       5.215  16.719  17.160  1.00  0.00    -0.064 SA
HETATM   20  C3  UNL     1       4.259  15.873  16.032  1.00  0.00     0.077 A 
HETATM   21  C2  UNL     1       4.976  14.720  15.849  1.00  0.00     0.014 A 
HETATM   22  C1  UNL     1       4.483  13.637  14.891  1.00  0.00     0.068 C 
HETATM   23  N9  UNL     1       6.095  14.588  16.524  1.00  0.00    -0.340 N 
ATOM     24  H9  UNL     1       6.668  13.750  16.428  1.00  0.00     0.167 HD
ENDBRANCH  14  18
ENDBRANCH   9  12
ENDBRANCH   4   5
ENDBRANCH   3   4
ENDBRANCH   2   3
ENDBRANCH   1   2
BRANCH   1  25
HETATM   25  C12 UNL     1      15.645  21.395  15.594  1.00  0.00     0.069 A 
HETATM   26  N5  UNL     1      15.670  21.277  16.900  1.00  0.00    -0.296 N 
HETATM   27  N6  UNL     1      16.062  22.228  17.647  1.00  0.00    -0.279 N 
ATOM     28  H5  UNL     1      15.367  20.401  17.327  1.00  0.00     0.187 HD
HETATM   29  C13 UNL     1      16.459  23.371  17.088  1.00  0.00     0.167 A 
ATOM     30  H6  UNL     1      16.072  22.117  18.661  1.00  0.00     0.189 HD
HETATM   31  N7  UNL     1      16.886  24.477  17.615  1.00  0.00    -0.306 N 
HETATM   32  S2  UNL     1      16.239  23.012  15.410  1.00  0.00    -0.038 SA
HETATM   33  C14 UNL     1      16.982  24.595  19.026  1.00  0.00     0.223 C 
ATOM     34  H7  UNL     1      17.151  25.259  17.017  1.00  0.00     0.171 HD
HETATM   35  O2  UNL     1      18.065  24.496  19.636  1.00  0.00    -0.273 OA
BRANCH  33  36
HETATM   36  C15 UNL     1      15.727  24.847  19.750  1.00  0.00     0.103 C 
BRANCH  36  37
HETATM   37  C16 UNL     1      15.572  24.010  20.958  1.00  0.00     0.009 C 
BRANCH  37  38
HETATM   38  C17 UNL     1      14.238  23.381  21.193  1.00  0.00     0.001 C 
BRANCH  38  39
HETATM   39  C18 UNL     1      14.062  22.198  20.259  1.00  0.00     0.009 C 
BRANCH  39  40
HETATM   40  C19 UNL     1      12.939  22.347  19.287  1.00  0.00     0.103 C 
BRANCH  40  41
HETATM   41  C20 UNL     1      11.905  21.277  19.529  1.00  0.00     0.221 C 
HETATM   42  O3  UNL     1      12.178  20.068  19.402  1.00  0.00    -0.273 OA
HETATM   43  N8  UNL     1      10.589  21.646  19.912  1.00  0.00    -0.306 N 
ATOM     44  H8  UNL     1      10.358  22.634  20.021  1.00  0.00     0.167 HD
BRANCH  43  45
HETATM   45  C21 UNL     1       9.569  20.648  20.149  1.00  0.00     0.460 C 
HETATM   46  F1  UNL     1       8.342  21.306  20.060  1.00  0.00    -0.191 F 
HETATM   47  F2  UNL     1       9.646  20.073  21.393  1.00  0.00    -0.191 F 
ENDBRANCH  43  45
ENDBRANCH  40  41
ENDBRANCH  39  40
ENDBRANCH  38  39
ENDBRANCH  37  38
ENDBRANCH  36  37
ENDBRANCH  33  36
ENDBRANCH   1  25
TORSDOF 14
ENDMDL
MODEL 3
REMARK VINA RESULT: -9.122114267      1.648      1.794
REMARK  14 active torsions:
REMARK  status: ('A' for Active; 'I' for Inactive)
REMARK    1  A    between atoms: C4_5  and  N1_6 
REMARK       I    between atoms: N1_6  and  C5_8 
REMARK       I    between atoms: C5_8  and  N2_10 
REMARK    2  A    between atoms: N2_10  and  C6_12 
REMARK    3  A    between atoms: C7_17  and  C8_18 
REMARK    4  A    between atoms: C8_18  and  C9_19 
REMARK    5  A    between atoms: C9_19  and  C10_20 
REMARK    6  A    between atoms: C10_20  and  C11_21 
REMARK    7  A    between atoms: C11_21  and  C12_22 
REMARK       I    between atoms: N7_28  and  C14_30 
REMARK    8  A    between atoms: C14_30  and  C15_32 
REMARK    9  A    between atoms: C15_32  and  C16_33 
REMARK   10  A    between atoms: C16_33  and  C17_34 
REMARK   11  A    between atoms: C17_34  and  C18_35 
REMARK   12  A    between atoms: C18_35  and  C19_36 
REMARK   13  A    between atoms: C19_36  and  C20_37 
REMARK       I    between atoms: C20_37  and  N8_39 
REMARK   14  A    between atoms: N8_39  and  C21_41 
ROOT
HETATM    1  C11 UNL     1      15.407  20.617  14.701  1.00  0.00     0.066 C 
ENDROOT
BRANCH   1   2
HETATM    2  C10 UNL     1      14.299  21.105  13.863  1.00  0.00     0.007 C 
BRANCH   2   3
HETATM    3  C9  UNL     1      12.957  20.505  14.091  1.00  0.00     0.007 C 
BRANCH   3   4
HETATM    4  C8  UNL     1      12.377  20.596  15.433  1.00  0.00     0.066 C 
BRANCH   4   5
HETATM    5  C7  UNL     1      11.355  19.559  15.742  1.00  0.00     0.069 A 
HETATM    6  N4  UNL     1      10.025  19.747  15.774  1.00  0.00    -0.296 N 
HETATM    7  N3  UNL     1       9.257  18.797  16.053  1.00  0.00    -0.279 N 
ATOM      8  H4  UNL     1       9.639  20.669  15.570  1.00  0.00     0.187 HD
HETATM    9  C6  UNL     1       9.772  17.588  16.320  1.00  0.00     0.169 A 
ATOM     10  H3  UNL     1       8.248  18.942  16.077  1.00  0.00     0.189 HD
HETATM   11  S3  UNL     1      11.443  17.900  16.146  1.00  0.00    -0.038 SA
BRANCH   9  12
HETATM   12  N2  UNL     1       9.105  16.500  16.624  1.00  0.00    -0.287 N 
HETATM   13  C5  UNL     1       8.411  15.755  15.675  1.00  0.00     0.328 C 
HETATM   14  N1  UNL     1       7.138  16.107  15.144  1.00  0.00    -0.288 N 
HETATM   15  O1  UNL     1       8.971  14.682  15.260  1.00  0.00    -0.247 OA
ATOM     16  H1  UNL     1       7.041  16.344  14.157  1.00  0.00     0.172 HD
ATOM     17  H2  UNL     1       9.093  16.188  17.596  1.00  0.00     0.172 HD
BRANCH  14  18
HETATM   18  C4  UNL     1       6.085  16.123  15.935  1.00  0.00     0.152 A 
HETATM   19  S1  UNL     1       4.903  14.923  16.168  1.00  0.00    -0.064 SA
HETATM   20  C3  UNL     1       3.942  15.739  17.315  1.00  0.00     0.077 A 
HETATM   21  C2  UNL     1       4.605  16.927  17.458  1.00  0.00     0.014 A 
HETATM   22  C1  UNL     1       4.089  18.000  18.416  1.00  0.00     0.068 C 
HETATM   23  N9  UNL     1       5.695  17.104  16.746  1.00  0.00    -0.340 N 
ATOM     24  H9  UNL     1       6.228  17.971  16.812  1.00  0.00     0.167 HD
ENDBRANCH  14  18
ENDBRANCH   9  12
ENDBRANCH   4   5
ENDBRANCH   3   4
ENDBRANCH   2   3
ENDBRANCH   1   2
BRANCH   1  25
HETATM   25  C12 UNL     1      15.793  21.513  15.817  1.00  0.00     0.069 A 
HETATM   26  N5  UNL     1      15.742  21.436  17.126  1.00  0.00    -0.296 N 
HETATM   27  N6  UNL     1      16.145  22.388  17.865  1.00  0.00    -0.279 N 
ATOM     28  H5  UNL     1      15.368  20.592  17.560  1.00  0.00     0.187 HD
HETATM   29  C13 UNL     1      16.634  23.490  17.296  1.00  0.00     0.167 A 
ATOM     30  H6  UNL     1      16.096  22.309  18.881  1.00  0.00     0.189 HD
HETATM   31  N7  UNL     1      17.093  24.587  17.812  1.00  0.00    -0.306 N 
HETATM   32  S2  UNL     1      16.484  23.090  15.620  1.00  0.00    -0.038 SA
HETATM   33  C14 UNL     1      17.121  24.745  19.222  1.00  0.00     0.223 C 
ATOM     34  H7  UNL     1      17.432  25.334  17.208  1.00  0.00     0.171 HD
HETATM   35  O2  UNL     1      18.163  24.608  19.894  1.00  0.00    -0.273 OA
BRANCH  33  36
HETATM   36  C15 UNL     1      15.845  25.088  19.870  1.00  0.00     0.103 C 
BRANCH  36  37
HETATM   37  C16 UNL     1      15.653  24.418  21.173  1.00  0.00     0.009 C 
BRANCH  37  38
HETATM   38  C17 UNL     1      14.393  23.642  21.369  1.00  0.00     0.001 C 
BRANCH  38  39
HETATM   39  C18 UNL     1      14.350  22.484  20.388  1.00  0.00     0.009 C 
BRANCH  39  40
HETATM   40  C19 UNL     1      13.147  22.476  19.504  1.00  0.00     0.103 C 
BRANCH  40  41
HETATM   41  C20 UNL     1      12.667  21.062  19.303  1.00  0.00     0.221 C 
HETATM   42  O3  UNL     1      13.379  20.206  18.744  1.00  0.00    -0.273 OA
HETATM   43  N8  UNL     1      11.376  20.687  19.760  1.00  0.00    -0.306 N 
ATOM     44  H8  UNL     1      10.788  21.380  20.222  1.00  0.00     0.167 HD
BRANCH  43  45
HETATM   45  C21 UNL     1      10.880  19.339  19.582  1.00  0.00     0.460 C 
HETATM   46  F1  UNL     1       9.530  19.455  19.248  1.00  0.00    -0.191 F 
HETATM   47  F2  UNL     1      10.965  18.571  20.716  1.00  0.00    -0.191 F 
ENDBRANCH  43  45
ENDBRANCH  40  41
ENDBRANCH  39  40
ENDBRANCH  38  39
ENDBRANCH  37  38
ENDBRANCH  36  37
ENDBRANCH  33  36
ENDBRANCH   1  25
TORSDOF 14
ENDMDL
MODEL 4
REMARK VINA RESULT: -9.084389504      2.101      2.824
REMARK  14 active torsions:
REMARK  status: ('A' for Active; 'I' for Inactive)
REMARK    1  A    between atoms: C4_5  and  N1_6 
REMARK       I    between atoms: N1_6  and  C5_8 
REMARK       I    between atoms: C5_8  and  N2_10 
REMARK    2  A    between atoms: N2_10  and  C6_12 
REMARK    3  A    between atoms: C7_17  and  C8_18 
REMARK    4  A    between atoms: C8_18  and  C9_19 
REMARK    5  A    between atoms: C9_19  and  C10_20 
REMARK    6  A    between atoms: C10_20  and  C11_21 
REMARK    7  A    between atoms: C11_21  and  C12_22 
REMARK       I    between atoms: N7_28  and  C14_30 
REMARK    8  A    between atoms: C14_30  and  C15_32 
REMARK    9  A    between atoms: C15_32  and  C16_33 
REMARK   10  A    between atoms: C16_33  and  C17_34 
REMARK   11  A    between atoms: C17_34  and  C18_35 
REMARK   12  A    between atoms: C18_35  and  C19_36 
REMARK   13  A    between atoms: C19_36  and  C20_37 
REMARK       I    between atoms: C20_37  and  N8_39 
REMARK   14  A    between atoms: N8_39  and  C21_41 
ROOT
HETATM    1  C11 UNL     1      15.291  20.378  14.617  1.00  0.00     0.066 C 
ENDROOT
BRANCH   1   2
HETATM    2  C10 UNL     1      13.957  20.661  14.062  1.00  0.00     0.007 C 
BRANCH   2   3
HETATM    3  C9  UNL     1      12.781  20.257  14.877  1.00  0.00     0.007 C 
BRANCH   3   4
HETATM    4  C8  UNL     1      12.901  19.067  15.724  1.00  0.00     0.066 C 
BRANCH   4   5
HETATM    5  C7  UNL     1      11.661  18.698  16.460  1.00  0.00     0.069 A 
HETATM    6  N4  UNL     1      11.598  17.943  17.569  1.00  0.00    -0.296 N 
HETATM    7  N3  UNL     1      10.492  17.692  18.103  1.00  0.00    -0.279 N 
ATOM      8  H4  UNL     1      12.455  17.572  17.980  1.00  0.00     0.187 HD
HETATM    9  C6  UNL     1       9.369  18.183  17.559  1.00  0.00     0.169 A 
ATOM     10  H3  UNL     1      10.446  17.119  18.945  1.00  0.00     0.189 HD
HETATM   11  S3  UNL     1      10.002  19.035  16.220  1.00  0.00    -0.038 SA
BRANCH   9  12
HETATM   12  N2  UNL     1       8.145  18.013  17.997  1.00  0.00    -0.287 N 
HETATM   13  C5  UNL     1       7.746  16.870  18.684  1.00  0.00     0.328 C 
HETATM   14  N1  UNL     1       7.451  15.619  18.071  1.00  0.00    -0.288 N 
HETATM   15  O1  UNL     1       7.642  16.966  19.955  1.00  0.00    -0.247 OA
ATOM     16  H1  UNL     1       8.035  14.805  18.259  1.00  0.00     0.172 HD
ATOM     17  H2  UNL     1       7.457  18.747  17.827  1.00  0.00     0.172 HD
BRANCH  14  18
HETATM   18  C4  UNL     1       6.418  15.521  17.260  1.00  0.00     0.152 A 
HETATM   19  S1  UNL     1       5.178  16.646  16.965  1.00  0.00    -0.064 SA
HETATM   20  C3  UNL     1       4.288  15.744  15.826  1.00  0.00     0.077 A 
HETATM   21  C2  UNL     1       5.017  14.589  15.735  1.00  0.00     0.014 A 
HETATM   22  C1  UNL     1       4.581  13.460  14.802  1.00  0.00     0.068 C 
HETATM   23  N9  UNL     1       6.099  14.495  16.474  1.00  0.00    -0.340 N 
ATOM     24  H9  UNL     1       6.680  13.657  16.446  1.00  0.00     0.167 HD
ENDBRANCH  14  18
ENDBRANCH   9  12
ENDBRANCH   4   5
ENDBRANCH   3   4
ENDBRANCH   2   3
ENDBRANCH   1   2
BRANCH   1  25
HETATM   25  C12 UNL     1      15.833  21.423  15.518  1.00  0.00     0.069 A 
HETATM   26  N5  UNL     1      15.547  21.840  16.728  1.00  0.00    -0.296 N 
HETATM   27  N6  UNL     1      16.187  22.794  17.272  1.00  0.00    -0.279 N 
ATOM     28  H5  UNL     1      14.793  21.388  17.245  1.00  0.00     0.187 HD
HETATM   29  C13 UNL     1      17.173  23.383  16.596  1.00  0.00     0.167 A 
ATOM     30  H6  UNL     1      15.949  23.104  18.214  1.00  0.00     0.189 HD
HETATM   31  N7  UNL     1      17.959  24.365  16.912  1.00  0.00    -0.306 N 
HETATM   32  S2  UNL     1      17.139  22.489  15.116  1.00  0.00    -0.038 SA
HETATM   33  C14 UNL     1      17.826  24.996  18.177  1.00  0.00     0.223 C 
ATOM     34  H7  UNL     1      18.670  24.684  16.255  1.00  0.00     0.171 HD
HETATM   35  O2  UNL     1      18.595  24.761  19.130  1.00  0.00    -0.273 OA
BRANCH  33  36
HETATM   36  C15 UNL     1      16.723  25.960  18.316  1.00  0.00     0.103 C 
BRANCH  36  37
HETATM   37  C16 UNL     1      15.517  25.379  18.943  1.00  0.00     0.009 C 
BRANCH  37  38
HETATM   38  C17 UNL     1      15.481  25.313  20.434  1.00  0.00     0.001 C 
BRANCH  38  39
HETATM   39  C18 UNL     1      15.714  23.882  20.885  1.00  0.00     0.009 C 
BRANCH  39  40
HETATM   40  C19 UNL     1      14.470  23.146  21.259  1.00  0.00     0.103 C 
BRANCH  40  41
HETATM   41  C20 UNL     1      14.004  22.304  20.100  1.00  0.00     0.221 C 
HETATM   42  O3  UNL     1      14.766  21.499  19.532  1.00  0.00    -0.273 OA
HETATM   43  N8  UNL     1      12.667  22.424  19.638  1.00  0.00    -0.306 N 
ATOM     44  H8  UNL     1      12.035  23.078  20.099  1.00  0.00     0.167 HD
BRANCH  43  45
HETATM   45  C21 UNL     1      12.184  21.635  18.525  1.00  0.00     0.460 C 
HETATM   46  F1  UNL     1      12.356  22.416  17.381  1.00  0.00    -0.191 F 
HETATM   47  F2  UNL     1      10.853  21.316  18.618  1.00  0.00    -0.191 F 
ENDBRANCH  43  45
ENDBRANCH  40  41
ENDBRANCH  39  40
ENDBRANCH  38  39
ENDBRANCH  37  38
ENDBRANCH  36  37
ENDBRANCH  33  36
ENDBRANCH   1  25
TORSDOF 14
ENDMDL
MODEL 5
REMARK VINA RESULT: -9.055937911      2.752     10.862
REMARK  14 active torsions:
REMARK  status: ('A' for Active; 'I' for Inactive)
REMARK    1  A    between atoms: C4_5  and  N1_6 
REMARK       I    between atoms: N1_6  and  C5_8 
REMARK       I    between atoms: C5_8  and  N2_10 
REMARK    2  A    between atoms: N2_10  and  C6_12 
REMARK    3  A    between atoms: C7_17  and  C8_18 
REMARK    4  A    between atoms: C8_18  and  C9_19 
REMARK    5  A    between atoms: C9_19  and  C10_20 
REMARK    6  A    between atoms: C10_20  and  C11_21 
REMARK    7  A    between atoms: C11_21  and  C12_22 
REMARK       I    between atoms: N7_28  and  C14_30 
REMARK    8  A    between atoms: C14_30  and  C15_32 
REMARK    9  A    between atoms: C15_32  and  C16_33 
REMARK   10  A    between atoms: C16_33  and  C17_34 
REMARK   11  A    between atoms: C17_34  and  C18_35 
REMARK   12  A    between atoms: C18_35  and  C19_36 
REMARK   13  A    between atoms: C19_36  and  C20_37 
REMARK       I    between atoms: C20_37  and  N8_39 
REMARK   14  A    between atoms: N8_39  and  C21_41 
ROOT
HETATM    1  C11 UNL     1      10.099  19.385  20.169  1.00  0.00     0.066 C 
ENDROOT
BRANCH   1   2
HETATM    2  C10 UNL     1      10.326  20.760  19.696  1.00  0.00     0.007 C 
BRANCH   2   3
HETATM    3  C9  UNL     1      11.737  21.217  19.581  1.00  0.00     0.007 C 
BRANCH   3   4
HETATM    4  C8  UNL     1      12.161  21.846  18.327  1.00  0.00     0.066 C 
BRANCH   4   5
HETATM    5  C7  UNL     1      13.601  22.222  18.274  1.00  0.00     0.069 A 
HETATM    6  N4  UNL     1      14.560  21.573  17.594  1.00  0.00    -0.296 N 
HETATM    7  N3  UNL     1      15.745  21.980  17.626  1.00  0.00    -0.279 N 
ATOM      8  H4  UNL     1      14.323  20.745  17.047  1.00  0.00     0.187 HD
HETATM    9  C6  UNL     1      16.051  23.069  18.346  1.00  0.00     0.169 A 
ATOM     10  H3  UNL     1      16.472  21.486  17.109  1.00  0.00     0.189 HD
HETATM   11  S3  UNL     1      14.518  23.479  18.981  1.00  0.00    -0.038 SA
BRANCH   9  12
HETATM   12  N2  UNL     1      17.235  23.617  18.477  1.00  0.00    -0.287 N 
HETATM   13  C5  UNL     1      17.443  24.792  19.193  1.00  0.00     0.328 C 
HETATM   14  N1  UNL     1      17.152  26.098  18.706  1.00  0.00    -0.288 N 
HETATM   15  O1  UNL     1      17.931  24.674  20.369  1.00  0.00    -0.247 OA
ATOM     16  H1  UNL     1      16.426  26.661  19.148  1.00  0.00     0.172 HD
ATOM     17  H2  UNL     1      18.036  23.163  18.037  1.00  0.00     0.172 HD
BRANCH  14  18
HETATM   18  C4  UNL     1      17.826  26.575  17.680  1.00  0.00     0.152 A 
HETATM   19  S1  UNL     1      19.157  27.635  17.673  1.00  0.00    -0.064 SA
HETATM   20  C3  UNL     1      19.392  27.728  15.988  1.00  0.00     0.077 A 
HETATM   21  C2  UNL     1      18.402  26.914  15.510  1.00  0.00     0.014 A 
HETATM   22  C1  UNL     1      18.230  26.691  14.007  1.00  0.00     0.068 C 
HETATM   23  N9  UNL     1      17.614  26.335  16.388  1.00  0.00    -0.340 N 
ATOM     24  H9  UNL     1      16.859  25.719  16.087  1.00  0.00     0.167 HD
ENDBRANCH  14  18
ENDBRANCH   9  12
ENDBRANCH   4   5
ENDBRANCH   3   4
ENDBRANCH   2   3
ENDBRANCH   1   2
BRANCH   1  25
HETATM   25  C12 UNL     1       9.102  18.609  19.393  1.00  0.00     0.069 A 
HETATM   26  N5  UNL     1       9.086  17.424  18.831  1.00  0.00    -0.296 N 
HETATM   27  N6  UNL     1       8.068  17.002  18.198  1.00  0.00    -0.279 N 
ATOM     28  H5  UNL     1       9.911  16.828  18.902  1.00  0.00     0.187 HD
HETATM   29  C13 UNL     1       6.990  17.781  18.107  1.00  0.00     0.167 A 
ATOM     30  H6  UNL     1       8.075  16.077  17.767  1.00  0.00     0.189 HD
HETATM   31  N7  UNL     1       5.848  17.596  17.521  1.00  0.00    -0.306 N 
HETATM   32  S2  UNL     1       7.516  19.175  18.986  1.00  0.00    -0.038 SA
HETATM   33  C14 UNL     1       5.602  16.384  16.824  1.00  0.00     0.223 C 
ATOM     34  H7  UNL     1       5.130  18.318  17.560  1.00  0.00     0.171 HD
HETATM   35  O2  UNL     1       4.915  15.460  17.304  1.00  0.00    -0.273 OA
BRANCH  33  36
HETATM   36  C15 UNL     1       6.199  16.264  15.485  1.00  0.00     0.103 C 
BRANCH  36  37
HETATM   37  C16 UNL     1       6.658  14.895  15.172  1.00  0.00     0.009 C 
BRANCH  37  38
HETATM   38  C17 UNL     1       7.886  14.756  14.335  1.00  0.00     0.001 C 
BRANCH  38  39
HETATM   39  C18 UNL     1       9.087  15.283  15.101  1.00  0.00     0.009 C 
BRANCH  39  40
HETATM   40  C19 UNL     1       9.813  16.392  14.415  1.00  0.00     0.103 C 
BRANCH  40  41
HETATM   41  C20 UNL     1      10.205  17.446  15.417  1.00  0.00     0.221 C 
HETATM   42  O3  UNL     1       9.394  18.307  15.809  1.00  0.00    -0.273 OA
HETATM   43  N8  UNL     1      11.527  17.466  15.933  1.00  0.00    -0.306 N 
ATOM     44  H8  UNL     1      12.197  16.763  15.621  1.00  0.00     0.167 HD
BRANCH  43  45
HETATM   45  C21 UNL     1      11.942  18.464  16.895  1.00  0.00     0.460 C 
HETATM   46  F1  UNL     1      13.013  19.149  16.319  1.00  0.00    -0.191 F 
HETATM   47  F2  UNL     1      12.378  17.932  18.083  1.00  0.00    -0.191 F 
ENDBRANCH  43  45
ENDBRANCH  40  41
ENDBRANCH  39  40
ENDBRANCH  38  39
ENDBRANCH  37  38
ENDBRANCH  36  37
ENDBRANCH  33  36
ENDBRANCH   1  25
TORSDOF 14
ENDMDL
