MODEL 1
REMARK VINA RESULT: -8.375988694      0.000      0.000
REMARK  14 active torsions:
REMARK  status: ('A' for Active; 'I' for Inactive)
REMARK    1  A    between atoms: C2_2  and  N1_3 
REMARK    2  A    between atoms: C5_8  and  N3_9 
REMARK    3  A    between atoms: N3_9  and  C6_11 
REMARK    4  A    between atoms: C6_11  and  C7_12 
REMARK    5  A    between atoms: C11_17  and  O1_18 
REMARK    6  A    between atoms: C14_24  and  N5_25 
REMARK    7  A    between atoms: N5_25  and  C15_27 
REMARK    8  A    between atoms: C15_27  and  C16_28 
REMARK    9  A    between atoms: C16_28  and  C17_29 
REMARK   10  A    between atoms: C17_29  and  N6_30 
REMARK   11  A    between atoms: N7_33  and  C20_34 
REMARK   12  A    between atoms: C20_34  and  C21_35 
REMARK   13  A    between atoms: C21_35  and  C22_36 
REMARK   14  A    between atoms: C22_36  and  N8_37 
ROOT
HETATM    1  N1  UNL     1      10.995  19.791  16.094  1.00  0.00    -0.327 N 
HETATM    2  C3  UNL     1      12.087  20.203  15.438  1.00  0.00     0.185 A 
HETATM    3  N2  UNL     1      12.773  21.059  16.208  1.00  0.00    -0.346 N 
ATOM      4  H2  UNL     1      13.644  21.518  15.941  1.00  0.00     0.167 HD
HETATM    5  C4  UNL     1      12.140  21.223  17.383  1.00  0.00     0.123 A 
HETATM    6  C5  UNL     1      12.353  21.956  18.542  1.00  0.00     0.148 A 
HETATM    7  N4  UNL     1      11.495  21.895  19.570  1.00  0.00    -0.175 N 
ATOM      8  H4  UNL     1      11.668  22.440  20.415  1.00  0.00     0.186 HD
HETATM    9  C14 UNL     1      10.400  21.109  19.485  1.00  0.00     0.681 A 
HETATM   10  N9  UNL     1      10.196  20.399  18.365  1.00  0.00    -0.174 N 
ATOM     11  H9  UNL     1       9.365  19.810  18.320  1.00  0.00     0.186 HD
HETATM   12  C25 UNL     1      11.019  20.413  17.291  1.00  0.00     0.155 A 
ENDROOT
BRANCH   9  13
HETATM   13  N5  UNL     1       9.576  21.072  20.505  1.00  0.00    -0.226 N 
ATOM     14  H5  UNL     1       9.309  21.952  20.945  1.00  0.00     0.177 HD
BRANCH  13  15
HETATM   15  C15 UNL     1       9.031  19.849  21.034  1.00  0.00     0.140 C 
BRANCH  15  16
HETATM   16  C16 UNL     1       7.504  19.815  20.845  1.00  0.00     0.050 C 
BRANCH  16  17
HETATM   17  C17 UNL     1       7.209  18.342  20.537  1.00  0.00     0.274 C 
BRANCH  17  18
HETATM   18  N6  UNL     1       7.937  18.041  19.309  1.00  0.00     0.091 N 
HETATM   19  C18 UNL     1       7.154  18.404  18.139  1.00  0.00     0.302 C 
HETATM   20  C19 UNL     1       5.970  17.514  17.952  1.00  0.00     0.302 C 
HETATM   21  N7  UNL     1       6.377  16.119  17.774  1.00  0.00     0.091 N 
HETATM   22  C23 UNL     1       7.802  15.976  18.010  1.00  0.00     0.302 C 
HETATM   23  C24 UNL     1       8.175  16.606  19.343  1.00  0.00     0.302 C 
BRANCH  21  24
HETATM   24  C20 UNL     1       6.116  15.700  16.406  1.00  0.00     0.274 C 
BRANCH  24  25
HETATM   25  C21 UNL     1       7.232  14.822  15.946  1.00  0.00     0.057 C 
BRANCH  25  26
HETATM   26  C22 UNL     1       7.383  14.926  14.418  1.00  0.00     0.231 C 
BRANCH  26  27
HETATM   27  N8  UNL     1       8.759  14.734  14.074  1.00  0.00    -0.079 N 
ATOM     28  H83 UNL     1       9.386  15.294  14.652  1.00  0.00     0.274 HD
ATOM     29  H82 UNL     1       9.103  13.812  14.344  1.00  0.00     0.274 HD
ATOM     30  H81 UNL     1       8.879  14.917  13.078  1.00  0.00     0.274 HD
ENDBRANCH  26  27
ENDBRANCH  25  26
ENDBRANCH  24  25
ENDBRANCH  21  24
ENDBRANCH  17  18
ENDBRANCH  16  17
ENDBRANCH  15  16
ENDBRANCH  13  15
ENDBRANCH   9  13
BRANCH   6  31
HETATM   31  N3  UNL     1      13.389  22.716  18.657  1.00  0.00    -0.370 N 
ATOM     32  H3  UNL     1      13.257  23.707  18.455  1.00  0.00     0.161 HD
BRANCH  31  33
HETATM   33  C6  UNL     1      14.690  22.309  19.035  1.00  0.00     0.163 C 
BRANCH  33  34
HETATM   34  C7  UNL     1      15.691  23.369  19.238  1.00  0.00     0.001 A 
HETATM   35  C8  UNL     1      15.739  23.981  20.509  1.00  0.00     0.043 A 
HETATM   36 CL1  UNL     1      14.650  23.487  21.793  1.00  0.00    -0.084 Cl
HETATM   37  C9  UNL     1      16.648  24.978  20.754  1.00  0.00     0.027 A 
HETATM   38  C10 UNL     1      17.533  25.419  19.801  1.00  0.00     0.040 A 
HETATM   39  C11 UNL     1      17.507  24.835  18.549  1.00  0.00     0.086 A 
HETATM   40  C13 UNL     1      16.581  23.827  18.317  1.00  0.00     0.053 A 
HETATM   41 BR1  UNL     1      16.605  23.069  16.571  1.00  0.00    -0.047 Br
BRANCH  39  42
HETATM   42  O1  UNL     1      18.395  25.276  17.592  1.00  0.00    -0.355 OA
HETATM   43  C12 UNL     1      18.268  26.572  17.058  1.00  0.00     0.210 C 
ENDBRANCH  39  42
ENDBRANCH  33  34
ENDBRANCH  31  33
ENDBRANCH   6  31
BRANCH   1  44
HETATM   44  C2  UNL     1       9.959  18.878  15.697  1.00  0.00     0.127 C 
HETATM   45  C1  UNL     1      10.330  17.443  15.704  1.00  0.00     0.027 C 
ENDBRANCH   1  44
TORSDOF 14
ENDMDL
MODEL 2
REMARK VINA RESULT: -8.289079303      0.712      1.055
REMARK  14 active torsions:
REMARK  status: ('A' for Active; 'I' for Inactive)
REMARK    1  A    between atoms: C2_2  and  N1_3 
REMARK    2  A    between atoms: C5_8  and  N3_9 
REMARK    3  A    between atoms: N3_9  and  C6_11 
REMARK    4  A    between atoms: C6_11  and  C7_12 
REMARK    5  A    between atoms: C11_17  and  O1_18 
REMARK    6  A    between atoms: C14_24  and  N5_25 
REMARK    7  A    between atoms: N5_25  and  C15_27 
REMARK    8  A    between atoms: C15_27  and  C16_28 
REMARK    9  A    between atoms: C16_28  and  C17_29 
REMARK   10  A    between atoms: C17_29  and  N6_30 
REMARK   11  A    between atoms: N7_33  and  C20_34 
REMARK   12  A    between atoms: C20_34  and  C21_35 
REMARK   13  A    between atoms: C21_35  and  C22_36 
REMARK   14  A    between atoms: C22_36  and  N8_37 
ROOT
HETATM    1  N1  UNL     1      11.143  19.801  15.858  1.00  0.00    -0.327 N 
HETATM    2  C3  UNL     1      12.196  20.205  15.138  1.00  0.00     0.185 A 
HETATM    3  N2  UNL     1      12.926  21.067  15.861  1.00  0.00    -0.346 N 
ATOM      4  H2  UNL     1      13.782  21.522  15.541  1.00  0.00     0.167 HD
HETATM    5  C4  UNL     1      12.361  21.242  17.068  1.00  0.00     0.123 A 
HETATM    6  C5  UNL     1      12.640  21.985  18.207  1.00  0.00     0.148 A 
HETATM    7  N4  UNL     1      11.840  21.934  19.283  1.00  0.00    -0.175 N 
ATOM      8  H4  UNL     1      12.062  22.486  20.111  1.00  0.00     0.186 HD
HETATM    9  C14 UNL     1      10.742  21.149  19.266  1.00  0.00     0.681 A 
HETATM   10  N9  UNL     1      10.474  20.430  18.165  1.00  0.00    -0.174 N 
ATOM     11  H9  UNL     1       9.641  19.842  18.172  1.00  0.00     0.186 HD
HETATM   12  C25 UNL     1      11.235  20.433  17.046  1.00  0.00     0.155 A 
ENDROOT
BRANCH   9  13
HETATM   13  N5  UNL     1       9.977  21.122  20.331  1.00  0.00    -0.226 N 
ATOM     14  H5  UNL     1       9.747  22.006  20.786  1.00  0.00     0.177 HD
BRANCH  13  15
HETATM   15  C15 UNL     1       9.445  19.906  20.889  1.00  0.00     0.140 C 
BRANCH  15  16
HETATM   16  C16 UNL     1       7.934  20.047  21.144  1.00  0.00     0.050 C 
BRANCH  16  17
HETATM   17  C17 UNL     1       7.314  19.870  19.752  1.00  0.00     0.274 C 
BRANCH  17  18
HETATM   18  N6  UNL     1       6.522  18.647  19.825  1.00  0.00     0.091 N 
HETATM   19  C18 UNL     1       7.356  17.475  19.618  1.00  0.00     0.302 C 
HETATM   20  C19 UNL     1       7.846  17.371  18.211  1.00  0.00     0.302 C 
HETATM   21  N7  UNL     1       6.733  17.271  17.267  1.00  0.00     0.091 N 
HETATM   22  C23 UNL     1       5.470  17.484  17.951  1.00  0.00     0.302 C 
HETATM   23  C24 UNL     1       5.530  18.766  18.767  1.00  0.00     0.302 C 
BRANCH  21  24
HETATM   24  C20 UNL     1       6.696  15.939  16.686  1.00  0.00     0.274 C 
BRANCH  24  25
HETATM   25  C21 UNL     1       6.952  16.041  15.219  1.00  0.00     0.057 C 
BRANCH  25  26
HETATM   26  C22 UNL     1       7.315  14.656  14.655  1.00  0.00     0.231 C 
BRANCH  26  27
HETATM   27  N8  UNL     1       8.616  14.724  14.061  1.00  0.00    -0.079 N 
ATOM     28  H83 UNL     1       8.576  14.872  13.053  1.00  0.00     0.274 HD
ATOM     29  H82 UNL     1       9.114  15.580  14.310  1.00  0.00     0.274 HD
ATOM     30  H81 UNL     1       9.138  13.884  14.312  1.00  0.00     0.274 HD
ENDBRANCH  26  27
ENDBRANCH  25  26
ENDBRANCH  24  25
ENDBRANCH  21  24
ENDBRANCH  17  18
ENDBRANCH  16  17
ENDBRANCH  15  16
ENDBRANCH  13  15
ENDBRANCH   9  13
BRANCH   6  31
HETATM   31  N3  UNL     1      13.681  22.743  18.257  1.00  0.00    -0.370 N 
ATOM     32  H3  UNL     1      13.591  23.677  17.855  1.00  0.00     0.161 HD
BRANCH  31  33
HETATM   33  C6  UNL     1      14.938  22.408  18.815  1.00  0.00     0.163 C 
BRANCH  33  34
HETATM   34  C7  UNL     1      15.815  23.523  19.206  1.00  0.00     0.001 A 
HETATM   35  C8  UNL     1      15.654  24.050  20.505  1.00  0.00     0.043 A 
HETATM   36 CL1  UNL     1      14.456  23.392  21.607  1.00  0.00    -0.084 Cl
HETATM   37  C9  UNL     1      16.441  25.093  20.923  1.00  0.00     0.027 A 
HETATM   38  C10 UNL     1      17.399  25.661  20.121  1.00  0.00     0.040 A 
HETATM   39  C11 UNL     1      17.578  25.162  18.845  1.00  0.00     0.086 A 
HETATM   40  C13 UNL     1      16.773  24.106  18.437  1.00  0.00     0.053 A 
HETATM   41 BR1  UNL     1      17.078  23.471  16.668  1.00  0.00    -0.047 Br
BRANCH  39  42
HETATM   42  O1  UNL     1      18.539  25.731  18.039  1.00  0.00    -0.355 OA
HETATM   43  C12 UNL     1      18.493  27.108  17.751  1.00  0.00     0.210 C 
ENDBRANCH  39  42
ENDBRANCH  33  34
ENDBRANCH  31  33
ENDBRANCH   6  31
BRANCH   1  44
HETATM   44  C2  UNL     1      10.085  18.886  15.528  1.00  0.00     0.127 C 
HETATM   45  C1  UNL     1      10.427  17.447  15.624  1.00  0.00     0.027 C 
ENDBRANCH   1  44
TORSDOF 14
ENDMDL
MODEL 3
REMARK VINA RESULT: -8.227932572      1.366      1.439
REMARK  14 active torsions:
REMARK  status: ('A' for Active; 'I' for Inactive)
REMARK    1  A    between atoms: C2_2  and  N1_3 
REMARK    2  A    between atoms: C5_8  and  N3_9 
REMARK    3  A    between atoms: N3_9  and  C6_11 
REMARK    4  A    between atoms: C6_11  and  C7_12 
REMARK    5  A    between atoms: C11_17  and  O1_18 
REMARK    6  A    between atoms: C14_24  and  N5_25 
REMARK    7  A    between atoms: N5_25  and  C15_27 
REMARK    8  A    between atoms: C15_27  and  C16_28 
REMARK    9  A    between atoms: C16_28  and  C17_29 
REMARK   10  A    between atoms: C17_29  and  N6_30 
REMARK   11  A    between atoms: N7_33  and  C20_34 
REMARK   12  A    between atoms: C20_34  and  C21_35 
REMARK   13  A    between atoms: C21_35  and  C22_36 
REMARK   14  A    between atoms: C22_36  and  N8_37 
ROOT
HETATM    1  N1  UNL     1      11.785  18.741  15.923  1.00  0.00    -0.327 N 
HETATM    2  C3  UNL     1      12.452  19.663  15.219  1.00  0.00     0.185 A 
HETATM    3  N2  UNL     1      12.985  20.564  16.057  1.00  0.00    -0.346 N 
ATOM      4  H2  UNL     1      13.542  21.369  15.773  1.00  0.00     0.167 HD
HETATM    5  C4  UNL     1      12.673  20.246  17.326  1.00  0.00     0.123 A 
HETATM    6  C5  UNL     1      12.926  20.778  18.583  1.00  0.00     0.148 A 
HETATM    7  N4  UNL     1      12.448  20.195  19.692  1.00  0.00    -0.175 N 
ATOM      8  H4  UNL     1      12.644  20.600  20.608  1.00  0.00     0.186 HD
HETATM    9  C14 UNL     1      11.707  19.071  19.594  1.00  0.00     0.681 A 
HETATM   10  N9  UNL     1      11.465  18.557  18.378  1.00  0.00    -0.174 N 
ATOM     11  H9  UNL     1      10.905  17.706  18.324  1.00  0.00     0.186 HD
HETATM   12  C25 UNL     1      11.915  19.091  17.219  1.00  0.00     0.155 A 
ENDROOT
BRANCH   9  13
HETATM   13  N5  UNL     1      11.250  18.525  20.696  1.00  0.00    -0.226 N 
ATOM     14  H5  UNL     1      11.725  17.698  21.060  1.00  0.00     0.177 HD
BRANCH  13  15
HETATM   15  C15 UNL     1      10.112  19.034  21.415  1.00  0.00     0.140 C 
BRANCH  15  16
HETATM   16  C16 UNL     1       8.931  19.270  20.457  1.00  0.00     0.050 C 
BRANCH  16  17
HETATM   17  C17 UNL     1       8.319  17.875  20.286  1.00  0.00     0.274 C 
BRANCH  17  18
HETATM   18  N6  UNL     1       8.400  17.578  18.860  1.00  0.00     0.091 N 
HETATM   19  C18 UNL     1       7.407  18.335  18.116  1.00  0.00     0.302 C 
HETATM   20  C19 UNL     1       6.016  17.865  18.390  1.00  0.00     0.302 C 
HETATM   21  N7  UNL     1       5.846  16.461  18.016  1.00  0.00     0.091 N 
HETATM   22  C23 UNL     1       7.126  15.877  17.656  1.00  0.00     0.302 C 
HETATM   23  C24 UNL     1       8.148  16.150  18.748  1.00  0.00     0.302 C 
BRANCH  21  24
HETATM   24  C20 UNL     1       4.977  16.360  16.855  1.00  0.00     0.274 C 
BRANCH  24  25
HETATM   25  C21 UNL     1       5.629  15.487  15.834  1.00  0.00     0.057 C 
BRANCH  25  26
HETATM   26  C22 UNL     1       4.731  14.275  15.535  1.00  0.00     0.231 C 
BRANCH  26  27
HETATM   27  N8  UNL     1       5.551  13.190  15.087  1.00  0.00    -0.079 N 
ATOM     28  H83 UNL     1       5.260  12.832  14.177  1.00  0.00     0.274 HD
ATOM     29  H82 UNL     1       6.490  13.493  14.827  1.00  0.00     0.274 HD
ATOM     30  H81 UNL     1       5.561  12.466  15.806  1.00  0.00     0.274 HD
ENDBRANCH  26  27
ENDBRANCH  25  26
ENDBRANCH  24  25
ENDBRANCH  21  24
ENDBRANCH  17  18
ENDBRANCH  16  17
ENDBRANCH  15  16
ENDBRANCH  13  15
ENDBRANCH   9  13
BRANCH   6  31
HETATM   31  N3  UNL     1      13.631  21.850  18.712  1.00  0.00    -0.370 N 
ATOM     32  H3  UNL     1      13.174  22.732  18.480  1.00  0.00     0.161 HD
BRANCH  31  33
HETATM   33  C6  UNL     1      14.976  21.922  19.145  1.00  0.00     0.163 C 
BRANCH  33  34
HETATM   34  C7  UNL     1      15.589  23.259  19.205  1.00  0.00     0.001 A 
HETATM   35  C8  UNL     1      15.442  23.986  20.405  1.00  0.00     0.043 A 
HETATM   36 CL1  UNL     1      14.567  23.314  21.770  1.00  0.00    -0.084 Cl
HETATM   37  C9  UNL     1      15.988  25.239  20.517  1.00  0.00     0.027 A 
HETATM   38  C10 UNL     1      16.686  25.833  19.495  1.00  0.00     0.040 A 
HETATM   39  C11 UNL     1      16.845  25.141  18.310  1.00  0.00     0.086 A 
HETATM   40  C13 UNL     1      16.286  23.873  18.213  1.00  0.00     0.053 A 
HETATM   41 BR1  UNL     1      16.548  22.981  16.552  1.00  0.00    -0.047 Br
BRANCH  39  42
HETATM   42  O1  UNL     1      17.546  25.736  17.283  1.00  0.00    -0.355 OA
HETATM   43  C12 UNL     1      18.169  26.981  17.485  1.00  0.00     0.210 C 
ENDBRANCH  39  42
ENDBRANCH  33  34
ENDBRANCH  31  33
ENDBRANCH   6  31
BRANCH   1  44
HETATM   44  C2  UNL     1      11.057  17.582  15.485  1.00  0.00     0.127 C 
HETATM   45  C1  UNL     1       9.588  17.748  15.377  1.00  0.00     0.027 C 
ENDBRANCH   1  44
TORSDOF 14
ENDMDL
MODEL 4
REMARK VINA RESULT: -8.156576309      3.987     10.194
REMARK  14 active torsions:
REMARK  status: ('A' for Active; 'I' for Inactive)
REMARK    1  A    between atoms: C2_2  and  N1_3 
REMARK    2  A    between atoms: C5_8  and  N3_9 
REMARK    3  A    between atoms: N3_9  and  C6_11 
REMARK    4  A    between atoms: C6_11  and  C7_12 
REMARK    5  A    between atoms: C11_17  and  O1_18 
REMARK    6  A    between atoms: C14_24  and  N5_25 
REMARK    7  A    between atoms: N5_25  and  C15_27 
REMARK    8  A    between atoms: C15_27  and  C16_28 
REMARK    9  A    between atoms: C16_28  and  C17_29 
REMARK   10  A    between atoms: C17_29  and  N6_30 
REMARK   11  A    between atoms: N7_33  and  C20_34 
REMARK   12  A    between atoms: C20_34  and  C21_35 
REMARK   13  A    between atoms: C21_35  and  C22_36 
REMARK   14  A    between atoms: C22_36  and  N8_37 
ROOT
HETATM    1  N1  UNL     1      14.947  21.988  14.238  1.00  0.00    -0.327 N 
HETATM    2  C3  UNL     1      14.186  21.514  13.245  1.00  0.00     0.185 A 
HETATM    3  N2  UNL     1      13.341  20.594  13.731  1.00  0.00    -0.346 N 
ATOM      4  H2  UNL     1      12.654  20.080  13.179  1.00  0.00     0.167 HD
HETATM    5  C4  UNL     1      13.536  20.449  15.054  1.00  0.00     0.123 A 
HETATM    6  C5  UNL     1      12.989  19.677  16.069  1.00  0.00     0.148 A 
HETATM    7  N4  UNL     1      13.430  19.776  17.331  1.00  0.00    -0.175 N 
ATOM      8  H4  UNL     1      13.015  19.201  18.065  1.00  0.00     0.186 HD
HETATM    9  C14 UNL     1      14.423  20.640  17.630  1.00  0.00     0.681 A 
HETATM   10  N9  UNL     1      14.950  21.388  16.647  1.00  0.00    -0.174 N 
ATOM     11  H9  UNL     1      15.699  22.036  16.892  1.00  0.00     0.186 HD
HETATM   12  C25 UNL     1      14.556  21.339  15.354  1.00  0.00     0.155 A 
ENDROOT
BRANCH   9  13
HETATM   13  N5  UNL     1      14.836  20.714  18.872  1.00  0.00    -0.226 N 
ATOM     14  H5  UNL     1      15.788  20.415  19.086  1.00  0.00     0.177 HD
BRANCH  13  15
HETATM   15  C15 UNL     1      14.012  21.194  19.950  1.00  0.00     0.140 C 
BRANCH  15  16
HETATM   16  C16 UNL     1      13.812  22.716  19.837  1.00  0.00     0.050 C 
BRANCH  16  17
HETATM   17  C17 UNL     1      14.956  23.296  20.677  1.00  0.00     0.274 C 
BRANCH  17  18
HETATM   18  N6  UNL     1      15.154  24.657  20.193  1.00  0.00     0.091 N 
HETATM   19  C18 UNL     1      15.311  24.676  18.748  1.00  0.00     0.302 C 
HETATM   20  C19 UNL     1      16.603  24.067  18.312  1.00  0.00     0.302 C 
HETATM   21  N7  UNL     1      17.746  24.787  18.872  1.00  0.00     0.091 N 
HETATM   22  C23 UNL     1      17.297  25.776  19.836  1.00  0.00     0.302 C 
HETATM   23  C24 UNL     1      16.364  25.129  20.848  1.00  0.00     0.302 C 
BRANCH  21  24
HETATM   24  C20 UNL     1      18.450  25.496  17.816  1.00  0.00     0.274 C 
BRANCH  24  25
HETATM   25  C21 UNL     1      18.084  26.942  17.872  1.00  0.00     0.057 C 
BRANCH  25  26
HETATM   26  C22 UNL     1      19.273  27.800  17.407  1.00  0.00     0.231 C 
BRANCH  26  27
HETATM   27  N8  UNL     1      20.353  27.635  18.332  1.00  0.00    -0.079 N 
ATOM     28  H83 UNL     1      20.858  28.506  18.500  1.00  0.00     0.274 HD
ATOM     29  H82 UNL     1      20.028  27.474  19.286  1.00  0.00     0.274 HD
ATOM     30  H81 UNL     1      20.963  26.889  17.998  1.00  0.00     0.274 HD
ENDBRANCH  26  27
ENDBRANCH  25  26
ENDBRANCH  24  25
ENDBRANCH  21  24
ENDBRANCH  17  18
ENDBRANCH  16  17
ENDBRANCH  15  16
ENDBRANCH  13  15
ENDBRANCH   9  13
BRANCH   6  31
HETATM   31  N3  UNL     1      12.038  18.843  15.819  1.00  0.00    -0.370 N 
ATOM     32  H3  UNL     1      12.313  17.889  15.581  1.00  0.00     0.161 HD
BRANCH  31  33
HETATM   33  C6  UNL     1      10.651  19.120  15.842  1.00  0.00     0.163 C 
BRANCH  33  34
HETATM   34  C7  UNL     1       9.810  18.258  16.689  1.00  0.00     0.001 A 
HETATM   35  C8  UNL     1       9.382  17.030  16.140  1.00  0.00     0.043 A 
HETATM   36 CL1  UNL     1       9.845  16.554  14.516  1.00  0.00    -0.084 Cl
HETATM   37  C9  UNL     1       8.593  16.188  16.881  1.00  0.00     0.027 A 
HETATM   38  C10 UNL     1       8.190  16.489  18.159  1.00  0.00     0.040 A 
HETATM   39  C11 UNL     1       8.596  17.686  18.718  1.00  0.00     0.086 A 
HETATM   40  C13 UNL     1       9.395  18.527  17.956  1.00  0.00     0.053 A 
HETATM   41 BR1  UNL     1       9.917  20.154  18.794  1.00  0.00    -0.047 Br
BRANCH  39  42
HETATM   42  O1  UNL     1       8.192  17.989  20.000  1.00  0.00    -0.355 OA
HETATM   43  C12 UNL     1       6.839  18.271  20.265  1.00  0.00     0.210 C 
ENDBRANCH  39  42
ENDBRANCH  33  34
ENDBRANCH  31  33
ENDBRANCH   6  31
BRANCH   1  44
HETATM   44  C2  UNL     1      15.985  22.982  14.223  1.00  0.00     0.127 C 
HETATM   45  C1  UNL     1      16.144  23.726  12.951  1.00  0.00     0.027 C 
ENDBRANCH   1  44
TORSDOF 14
ENDMDL
MODEL 5
REMARK VINA RESULT: -8.132868706      4.057     10.374
REMARK  14 active torsions:
REMARK  status: ('A' for Active; 'I' for Inactive)
REMARK    1  A    between atoms: C2_2  and  N1_3 
REMARK    2  A    between atoms: C5_8  and  N3_9 
REMARK    3  A    between atoms: N3_9  and  C6_11 
REMARK    4  A    between atoms: C6_11  and  C7_12 
REMARK    5  A    between atoms: C11_17  and  O1_18 
REMARK    6  A    between atoms: C14_24  and  N5_25 
REMARK    7  A    between atoms: N5_25  and  C15_27 
REMARK    8  A    between atoms: C15_27  and  C16_28 
REMARK    9  A    between atoms: C16_28  and  C17_29 
REMARK   10  A    between atoms: C17_29  and  N6_30 
REMARK   11  A    between atoms: N7_33  and  C20_34 
REMARK   12  A    between atoms: C20_34  and  C21_35 
REMARK   13  A    between atoms: C21_35  and  C22_36 
REMARK   14  A    between atoms: C22_36  and  N8_37 
ROOT
HETATM    1  N1  UNL     1      14.795  21.584  14.449  1.00  0.00    -0.327 N 
HETATM    2  C3  UNL     1      14.053  21.022  13.489  1.00  0.00     0.185 A 
HETATM    3  N2  UNL     1      13.205  20.141  14.039  1.00  0.00    -0.346 N 
ATOM      4  H2  UNL     1      12.530  19.578  13.522  1.00  0.00     0.167 HD
HETATM    5  C4  UNL     1      13.379  20.112  15.372  1.00  0.00     0.123 A 
HETATM    6  C5  UNL     1      12.820  19.427  16.441  1.00  0.00     0.148 A 
HETATM    7  N4  UNL     1      13.239  19.638  17.697  1.00  0.00    -0.175 N 
ATOM      8  H4  UNL     1      12.815  19.126  18.471  1.00  0.00     0.186 HD
HETATM    9  C14 UNL     1      14.223  20.531  17.936  1.00  0.00     0.681 A 
HETATM   10  N9  UNL     1      14.762  21.195  16.901  1.00  0.00    -0.174 N 
ATOM     11  H9  UNL     1      15.503  21.867  17.101  1.00  0.00     0.186 HD
HETATM   12  C25 UNL     1      14.389  21.032  15.611  1.00  0.00     0.155 A 
ENDROOT
BRANCH   9  13
HETATM   13  N5  UNL     1      14.615  20.714  19.174  1.00  0.00    -0.226 N 
ATOM     14  H5  UNL     1      15.551  20.406  19.436  1.00  0.00     0.177 HD
BRANCH  13  15
HETATM   15  C15 UNL     1      13.789  21.328  20.180  1.00  0.00     0.140 C 
BRANCH  15  16
HETATM   16  C16 UNL     1      13.742  22.853  19.980  1.00  0.00     0.050 C 
BRANCH  16  17
HETATM   17  C17 UNL     1      15.050  23.342  20.614  1.00  0.00     0.274 C 
BRANCH  17  18
HETATM   18  N6  UNL     1      15.233  24.710  20.140  1.00  0.00     0.091 N 
HETATM   19  C18 UNL     1      15.308  24.751  18.689  1.00  0.00     0.302 C 
HETATM   20  C19 UNL     1      16.567  24.137  18.170  1.00  0.00     0.302 C 
HETATM   21  N7  UNL     1      17.747  24.838  18.676  1.00  0.00     0.091 N 
HETATM   22  C23 UNL     1      17.363  25.815  19.679  1.00  0.00     0.302 C 
HETATM   23  C24 UNL     1      16.483  25.160  20.732  1.00  0.00     0.302 C 
BRANCH  21  24
HETATM   24  C20 UNL     1      18.396  25.557  17.592  1.00  0.00     0.274 C 
BRANCH  24  25
HETATM   25  C21 UNL     1      18.201  27.023  17.795  1.00  0.00     0.057 C 
BRANCH  25  26
HETATM   26  C22 UNL     1      19.437  27.789  17.293  1.00  0.00     0.231 C 
BRANCH  26  27
HETATM   27  N8  UNL     1      20.469  27.702  18.282  1.00  0.00    -0.079 N 
ATOM     28  H83 UNL     1      21.216  27.061  18.009  1.00  0.00     0.274 HD
ATOM     29  H82 UNL     1      21.028  28.554  18.339  1.00  0.00     0.274 HD
ATOM     30  H81 UNL     1      20.049  27.452  19.177  1.00  0.00     0.274 HD
ENDBRANCH  26  27
ENDBRANCH  25  26
ENDBRANCH  24  25
ENDBRANCH  21  24
ENDBRANCH  17  18
ENDBRANCH  16  17
ENDBRANCH  15  16
ENDBRANCH  13  15
ENDBRANCH   9  13
BRANCH   6  31
HETATM   31  N3  UNL     1      11.877  18.568  16.249  1.00  0.00    -0.370 N 
ATOM     32  H3  UNL     1      12.162  17.604  16.075  1.00  0.00     0.161 HD
BRANCH  31  33
HETATM   33  C6  UNL     1      10.487  18.833  16.255  1.00  0.00     0.163 C 
BRANCH  33  34
HETATM   34  C7  UNL     1       9.608  17.779  16.788  1.00  0.00     0.001 A 
HETATM   35  C8  UNL     1       9.150  17.927  18.115  1.00  0.00     0.043 A 
HETATM   36 CL1  UNL     1       9.610  19.317  19.082  1.00  0.00    -0.084 Cl
HETATM   37  C9  UNL     1       8.332  16.974  18.666  1.00  0.00     0.027 A 
HETATM   38  C10 UNL     1       7.928  15.859  17.974  1.00  0.00     0.040 A 
HETATM   39  C11 UNL     1       8.362  15.693  16.672  1.00  0.00     0.086 A 
HETATM   40  C13 UNL     1       9.189  16.666  16.129  1.00  0.00     0.053 A 
HETATM   41 BR1  UNL     1       9.744  16.369  14.332  1.00  0.00    -0.047 Br
BRANCH  39  42
HETATM   42  O1  UNL     1       7.956  14.575  15.977  1.00  0.00    -0.355 OA
HETATM   43  C12 UNL     1       6.648  14.499  15.465  1.00  0.00     0.210 C 
ENDBRANCH  39  42
ENDBRANCH  33  34
ENDBRANCH  31  33
ENDBRANCH   6  31
BRANCH   1  44
HETATM   44  C2  UNL     1      15.828  22.580  14.365  1.00  0.00     0.127 C 
HETATM   45  C1  UNL     1      15.777  23.461  13.173  1.00  0.00     0.027 C 
ENDBRANCH   1  44
TORSDOF 14
ENDMDL
