MODEL 1
REMARK VINA RESULT: -9.107946034      0.000      0.000
REMARK  14 active torsions:
REMARK  status: ('A' for Active; 'I' for Inactive)
REMARK    1  A    between atoms: C2_2  and  C3_3 
REMARK    2  A    between atoms: C3_3  and  N1_4 
REMARK    3  A    between atoms: C7_10  and  N3_11 
REMARK    4  A    between atoms: N4_14  and  C10_15 
REMARK    5  A    between atoms: C10_15  and  C11_16 
REMARK    6  A    between atoms: C11_16  and  N5_17 
REMARK    7  A    between atoms: C12_19  and  N6_20 
REMARK    8  A    between atoms: C12_19  and  C14_23 
REMARK    9  A    between atoms: C17_31  and  N8_32 
REMARK   10  A    between atoms: N8_32  and  C18_34 
REMARK   11  A    between atoms: C18_34  and  C19_35 
REMARK   12  A    between atoms: C19_35  and  C20_36 
REMARK   13  A    between atoms: C23_39  and  O1_40 
REMARK   14  A    between atoms: C25_42  and  O2_43 
ROOT
HETATM    1  N1  UNL     1       7.447  16.001  15.754  1.00  0.00    -0.408 N 
HETATM    2  C4  UNL     1       8.088  16.543  14.609  1.00  0.00     0.123 C 
HETATM    3  C5  UNL     1       9.576  16.275  14.699  1.00  0.00     0.078 C 
HETATM    4  C6  UNL     1      10.053  17.052  15.864  1.00  0.00     0.040 A 
HETATM    5  N2  UNL     1      11.130  17.842  15.852  1.00  0.00    -0.195 N 
ATOM      6  H2  UNL     1      11.680  17.929  14.998  1.00  0.00     0.184 HD
HETATM    7  C7  UNL     1      11.505  18.531  16.967  1.00  0.00     0.682 A 
HETATM    8  N7  UNL     1      10.759  18.392  18.078  1.00  0.00    -0.176 N 
ATOM      9  H7  UNL     1      11.057  18.916  18.902  1.00  0.00     0.186 HD
HETATM   10  C17 UNL     1       9.676  17.640  18.206  1.00  0.00     0.130 A 
HETATM   11  C28 UNL     1       9.322  16.943  17.022  1.00  0.00     0.027 A 
HETATM   12  C29 UNL     1       8.141  16.050  16.988  1.00  0.00     0.161 C 
ENDROOT
BRANCH   7  13
HETATM   13  N3  UNL     1      12.644  19.359  16.923  1.00  0.00    -0.211 N 
HETATM   14  C8  UNL     1      13.167  19.947  18.125  1.00  0.00     0.185 C 
HETATM   15  C9  UNL     1      14.591  20.392  17.983  1.00  0.00     0.079 C 
HETATM   16  N4  UNL     1      14.864  21.176  16.845  1.00  0.00    -0.386 N 
HETATM   17  C15 UNL     1      13.845  21.136  15.866  1.00  0.00     0.143 C 
HETATM   18  C16 UNL     1      13.371  19.691  15.695  1.00  0.00     0.161 C 
BRANCH  16  19
HETATM   19  C10 UNL     1      15.427  22.471  17.075  1.00  0.00     0.166 C 
BRANCH  19  20
HETATM   20  C11 UNL     1      15.726  22.759  18.536  1.00  0.00     0.082 C 
BRANCH  20  21
HETATM   21  N5  UNL     1      16.769  23.692  18.699  1.00  0.00    -0.351 N 
HETATM   22  C12 UNL     1      17.046  24.637  19.448  1.00  0.00     0.185 C 
ATOM     23  H5  UNL     1      17.502  23.547  18.004  1.00  0.00     0.166 HD
BRANCH  22  24
HETATM   24  N6  UNL     1      18.301  25.354  19.236  1.00  0.00    -0.377 N 
HETATM   25  C13 UNL     1      18.348  26.343  18.208  1.00  0.00     0.147 C 
ATOM     26  H6  UNL     1      19.121  25.154  19.808  1.00  0.00     0.160 HD
ENDBRANCH  22  24
BRANCH  22  27
HETATM   27  C14 UNL     1      16.193  25.105  20.554  1.00  0.00     0.448 C 
HETATM   28  F1  UNL     1      14.979  25.541  20.015  1.00  0.00    -0.163 F 
HETATM   29  F2  UNL     1      15.995  24.132  21.475  1.00  0.00    -0.163 F 
HETATM   30  F3  UNL     1      16.769  26.205  21.182  1.00  0.00    -0.163 F 
ENDBRANCH  22  27
ENDBRANCH  20  21
ENDBRANCH  19  20
ENDBRANCH  16  19
ENDBRANCH   7  13
BRANCH  10  31
HETATM   31  N8  UNL     1       8.940  17.462  19.213  1.00  0.00    -0.355 N 
ATOM     32  H8  UNL     1       8.300  16.671  19.144  1.00  0.00     0.166 HD
BRANCH  31  33
HETATM   33  C18 UNL     1       8.863  18.174  20.403  1.00  0.00     0.067 C 
BRANCH  33  34
HETATM   34  C19 UNL     1       8.336  19.572  20.230  1.00  0.00     0.083 C 
BRANCH  34  35
HETATM   35  C20 UNL     1       6.848  19.457  20.327  1.00  0.00    -0.051 A 
HETATM   36  C21 UNL     1       6.302  18.748  21.349  1.00  0.00     0.010 A 
HETATM   37  C22 UNL     1       4.920  18.660  21.425  1.00  0.00     0.040 A 
HETATM   38  C23 UNL     1       4.120  19.273  20.489  1.00  0.00     0.101 A 
HETATM   39  C25 UNL     1       4.725  19.978  19.476  1.00  0.00     0.102 A 
HETATM   40  C27 UNL     1       6.083  20.077  19.383  1.00  0.00     0.047 A 
BRANCH  38  41
HETATM   41  O1  UNL     1       2.753  19.154  20.610  1.00  0.00    -0.353 OA
HETATM   42  C24 UNL     1       1.979  19.804  21.574  1.00  0.00     0.210 C 
ENDBRANCH  38  41
BRANCH  39  43
HETATM   43  O2  UNL     1       3.923  20.605  18.520  1.00  0.00    -0.353 OA
HETATM   44  C26 UNL     1       3.418  21.913  18.756  1.00  0.00     0.210 C 
ENDBRANCH  39  43
ENDBRANCH  34  35
ENDBRANCH  33  34
ENDBRANCH  31  33
ENDBRANCH  10  31
BRANCH   1  45
HETATM   45  C3  UNL     1       6.036  16.296  15.859  1.00  0.00     0.117 C 
BRANCH  45  46
HETATM   46  C2  UNL     1       5.801  17.004  17.166  1.00  0.00     0.015 C 
HETATM   47  C1  UNL     1       4.516  16.628  17.820  1.00  0.00     0.006 C 
ENDBRANCH  45  46
ENDBRANCH   1  45
TORSDOF 14
ENDMDL
MODEL 2
REMARK VINA RESULT: -9.019158029      5.508     11.313
REMARK  14 active torsions:
REMARK  status: ('A' for Active; 'I' for Inactive)
REMARK    1  A    between atoms: C2_2  and  C3_3 
REMARK    2  A    between atoms: C3_3  and  N1_4 
REMARK    3  A    between atoms: C7_10  and  N3_11 
REMARK    4  A    between atoms: N4_14  and  C10_15 
REMARK    5  A    between atoms: C10_15  and  C11_16 
REMARK    6  A    between atoms: C11_16  and  N5_17 
REMARK    7  A    between atoms: C12_19  and  N6_20 
REMARK    8  A    between atoms: C12_19  and  C14_23 
REMARK    9  A    between atoms: C17_31  and  N8_32 
REMARK   10  A    between atoms: N8_32  and  C18_34 
REMARK   11  A    between atoms: C18_34  and  C19_35 
REMARK   12  A    between atoms: C19_35  and  C20_36 
REMARK   13  A    between atoms: C23_39  and  O1_40 
REMARK   14  A    between atoms: C25_42  and  O2_43 
ROOT
HETATM    1  N1  UNL     1      14.712  21.479  15.160  1.00  0.00    -0.408 N 
HETATM    2  C4  UNL     1      14.216  20.327  14.496  1.00  0.00     0.123 C 
HETATM    3  C5  UNL     1      12.713  20.447  14.349  1.00  0.00     0.078 C 
HETATM    4  C6  UNL     1      12.172  20.413  15.726  1.00  0.00     0.040 A 
HETATM    5  N2  UNL     1      11.147  19.649  16.113  1.00  0.00    -0.195 N 
ATOM      6  H2  UNL     1      10.688  19.042  15.435  1.00  0.00     0.184 HD
HETATM    7  C7  UNL     1      10.707  19.670  17.403  1.00  0.00     0.682 A 
HETATM    8  N7  UNL     1      11.334  20.484  18.273  1.00  0.00    -0.176 N 
ATOM      9  H7  UNL     1      10.989  20.485  19.233  1.00  0.00     0.186 HD
HETATM   10  C17 UNL     1      12.355  21.282  18.002  1.00  0.00     0.130 A 
HETATM   11  C28 UNL     1      12.780  21.227  16.649  1.00  0.00     0.027 A 
HETATM   12  C29 UNL     1      13.907  22.061  16.171  1.00  0.00     0.161 C 
ENDROOT
BRANCH   7  13
HETATM   13  N3  UNL     1       9.627  18.850  17.783  1.00  0.00    -0.211 N 
HETATM   14  C8  UNL     1       9.432  17.566  17.167  1.00  0.00     0.185 C 
HETATM   15  C9  UNL     1       8.560  16.657  17.979  1.00  0.00     0.079 C 
HETATM   16  N4  UNL     1       7.348  17.226  18.420  1.00  0.00    -0.386 N 
HETATM   17  C15 UNL     1       7.305  18.634  18.312  1.00  0.00     0.143 C 
HETATM   18  C16 UNL     1       8.635  19.215  18.798  1.00  0.00     0.161 C 
BRANCH  16  19
HETATM   19  C10 UNL     1       6.145  16.555  18.034  1.00  0.00     0.166 C 
BRANCH  19  20
HETATM   20  C11 UNL     1       5.858  16.619  16.544  1.00  0.00     0.082 C 
BRANCH  20  21
HETATM   21  N5  UNL     1       5.743  15.342  15.961  1.00  0.00    -0.351 N 
HETATM   22  C12 UNL     1       6.378  14.631  15.172  1.00  0.00     0.185 C 
ATOM     23  H5  UNL     1       4.896  14.869  16.279  1.00  0.00     0.166 HD
BRANCH  22  24
HETATM   24  N6  UNL     1       5.854  13.310  14.839  1.00  0.00    -0.377 N 
HETATM   25  C13 UNL     1       4.443  13.103  14.920  1.00  0.00     0.147 C 
ATOM     26  H6  UNL     1       6.478  12.555  14.557  1.00  0.00     0.160 HD
ENDBRANCH  22  24
BRANCH  22  27
HETATM   27  C14 UNL     1       7.645  15.023  14.530  1.00  0.00     0.448 C 
HETATM   28  F1  UNL     1       7.585  16.390  14.243  1.00  0.00    -0.163 F 
HETATM   29  F2  UNL     1       8.711  14.737  15.315  1.00  0.00    -0.163 F 
HETATM   30  F3  UNL     1       7.797  14.368  13.313  1.00  0.00    -0.163 F 
ENDBRANCH  22  27
ENDBRANCH  20  21
ENDBRANCH  19  20
ENDBRANCH  16  19
ENDBRANCH   7  13
BRANCH  10  31
HETATM   31  N8  UNL     1      12.979  22.069  18.764  1.00  0.00    -0.355 N 
ATOM     32  H8  UNL     1      12.604  23.016  18.805  1.00  0.00     0.166 HD
BRANCH  31  33
HETATM   33  C18 UNL     1      14.097  21.848  19.556  1.00  0.00     0.067 C 
BRANCH  33  34
HETATM   34  C19 UNL     1      14.292  22.893  20.621  1.00  0.00     0.083 C 
BRANCH  34  35
HETATM   35  C20 UNL     1      15.392  23.775  20.121  1.00  0.00    -0.051 A 
HETATM   36  C21 UNL     1      15.820  24.806  20.895  1.00  0.00     0.010 A 
HETATM   37  C22 UNL     1      16.846  25.608  20.417  1.00  0.00     0.040 A 
HETATM   38  C23 UNL     1      17.416  25.366  19.189  1.00  0.00     0.101 A 
HETATM   39  C25 UNL     1      16.945  24.309  18.447  1.00  0.00     0.102 A 
HETATM   40  C27 UNL     1      15.937  23.509  18.899  1.00  0.00     0.047 A 
BRANCH  38  41
HETATM   41  O1  UNL     1      18.432  26.193  18.760  1.00  0.00    -0.353 OA
HETATM   42  C24 UNL     1      18.281  27.220  17.825  1.00  0.00     0.210 C 
ENDBRANCH  38  41
BRANCH  39  43
HETATM   43  O2  UNL     1      17.517  24.056  17.198  1.00  0.00    -0.353 OA
HETATM   44  C26 UNL     1      18.712  23.291  17.101  1.00  0.00     0.210 C 
ENDBRANCH  39  43
ENDBRANCH  34  35
ENDBRANCH  33  34
ENDBRANCH  31  33
ENDBRANCH  10  31
BRANCH   1  45
HETATM   45  C3  UNL     1      16.121  21.439  15.481  1.00  0.00     0.117 C 
BRANCH  45  46
HETATM   46  C2  UNL     1      16.890  21.909  14.277  1.00  0.00     0.015 C 
HETATM   47  C1  UNL     1      16.478  23.260  13.800  1.00  0.00     0.006 C 
ENDBRANCH  45  46
ENDBRANCH   1  45
TORSDOF 14
ENDMDL
MODEL 3
REMARK VINA RESULT: -9.007861587      2.317      4.020
REMARK  14 active torsions:
REMARK  status: ('A' for Active; 'I' for Inactive)
REMARK    1  A    between atoms: C2_2  and  C3_3 
REMARK    2  A    between atoms: C3_3  and  N1_4 
REMARK    3  A    between atoms: C7_10  and  N3_11 
REMARK    4  A    between atoms: N4_14  and  C10_15 
REMARK    5  A    between atoms: C10_15  and  C11_16 
REMARK    6  A    between atoms: C11_16  and  N5_17 
REMARK    7  A    between atoms: C12_19  and  N6_20 
REMARK    8  A    between atoms: C12_19  and  C14_23 
REMARK    9  A    between atoms: C17_31  and  N8_32 
REMARK   10  A    between atoms: N8_32  and  C18_34 
REMARK   11  A    between atoms: C18_34  and  C19_35 
REMARK   12  A    between atoms: C19_35  and  C20_36 
REMARK   13  A    between atoms: C23_39  and  O1_40 
REMARK   14  A    between atoms: C25_42  and  O2_43 
ROOT
HETATM    1  N1  UNL     1      10.707  18.307  16.246  1.00  0.00    -0.408 N 
HETATM    2  C4  UNL     1      10.981  19.464  15.471  1.00  0.00     0.123 C 
HETATM    3  C5  UNL     1      12.445  19.824  15.619  1.00  0.00     0.078 C 
HETATM    4  C6  UNL     1      12.621  20.208  17.037  1.00  0.00     0.040 A 
HETATM    5  N2  UNL     1      13.259  21.308  17.446  1.00  0.00    -0.195 N 
ATOM      6  H2  UNL     1      13.663  21.941  16.755  1.00  0.00     0.184 HD
HETATM    7  C7  UNL     1      13.377  21.597  18.773  1.00  0.00     0.682 A 
HETATM    8  N7  UNL     1      12.835  20.741  19.658  1.00  0.00    -0.176 N 
ATOM      9  H7  UNL     1      12.935  20.975  20.646  1.00  0.00     0.186 HD
HETATM   10  C17 UNL     1      12.184  19.624  19.369  1.00  0.00     0.130 A 
HETATM   11  C28 UNL     1      12.083  19.365  17.978  1.00  0.00     0.027 A 
HETATM   12  C29 UNL     1      11.392  18.154  17.477  1.00  0.00     0.161 C 
ENDROOT
BRANCH   7  13
HETATM   13  N3  UNL     1      14.052  22.767  19.173  1.00  0.00    -0.211 N 
HETATM   14  C8  UNL     1      14.349  23.802  18.220  1.00  0.00     0.185 C 
HETATM   15  C9  UNL     1      14.632  25.124  18.866  1.00  0.00     0.079 C 
HETATM   16  N4  UNL     1      15.564  25.089  19.922  1.00  0.00    -0.386 N 
HETATM   17  C15 UNL     1      15.824  23.788  20.411  1.00  0.00     0.143 C 
HETATM   18  C16 UNL     1      14.502  23.028  20.542  1.00  0.00     0.161 C 
BRANCH  16  19
HETATM   19  C10 UNL     1      16.718  25.924  19.790  1.00  0.00     0.166 C 
BRANCH  19  20
HETATM   20  C11 UNL     1      17.877  25.260  19.069  1.00  0.00     0.082 C 
BRANCH  20  21
HETATM   21  N5  UNL     1      17.906  25.568  17.694  1.00  0.00    -0.351 N 
HETATM   22  C12 UNL     1      17.980  24.961  16.619  1.00  0.00     0.185 C 
ATOM     23  H5  UNL     1      17.849  26.576  17.543  1.00  0.00     0.166 HD
BRANCH  22  24
HETATM   24  N6  UNL     1      17.975  25.731  15.377  1.00  0.00    -0.377 N 
HETATM   25  C13 UNL     1      18.261  27.127  15.447  1.00  0.00     0.147 C 
ATOM     26  H6  UNL     1      17.772  25.282  14.485  1.00  0.00     0.160 HD
ENDBRANCH  22  24
BRANCH  22  27
HETATM   27  C14 UNL     1      18.078  23.496  16.491  1.00  0.00     0.448 C 
HETATM   28  F1  UNL     1      18.139  23.180  15.130  1.00  0.00    -0.163 F 
HETATM   29  F2  UNL     1      19.156  23.011  17.152  1.00  0.00    -0.163 F 
HETATM   30  F3  UNL     1      16.933  22.886  16.991  1.00  0.00    -0.163 F 
ENDBRANCH  22  27
ENDBRANCH  20  21
ENDBRANCH  19  20
ENDBRANCH  16  19
ENDBRANCH   7  13
BRANCH  10  31
HETATM   31  N8  UNL     1      11.660  18.781  20.145  1.00  0.00    -0.355 N 
ATOM     32  H8  UNL     1      12.055  17.842  20.090  1.00  0.00     0.166 HD
BRANCH  31  33
HETATM   33  C18 UNL     1      10.629  18.928  21.064  1.00  0.00     0.067 C 
BRANCH  33  34
HETATM   34  C19 UNL     1       9.662  20.023  20.707  1.00  0.00     0.083 C 
BRANCH  34  35
HETATM   35  C20 UNL     1       8.490  19.336  20.080  1.00  0.00    -0.051 A 
HETATM   36  C21 UNL     1       8.521  17.988  19.913  1.00  0.00     0.010 A 
HETATM   37  C22 UNL     1       7.422  17.370  19.336  1.00  0.00     0.040 A 
HETATM   38  C23 UNL     1       6.326  18.102  18.942  1.00  0.00     0.101 A 
HETATM   39  C25 UNL     1       6.347  19.463  19.135  1.00  0.00     0.102 A 
HETATM   40  C27 UNL     1       7.419  20.090  19.700  1.00  0.00     0.047 A 
BRANCH  38  41
HETATM   41  O1  UNL     1       5.260  17.439  18.374  1.00  0.00    -0.353 OA
HETATM   42  C24 UNL     1       5.287  16.810  17.127  1.00  0.00     0.210 C 
ENDBRANCH  38  41
BRANCH  39  43
HETATM   43  O2  UNL     1       5.239  20.216  18.738  1.00  0.00    -0.353 OA
HETATM   44  C26 UNL     1       4.095  20.300  19.577  1.00  0.00     0.210 C 
ENDBRANCH  39  43
ENDBRANCH  34  35
ENDBRANCH  33  34
ENDBRANCH  31  33
ENDBRANCH  10  31
BRANCH   1  45
HETATM   45  C3  UNL     1       9.314  17.924  16.297  1.00  0.00     0.117 C 
BRANCH  45  46
HETATM   46  C2  UNL     1       9.216  16.462  15.956  1.00  0.00     0.015 C 
HETATM   47  C1  UNL     1       9.472  16.171  14.517  1.00  0.00     0.006 C 
ENDBRANCH  45  46
ENDBRANCH   1  45
TORSDOF 14
ENDMDL
MODEL 4
REMARK VINA RESULT: -8.992520496      5.666     11.894
REMARK  14 active torsions:
REMARK  status: ('A' for Active; 'I' for Inactive)
REMARK    1  A    between atoms: C2_2  and  C3_3 
REMARK    2  A    between atoms: C3_3  and  N1_4 
REMARK    3  A    between atoms: C7_10  and  N3_11 
REMARK    4  A    between atoms: N4_14  and  C10_15 
REMARK    5  A    between atoms: C10_15  and  C11_16 
REMARK    6  A    between atoms: C11_16  and  N5_17 
REMARK    7  A    between atoms: C12_19  and  N6_20 
REMARK    8  A    between atoms: C12_19  and  C14_23 
REMARK    9  A    between atoms: C17_31  and  N8_32 
REMARK   10  A    between atoms: N8_32  and  C18_34 
REMARK   11  A    between atoms: C18_34  and  C19_35 
REMARK   12  A    between atoms: C19_35  and  C20_36 
REMARK   13  A    between atoms: C23_39  and  O1_40 
REMARK   14  A    between atoms: C25_42  and  O2_43 
ROOT
HETATM    1  N1  UNL     1      15.259  22.918  19.439  1.00  0.00    -0.408 N 
HETATM    2  C4  UNL     1      13.998  23.346  19.931  1.00  0.00     0.123 C 
HETATM    3  C5  UNL     1      13.262  22.157  20.515  1.00  0.00     0.078 C 
HETATM    4  C6  UNL     1      12.992  21.255  19.373  1.00  0.00     0.040 A 
HETATM    5  N2  UNL     1      11.806  20.695  19.121  1.00  0.00    -0.195 N 
ATOM      6  H2  UNL     1      11.019  20.883  19.742  1.00  0.00     0.184 HD
HETATM    7  C7  UNL     1      11.633  19.876  18.045  1.00  0.00     0.682 A 
HETATM    8  N7  UNL     1      12.692  19.647  17.247  1.00  0.00    -0.176 N 
ATOM      9  H7  UNL     1      12.542  19.031  16.447  1.00  0.00     0.186 HD
HETATM   10  C17 UNL     1      13.910  20.145  17.399  1.00  0.00     0.130 A 
HETATM   11  C28 UNL     1      14.043  20.992  18.530  1.00  0.00     0.027 A 
HETATM   12  C29 UNL     1      15.340  21.629  18.855  1.00  0.00     0.161 C 
ENDROOT
BRANCH   7  13
HETATM   13  N3  UNL     1      10.369  19.304  17.802  1.00  0.00    -0.211 N 
HETATM   14  C8  UNL     1       9.443  19.092  18.881  1.00  0.00     0.185 C 
HETATM   15  C9  UNL     1       8.030  18.924  18.410  1.00  0.00     0.079 C 
HETATM   16  N4  UNL     1       7.852  17.995  17.366  1.00  0.00    -0.386 N 
HETATM   17  C15 UNL     1       9.053  17.628  16.718  1.00  0.00     0.143 C 
HETATM   18  C16 UNL     1       9.898  18.881  16.480  1.00  0.00     0.161 C 
BRANCH  16  19
HETATM   19  C10 UNL     1       6.946  16.916  17.612  1.00  0.00     0.166 C 
BRANCH  19  20
HETATM   20  C11 UNL     1       7.572  15.541  17.453  1.00  0.00     0.082 C 
BRANCH  20  21
HETATM   21  N5  UNL     1       6.859  14.725  16.553  1.00  0.00    -0.351 N 
HETATM   22  C12 UNL     1       6.907  14.420  15.355  1.00  0.00     0.185 C 
ATOM     23  H5  UNL     1       6.086  14.251  17.021  1.00  0.00     0.166 HD
BRANCH  22  24
HETATM   24  N6  UNL     1       5.913  13.488  14.829  1.00  0.00    -0.377 N 
HETATM   25  C13 UNL     1       4.724  13.269  15.587  1.00  0.00     0.147 C 
ATOM     26  H6  UNL     1       6.065  13.007  13.943  1.00  0.00     0.160 HD
ENDBRANCH  22  24
BRANCH  22  27
HETATM   27  C14 UNL     1       7.904  14.935  14.401  1.00  0.00     0.448 C 
HETATM   28  F1  UNL     1       7.627  16.284  14.164  1.00  0.00    -0.163 F 
HETATM   29  F2  UNL     1       9.166  14.771  14.864  1.00  0.00    -0.163 F 
HETATM   30  F3  UNL     1       7.789  14.284  13.177  1.00  0.00    -0.163 F 
ENDBRANCH  22  27
ENDBRANCH  20  21
ENDBRANCH  19  20
ENDBRANCH  16  19
ENDBRANCH   7  13
BRANCH  10  31
HETATM   31  N8  UNL     1      14.940  19.967  16.696  1.00  0.00    -0.355 N 
ATOM     32  H8  UNL     1      15.712  19.502  17.174  1.00  0.00     0.166 HD
BRANCH  31  33
HETATM   33  C18 UNL     1      15.190  20.303  15.373  1.00  0.00     0.067 C 
BRANCH  33  34
HETATM   34  C19 UNL     1      14.512  21.575  14.940  1.00  0.00     0.083 C 
BRANCH  34  35
HETATM   35  C20 UNL     1      15.614  22.494  14.518  1.00  0.00    -0.051 A 
HETATM   36  C21 UNL     1      15.641  22.958  13.242  1.00  0.00     0.010 A 
HETATM   37  C22 UNL     1      16.666  23.816  12.874  1.00  0.00     0.040 A 
HETATM   38  C23 UNL     1      17.634  24.189  13.778  1.00  0.00     0.101 A 
HETATM   39  C25 UNL     1      17.558  23.691  15.057  1.00  0.00     0.102 A 
HETATM   40  C27 UNL     1      16.557  22.846  15.439  1.00  0.00     0.047 A 
BRANCH  38  41
HETATM   41  O1  UNL     1      18.631  25.043  13.361  1.00  0.00    -0.353 OA
HETATM   42  C24 UNL     1      18.454  26.403  13.092  1.00  0.00     0.210 C 
ENDBRANCH  38  41
BRANCH  39  43
HETATM   43  O2  UNL     1      18.536  24.063  15.982  1.00  0.00    -0.353 OA
HETATM   44  C26 UNL     1      18.422  25.294  16.685  1.00  0.00     0.210 C 
ENDBRANCH  39  43
ENDBRANCH  34  35
ENDBRANCH  33  34
ENDBRANCH  31  33
ENDBRANCH  10  31
BRANCH   1  45
HETATM   45  C3  UNL     1      16.016  23.930  18.740  1.00  0.00     0.117 C 
BRANCH  45  46
HETATM   46  C2  UNL     1      15.757  25.254  19.405  1.00  0.00     0.015 C 
HETATM   47  C1  UNL     1      16.839  25.669  20.342  1.00  0.00     0.006 C 
ENDBRANCH  45  46
ENDBRANCH   1  45
TORSDOF 14
ENDMDL
MODEL 5
REMARK VINA RESULT: -8.910144168      2.479      4.612
REMARK  14 active torsions:
REMARK  status: ('A' for Active; 'I' for Inactive)
REMARK    1  A    between atoms: C2_2  and  C3_3 
REMARK    2  A    between atoms: C3_3  and  N1_4 
REMARK    3  A    between atoms: C7_10  and  N3_11 
REMARK    4  A    between atoms: N4_14  and  C10_15 
REMARK    5  A    between atoms: C10_15  and  C11_16 
REMARK    6  A    between atoms: C11_16  and  N5_17 
REMARK    7  A    between atoms: C12_19  and  N6_20 
REMARK    8  A    between atoms: C12_19  and  C14_23 
REMARK    9  A    between atoms: C17_31  and  N8_32 
REMARK   10  A    between atoms: N8_32  and  C18_34 
REMARK   11  A    between atoms: C18_34  and  C19_35 
REMARK   12  A    between atoms: C19_35  and  C20_36 
REMARK   13  A    between atoms: C23_39  and  O1_40 
REMARK   14  A    between atoms: C25_42  and  O2_43 
ROOT
HETATM    1  N1  UNL     1       8.454  18.995  19.808  1.00  0.00    -0.408 N 
HETATM    2  C4  UNL     1       9.403  19.591  20.679  1.00  0.00     0.123 C 
HETATM    3  C5  UNL     1       9.720  20.988  20.187  1.00  0.00     0.078 C 
HETATM    4  C6  UNL     1      10.392  20.809  18.880  1.00  0.00     0.040 A 
HETATM    5  N2  UNL     1      11.525  21.422  18.526  1.00  0.00    -0.195 N 
ATOM      6  H2  UNL     1      11.975  22.064  19.179  1.00  0.00     0.184 HD
HETATM    7  C7  UNL     1      12.087  21.203  17.304  1.00  0.00     0.682 A 
HETATM    8  N7  UNL     1      11.467  20.352  16.465  1.00  0.00    -0.176 N 
ATOM      9  H7  UNL     1      11.904  20.202  15.555  1.00  0.00     0.186 HD
HETATM   10  C17 UNL     1      10.345  19.692  16.708  1.00  0.00     0.130 A 
HETATM   11  C28 UNL     1       9.797  19.949  17.991  1.00  0.00     0.027 A 
HETATM   12  C29 UNL     1       8.539  19.298  18.426  1.00  0.00     0.161 C 
ENDROOT
BRANCH   7  13
HETATM   13  N3  UNL     1      13.284  21.861  16.960  1.00  0.00    -0.211 N 
HETATM   14  C8  UNL     1      14.162  21.310  15.964  1.00  0.00     0.185 C 
HETATM   15  C9  UNL     1      15.110  22.323  15.399  1.00  0.00     0.079 C 
HETATM   16  N4  UNL     1      15.804  23.093  16.353  1.00  0.00    -0.386 N 
HETATM   17  C15 UNL     1      15.257  23.018  17.654  1.00  0.00     0.143 C 
HETATM   18  C16 UNL     1      13.733  23.118  17.565  1.00  0.00     0.161 C 
BRANCH  16  19
HETATM   19  C10 UNL     1      17.233  23.053  16.296  1.00  0.00     0.166 C 
BRANCH  19  20
HETATM   20  C11 UNL     1      17.905  23.217  17.648  1.00  0.00     0.082 C 
BRANCH  20  21
HETATM   21  N5  UNL     1      18.337  24.538  17.879  1.00  0.00    -0.351 N 
HETATM   22  C12 UNL     1      18.069  25.470  18.646  1.00  0.00     0.185 C 
ATOM     23  H5  UNL     1      19.081  24.798  17.231  1.00  0.00     0.166 HD
BRANCH  22  24
HETATM   24  N6  UNL     1      18.811  26.721  18.516  1.00  0.00    -0.377 N 
HETATM   25  C13 UNL     1      18.494  27.584  17.424  1.00  0.00     0.147 C 
ATOM     26  H6  UNL     1      19.537  26.971  19.187  1.00  0.00     0.160 HD
ENDBRANCH  22  24
BRANCH  22  27
HETATM   27  C14 UNL     1      17.039  25.417  19.698  1.00  0.00     0.448 C 
HETATM   28  F1  UNL     1      15.798  25.680  19.109  1.00  0.00    -0.163 F 
HETATM   29  F2  UNL     1      17.034  24.218  20.329  1.00  0.00    -0.163 F 
HETATM   30  F3  UNL     1      17.252  26.417  20.641  1.00  0.00    -0.163 F 
ENDBRANCH  22  27
ENDBRANCH  20  21
ENDBRANCH  19  20
ENDBRANCH  16  19
ENDBRANCH   7  13
BRANCH  10  31
HETATM   31  N8  UNL     1       9.713  18.890  15.968  1.00  0.00    -0.355 N 
ATOM     32  H8  UNL     1       8.964  19.311  15.419  1.00  0.00     0.166 HD
BRANCH  31  33
HETATM   33  C18 UNL     1       9.877  17.524  15.784  1.00  0.00     0.067 C 
BRANCH  33  34
HETATM   34  C19 UNL     1       9.297  17.021  14.490  1.00  0.00     0.083 C 
BRANCH  34  35
HETATM   35  C20 UNL     1       8.132  16.167  14.875  1.00  0.00    -0.051 A 
HETATM   36  C21 UNL     1       8.281  14.817  14.914  1.00  0.00     0.010 A 
HETATM   37  C22 UNL     1       7.191  14.044  15.281  1.00  0.00     0.040 A 
HETATM   38  C23 UNL     1       5.986  14.627  15.599  1.00  0.00     0.101 A 
HETATM   39  C25 UNL     1       5.890  15.997  15.545  1.00  0.00     0.102 A 
HETATM   40  C27 UNL     1       6.952  16.776  15.186  1.00  0.00     0.047 A 
BRANCH  38  41
HETATM   41  O1  UNL     1       4.934  13.813  15.958  1.00  0.00    -0.353 OA
HETATM   42  C24 UNL     1       4.127  13.112  15.058  1.00  0.00     0.210 C 
ENDBRANCH  38  41
BRANCH  39  43
HETATM   43  O2  UNL     1       4.672  16.600  15.866  1.00  0.00    -0.353 OA
HETATM   44  C26 UNL     1       4.356  16.895  17.220  1.00  0.00     0.210 C 
ENDBRANCH  39  43
ENDBRANCH  34  35
ENDBRANCH  33  34
ENDBRANCH  31  33
ENDBRANCH  10  31
BRANCH   1  45
HETATM   45  C3  UNL     1       8.155  17.609  20.088  1.00  0.00     0.117 C 
BRANCH  45  46
HETATM   46  C2  UNL     1       7.613  16.982  18.833  1.00  0.00     0.015 C 
HETATM   47  C1  UNL     1       8.132  15.607  18.586  1.00  0.00     0.006 C 
ENDBRANCH  45  46
ENDBRANCH   1  45
TORSDOF 14
ENDMDL
