MODEL 1
REMARK VINA RESULT: -8.831993884      0.000      0.000
REMARK  13 active torsions:
REMARK  status: ('A' for Active; 'I' for Inactive)
REMARK    1  A    between atoms: O1_2  and  C2_3 
REMARK    2  A    between atoms: C2_3  and  C3_4 
REMARK    3  A    between atoms: C3_4  and  O2_5 
REMARK    4  A    between atoms: O2_5  and  C4_6 
REMARK    5  A    between atoms: C4_6  and  N1_7 
REMARK    6  A    between atoms: C4_6  and  C5_11 
REMARK    7  A    between atoms: C5_11  and  N2_12 
REMARK       I    between atoms: N2_12  and  C6_14 
REMARK    8  A    between atoms: C6_14  and  C7_16 
REMARK    9  A    between atoms: C13_25  and  C14_26 
REMARK   10  A    between atoms: C14_26  and  N5_27 
REMARK   11  A    between atoms: N5_27  and  C16_29 
REMARK   12  A    between atoms: C16_29  and  C17_30 
REMARK       I    between atoms: C17_30  and  N6_32 
REMARK   13  A    between atoms: N6_32  and  C18_33 
ROOT
HETATM    1  C7  UNL     1       9.255  17.575  17.319  1.00  0.00     0.056 A 
HETATM    2  C8  UNL     1       9.121  18.134  18.612  1.00  0.00     0.051 A 
HETATM    3  C9  UNL     1       9.620  19.353  18.915  1.00  0.00     0.063 A 
HETATM    4  C10 UNL     1      10.283  20.097  17.989  1.00  0.00     0.019 A 
HETATM    5  C11 UNL     1      10.705  21.290  18.548  1.00  0.00     0.121 A 
HETATM    6  N3  UNL     1      10.298  21.268  19.808  1.00  0.00    -0.309 N 
ATOM      7  H3  UNL     1      10.455  22.010  20.489  1.00  0.00     0.186 HD
HETATM    8  N4  UNL     1       9.647  20.123  20.052  1.00  0.00    -0.296 N 
HETATM    9  C12 UNL     1       9.078  19.629  21.279  1.00  0.00     0.178 C 
HETATM   10  C13 UNL     1      10.418  19.517  16.721  1.00  0.00    -0.004 A 
HETATM   11  C26 UNL     1       9.911  18.291  16.402  1.00  0.00     0.058 A 
HETATM   12 CL2  UNL     1      10.088  17.678  14.758  1.00  0.00    -0.083 Cl
ENDROOT
BRANCH  10  13
HETATM   13  C14 UNL     1      11.125  20.437  15.720  1.00  0.00     0.158 C 
BRANCH  13  14
HETATM   14  N5  UNL     1      12.474  20.166  15.833  1.00  0.00    -0.403 N 
HETATM   15  C15 UNL     1      13.046  20.803  14.494  1.00  0.00     0.144 C 
BRANCH  14  16
HETATM   16  C16 UNL     1      13.385  19.317  16.272  1.00  0.00     0.236 C 
BRANCH  16  17
HETATM   17  C17 UNL     1      13.850  19.643  17.753  1.00  0.00     0.311 C 
HETATM   18  O4  UNL     1      13.484  18.710  18.560  1.00  0.00    -0.255 OA
HETATM   19  N6  UNL     1      14.519  20.702  18.015  1.00  0.00    -0.350 NA
BRANCH  19  20
HETATM   20  C18 UNL     1      15.132  21.720  18.259  1.00  0.00     0.190 A 
HETATM   21  N7  UNL     1      16.039  22.159  17.294  1.00  0.00    -0.334 N 
HETATM   22  C19 UNL     1      16.667  23.318  17.372  1.00  0.00     0.015 A 
ATOM     23  H7  UNL     1      16.226  21.558  16.492  1.00  0.00     0.168 HD
HETATM   24  C20 UNL     1      17.573  23.728  16.250  1.00  0.00     0.069 C 
HETATM   25  C21 UNL     1      16.490  24.197  18.409  1.00  0.00    -0.017 A 
HETATM   26  C22 UNL     1      17.206  25.491  18.447  1.00  0.00     0.052 C 
HETATM   27  C23 UNL     1      15.582  23.789  19.402  1.00  0.00     0.052 A 
HETATM   28 CL1  UNL     1      15.298  24.892  20.707  1.00  0.00    -0.083 Cl
HETATM   29  C24 UNL     1      14.936  22.574  19.306  1.00  0.00     0.019 A 
HETATM   30  C25 UNL     1      14.041  22.160  20.436  1.00  0.00     0.055 C 
ENDBRANCH  19  20
ENDBRANCH  16  17
ENDBRANCH  14  16
ENDBRANCH  13  14
ENDBRANCH  10  13
BRANCH   1  31
HETATM   31  C6  UNL     1       8.334  16.398  17.117  1.00  0.00     0.253 C 
HETATM   32  N2  UNL     1       7.432  16.617  16.055  1.00  0.00    -0.353 N 
ATOM     33  H2  UNL     1       7.593  17.501  15.571  1.00  0.00     0.162 HD
HETATM   34  O3  UNL     1       8.429  15.447  17.860  1.00  0.00    -0.268 OA
BRANCH  32  35
HETATM   35  C5  UNL     1       6.341  15.872  15.507  1.00  0.00     0.184 C 
BRANCH  35  36
HETATM   36  C4  UNL     1       5.166  16.151  16.486  1.00  0.00     0.336 C 
BRANCH  36  37
HETATM   37  O2  UNL     1       5.092  17.378  17.035  1.00  0.00    -0.356 OA
BRANCH  37  38
HETATM   38  C3  UNL     1       4.913  17.192  18.458  1.00  0.00     0.196 C 
BRANCH  38  39
HETATM   39  C2  UNL     1       5.510  18.272  19.272  1.00  0.00     0.193 C 
BRANCH  39  40
HETATM   40  O1  UNL     1       5.843  17.803  20.545  1.00  0.00    -0.394 OA
HETATM   41  C1  UNL     1       5.227  18.545  21.550  1.00  0.00     0.201 C 
ENDBRANCH  39  40
ENDBRANCH  38  39
ENDBRANCH  37  38
ENDBRANCH  36  37
BRANCH  36  42
HETATM   42  N1  UNL     1       5.219  15.173  17.548  1.00  0.00    -0.051 N 
ATOM     43  H13 UNL     1       5.478  14.245  17.213  1.00  0.00     0.277 HD
ATOM     44  H12 UNL     1       6.010  15.321  18.176  1.00  0.00     0.277 HD
ATOM     45  H11 UNL     1       4.325  15.177  18.038  1.00  0.00     0.277 HD
ENDBRANCH  36  42
ENDBRANCH  35  36
ENDBRANCH  32  35
ENDBRANCH   1  31
TORSDOF 13
ENDMDL
MODEL 2
REMARK VINA RESULT: -8.791389617      0.995      1.648
REMARK  13 active torsions:
REMARK  status: ('A' for Active; 'I' for Inactive)
REMARK    1  A    between atoms: O1_2  and  C2_3 
REMARK    2  A    between atoms: C2_3  and  C3_4 
REMARK    3  A    between atoms: C3_4  and  O2_5 
REMARK    4  A    between atoms: O2_5  and  C4_6 
REMARK    5  A    between atoms: C4_6  and  N1_7 
REMARK    6  A    between atoms: C4_6  and  C5_11 
REMARK    7  A    between atoms: C5_11  and  N2_12 
REMARK       I    between atoms: N2_12  and  C6_14 
REMARK    8  A    between atoms: C6_14  and  C7_16 
REMARK    9  A    between atoms: C13_25  and  C14_26 
REMARK   10  A    between atoms: C14_26  and  N5_27 
REMARK   11  A    between atoms: N5_27  and  C16_29 
REMARK   12  A    between atoms: C16_29  and  C17_30 
REMARK       I    between atoms: C17_30  and  N6_32 
REMARK   13  A    between atoms: N6_32  and  C18_33 
ROOT
HETATM    1  C7  UNL     1       9.072  17.498  17.355  1.00  0.00     0.056 A 
HETATM    2  C8  UNL     1       8.923  18.035  18.655  1.00  0.00     0.051 A 
HETATM    3  C9  UNL     1       9.422  19.247  18.985  1.00  0.00     0.063 A 
HETATM    4  C10 UNL     1      10.100  20.004  18.080  1.00  0.00     0.019 A 
HETATM    5  C11 UNL     1      10.519  21.186  18.664  1.00  0.00     0.121 A 
HETATM    6  N3  UNL     1      10.096  21.143  19.918  1.00  0.00    -0.309 N 
ATOM      7  H3  UNL     1      10.248  21.874  20.614  1.00  0.00     0.186 HD
HETATM    8  N4  UNL     1       9.438  19.997  20.135  1.00  0.00    -0.296 N 
HETATM    9  C12 UNL     1       8.853  19.485  21.347  1.00  0.00     0.178 C 
HETATM   10  C13 UNL     1      10.248  19.445  16.804  1.00  0.00    -0.004 A 
HETATM   11  C26 UNL     1       9.741  18.226  16.458  1.00  0.00     0.058 A 
HETATM   12 CL2  UNL     1       9.936  17.641  14.806  1.00  0.00    -0.083 Cl
ENDROOT
BRANCH  10  13
HETATM   13  C14 UNL     1      10.971  20.379  15.828  1.00  0.00     0.158 C 
BRANCH  13  14
HETATM   14  N5  UNL     1      12.313  20.074  15.924  1.00  0.00    -0.403 N 
HETATM   15  C15 UNL     1      12.879  20.663  14.560  1.00  0.00     0.144 C 
BRANCH  14  16
HETATM   16  C16 UNL     1      13.209  19.211  16.368  1.00  0.00     0.236 C 
BRANCH  16  17
HETATM   17  C17 UNL     1      13.629  19.496  17.870  1.00  0.00     0.311 C 
HETATM   18  O4  UNL     1      13.397  18.469  18.610  1.00  0.00    -0.255 OA
HETATM   19  N6  UNL     1      14.147  20.617  18.208  1.00  0.00    -0.350 NA
BRANCH  19  20
HETATM   20  C18 UNL     1      14.614  21.690  18.525  1.00  0.00     0.190 A 
HETATM   21  N7  UNL     1      14.375  22.126  19.828  1.00  0.00    -0.334 N 
HETATM   22  C19 UNL     1      14.936  23.205  20.341  1.00  0.00     0.015 A 
ATOM     23  H7  UNL     1      13.736  21.586  20.412  1.00  0.00     0.168 HD
HETATM   24  C20 UNL     1      14.665  23.552  21.774  1.00  0.00     0.069 C 
HETATM   25  C21 UNL     1      15.805  24.002  19.640  1.00  0.00    -0.017 A 
HETATM   26  C22 UNL     1      16.419  25.195  20.261  1.00  0.00     0.052 C 
HETATM   27  C23 UNL     1      16.070  23.595  18.320  1.00  0.00     0.052 A 
HETATM   28 CL1  UNL     1      17.197  24.551  17.416  1.00  0.00    -0.083 Cl
HETATM   29  C24 UNL     1      15.474  22.465  17.801  1.00  0.00     0.019 A 
HETATM   30  C25 UNL     1      15.735  22.128  16.362  1.00  0.00     0.055 C 
ENDBRANCH  19  20
ENDBRANCH  16  17
ENDBRANCH  14  16
ENDBRANCH  13  14
ENDBRANCH  10  13
BRANCH   1  31
HETATM   31  C6  UNL     1       8.149  16.328  17.122  1.00  0.00     0.253 C 
HETATM   32  N2  UNL     1       7.215  16.595  16.098  1.00  0.00    -0.353 N 
ATOM     33  H2  UNL     1       7.359  17.502  15.655  1.00  0.00     0.162 HD
HETATM   34  O3  UNL     1       8.269  15.341  17.813  1.00  0.00    -0.268 OA
BRANCH  32  35
HETATM   35  C5  UNL     1       6.111  15.873  15.546  1.00  0.00     0.184 C 
BRANCH  35  36
HETATM   36  C4  UNL     1       4.948  16.146  16.541  1.00  0.00     0.336 C 
BRANCH  36  37
HETATM   37  O2  UNL     1       4.873  17.374  17.088  1.00  0.00    -0.356 OA
BRANCH  37  38
HETATM   38  C3  UNL     1       4.712  17.191  18.514  1.00  0.00     0.196 C 
BRANCH  38  39
HETATM   39  C2  UNL     1       5.350  18.254  19.319  1.00  0.00     0.193 C 
BRANCH  39  40
HETATM   40  O1  UNL     1       5.679  17.779  20.591  1.00  0.00    -0.394 OA
HETATM   41  C1  UNL     1       5.080  18.532  21.598  1.00  0.00     0.201 C 
ENDBRANCH  39  40
ENDBRANCH  38  39
ENDBRANCH  37  38
ENDBRANCH  36  37
BRANCH  36  42
HETATM   42  N1  UNL     1       5.021  15.172  17.604  1.00  0.00    -0.051 N 
ATOM     43  H13 UNL     1       5.651  15.458  18.354  1.00  0.00     0.277 HD
ATOM     44  H12 UNL     1       4.163  15.127  18.153  1.00  0.00     0.277 HD
ATOM     45  H11 UNL     1       5.276  14.270  17.202  1.00  0.00     0.277 HD
ENDBRANCH  36  42
ENDBRANCH  35  36
ENDBRANCH  32  35
ENDBRANCH   1  31
TORSDOF 13
ENDMDL
MODEL 3
REMARK VINA RESULT: -8.733951951      3.571     10.460
REMARK  13 active torsions:
REMARK  status: ('A' for Active; 'I' for Inactive)
REMARK    1  A    between atoms: O1_2  and  C2_3 
REMARK    2  A    between atoms: C2_3  and  C3_4 
REMARK    3  A    between atoms: C3_4  and  O2_5 
REMARK    4  A    between atoms: O2_5  and  C4_6 
REMARK    5  A    between atoms: C4_6  and  N1_7 
REMARK    6  A    between atoms: C4_6  and  C5_11 
REMARK    7  A    between atoms: C5_11  and  N2_12 
REMARK       I    between atoms: N2_12  and  C6_14 
REMARK    8  A    between atoms: C6_14  and  C7_16 
REMARK    9  A    between atoms: C13_25  and  C14_26 
REMARK   10  A    between atoms: C14_26  and  N5_27 
REMARK   11  A    between atoms: N5_27  and  C16_29 
REMARK   12  A    between atoms: C16_29  and  C17_30 
REMARK       I    between atoms: C17_30  and  N6_32 
REMARK   13  A    between atoms: N6_32  and  C18_33 
ROOT
HETATM    1  C7  UNL     1      16.454  23.167  16.915  1.00  0.00     0.056 A 
HETATM    2  C8  UNL     1      16.687  23.928  18.084  1.00  0.00     0.051 A 
HETATM    3  C9  UNL     1      15.960  23.745  19.208  1.00  0.00     0.063 A 
HETATM    4  C10 UNL     1      14.963  22.822  19.264  1.00  0.00     0.019 A 
HETATM    5  C11 UNL     1      14.364  22.840  20.511  1.00  0.00     0.121 A 
HETATM    6  N3  UNL     1      14.998  23.771  21.207  1.00  0.00    -0.309 N 
ATOM      7  H3  UNL     1      14.789  24.027  22.172  1.00  0.00     0.186 HD
HETATM    8  N4  UNL     1      15.956  24.326  20.453  1.00  0.00    -0.296 N 
HETATM    9  C12 UNL     1      16.857  25.408  20.754  1.00  0.00     0.178 C 
HETATM   10  C13 UNL     1      14.740  22.090  18.090  1.00  0.00    -0.004 A 
HETATM   11  C26 UNL     1      15.473  22.262  16.952  1.00  0.00     0.058 A 
HETATM   12 CL2  UNL     1      15.147  21.246  15.547  1.00  0.00    -0.083 Cl
ENDROOT
BRANCH  10  13
HETATM   13  C14 UNL     1      13.642  21.034  18.250  1.00  0.00     0.158 C 
BRANCH  13  14
HETATM   14  N5  UNL     1      12.464  21.641  17.863  1.00  0.00    -0.403 N 
HETATM   15  C15 UNL     1      11.522  21.345  19.109  1.00  0.00     0.144 C 
BRANCH  14  16
HETATM   16  C16 UNL     1      11.673  21.948  16.851  1.00  0.00     0.236 C 
BRANCH  16  17
HETATM   17  C17 UNL     1      11.338  20.691  15.944  1.00  0.00     0.311 C 
HETATM   18  O4  UNL     1      12.016  20.725  14.851  1.00  0.00    -0.255 OA
HETATM   19  N6  UNL     1      10.511  19.796  16.338  1.00  0.00    -0.350 NA
BRANCH  19  20
HETATM   20  C18 UNL     1       9.708  18.966  16.707  1.00  0.00     0.190 A 
HETATM   21  N7  UNL     1       8.814  19.351  17.707  1.00  0.00    -0.334 N 
HETATM   22  C19 UNL     1       7.807  18.594  18.102  1.00  0.00     0.015 A 
ATOM     23  H7  UNL     1       8.944  20.259  18.152  1.00  0.00     0.168 HD
HETATM   24  C20 UNL     1       6.862  19.127  19.137  1.00  0.00     0.069 C 
HETATM   25  C21 UNL     1       7.547  17.357  17.571  1.00  0.00    -0.017 A 
HETATM   26  C22 UNL     1       6.399  16.550  18.037  1.00  0.00     0.052 C 
HETATM   27  C23 UNL     1       8.429  16.933  16.561  1.00  0.00     0.052 A 
HETATM   28 CL1  UNL     1       8.108  15.394  15.834  1.00  0.00    -0.083 Cl
HETATM   29  C24 UNL     1       9.476  17.737  16.161  1.00  0.00     0.019 A 
HETATM   30  C25 UNL     1      10.428  17.196  15.135  1.00  0.00     0.055 C 
ENDBRANCH  19  20
ENDBRANCH  16  17
ENDBRANCH  14  16
ENDBRANCH  13  14
ENDBRANCH  10  13
BRANCH   1  31
HETATM   31  C6  UNL     1      17.590  23.288  15.929  1.00  0.00     0.253 C 
HETATM   32  N2  UNL     1      17.132  23.653  14.646  1.00  0.00    -0.353 N 
ATOM     33  H2  UNL     1      16.128  23.829  14.617  1.00  0.00     0.162 HD
HETATM   34  O3  UNL     1      18.716  23.044  16.302  1.00  0.00    -0.268 OA
BRANCH  32  35
HETATM   35  C5  UNL     1      17.766  23.831  13.377  1.00  0.00     0.184 C 
BRANCH  35  36
HETATM   36  C4  UNL     1      17.963  25.370  13.268  1.00  0.00     0.336 C 
BRANCH  36  37
HETATM   37  O2  UNL     1      18.604  25.988  14.277  1.00  0.00    -0.356 OA
BRANCH  37  38
HETATM   38  C3  UNL     1      18.015  27.302  14.409  1.00  0.00     0.196 C 
BRANCH  38  39
HETATM   39  C2  UNL     1      18.409  28.003  15.648  1.00  0.00     0.193 C 
BRANCH  39  40
HETATM   40  O1  UNL     1      17.667  27.538  16.737  1.00  0.00    -0.394 OA
HETATM   41  C1  UNL     1      18.485  27.147  17.793  1.00  0.00     0.201 C 
ENDBRANCH  39  40
ENDBRANCH  38  39
ENDBRANCH  37  38
ENDBRANCH  36  37
BRANCH  36  42
HETATM   42  N1  UNL     1      16.666  25.983  13.101  1.00  0.00    -0.051 N 
ATOM     43  H13 UNL     1      15.901  25.324  13.247  1.00  0.00     0.277 HD
ATOM     44  H12 UNL     1      16.440  26.629  13.857  1.00  0.00     0.277 HD
ATOM     45  H11 UNL     1      16.631  26.426  12.184  1.00  0.00     0.277 HD
ENDBRANCH  36  42
ENDBRANCH  35  36
ENDBRANCH  32  35
ENDBRANCH   1  31
TORSDOF 13
ENDMDL
MODEL 4
REMARK VINA RESULT: -8.656504824      2.949     10.504
REMARK  13 active torsions:
REMARK  status: ('A' for Active; 'I' for Inactive)
REMARK    1  A    between atoms: O1_2  and  C2_3 
REMARK    2  A    between atoms: C2_3  and  C3_4 
REMARK    3  A    between atoms: C3_4  and  O2_5 
REMARK    4  A    between atoms: O2_5  and  C4_6 
REMARK    5  A    between atoms: C4_6  and  N1_7 
REMARK    6  A    between atoms: C4_6  and  C5_11 
REMARK    7  A    between atoms: C5_11  and  N2_12 
REMARK       I    between atoms: N2_12  and  C6_14 
REMARK    8  A    between atoms: C6_14  and  C7_16 
REMARK    9  A    between atoms: C13_25  and  C14_26 
REMARK   10  A    between atoms: C14_26  and  N5_27 
REMARK   11  A    between atoms: N5_27  and  C16_29 
REMARK   12  A    between atoms: C16_29  and  C17_30 
REMARK       I    between atoms: C17_30  and  N6_32 
REMARK   13  A    between atoms: N6_32  and  C18_33 
ROOT
HETATM    1  C7  UNL     1      13.795  22.032  18.297  1.00  0.00     0.056 A 
HETATM    2  C8  UNL     1      14.728  21.972  17.236  1.00  0.00     0.051 A 
HETATM    3  C9  UNL     1      14.403  21.451  16.032  1.00  0.00     0.063 A 
HETATM    4  C10 UNL     1      13.161  20.953  15.788  1.00  0.00     0.019 A 
HETATM    5  C11 UNL     1      13.087  20.467  14.495  1.00  0.00     0.121 A 
HETATM    6  N3  UNL     1      14.280  20.672  13.959  1.00  0.00    -0.309 N 
ATOM      7  H3  UNL     1      14.547  20.421  13.006  1.00  0.00     0.186 HD
HETATM    8  N4  UNL     1      15.084  21.259  14.855  1.00  0.00    -0.296 N 
HETATM    9  C12 UNL     1      16.474  21.620  14.750  1.00  0.00     0.178 C 
HETATM   10  C13 UNL     1      12.258  21.009  16.858  1.00  0.00    -0.004 A 
HETATM   11  C26 UNL     1      12.574  21.539  18.075  1.00  0.00     0.058 A 
HETATM   12 CL2  UNL     1      11.343  21.613  19.336  1.00  0.00    -0.083 Cl
ENDROOT
BRANCH  10  13
HETATM   13  C14 UNL     1      10.868  20.481  16.488  1.00  0.00     0.158 C 
BRANCH  13  14
HETATM   14  N5  UNL     1      10.732  19.268  17.132  1.00  0.00    -0.403 N 
HETATM   15  C15 UNL     1      10.835  18.244  15.921  1.00  0.00     0.144 C 
BRANCH  14  16
HETATM   16  C16 UNL     1      10.166  18.619  18.133  1.00  0.00     0.236 C 
BRANCH  16  17
HETATM   17  C17 UNL     1       8.587  18.768  18.134  1.00  0.00     0.311 C 
HETATM   18  O4  UNL     1       8.230  19.830  18.765  1.00  0.00    -0.255 OA
HETATM   19  N6  UNL     1       7.845  17.912  17.537  1.00  0.00    -0.350 NA
BRANCH  19  20
HETATM   20  C18 UNL     1       7.148  17.084  16.990  1.00  0.00     0.190 A 
HETATM   21  N7  UNL     1       7.692  16.428  15.885  1.00  0.00    -0.334 N 
HETATM   22  C19 UNL     1       7.097  15.415  15.285  1.00  0.00     0.015 A 
ATOM     23  H7  UNL     1       8.592  16.747  15.525  1.00  0.00     0.168 HD
HETATM   24  C20 UNL     1       7.796  14.735  14.145  1.00  0.00     0.069 C 
HETATM   25  C21 UNL     1       5.887  14.912  15.687  1.00  0.00    -0.017 A 
HETATM   26  C22 UNL     1       5.263  13.766  14.991  1.00  0.00     0.052 C 
HETATM   27  C23 UNL     1       5.305  15.549  16.799  1.00  0.00     0.052 A 
HETATM   28 CL1  UNL     1       3.796  14.915  17.365  1.00  0.00    -0.083 Cl
HETATM   29  C24 UNL     1       5.941  16.607  17.414  1.00  0.00     0.019 A 
HETATM   30  C25 UNL     1       5.234  17.295  18.544  1.00  0.00     0.055 C 
ENDBRANCH  19  20
ENDBRANCH  16  17
ENDBRANCH  14  16
ENDBRANCH  13  14
ENDBRANCH  10  13
BRANCH   1  31
HETATM   31  C6  UNL     1      14.254  22.955  19.399  1.00  0.00     0.253 C 
HETATM   32  N2  UNL     1      14.724  24.184  18.889  1.00  0.00    -0.353 N 
ATOM     33  H2  UNL     1      14.619  24.261  17.877  1.00  0.00     0.162 HD
HETATM   34  O3  UNL     1      14.209  22.566  20.544  1.00  0.00    -0.268 OA
BRANCH  32  35
HETATM   35  C5  UNL     1      15.314  25.345  19.479  1.00  0.00     0.184 C 
BRANCH  35  36
HETATM   36  C4  UNL     1      16.752  24.887  19.852  1.00  0.00     0.336 C 
BRANCH  36  37
HETATM   37  O2  UNL     1      17.309  23.914  19.106  1.00  0.00    -0.356 OA
BRANCH  37  38
HETATM   38  C3  UNL     1      18.235  24.556  18.200  1.00  0.00     0.196 C 
BRANCH  38  39
HETATM   39  C2  UNL     1      18.326  23.892  16.883  1.00  0.00     0.193 C 
BRANCH  39  40
HETATM   40  O1  UNL     1      18.321  24.835  15.852  1.00  0.00    -0.394 OA
HETATM   41  C1  UNL     1      18.311  26.138  16.342  1.00  0.00     0.201 C 
ENDBRANCH  39  40
ENDBRANCH  38  39
ENDBRANCH  37  38
ENDBRANCH  36  37
BRANCH  36  42
HETATM   42  N1  UNL     1      16.749  24.463  21.233  1.00  0.00    -0.051 N 
ATOM     43  H13 UNL     1      15.806  24.322  21.597  1.00  0.00     0.277 HD
ATOM     44  H12 UNL     1      17.089  23.509  21.350  1.00  0.00     0.277 HD
ATOM     45  H11 UNL     1      17.282  25.138  21.781  1.00  0.00     0.277 HD
ENDBRANCH  36  42
ENDBRANCH  35  36
ENDBRANCH  32  35
ENDBRANCH   1  31
TORSDOF 13
ENDMDL
MODEL 5
REMARK VINA RESULT: -8.534835151      3.332     10.393
REMARK  13 active torsions:
REMARK  status: ('A' for Active; 'I' for Inactive)
REMARK    1  A    between atoms: O1_2  and  C2_3 
REMARK    2  A    between atoms: C2_3  and  C3_4 
REMARK    3  A    between atoms: C3_4  and  O2_5 
REMARK    4  A    between atoms: O2_5  and  C4_6 
REMARK    5  A    between atoms: C4_6  and  N1_7 
REMARK    6  A    between atoms: C4_6  and  C5_11 
REMARK    7  A    between atoms: C5_11  and  N2_12 
REMARK       I    between atoms: N2_12  and  C6_14 
REMARK    8  A    between atoms: C6_14  and  C7_16 
REMARK    9  A    between atoms: C13_25  and  C14_26 
REMARK   10  A    between atoms: C14_26  and  N5_27 
REMARK   11  A    between atoms: N5_27  and  C16_29 
REMARK   12  A    between atoms: C16_29  and  C17_30 
REMARK       I    between atoms: C17_30  and  N6_32 
REMARK   13  A    between atoms: N6_32  and  C18_33 
ROOT
HETATM    1  C7  UNL     1      15.437  22.027  16.112  1.00  0.00     0.056 A 
HETATM    2  C8  UNL     1      15.682  22.976  17.131  1.00  0.00     0.051 A 
HETATM    3  C9  UNL     1      15.183  22.826  18.378  1.00  0.00     0.063 A 
HETATM    4  C10 UNL     1      14.413  21.755  18.708  1.00  0.00     0.019 A 
HETATM    5  C11 UNL     1      14.015  21.841  20.030  1.00  0.00     0.121 A 
HETATM    6  N3  UNL     1      14.544  22.961  20.498  1.00  0.00    -0.309 N 
ATOM      7  H3  UNL     1      14.434  23.309  21.451  1.00  0.00     0.186 HD
HETATM    8  N4  UNL     1      15.247  23.567  19.533  1.00  0.00    -0.296 N 
HETATM    9  C12 UNL     1      15.945  24.826  19.552  1.00  0.00     0.178 C 
HETATM   10  C13 UNL     1      14.170  20.835  17.679  1.00  0.00    -0.004 A 
HETATM   11  C26 UNL     1      14.675  20.973  16.419  1.00  0.00     0.058 A 
HETATM   12 CL2  UNL     1      14.356  19.727  15.213  1.00  0.00    -0.083 Cl
ENDROOT
BRANCH  10  13
HETATM   13  C14 UNL     1      13.343  19.631  18.142  1.00  0.00     0.158 C 
BRANCH  13  14
HETATM   14  N5  UNL     1      12.057  20.095  18.330  1.00  0.00    -0.403 N 
HETATM   15  C15 UNL     1      11.517  19.109  19.454  1.00  0.00     0.144 C 
BRANCH  14  16
HETATM   16  C16 UNL     1      10.998  20.642  17.761  1.00  0.00     0.236 C 
BRANCH  16  17
HETATM   17  C17 UNL     1      10.589  19.908  16.416  1.00  0.00     0.311 C 
HETATM   18  O4  UNL     1      11.189  20.436  15.408  1.00  0.00    -0.255 OA
HETATM   19  N6  UNL     1       9.782  18.914  16.428  1.00  0.00    -0.350 NA
BRANCH  19  20
HETATM   20  C18 UNL     1       8.998  17.989  16.445  1.00  0.00     0.190 A 
HETATM   21  N7  UNL     1       7.925  18.084  17.333  1.00  0.00    -0.334 N 
HETATM   22  C19 UNL     1       6.932  17.216  17.356  1.00  0.00     0.015 A 
ATOM     23  H7  UNL     1       7.909  18.860  17.994  1.00  0.00     0.168 HD
HETATM   24  C20 UNL     1       5.792  17.443  18.303  1.00  0.00     0.069 C 
HETATM   25  C21 UNL     1       6.860  16.137  16.512  1.00  0.00    -0.017 A 
HETATM   26  C22 UNL     1       5.719  15.198  16.566  1.00  0.00     0.052 C 
HETATM   27  C23 UNL     1       7.925  16.007  15.603  1.00  0.00     0.052 A 
HETATM   28 CL1  UNL     1       7.849  14.681  14.491  1.00  0.00    -0.083 Cl
HETATM   29  C24 UNL     1       8.956  16.923  15.594  1.00  0.00     0.019 A 
HETATM   30  C25 UNL     1      10.102  16.685  14.655  1.00  0.00     0.055 C 
ENDBRANCH  19  20
ENDBRANCH  16  17
ENDBRANCH  14  16
ENDBRANCH  13  14
ENDBRANCH  10  13
BRANCH   1  31
HETATM   31  C6  UNL     1      16.365  22.210  14.937  1.00  0.00     0.253 C 
HETATM   32  N2  UNL     1      16.081  23.396  14.227  1.00  0.00    -0.353 N 
ATOM     33  H2  UNL     1      15.343  23.951  14.658  1.00  0.00     0.162 HD
HETATM   34  O3  UNL     1      17.195  21.358  14.710  1.00  0.00    -0.268 OA
BRANCH  32  35
HETATM   35  C5  UNL     1      16.602  23.990  13.035  1.00  0.00     0.184 C 
BRANCH  35  36
HETATM   36  C4  UNL     1      17.669  24.996  13.551  1.00  0.00     0.336 C 
BRANCH  36  37
HETATM   37  O2  UNL     1      18.086  24.862  14.825  1.00  0.00    -0.356 OA
BRANCH  37  38
HETATM   38  C3  UNL     1      18.322  26.195  15.333  1.00  0.00     0.196 C 
BRANCH  38  39
HETATM   39  C2  UNL     1      18.300  26.275  16.809  1.00  0.00     0.193 C 
BRANCH  39  40
HETATM   40  O1  UNL     1      17.744  27.486  17.229  1.00  0.00    -0.394 OA
HETATM   41  C1  UNL     1      18.685  28.512  17.242  1.00  0.00     0.201 C 
ENDBRANCH  39  40
ENDBRANCH  38  39
ENDBRANCH  37  38
ENDBRANCH  36  37
BRANCH  36  42
HETATM   42  N1  UNL     1      17.155  26.334  13.373  1.00  0.00    -0.051 N 
ATOM     43  H13 UNL     1      17.852  27.051  13.575  1.00  0.00     0.277 HD
ATOM     44  H12 UNL     1      16.997  26.565  12.393  1.00  0.00     0.277 HD
ATOM     45  H11 UNL     1      16.313  26.436  13.939  1.00  0.00     0.277 HD
ENDBRANCH  36  42
ENDBRANCH  35  36
ENDBRANCH  32  35
ENDBRANCH   1  31
TORSDOF 13
ENDMDL
