MODEL 1
REMARK VINA RESULT: -9.027637736      0.000      0.000
REMARK  13 active torsions:
REMARK  status: ('A' for Active; 'I' for Inactive)
REMARK    1  A    between atoms: C4_5  and  N2_6 
REMARK       I    between atoms: N2_6  and  C5_8 
REMARK    2  A    between atoms: C5_8  and  C6_10 
REMARK    3  A    between atoms: C6_10  and  C7_11 
REMARK    4  A    between atoms: C7_11  and  C8_12 
REMARK    5  A    between atoms: C8_12  and  C9_13 
REMARK    6  A    between atoms: C9_13  and  N3_14 
REMARK       I    between atoms: N3_14  and  C10_16 
REMARK    7  A    between atoms: C10_16  and  C11_18 
REMARK    8  A    between atoms: N5_27  and  C16_28 
REMARK       I    between atoms: N6_31  and  C19_32 
REMARK    9  A    between atoms: C19_32  and  O4_34 
REMARK   10  A    between atoms: O4_34  and  C20_35 
REMARK   11  A    between atoms: C20_35  and  C21_36 
REMARK   12  A    between atoms: C21_36  and  C22_37 
REMARK   13  A    between atoms: C22_37  and  C23_38 
ROOT
HETATM    1  N1  UNL     1      18.720  21.544  13.960  1.00  0.00    -0.190 NA
HETATM    2  C1  UNL     1      17.648  21.495  14.402  1.00  0.00     0.119 C 
HETATM    3  C2  UNL     1      16.336  21.444  14.960  1.00  0.00     0.132 A 
HETATM    4  C3  UNL     1      15.219  21.038  14.248  1.00  0.00     0.092 A 
HETATM    5  C4  UNL     1      14.165  21.131  15.134  1.00  0.00     0.128 A 
HETATM    6  N5  UNL     1      14.625  21.574  16.334  1.00  0.00    -0.271 N 
HETATM    7  N7  UNL     1      15.911  21.746  16.186  1.00  0.00    -0.286 N 
ATOM      8  H7  UNL     1      16.525  22.077  16.931  1.00  0.00     0.188 HD
ENDROOT
BRANCH   5   9
HETATM    9  N2  UNL     1      12.936  20.850  14.889  1.00  0.00    -0.312 N 
HETATM   10  C5  UNL     1      12.197  19.847  15.588  1.00  0.00     0.223 C 
HETATM   11  O1  UNL     1      12.744  18.747  15.756  1.00  0.00    -0.273 OA
ATOM     12  H2  UNL     1      12.460  21.374  14.154  1.00  0.00     0.170 HD
BRANCH  10  13
HETATM   13  C6  UNL     1      10.829  20.104  16.095  1.00  0.00     0.103 C 
BRANCH  13  14
HETATM   14  C7  UNL     1      10.734  19.351  17.468  1.00  0.00     0.011 C 
BRANCH  14  15
HETATM   15  C8  UNL     1       9.644  19.906  18.266  1.00  0.00     0.020 C 
BRANCH  15  16
HETATM   16  C9  UNL     1       8.350  19.221  18.309  1.00  0.00     0.123 C 
BRANCH  16  17
HETATM   17  N3  UNL     1       8.010  18.272  17.306  1.00  0.00    -0.357 N 
HETATM   18  C10 UNL     1       8.244  16.896  17.292  1.00  0.00     0.255 C 
HETATM   19  O2  UNL     1       8.786  16.358  18.315  1.00  0.00    -0.268 OA
ATOM     20  H3  UNL     1       7.530  18.647  16.488  1.00  0.00     0.162 HD
BRANCH  18  21
HETATM   21  C11 UNL     1       7.914  16.004  16.200  1.00  0.00     0.078 A 
HETATM   22  C12 UNL     1       8.674  15.818  15.105  1.00  0.00     0.066 A 
HETATM   23 CL1  UNL     1      10.266  16.519  14.893  1.00  0.00    -0.082 Cl
HETATM   24  C13 UNL     1       8.191  14.971  14.100  1.00  0.00     0.112 A 
HETATM   25  N4  UNL     1       7.018  14.344  14.186  1.00  0.00    -0.372 N 
HETATM   26  C14 UNL     1       6.232  14.504  15.268  1.00  0.00     0.112 A 
ATOM     27  H4  UNL     1       6.713  13.737  13.426  1.00  0.00     0.164 HD
HETATM   28  C15 UNL     1       6.685  15.322  16.249  1.00  0.00     0.066 A 
HETATM   29 CL2  UNL     1       5.700  15.558  17.667  1.00  0.00    -0.082 Cl
ENDBRANCH  18  21
ENDBRANCH  16  17
ENDBRANCH  15  16
ENDBRANCH  14  15
ENDBRANCH  13  14
ENDBRANCH  10  13
ENDBRANCH   5   9
BRANCH   6  30
HETATM   30  C16 UNL     1      13.793  21.795  17.522  1.00  0.00     0.113 C 
HETATM   31  C17 UNL     1      13.332  23.201  17.635  1.00  0.00     0.047 C 
HETATM   32  C18 UNL     1      14.063  24.034  18.648  1.00  0.00     0.130 C 
HETATM   33  N6  UNL     1      14.340  23.333  19.865  1.00  0.00    -0.328 N 
HETATM   34  C19 UNL     1      14.996  23.923  20.970  1.00  0.00     0.362 C 
HETATM   35  C24 UNL     1      13.921  21.949  19.951  1.00  0.00     0.130 C 
HETATM   36  O3  UNL     1      15.241  23.329  22.027  1.00  0.00    -0.238 OA
HETATM   37  C25 UNL     1      14.493  21.250  18.745  1.00  0.00     0.047 C 
BRANCH  34  38
HETATM   38  O4  UNL     1      15.398  25.264  20.881  1.00  0.00    -0.304 OA
BRANCH  38  39
HETATM   39  C20 UNL     1      16.784  25.591  20.697  1.00  0.00     0.181 C 
BRANCH  39  40
HETATM   40  C21 UNL     1      16.925  25.854  19.189  1.00  0.00     0.037 C 
BRANCH  40  41
HETATM   41  C22 UNL     1      18.290  25.441  18.719  1.00  0.00     0.115 C 
BRANCH  41  42
HETATM   42  C23 UNL     1      18.162  24.225  17.893  1.00  0.00     0.172 C 
HETATM   43  O5  UNL     1      17.457  23.272  18.290  1.00  0.00    -0.648 OA
HETATM   44  O6  UNL     1      18.810  24.109  16.675  1.00  0.00    -0.648 OA
ENDBRANCH  41  42
ENDBRANCH  40  41
ENDBRANCH  39  40
ENDBRANCH  38  39
ENDBRANCH  34  38
ENDBRANCH   6  30
TORSDOF 13
ENDMDL
MODEL 2
REMARK VINA RESULT: -9.016347133      0.370      1.464
REMARK  13 active torsions:
REMARK  status: ('A' for Active; 'I' for Inactive)
REMARK    1  A    between atoms: C4_5  and  N2_6 
REMARK       I    between atoms: N2_6  and  C5_8 
REMARK    2  A    between atoms: C5_8  and  C6_10 
REMARK    3  A    between atoms: C6_10  and  C7_11 
REMARK    4  A    between atoms: C7_11  and  C8_12 
REMARK    5  A    between atoms: C8_12  and  C9_13 
REMARK    6  A    between atoms: C9_13  and  N3_14 
REMARK       I    between atoms: N3_14  and  C10_16 
REMARK    7  A    between atoms: C10_16  and  C11_18 
REMARK    8  A    between atoms: N5_27  and  C16_28 
REMARK       I    between atoms: N6_31  and  C19_32 
REMARK    9  A    between atoms: C19_32  and  O4_34 
REMARK   10  A    between atoms: O4_34  and  C20_35 
REMARK   11  A    between atoms: C20_35  and  C21_36 
REMARK   12  A    between atoms: C21_36  and  C22_37 
REMARK   13  A    between atoms: C22_37  and  C23_38 
ROOT
HETATM    1  N1  UNL     1      18.790  21.574  13.923  1.00  0.00    -0.190 NA
HETATM    2  C1  UNL     1      17.718  21.525  14.363  1.00  0.00     0.119 C 
HETATM    3  C2  UNL     1      16.405  21.474  14.919  1.00  0.00     0.132 A 
HETATM    4  C3  UNL     1      15.294  21.040  14.214  1.00  0.00     0.092 A 
HETATM    5  C4  UNL     1      14.237  21.144  15.095  1.00  0.00     0.128 A 
HETATM    6  N5  UNL     1      14.689  21.621  16.286  1.00  0.00    -0.271 N 
HETATM    7  N7  UNL     1      15.974  21.802  16.137  1.00  0.00    -0.286 N 
ATOM      8  H7  UNL     1      16.583  22.157  16.875  1.00  0.00     0.188 HD
ENDROOT
BRANCH   5   9
HETATM    9  N2  UNL     1      13.012  20.845  14.855  1.00  0.00    -0.312 N 
HETATM   10  C5  UNL     1      12.265  19.888  15.610  1.00  0.00     0.223 C 
HETATM   11  O1  UNL     1      12.812  18.802  15.856  1.00  0.00    -0.273 OA
ATOM     12  H2  UNL     1      12.544  21.318  14.082  1.00  0.00     0.170 HD
BRANCH  10  13
HETATM   13  C6  UNL     1      10.891  20.175  16.082  1.00  0.00     0.103 C 
BRANCH  13  14
HETATM   14  C7  UNL     1      10.734  19.399  17.436  1.00  0.00     0.011 C 
BRANCH  14  15
HETATM   15  C8  UNL     1       9.624  19.956  18.204  1.00  0.00     0.020 C 
BRANCH  15  16
HETATM   16  C9  UNL     1       8.403  19.170  18.396  1.00  0.00     0.123 C 
BRANCH  16  17
HETATM   17  N3  UNL     1       7.977  18.255  17.394  1.00  0.00    -0.357 N 
HETATM   18  C10 UNL     1       8.141  16.869  17.352  1.00  0.00     0.255 C 
HETATM   19  O2  UNL     1       8.695  16.289  18.345  1.00  0.00    -0.268 OA
ATOM     20  H3  UNL     1       7.487  18.666  16.600  1.00  0.00     0.162 HD
BRANCH  18  21
HETATM   21  C11 UNL     1       7.725  16.012  16.261  1.00  0.00     0.078 A 
HETATM   22  C12 UNL     1       6.562  15.338  16.216  1.00  0.00     0.066 A 
HETATM   23 CL1  UNL     1       5.291  15.505  17.412  1.00  0.00    -0.082 Cl
HETATM   24  C13 UNL     1       6.326  14.495  15.123  1.00  0.00     0.112 A 
HETATM   25  N4  UNL     1       7.202  14.339  14.130  1.00  0.00    -0.372 N 
HETATM   26  C14 UNL     1       8.376  15.000  14.140  1.00  0.00     0.112 A 
ATOM     27  H4  UNL     1       6.982  13.714  13.356  1.00  0.00     0.164 HD
HETATM   28  C15 UNL     1       8.619  15.818  15.192  1.00  0.00     0.066 A 
HETATM   29 CL2  UNL     1      10.125  16.693  15.246  1.00  0.00    -0.082 Cl
ENDBRANCH  18  21
ENDBRANCH  16  17
ENDBRANCH  15  16
ENDBRANCH  14  15
ENDBRANCH  13  14
ENDBRANCH  10  13
ENDBRANCH   5   9
BRANCH   6  30
HETATM   30  C16 UNL     1      13.853  21.862  17.466  1.00  0.00     0.113 C 
HETATM   31  C17 UNL     1      13.410  23.275  17.566  1.00  0.00     0.047 C 
HETATM   32  C18 UNL     1      14.146  24.105  18.578  1.00  0.00     0.130 C 
HETATM   33  N6  UNL     1      14.404  23.409  19.802  1.00  0.00    -0.328 N 
HETATM   34  C19 UNL     1      15.061  23.998  20.907  1.00  0.00     0.362 C 
HETATM   35  C24 UNL     1      13.965  22.032  19.894  1.00  0.00     0.130 C 
HETATM   36  O3  UNL     1      15.290  23.409  21.970  1.00  0.00    -0.238 OA
HETATM   37  C25 UNL     1      14.536  21.316  18.698  1.00  0.00     0.047 C 
BRANCH  34  38
HETATM   38  O4  UNL     1      15.483  25.332  20.811  1.00  0.00    -0.304 OA
BRANCH  38  39
HETATM   39  C20 UNL     1      16.880  25.654  20.875  1.00  0.00     0.181 C 
BRANCH  39  40
HETATM   40  C21 UNL     1      17.542  24.723  19.847  1.00  0.00     0.037 C 
BRANCH  40  41
HETATM   41  C22 UNL     1      17.667  25.422  18.524  1.00  0.00     0.115 C 
BRANCH  41  42
HETATM   42  C23 UNL     1      18.178  24.463  17.524  1.00  0.00     0.172 C 
HETATM   43  O5  UNL     1      18.371  23.270  17.846  1.00  0.00    -0.648 OA
HETATM   44  O6  UNL     1      18.451  24.853  16.224  1.00  0.00    -0.648 OA
ENDBRANCH  41  42
ENDBRANCH  40  41
ENDBRANCH  39  40
ENDBRANCH  38  39
ENDBRANCH  34  38
ENDBRANCH   6  30
TORSDOF 13
ENDMDL
MODEL 3
REMARK VINA RESULT: -8.848699646      1.131      1.299
REMARK  13 active torsions:
REMARK  status: ('A' for Active; 'I' for Inactive)
REMARK    1  A    between atoms: C4_5  and  N2_6 
REMARK       I    between atoms: N2_6  and  C5_8 
REMARK    2  A    between atoms: C5_8  and  C6_10 
REMARK    3  A    between atoms: C6_10  and  C7_11 
REMARK    4  A    between atoms: C7_11  and  C8_12 
REMARK    5  A    between atoms: C8_12  and  C9_13 
REMARK    6  A    between atoms: C9_13  and  N3_14 
REMARK       I    between atoms: N3_14  and  C10_16 
REMARK    7  A    between atoms: C10_16  and  C11_18 
REMARK    8  A    between atoms: N5_27  and  C16_28 
REMARK       I    between atoms: N6_31  and  C19_32 
REMARK    9  A    between atoms: C19_32  and  O4_34 
REMARK   10  A    between atoms: O4_34  and  C20_35 
REMARK   11  A    between atoms: C20_35  and  C21_36 
REMARK   12  A    between atoms: C21_36  and  C22_37 
REMARK   13  A    between atoms: C22_37  and  C23_38 
ROOT
HETATM    1  N1  UNL     1      18.690  21.558  13.890  1.00  0.00    -0.190 NA
HETATM    2  C1  UNL     1      17.628  21.510  14.358  1.00  0.00     0.119 C 
HETATM    3  C2  UNL     1      16.331  21.461  14.948  1.00  0.00     0.132 A 
HETATM    4  C3  UNL     1      15.197  21.052  14.264  1.00  0.00     0.092 A 
HETATM    5  C4  UNL     1      14.164  21.148  15.175  1.00  0.00     0.128 A 
HETATM    6  N5  UNL     1      14.653  21.596  16.362  1.00  0.00    -0.271 N 
HETATM    7  N7  UNL     1      15.935  21.767  16.183  1.00  0.00    -0.286 N 
ATOM      8  H7  UNL     1      16.567  22.101  16.911  1.00  0.00     0.188 HD
ENDROOT
BRANCH   5   9
HETATM    9  N2  UNL     1      12.930  20.866  14.962  1.00  0.00    -0.312 N 
HETATM   10  C5  UNL     1      12.238  19.795  15.605  1.00  0.00     0.223 C 
HETATM   11  O1  UNL     1      12.808  18.695  15.657  1.00  0.00    -0.273 OA
ATOM     12  H2  UNL     1      12.414  21.440  14.294  1.00  0.00     0.170 HD
BRANCH  10  13
HETATM   13  C6  UNL     1      10.890  19.984  16.191  1.00  0.00     0.103 C 
BRANCH  13  14
HETATM   14  C7  UNL     1      10.946  19.323  17.613  1.00  0.00     0.011 C 
BRANCH  14  15
HETATM   15  C8  UNL     1      10.345  20.216  18.601  1.00  0.00     0.020 C 
BRANCH  15  16
HETATM   16  C9  UNL     1       8.972  19.983  19.054  1.00  0.00     0.123 C 
BRANCH  16  17
HETATM   17  N3  UNL     1       8.074  19.225  18.254  1.00  0.00    -0.357 N 
HETATM   18  C10 UNL     1       7.647  17.907  18.430  1.00  0.00     0.255 C 
HETATM   19  O2  UNL     1       8.046  17.269  19.461  1.00  0.00    -0.268 OA
ATOM     20  H3  UNL     1       7.690  19.708  17.442  1.00  0.00     0.162 HD
BRANCH  18  21
HETATM   21  C11 UNL     1       6.769  17.187  17.532  1.00  0.00     0.078 A 
HETATM   22  C12 UNL     1       7.176  16.501  16.448  1.00  0.00     0.066 A 
HETATM   23 CL1  UNL     1       8.859  16.245  16.031  1.00  0.00    -0.082 Cl
HETATM   24  C13 UNL     1       6.202  15.907  15.636  1.00  0.00     0.112 A 
HETATM   25  N4  UNL     1       4.897  15.993  15.894  1.00  0.00    -0.372 N 
HETATM   26  C14 UNL     1       4.453  16.670  16.971  1.00  0.00     0.112 A 
ATOM     27  H4  UNL     1       4.228  15.543  15.271  1.00  0.00     0.164 HD
HETATM   28  C15 UNL     1       5.384  17.250  17.766  1.00  0.00     0.066 A 
HETATM   29 CL2  UNL     1       4.854  18.136  19.171  1.00  0.00    -0.082 Cl
ENDBRANCH  18  21
ENDBRANCH  16  17
ENDBRANCH  15  16
ENDBRANCH  14  15
ENDBRANCH  13  14
ENDBRANCH  10  13
ENDBRANCH   5   9
BRANCH   6  30
HETATM   30  C16 UNL     1      13.850  21.821  17.569  1.00  0.00     0.113 C 
HETATM   31  C17 UNL     1      13.383  23.224  17.682  1.00  0.00     0.047 C 
HETATM   32  C18 UNL     1      14.134  24.071  18.670  1.00  0.00     0.130 C 
HETATM   33  N6  UNL     1      14.446  23.382  19.885  1.00  0.00    -0.328 N 
HETATM   34  C19 UNL     1      15.125  23.985  20.968  1.00  0.00     0.362 C 
HETATM   35  C24 UNL     1      14.039  21.996  19.992  1.00  0.00     0.130 C 
HETATM   36  O3  UNL     1      15.402  23.402  22.023  1.00  0.00    -0.238 OA
HETATM   37  C25 UNL     1      14.585  21.291  18.779  1.00  0.00     0.047 C 
BRANCH  34  38
HETATM   38  O4  UNL     1      15.516  25.328  20.858  1.00  0.00    -0.304 OA
BRANCH  38  39
HETATM   39  C20 UNL     1      16.898  25.664  20.656  1.00  0.00     0.181 C 
BRANCH  39  40
HETATM   40  C21 UNL     1      17.018  25.923  19.146  1.00  0.00     0.037 C 
BRANCH  40  41
HETATM   41  C22 UNL     1      18.363  25.474  18.652  1.00  0.00     0.115 C 
BRANCH  41  42
HETATM   42  C23 UNL     1      18.187  24.266  17.822  1.00  0.00     0.172 C 
HETATM   43  O5  UNL     1      17.561  23.283  18.275  1.00  0.00    -0.648 OA
HETATM   44  O6  UNL     1      18.703  24.191  16.539  1.00  0.00    -0.648 OA
ENDBRANCH  41  42
ENDBRANCH  40  41
ENDBRANCH  39  40
ENDBRANCH  38  39
ENDBRANCH  34  38
ENDBRANCH   6  30
TORSDOF 13
ENDMDL
MODEL 4
REMARK VINA RESULT: -8.828757361      3.973      9.826
REMARK  13 active torsions:
REMARK  status: ('A' for Active; 'I' for Inactive)
REMARK    1  A    between atoms: C4_5  and  N2_6 
REMARK       I    between atoms: N2_6  and  C5_8 
REMARK    2  A    between atoms: C5_8  and  C6_10 
REMARK    3  A    between atoms: C6_10  and  C7_11 
REMARK    4  A    between atoms: C7_11  and  C8_12 
REMARK    5  A    between atoms: C8_12  and  C9_13 
REMARK    6  A    between atoms: C9_13  and  N3_14 
REMARK       I    between atoms: N3_14  and  C10_16 
REMARK    7  A    between atoms: C10_16  and  C11_18 
REMARK    8  A    between atoms: N5_27  and  C16_28 
REMARK       I    between atoms: N6_31  and  C19_32 
REMARK    9  A    between atoms: C19_32  and  O4_34 
REMARK   10  A    between atoms: O4_34  and  C20_35 
REMARK   11  A    between atoms: C20_35  and  C21_36 
REMARK   12  A    between atoms: C21_36  and  C22_37 
REMARK   13  A    between atoms: C22_37  and  C23_38 
ROOT
HETATM    1  N1  UNL     1      15.745  25.272  19.273  1.00  0.00    -0.190 NA
HETATM    2  C1  UNL     1      15.022  24.376  19.127  1.00  0.00     0.119 C 
HETATM    3  C2  UNL     1      14.126  23.278  18.965  1.00  0.00     0.132 A 
HETATM    4  C3  UNL     1      14.007  22.559  17.786  1.00  0.00     0.092 A 
HETATM    5  C4  UNL     1      13.049  21.598  18.038  1.00  0.00     0.128 A 
HETATM    6  N5  UNL     1      12.607  21.728  19.317  1.00  0.00    -0.271 N 
HETATM    7  N7  UNL     1      13.269  22.732  19.827  1.00  0.00    -0.286 N 
ATOM      8  H7  UNL     1      13.143  23.063  20.783  1.00  0.00     0.188 HD
ENDROOT
BRANCH   5   9
HETATM    9  N2  UNL     1      12.625  20.709  17.214  1.00  0.00    -0.312 N 
HETATM   10  C5  UNL     1      11.968  21.017  15.983  1.00  0.00     0.223 C 
HETATM   11  O1  UNL     1      11.071  21.872  16.012  1.00  0.00    -0.273 OA
ATOM     12  H2  UNL     1      12.766  19.727  17.452  1.00  0.00     0.170 HD
BRANCH  10  13
HETATM   13  C6  UNL     1      12.339  20.343  14.717  1.00  0.00     0.103 C 
BRANCH  13  14
HETATM   14  C7  UNL     1      13.703  20.982  14.277  1.00  0.00     0.011 C 
BRANCH  14  15
HETATM   15  C8  UNL     1      14.798  20.054  14.547  1.00  0.00     0.020 C 
BRANCH  15  16
HETATM   16  C9  UNL     1      16.072  20.560  15.063  1.00  0.00     0.123 C 
BRANCH  16  17
HETATM   17  N3  UNL     1      16.333  21.958  15.078  1.00  0.00    -0.357 N 
HETATM   18  C10 UNL     1      17.532  22.624  14.820  1.00  0.00     0.255 C 
HETATM   19  O2  UNL     1      18.549  21.938  14.468  1.00  0.00    -0.268 OA
ATOM     20  H3  UNL     1      15.537  22.553  15.307  1.00  0.00     0.162 HD
BRANCH  18  21
HETATM   21  C11 UNL     1      17.727  24.056  14.912  1.00  0.00     0.078 A 
HETATM   22  C12 UNL     1      17.661  24.907  13.872  1.00  0.00     0.066 A 
HETATM   23 CL1  UNL     1      17.180  24.436  12.254  1.00  0.00    -0.082 Cl
HETATM   24  C13 UNL     1      17.937  26.261  14.105  1.00  0.00     0.112 A 
HETATM   25  N4  UNL     1      18.258  26.734  15.310  1.00  0.00    -0.372 N 
HETATM   26  C14 UNL     1      18.332  25.912  16.373  1.00  0.00     0.112 A 
ATOM     27  H4  UNL     1      18.450  27.728  15.426  1.00  0.00     0.164 HD
HETATM   28  C15 UNL     1      18.068  24.600  16.163  1.00  0.00     0.066 A 
HETATM   29 CL2  UNL     1      18.152  23.500  17.512  1.00  0.00    -0.082 Cl
ENDBRANCH  18  21
ENDBRANCH  16  17
ENDBRANCH  15  16
ENDBRANCH  14  15
ENDBRANCH  13  14
ENDBRANCH  10  13
ENDBRANCH   5   9
BRANCH   6  30
HETATM   30  C16 UNL     1      11.588  20.880  19.944  1.00  0.00     0.113 C 
HETATM   31  C17 UNL     1      11.975  19.448  19.957  1.00  0.00     0.047 C 
HETATM   32  C18 UNL     1      11.291  18.592  18.929  1.00  0.00     0.130 C 
HETATM   33  N6  UNL     1       9.901  18.896  18.773  1.00  0.00    -0.328 N 
HETATM   34  C19 UNL     1       9.050  18.202  17.882  1.00  0.00     0.362 C 
HETATM   35  C24 UNL     1       9.357  19.972  19.574  1.00  0.00     0.130 C 
HETATM   36  O3  UNL     1       7.848  18.455  17.736  1.00  0.00    -0.238 OA
HETATM   37  C25 UNL     1      10.235  21.173  19.337  1.00  0.00     0.047 C 
BRANCH  34  38
HETATM   38  O4  UNL     1       9.583  17.161  17.109  1.00  0.00    -0.304 OA
BRANCH  38  39
HETATM   39  C20 UNL     1      10.282  17.451  15.889  1.00  0.00     0.181 C 
BRANCH  39  40
HETATM   40  C21 UNL     1       9.299  17.063  14.774  1.00  0.00     0.037 C 
BRANCH  40  41
HETATM   41  C22 UNL     1       9.576  15.663  14.307  1.00  0.00     0.115 C 
BRANCH  41  42
HETATM   42  C23 UNL     1       8.389  14.827  14.574  1.00  0.00     0.172 C 
HETATM   43  O5  UNL     1       8.148  14.438  15.737  1.00  0.00    -0.648 OA
HETATM   44  O6  UNL     1       7.524  14.457  13.558  1.00  0.00    -0.648 OA
ENDBRANCH  41  42
ENDBRANCH  40  41
ENDBRANCH  39  40
ENDBRANCH  38  39
ENDBRANCH  34  38
ENDBRANCH   6  30
TORSDOF 13
ENDMDL
MODEL 5
REMARK VINA RESULT: -8.761264456      3.120      8.218
REMARK  13 active torsions:
REMARK  status: ('A' for Active; 'I' for Inactive)
REMARK    1  A    between atoms: C4_5  and  N2_6 
REMARK       I    between atoms: N2_6  and  C5_8 
REMARK    2  A    between atoms: C5_8  and  C6_10 
REMARK    3  A    between atoms: C6_10  and  C7_11 
REMARK    4  A    between atoms: C7_11  and  C8_12 
REMARK    5  A    between atoms: C8_12  and  C9_13 
REMARK    6  A    between atoms: C9_13  and  N3_14 
REMARK       I    between atoms: N3_14  and  C10_16 
REMARK    7  A    between atoms: C10_16  and  C11_18 
REMARK    8  A    between atoms: N5_27  and  C16_28 
REMARK       I    between atoms: N6_31  and  C19_32 
REMARK    9  A    between atoms: C19_32  and  O4_34 
REMARK   10  A    between atoms: O4_34  and  C20_35 
REMARK   11  A    between atoms: C20_35  and  C21_36 
REMARK   12  A    between atoms: C21_36  and  C22_37 
REMARK   13  A    between atoms: C22_37  and  C23_38 
ROOT
HETATM    1  N1  UNL     1       8.250  14.440  14.328  1.00  0.00    -0.190 NA
HETATM    2  C1  UNL     1       8.506  15.322  15.037  1.00  0.00     0.119 C 
HETATM    3  C2  UNL     1       8.836  16.411  15.897  1.00  0.00     0.132 A 
HETATM    4  C3  UNL     1       7.994  16.878  16.894  1.00  0.00     0.092 A 
HETATM    5  C4  UNL     1       8.672  17.924  17.487  1.00  0.00     0.128 A 
HETATM    6  N5  UNL     1       9.876  18.082  16.876  1.00  0.00    -0.271 N 
HETATM    7  N7  UNL     1       9.931  17.169  15.944  1.00  0.00    -0.286 N 
ATOM      8  H7  UNL     1      10.727  17.050  15.318  1.00  0.00     0.188 HD
ENDROOT
BRANCH   5   9
HETATM    9  N2  UNL     1       8.256  18.647  18.463  1.00  0.00    -0.312 N 
HETATM   10  C5  UNL     1       8.529  18.361  19.836  1.00  0.00     0.223 C 
HETATM   11  O1  UNL     1       8.370  17.193  20.220  1.00  0.00    -0.273 OA
ATOM     12  H2  UNL     1       7.698  19.473  18.245  1.00  0.00     0.170 HD
BRANCH  10  13
HETATM   13  C6  UNL     1       8.987  19.416  20.771  1.00  0.00     0.103 C 
BRANCH  13  14
HETATM   14  C7  UNL     1       8.892  20.763  19.973  1.00  0.00     0.011 C 
BRANCH  14  15
HETATM   15  C8  UNL     1      10.036  21.613  20.293  1.00  0.00     0.020 C 
BRANCH  15  16
HETATM   16  C9  UNL     1      11.368  21.258  19.796  1.00  0.00     0.123 C 
BRANCH  16  17
HETATM   17  N3  UNL     1      12.345  22.269  19.584  1.00  0.00    -0.357 N 
HETATM   18  C10 UNL     1      13.722  22.213  19.807  1.00  0.00     0.255 C 
HETATM   19  O2  UNL     1      14.232  21.112  20.205  1.00  0.00    -0.268 OA
ATOM     20  H3  UNL     1      11.992  23.155  19.220  1.00  0.00     0.162 HD
BRANCH  18  21
HETATM   21  C11 UNL     1      14.644  23.313  19.617  1.00  0.00     0.078 A 
HETATM   22  C12 UNL     1      15.129  23.710  18.426  1.00  0.00     0.066 A 
HETATM   23 CL1  UNL     1      14.606  23.048  16.890  1.00  0.00    -0.082 Cl
HETATM   24  C13 UNL     1      16.066  24.751  18.407  1.00  0.00     0.112 A 
HETATM   25  N4  UNL     1      16.489  25.361  19.513  1.00  0.00    -0.372 N 
HETATM   26  C14 UNL     1      16.024  24.992  20.722  1.00  0.00     0.112 A 
ATOM     27  H4  UNL     1      17.173  26.115  19.445  1.00  0.00     0.164 HD
HETATM   28  C15 UNL     1      15.118  23.985  20.757  1.00  0.00     0.066 A 
HETATM   29 CL2  UNL     1      14.489  23.475  22.301  1.00  0.00    -0.082 Cl
ENDBRANCH  18  21
ENDBRANCH  16  17
ENDBRANCH  15  16
ENDBRANCH  14  15
ENDBRANCH  13  14
ENDBRANCH  10  13
ENDBRANCH   5   9
BRANCH   6  30
HETATM   30  C16 UNL     1      10.873  19.095  17.237  1.00  0.00     0.113 C 
HETATM   31  C17 UNL     1      10.798  20.296  16.370  1.00  0.00     0.047 C 
HETATM   32  C18 UNL     1      11.864  20.392  15.315  1.00  0.00     0.130 C 
HETATM   33  N6  UNL     1      13.159  19.998  15.781  1.00  0.00    -0.328 N 
HETATM   34  C19 UNL     1      14.318  20.030  14.973  1.00  0.00     0.362 C 
HETATM   35  C24 UNL     1      13.267  19.545  17.153  1.00  0.00     0.130 C 
HETATM   36  O3  UNL     1      15.443  19.692  15.362  1.00  0.00    -0.238 OA
HETATM   37  C25 UNL     1      12.241  18.457  17.330  1.00  0.00     0.047 C 
BRANCH  34  38
HETATM   38  O4  UNL     1      14.206  20.471  13.646  1.00  0.00    -0.304 OA
BRANCH  38  39
HETATM   39  C20 UNL     1      14.295  21.870  13.339  1.00  0.00     0.181 C 
BRANCH  39  40
HETATM   40  C21 UNL     1      15.648  22.311  13.918  1.00  0.00     0.037 C 
BRANCH  40  41
HETATM   41  C22 UNL     1      16.166  23.504  13.168  1.00  0.00     0.115 C 
BRANCH  41  42
HETATM   42  C23 UNL     1      17.611  23.646  13.437  1.00  0.00     0.172 C 
HETATM   43  O5  UNL     1      18.388  22.699  13.190  1.00  0.00    -0.648 OA
HETATM   44  O6  UNL     1      18.134  24.815  13.963  1.00  0.00    -0.648 OA
ENDBRANCH  41  42
ENDBRANCH  40  41
ENDBRANCH  39  40
ENDBRANCH  38  39
ENDBRANCH  34  38
ENDBRANCH   6  30
TORSDOF 13
ENDMDL
