MODEL 1
REMARK VINA RESULT: -9.094753963      0.000      0.000
REMARK  14 active torsions:
REMARK  status: ('A' for Active; 'I' for Inactive)
REMARK    1  A    between atoms: N1_1  and  C1_5 
REMARK    2  A    between atoms: C1_5  and  C2_6 
REMARK       I    between atoms: C2_6  and  N2_8 
REMARK    3  A    between atoms: N2_8  and  C3_10 
REMARK    4  A    between atoms: C3_10  and  C4_11 
REMARK    5  A    between atoms: C5_13  and  N3_14 
REMARK    6  A    between atoms: N4_16  and  N5_18 
REMARK    7  A    between atoms: N5_18  and  C6_20 
REMARK    8  A    between atoms: C7_23  and  N7_24 
REMARK    9  A    between atoms: C8_31  and  C9_32 
REMARK   10  A    between atoms: C11_37  and  N10_38 
REMARK   11  A    between atoms: N10_38  and  C12_40 
REMARK   12  A    between atoms: C13_44  and  O4_45 
REMARK   13  A    between atoms: C14_48  and  O6_49 
REMARK   14  A    between atoms: C15_51  and  O7_52 
ROOT
HETATM    1  C4  UNL     1     -24.766  10.725  -5.645  1.00  0.00     0.173 C 
HETATM    2  O2  UNL     1     -25.929  10.148  -6.148  1.00  0.00    -0.354 OA
HETATM    3  C5  UNL     1     -26.545   9.329  -5.196  1.00  0.00     0.263 C 
HETATM    4  C11 UNL     1     -27.054  10.239  -4.126  1.00  0.00     0.162 C 
HETATM    5  C14 UNL     1     -25.864  10.791  -3.366  1.00  0.00     0.176 C 
HETATM    6  C15 UNL     1     -24.983  11.482  -4.356  1.00  0.00     0.179 C 
ENDROOT
BRANCH   3   7
HETATM    7  N3  UNL     1     -25.639   8.307  -4.718  1.00  0.00    -0.291 N 
HETATM    8  N4  UNL     1     -25.104   7.441  -5.437  1.00  0.00    -0.243 N 
ATOM      9  H4  UNL     1     -24.487   6.786  -4.958  1.00  0.00     0.208 HD
ATOM     10  H3  UNL     1     -25.423   8.295  -3.721  1.00  0.00     0.184 HD
BRANCH   8  11
HETATM   11  N5  UNL     1     -25.238   7.254  -6.793  1.00  0.00    -0.266 N 
ATOM     12  H5  UNL     1     -26.151   7.297  -7.246  1.00  0.00     0.190 HD
BRANCH  11  13
HETATM   13  C6  UNL     1     -24.043   6.997  -7.548  1.00  0.00     0.159 C 
HETATM   14  N6  UNL     1     -23.178   6.205  -7.065  1.00  0.00    -0.320 N 
HETATM   15  C7  UNL     1     -21.913   5.735  -7.528  1.00  0.00     0.485 C 
ATOM     16  H6  UNL     1     -23.442   5.826  -6.156  1.00  0.00     0.165 HD
HETATM   17  N8  UNL     1     -21.861   5.451  -8.939  1.00  0.00    -0.016 N 
HETATM   18  C8  UNL     1     -21.651   6.646  -9.707  1.00  0.00     0.288 C 
ATOM     19  H82 UNL     1     -21.159   4.742  -9.152  1.00  0.00     0.282 HD
ATOM     20  H81 UNL     1     -22.692   4.947  -9.250  1.00  0.00     0.282 HD
HETATM   21  C10 UNL     1     -22.969   7.049 -10.322  1.00  0.00     0.125 C 
HETATM   22  S1  UNL     1     -24.000   7.876  -9.090  1.00  0.00    -0.090 SA
BRANCH  15  23
HETATM   23  N7  UNL     1     -20.807   6.591  -7.196  1.00  0.00    -0.033 N 
ATOM     24  H73 UNL     1     -20.277   6.828  -8.034  1.00  0.00     0.278 HD
ATOM     25  H72 UNL     1     -21.141   7.518  -6.932  1.00  0.00     0.278 HD
ATOM     26  H71 UNL     1     -20.188   6.217  -6.476  1.00  0.00     0.278 HD
ENDBRANCH  15  23
BRANCH  18  27
HETATM   27  C9  UNL     1     -20.587   6.465 -10.708  1.00  0.00     0.263 C 
HETATM   28  N9  UNL     1     -20.503   5.250 -11.408  1.00  0.00    -0.060 NA
HETATM   29  O3  UNL     1     -19.730   7.352 -10.979  1.00  0.00    -0.275 OA
ENDBRANCH  18  27
ENDBRANCH  11  13
ENDBRANCH   8  11
ENDBRANCH   3   7
BRANCH   4  30
HETATM   30  N10 UNL     1     -28.113   9.754  -3.322  1.00  0.00    -0.363 N 
ATOM     31  H10 UNL     1     -28.029   8.866  -2.826  1.00  0.00     0.158 HD
BRANCH  30  32
HETATM   32  C12 UNL     1     -29.292  10.532  -3.224  1.00  0.00     0.434 C 
HETATM   33  N11 UNL     1     -30.225   9.855  -2.300  1.00  0.00     0.019 N 
HETATM   34  C13 UNL     1     -30.541   9.094  -3.519  1.00  0.00     0.475 C 
ATOM     35 2H11 UNL     1     -29.939   9.424  -1.421  1.00  0.00     0.288 HD
ATOM     36 1H11 UNL     1     -30.923  10.344  -1.741  1.00  0.00     0.288 HD
HETATM   37  O5  UNL     1     -30.265  10.291  -4.219  1.00  0.00    -0.289 OA
BRANCH  34  38
HETATM   38  O4  UNL     1     -31.866   8.735  -3.631  1.00  0.00    -0.349 OA
ATOM     39  H4  UNL     1     -32.078   7.902  -3.228  1.00  0.00     0.214 HD
ENDBRANCH  34  38
ENDBRANCH  30  32
ENDBRANCH   4  30
BRANCH   1  40
HETATM   40  C3  UNL     1     -24.322  11.750  -6.667  1.00  0.00     0.157 C 
BRANCH  40  41
HETATM   41  N2  UNL     1     -24.356  11.308  -8.016  1.00  0.00    -0.357 N 
HETATM   42  C2  UNL     1     -23.562  11.841  -9.048  1.00  0.00     0.243 C 
HETATM   43  O1  UNL     1     -22.762  12.770  -8.799  1.00  0.00    -0.272 OA
ATOM     44  H2  UNL     1     -25.000  10.553  -8.254  1.00  0.00     0.162 HD
BRANCH  42  45
HETATM   45  C1  UNL     1     -23.617  11.358 -10.448  1.00  0.00     0.331 C 
BRANCH  45  46
HETATM   46  N1  UNL     1     -24.967  11.058 -10.855  1.00  0.00    -0.071 N 
ATOM     47  H13 UNL     1     -25.325  10.229 -10.381  1.00  0.00     0.274 HD
ATOM     48  H12 UNL     1     -25.627  11.746 -10.492  1.00  0.00     0.274 HD
ATOM     49  H11 UNL     1     -25.044  10.969 -11.868  1.00  0.00     0.274 HD
ENDBRANCH  45  46
ENDBRANCH  42  45
ENDBRANCH  40  41
ENDBRANCH   1  40
BRANCH   5  50
HETATM   50  O6  UNL     1     -26.303  11.776  -2.451  1.00  0.00    -0.391 OA
ATOM     51  H6  UNL     1     -25.819  11.693  -1.638  1.00  0.00     0.210 HD
ENDBRANCH   5  50
BRANCH   6  52
HETATM   52  O7  UNL     1     -23.693  11.691  -3.815  1.00  0.00    -0.390 OA
ATOM     53  H7  UNL     1     -23.121  11.822  -4.562  1.00  0.00     0.210 HD
ENDBRANCH   6  52
TORSDOF 14
ENDMDL
MODEL 2
REMARK VINA RESULT: -9.076162363      1.121      1.406
REMARK  14 active torsions:
REMARK  status: ('A' for Active; 'I' for Inactive)
REMARK    1  A    between atoms: N1_1  and  C1_5 
REMARK    2  A    between atoms: C1_5  and  C2_6 
REMARK       I    between atoms: C2_6  and  N2_8 
REMARK    3  A    between atoms: N2_8  and  C3_10 
REMARK    4  A    between atoms: C3_10  and  C4_11 
REMARK    5  A    between atoms: C5_13  and  N3_14 
REMARK    6  A    between atoms: N4_16  and  N5_18 
REMARK    7  A    between atoms: N5_18  and  C6_20 
REMARK    8  A    between atoms: C7_23  and  N7_24 
REMARK    9  A    between atoms: C8_31  and  C9_32 
REMARK   10  A    between atoms: C11_37  and  N10_38 
REMARK   11  A    between atoms: N10_38  and  C12_40 
REMARK   12  A    between atoms: C13_44  and  O4_45 
REMARK   13  A    between atoms: C14_48  and  O6_49 
REMARK   14  A    between atoms: C15_51  and  O7_52 
ROOT
HETATM    1  C4  UNL     1     -24.950  10.621  -6.002  1.00  0.00     0.173 C 
HETATM    2  O2  UNL     1     -26.115   9.902  -6.255  1.00  0.00    -0.354 OA
HETATM    3  C5  UNL     1     -26.518   9.172  -5.132  1.00  0.00     0.263 C 
HETATM    4  C11 UNL     1     -26.953  10.174  -4.113  1.00  0.00     0.162 C 
HETATM    5  C14 UNL     1     -25.724  10.904  -3.609  1.00  0.00     0.176 C 
HETATM    6  C15 UNL     1     -25.053  11.523  -4.794  1.00  0.00     0.179 C 
ENDROOT
BRANCH   3   7
HETATM    7  N3  UNL     1     -25.466   8.289  -4.676  1.00  0.00    -0.291 N 
HETATM    8  N4  UNL     1     -24.870   7.466  -5.398  1.00  0.00    -0.243 N 
ATOM      9  H4  UNL     1     -24.150   6.911  -4.936  1.00  0.00     0.208 HD
ATOM     10  H3  UNL     1     -25.194   8.343  -3.695  1.00  0.00     0.184 HD
BRANCH   8  11
HETATM   11  N5  UNL     1     -25.055   7.210  -6.736  1.00  0.00    -0.266 N 
ATOM     12  H5  UNL     1     -25.991   7.170  -7.143  1.00  0.00     0.190 HD
BRANCH  11  13
HETATM   13  C6  UNL     1     -23.884   7.001  -7.541  1.00  0.00     0.159 C 
HETATM   14  N6  UNL     1     -23.119   6.029  -7.260  1.00  0.00    -0.320 N 
HETATM   15  C7  UNL     1     -21.906   5.540  -7.829  1.00  0.00     0.485 C 
ATOM     16  H6  UNL     1     -23.438   5.484  -6.459  1.00  0.00     0.165 HD
HETATM   17  N8  UNL     1     -21.862   5.581  -9.268  1.00  0.00    -0.016 N 
HETATM   18  C8  UNL     1     -21.509   6.889  -9.744  1.00  0.00     0.288 C 
ATOM     19  H82 UNL     1     -21.239   4.866  -9.644  1.00  0.00     0.282 HD
ATOM     20  H81 UNL     1     -22.738   5.257  -9.679  1.00  0.00     0.282 HD
HETATM   21  C10 UNL     1     -22.765   7.565 -10.239  1.00  0.00     0.125 C 
HETATM   22  S1  UNL     1     -23.719   8.198  -8.841  1.00  0.00    -0.090 SA
BRANCH  15  23
HETATM   23  N7  UNL     1     -20.719   6.169  -7.320  1.00  0.00    -0.033 N 
ATOM     24  H73 UNL     1     -20.692   7.151  -7.594  1.00  0.00     0.278 HD
ATOM     25  H72 UNL     1     -20.775   6.272  -6.307  1.00  0.00     0.278 HD
ATOM     26  H71 UNL     1     -19.850   5.702  -7.582  1.00  0.00     0.278 HD
ENDBRANCH  15  23
BRANCH  18  27
HETATM   27  C9  UNL     1     -20.455   6.824 -10.769  1.00  0.00     0.263 C 
HETATM   28  N9  UNL     1     -20.009   5.570 -11.217  1.00  0.00    -0.060 NA
HETATM   29  O3  UNL     1     -19.918   7.848 -11.280  1.00  0.00    -0.275 OA
ENDBRANCH  18  27
ENDBRANCH  11  13
ENDBRANCH   8  11
ENDBRANCH   3   7
BRANCH   4  30
HETATM   30  N10 UNL     1     -27.842   9.723  -3.109  1.00  0.00    -0.363 N 
ATOM     31  H10 UNL     1     -27.619   8.905  -2.541  1.00  0.00     0.158 HD
BRANCH  30  32
HETATM   32  C12 UNL     1     -29.051  10.435  -2.913  1.00  0.00     0.434 C 
HETATM   33  N11 UNL     1     -29.959   9.601  -2.101  1.00  0.00     0.019 N 
HETATM   34  C13 UNL     1     -30.242   9.006  -3.416  1.00  0.00     0.475 C 
ATOM     35 2H11 UNL     1     -29.660   9.063  -1.288  1.00  0.00     0.288 HD
ATOM     36 1H11 UNL     1     -30.678   9.981  -1.484  1.00  0.00     0.288 HD
HETATM   37  O5  UNL     1     -30.011  10.298  -3.941  1.00  0.00    -0.289 OA
BRANCH  34  38
HETATM   38  O4  UNL     1     -31.552   8.616  -3.588  1.00  0.00    -0.349 OA
ATOM     39  H4  UNL     1     -31.684   7.676  -3.567  1.00  0.00     0.214 HD
ENDBRANCH  34  38
ENDBRANCH  30  32
ENDBRANCH   4  30
BRANCH   1  40
HETATM   40  C3  UNL     1     -24.746  11.535  -7.192  1.00  0.00     0.157 C 
BRANCH  40  41
HETATM   41  N2  UNL     1     -23.505  12.225  -7.215  1.00  0.00    -0.357 N 
HETATM   42  C2  UNL     1     -23.206  13.297  -8.076  1.00  0.00     0.243 C 
HETATM   43  O1  UNL     1     -24.066  13.695  -8.893  1.00  0.00    -0.272 OA
ATOM     44  H2  UNL     1     -22.781  11.922  -6.563  1.00  0.00     0.162 HD
BRANCH  42  45
HETATM   45  C1  UNL     1     -21.902  14.001  -8.075  1.00  0.00     0.331 C 
BRANCH  45  46
HETATM   46  N1  UNL     1     -21.961  15.230  -7.324  1.00  0.00    -0.071 N 
ATOM     47  H13 UNL     1     -22.640  15.878  -7.723  1.00  0.00     0.274 HD
ATOM     48  H12 UNL     1     -22.395  15.088  -6.412  1.00  0.00     0.274 HD
ATOM     49  H11 UNL     1     -21.042  15.663  -7.236  1.00  0.00     0.274 HD
ENDBRANCH  45  46
ENDBRANCH  42  45
ENDBRANCH  40  41
ENDBRANCH   1  40
BRANCH   5  50
HETATM   50  O6  UNL     1     -26.117  11.966  -2.761  1.00  0.00    -0.391 OA
ATOM     51  H6  UNL     1     -26.611  12.605  -3.261  1.00  0.00     0.210 HD
ENDBRANCH   5  50
BRANCH   6  52
HETATM   52  O7  UNL     1     -23.725  11.891  -4.478  1.00  0.00    -0.390 OA
ATOM     53  H7  UNL     1     -23.371  11.167  -3.976  1.00  0.00     0.210 HD
ENDBRANCH   6  52
TORSDOF 14
ENDMDL
MODEL 3
REMARK VINA RESULT: -9.071012095      4.685      8.385
REMARK  14 active torsions:
REMARK  status: ('A' for Active; 'I' for Inactive)
REMARK    1  A    between atoms: N1_1  and  C1_5 
REMARK    2  A    between atoms: C1_5  and  C2_6 
REMARK       I    between atoms: C2_6  and  N2_8 
REMARK    3  A    between atoms: N2_8  and  C3_10 
REMARK    4  A    between atoms: C3_10  and  C4_11 
REMARK    5  A    between atoms: C5_13  and  N3_14 
REMARK    6  A    between atoms: N4_16  and  N5_18 
REMARK    7  A    between atoms: N5_18  and  C6_20 
REMARK    8  A    between atoms: C7_23  and  N7_24 
REMARK    9  A    between atoms: C8_31  and  C9_32 
REMARK   10  A    between atoms: C11_37  and  N10_38 
REMARK   11  A    between atoms: N10_38  and  C12_40 
REMARK   12  A    between atoms: C13_44  and  O4_45 
REMARK   13  A    between atoms: C14_48  and  O6_49 
REMARK   14  A    between atoms: C15_51  and  O7_52 
ROOT
HETATM    1  C4  UNL     1     -33.823   6.162  -6.474  1.00  0.00     0.173 C 
HETATM    2  O2  UNL     1     -32.814   5.993  -5.529  1.00  0.00    -0.354 OA
HETATM    3  C5  UNL     1     -32.014   7.135  -5.429  1.00  0.00     0.263 C 
HETATM    4  C11 UNL     1     -32.871   8.198  -4.823  1.00  0.00     0.162 C 
HETATM    5  C14 UNL     1     -33.909   8.612  -5.846  1.00  0.00     0.176 C 
HETATM    6  C15 UNL     1     -34.674   7.386  -6.229  1.00  0.00     0.179 C 
ENDROOT
BRANCH   3   7
HETATM    7  N3  UNL     1     -31.450   7.495  -6.712  1.00  0.00    -0.291 N 
HETATM    8  N4  UNL     1     -30.332   7.128  -7.123  1.00  0.00    -0.243 N 
ATOM      9  H4  UNL     1     -30.069   7.462  -8.050  1.00  0.00     0.208 HD
ATOM     10  H3  UNL     1     -32.007   8.092  -7.323  1.00  0.00     0.184 HD
BRANCH   8  11
HETATM   11  N5  UNL     1     -29.407   6.332  -6.489  1.00  0.00    -0.266 N 
ATOM     12  H5  UNL     1     -29.596   5.346  -6.303  1.00  0.00     0.190 HD
BRANCH  11  13
HETATM   13  C6  UNL     1     -28.165   6.938  -6.099  1.00  0.00     0.159 C 
HETATM   14  N6  UNL     1     -28.020   7.305  -4.893  1.00  0.00    -0.320 N 
HETATM   15  C7  UNL     1     -26.952   7.923  -4.178  1.00  0.00     0.485 C 
ATOM     16  H6  UNL     1     -28.838   7.118  -4.314  1.00  0.00     0.165 HD
HETATM   17  N8  UNL     1     -25.640   7.444  -4.531  1.00  0.00    -0.016 N 
HETATM   18  C8  UNL     1     -25.154   8.078  -5.724  1.00  0.00     0.288 C 
ATOM     19  H82 UNL     1     -24.983   7.549  -3.758  1.00  0.00     0.282 HD
ATOM     20  H81 UNL     1     -25.623   6.427  -4.615  1.00  0.00     0.282 HD
HETATM   21  C10 UNL     1     -25.295   7.103  -6.868  1.00  0.00     0.125 C 
HETATM   22  S1  UNL     1     -27.009   7.066  -7.440  1.00  0.00    -0.090 SA
BRANCH  15  23
HETATM   23  N7  UNL     1     -26.945   9.358  -4.251  1.00  0.00    -0.033 N 
ATOM     24  H73 UNL     1     -27.252   9.669  -5.172  1.00  0.00     0.278 HD
ATOM     25  H72 UNL     1     -27.693   9.747  -3.677  1.00  0.00     0.278 HD
ATOM     26  H71 UNL     1     -26.051   9.786  -4.009  1.00  0.00     0.278 HD
ENDBRANCH  15  23
BRANCH  18  27
HETATM   27  C9  UNL     1     -23.774   8.561  -5.555  1.00  0.00     0.263 C 
HETATM   28  N9  UNL     1     -23.539   9.714  -4.787  1.00  0.00    -0.060 NA
HETATM   29  O3  UNL     1     -22.770   7.991  -6.068  1.00  0.00    -0.275 OA
ENDBRANCH  18  27
ENDBRANCH  11  13
ENDBRANCH   8  11
ENDBRANCH   3   7
BRANCH   4  30
HETATM   30  N10 UNL     1     -32.206   9.263  -4.170  1.00  0.00    -0.363 N 
ATOM     31  H10 UNL     1     -32.580  10.212  -4.202  1.00  0.00     0.158 HD
BRANCH  30  32
HETATM   32  C12 UNL     1     -31.007   8.978  -3.470  1.00  0.00     0.434 C 
HETATM   33  N11 UNL     1     -30.826   9.998  -2.417  1.00  0.00     0.019 N 
HETATM   34  C13 UNL     1     -30.270  10.758  -3.547  1.00  0.00     0.475 C 
ATOM     35 2H11 UNL     1     -31.581  10.339  -1.822  1.00  0.00     0.288 HD
ATOM     36 1H11 UNL     1     -30.324   9.829  -1.546  1.00  0.00     0.288 HD
HETATM   37  O5  UNL     1     -29.829   9.509  -4.042  1.00  0.00    -0.289 OA
BRANCH  34  38
HETATM   38  O4  UNL     1     -29.210  11.572  -3.212  1.00  0.00    -0.349 OA
ATOM     39  H4  UNL     1     -28.390  11.331  -3.625  1.00  0.00     0.214 HD
ENDBRANCH  34  38
ENDBRANCH  30  32
ENDBRANCH   4  30
BRANCH   1  40
HETATM   40  C3  UNL     1     -34.747   4.972  -6.330  1.00  0.00     0.157 C 
BRANCH  40  41
HETATM   41  N2  UNL     1     -34.646   4.003  -7.364  1.00  0.00    -0.357 N 
HETATM   42  C2  UNL     1     -34.672   2.612  -7.156  1.00  0.00     0.243 C 
HETATM   43  O1  UNL     1     -34.789   2.159  -5.996  1.00  0.00    -0.272 OA
ATOM     44  H2  UNL     1     -34.547   4.339  -8.322  1.00  0.00     0.162 HD
BRANCH  42  45
HETATM   45  C1  UNL     1     -34.568   1.624  -8.256  1.00  0.00     0.331 C 
BRANCH  45  46
HETATM   46  N1  UNL     1     -33.267   1.004  -8.294  1.00  0.00    -0.071 N 
ATOM     47  H13 UNL     1     -32.672   1.340  -7.536  1.00  0.00     0.274 HD
ATOM     48  H12 UNL     1     -33.316   0.019  -8.033  1.00  0.00     0.274 HD
ATOM     49  H11 UNL     1     -32.818   1.126  -9.201  1.00  0.00     0.274 HD
ENDBRANCH  45  46
ENDBRANCH  42  45
ENDBRANCH  40  41
ENDBRANCH   1  40
BRANCH   5  50
HETATM   50  O6  UNL     1     -34.833   9.501  -5.250  1.00  0.00    -0.391 OA
ATOM     51  H6  UNL     1     -35.474   9.775  -5.895  1.00  0.00     0.210 HD
ENDBRANCH   5  50
BRANCH   6  52
HETATM   52  O7  UNL     1     -35.390   7.600  -7.429  1.00  0.00    -0.390 OA
ATOM     53  H7  UNL     1     -36.091   6.960  -7.427  1.00  0.00     0.210 HD
ENDBRANCH   6  52
TORSDOF 14
ENDMDL
MODEL 4
REMARK VINA RESULT: -9.009648438      3.661      8.364
REMARK  14 active torsions:
REMARK  status: ('A' for Active; 'I' for Inactive)
REMARK    1  A    between atoms: N1_1  and  C1_5 
REMARK    2  A    between atoms: C1_5  and  C2_6 
REMARK       I    between atoms: C2_6  and  N2_8 
REMARK    3  A    between atoms: N2_8  and  C3_10 
REMARK    4  A    between atoms: C3_10  and  C4_11 
REMARK    5  A    between atoms: C5_13  and  N3_14 
REMARK    6  A    between atoms: N4_16  and  N5_18 
REMARK    7  A    between atoms: N5_18  and  C6_20 
REMARK    8  A    between atoms: C7_23  and  N7_24 
REMARK    9  A    between atoms: C8_31  and  C9_32 
REMARK   10  A    between atoms: C11_37  and  N10_38 
REMARK   11  A    between atoms: N10_38  and  C12_40 
REMARK   12  A    between atoms: C13_44  and  O4_45 
REMARK   13  A    between atoms: C14_48  and  O6_49 
REMARK   14  A    between atoms: C15_51  and  O7_52 
ROOT
HETATM    1  C4  UNL     1     -26.603  10.215  -4.821  1.00  0.00     0.173 C 
HETATM    2  O2  UNL     1     -26.239   9.023  -4.200  1.00  0.00    -0.354 OA
HETATM    3  C5  UNL     1     -25.455   8.229  -5.043  1.00  0.00     0.263 C 
HETATM    4  C11 UNL     1     -24.152   8.940  -5.199  1.00  0.00     0.162 C 
HETATM    5  C14 UNL     1     -24.385  10.180  -6.039  1.00  0.00     0.176 C 
HETATM    6  C15 UNL     1     -25.424  11.001  -5.345  1.00  0.00     0.179 C 
ENDROOT
BRANCH   3   7
HETATM    7  N3  UNL     1     -26.134   7.962  -6.293  1.00  0.00    -0.291 N 
HETATM    8  N4  UNL     1     -27.172   7.282  -6.404  1.00  0.00    -0.243 N 
ATOM      9  H4  UNL     1     -27.536   7.180  -7.351  1.00  0.00     0.208 HD
ATOM     10  H3  UNL     1     -25.733   8.358  -7.143  1.00  0.00     0.184 HD
BRANCH   8  11
HETATM   11  N5  UNL     1     -27.892   6.650  -5.417  1.00  0.00    -0.266 N 
ATOM     12  H5  UNL     1     -27.460   6.398  -4.527  1.00  0.00     0.190 HD
BRANCH  11  13
HETATM   13  C6  UNL     1     -29.272   6.359  -5.684  1.00  0.00     0.159 C 
HETATM   14  N6  UNL     1     -29.832   6.924  -6.672  1.00  0.00    -0.320 N 
HETATM   15  C7  UNL     1     -31.150   6.870  -7.215  1.00  0.00     0.485 C 
ATOM     16  H6  UNL     1     -29.209   7.548  -7.186  1.00  0.00     0.165 HD
HETATM   17  N8  UNL     1     -31.744   5.557  -7.213  1.00  0.00    -0.016 N 
HETATM   18  C8  UNL     1     -32.303   5.237  -5.931  1.00  0.00     0.288 C 
ATOM     19  H82 UNL     1     -32.434   5.458  -7.957  1.00  0.00     0.282 HD
ATOM     20  H81 UNL     1     -31.079   4.846  -7.520  1.00  0.00     0.282 HD
HETATM   21  C10 UNL     1     -31.361   4.290  -5.228  1.00  0.00     0.125 C 
HETATM   22  S1  UNL     1     -29.970   5.207  -4.528  1.00  0.00    -0.090 SA
BRANCH  15  23
HETATM   23  N7  UNL     1     -32.076   7.788  -6.611  1.00  0.00    -0.033 N 
ATOM     24  H73 UNL     1     -32.897   7.908  -7.205  1.00  0.00     0.278 HD
ATOM     25  H72 UNL     1     -32.514   7.365  -5.792  1.00  0.00     0.278 HD
ATOM     26  H71 UNL     1     -31.673   8.694  -6.371  1.00  0.00     0.278 HD
ENDBRANCH  15  23
BRANCH  18  27
HETATM   27  C9  UNL     1     -33.666   4.696  -6.056  1.00  0.00     0.263 C 
HETATM   28  N9  UNL     1     -34.644   5.447  -6.729  1.00  0.00    -0.060 NA
HETATM   29  O3  UNL     1     -34.015   3.576  -5.587  1.00  0.00    -0.275 OA
ENDBRANCH  18  27
ENDBRANCH  11  13
ENDBRANCH   8  11
ENDBRANCH   3   7
BRANCH   4  30
HETATM   30  N10 UNL     1     -23.035   8.157  -5.575  1.00  0.00    -0.363 N 
ATOM     31  H10 UNL     1     -22.326   7.893  -4.889  1.00  0.00     0.158 HD
BRANCH  30  32
HETATM   32  C12 UNL     1     -22.925   7.748  -6.927  1.00  0.00     0.434 C 
HETATM   33  N11 UNL     1     -22.780   6.279  -6.961  1.00  0.00     0.019 N 
HETATM   34  C13 UNL     1     -21.375   6.626  -6.701  1.00  0.00     0.475 C 
ATOM     35 2H11 UNL     1     -23.324   5.641  -6.379  1.00  0.00     0.288 HD
ATOM     36 1H11 UNL     1     -23.085   5.697  -7.742  1.00  0.00     0.288 HD
HETATM   37  O5  UNL     1     -21.621   7.786  -7.470  1.00  0.00    -0.289 OA
BRANCH  34  38
HETATM   38  O4  UNL     1     -20.465   5.794  -7.317  1.00  0.00    -0.349 OA
ATOM     39  H4  UNL     1     -20.311   5.998  -8.232  1.00  0.00     0.214 HD
ENDBRANCH  34  38
ENDBRANCH  30  32
ENDBRANCH   4  30
BRANCH   1  40
HETATM   40  C3  UNL     1     -27.241  11.076  -3.751  1.00  0.00     0.157 C 
BRANCH  40  41
HETATM   41  N2  UNL     1     -28.429  10.546  -3.181  1.00  0.00    -0.357 N 
HETATM   42  C2  UNL     1     -29.730  10.948  -3.536  1.00  0.00     0.243 C 
HETATM   43  O1  UNL     1     -29.890  11.833  -4.407  1.00  0.00    -0.272 OA
ATOM     44  H2  UNL     1     -28.333   9.825  -2.466  1.00  0.00     0.162 HD
BRANCH  42  45
HETATM   45  C1  UNL     1     -30.952  10.374  -2.926  1.00  0.00     0.331 C 
BRANCH  45  46
HETATM   46  N1  UNL     1     -31.204   9.035  -3.398  1.00  0.00    -0.071 N 
ATOM     47  H13 UNL     1     -30.336   8.552  -3.629  1.00  0.00     0.274 HD
ATOM     48  H12 UNL     1     -31.528   8.430  -2.644  1.00  0.00     0.274 HD
ATOM     49  H11 UNL     1     -31.853   9.029  -4.185  1.00  0.00     0.274 HD
ENDBRANCH  45  46
ENDBRANCH  42  45
ENDBRANCH  40  41
ENDBRANCH   1  40
BRANCH   5  50
HETATM   50  O6  UNL     1     -23.204  10.958  -6.073  1.00  0.00    -0.391 OA
ATOM     51  H6  UNL     1     -23.210  11.511  -6.845  1.00  0.00     0.210 HD
ENDBRANCH   5  50
BRANCH   6  52
HETATM   52  O7  UNL     1     -25.969  11.964  -6.226  1.00  0.00    -0.390 OA
ATOM     53  H7  UNL     1     -25.614  12.799  -5.944  1.00  0.00     0.210 HD
ENDBRANCH   6  52
TORSDOF 14
ENDMDL
MODEL 5
REMARK VINA RESULT: -8.938576658      4.916      8.714
REMARK  14 active torsions:
REMARK  status: ('A' for Active; 'I' for Inactive)
REMARK    1  A    between atoms: N1_1  and  C1_5 
REMARK    2  A    between atoms: C1_5  and  C2_6 
REMARK       I    between atoms: C2_6  and  N2_8 
REMARK    3  A    between atoms: N2_8  and  C3_10 
REMARK    4  A    between atoms: C3_10  and  C4_11 
REMARK    5  A    between atoms: C5_13  and  N3_14 
REMARK    6  A    between atoms: N4_16  and  N5_18 
REMARK    7  A    between atoms: N5_18  and  C6_20 
REMARK    8  A    between atoms: C7_23  and  N7_24 
REMARK    9  A    between atoms: C8_31  and  C9_32 
REMARK   10  A    between atoms: C11_37  and  N10_38 
REMARK   11  A    between atoms: N10_38  and  C12_40 
REMARK   12  A    between atoms: C13_44  and  O4_45 
REMARK   13  A    between atoms: C14_48  and  O6_49 
REMARK   14  A    between atoms: C15_51  and  O7_52 
ROOT
HETATM    1  C4  UNL     1     -34.276   6.234  -6.434  1.00  0.00     0.173 C 
HETATM    2  O2  UNL     1     -33.251   6.101  -5.501  1.00  0.00    -0.354 OA
HETATM    3  C5  UNL     1     -32.437   7.238  -5.474  1.00  0.00     0.263 C 
HETATM    4  C11 UNL     1     -33.271   8.339  -4.906  1.00  0.00     0.162 C 
HETATM    5  C14 UNL     1     -34.325   8.713  -5.929  1.00  0.00     0.176 C 
HETATM    6  C15 UNL     1     -35.110   7.478  -6.234  1.00  0.00     0.179 C 
ENDROOT
BRANCH   3   7
HETATM    7  N3  UNL     1     -31.895   7.527  -6.784  1.00  0.00    -0.291 N 
HETATM    8  N4  UNL     1     -30.805   7.098  -7.210  1.00  0.00    -0.243 N 
ATOM      9  H4  UNL     1     -30.554   7.386  -8.156  1.00  0.00     0.208 HD
ATOM     10  H3  UNL     1     -32.444   8.124  -7.403  1.00  0.00     0.184 HD
BRANCH   8  11
HETATM   11  N5  UNL     1     -29.897   6.286  -6.572  1.00  0.00    -0.266 N 
ATOM     12  H5  UNL     1     -30.180   5.397  -6.159  1.00  0.00     0.190 HD
BRANCH  11  13
HETATM   13  C6  UNL     1     -28.534   6.736  -6.508  1.00  0.00     0.159 C 
HETATM   14  N6  UNL     1     -27.887   6.870  -7.591  1.00  0.00    -0.320 N 
HETATM   15  C7  UNL     1     -26.556   7.283  -7.893  1.00  0.00     0.485 C 
ATOM     16  H6  UNL     1     -28.433   6.631  -8.419  1.00  0.00     0.165 HD
HETATM   17  N8  UNL     1     -26.074   8.378  -7.089  1.00  0.00    -0.016 N 
HETATM   18  C8  UNL     1     -25.599   7.922  -5.813  1.00  0.00     0.288 C 
ATOM     19  H82 UNL     1     -25.362   8.917  -7.582  1.00  0.00     0.282 HD
ATOM     20  H81 UNL     1     -26.780   9.106  -6.987  1.00  0.00     0.282 HD
HETATM   21  C10 UNL     1     -26.646   8.248  -4.776  1.00  0.00     0.125 C 
HETATM   22  S1  UNL     1     -27.985   7.037  -4.847  1.00  0.00    -0.090 SA
BRANCH  15  23
HETATM   23  N7  UNL     1     -25.584   6.226  -7.849  1.00  0.00    -0.033 N 
ATOM     24  H73 UNL     1     -25.739   5.634  -7.032  1.00  0.00     0.278 HD
ATOM     25  H72 UNL     1     -25.761   5.549  -8.591  1.00  0.00     0.278 HD
ATOM     26  H71 UNL     1     -24.616   6.544  -7.880  1.00  0.00     0.278 HD
ENDBRANCH  15  23
BRANCH  18  27
HETATM   27  C9  UNL     1     -24.281   8.493  -5.492  1.00  0.00     0.263 C 
HETATM   28  N9  UNL     1     -23.132   7.945  -6.085  1.00  0.00    -0.060 NA
HETATM   29  O3  UNL     1     -24.119   9.465  -4.701  1.00  0.00    -0.275 OA
ENDBRANCH  18  27
ENDBRANCH  11  13
ENDBRANCH   8  11
ENDBRANCH   3   7
BRANCH   4  30
HETATM   30  N10 UNL     1     -32.583   9.429  -4.321  1.00  0.00    -0.363 N 
ATOM     31  H10 UNL     1     -32.902  10.387  -4.464  1.00  0.00     0.158 HD
BRANCH  30  32
HETATM   32  C12 UNL     1     -31.440   9.154  -3.531  1.00  0.00     0.434 C 
HETATM   33  N11 UNL     1     -31.380  10.142  -2.434  1.00  0.00     0.019 N 
HETATM   34  C13 UNL     1     -30.754  10.955  -3.488  1.00  0.00     0.475 C 
ATOM     35 2H11 UNL     1     -32.193  10.441  -1.896  1.00  0.00     0.288 HD
ATOM     36 1H11 UNL     1     -30.948   9.958  -1.529  1.00  0.00     0.288 HD
HETATM   37  O5  UNL     1     -30.234   9.737  -3.982  1.00  0.00    -0.289 OA
BRANCH  34  38
HETATM   38  O4  UNL     1     -29.753  11.787  -3.037  1.00  0.00    -0.349 OA
ATOM     39  H4  UNL     1     -29.219  12.162  -3.728  1.00  0.00     0.214 HD
ENDBRANCH  34  38
ENDBRANCH  30  32
ENDBRANCH   4  30
BRANCH   1  40
HETATM   40  C3  UNL     1     -35.209   5.062  -6.212  1.00  0.00     0.157 C 
BRANCH  40  41
HETATM   41  N2  UNL     1     -34.676   3.794  -6.564  1.00  0.00    -0.357 N 
HETATM   42  C2  UNL     1     -35.451   2.680  -6.936  1.00  0.00     0.243 C 
HETATM   43  O1  UNL     1     -36.698   2.774  -6.967  1.00  0.00    -0.272 OA
ATOM     44  H2  UNL     1     -33.661   3.683  -6.546  1.00  0.00     0.162 HD
BRANCH  42  45
HETATM   45  C1  UNL     1     -34.865   1.368  -7.302  1.00  0.00     0.331 C 
BRANCH  45  46
HETATM   46  N1  UNL     1     -34.334   0.683  -6.149  1.00  0.00    -0.071 N 
ATOM     47  H13 UNL     1     -35.071   0.435  -5.490  1.00  0.00     0.274 HD
ATOM     48  H12 UNL     1     -34.014  -0.256  -6.390  1.00  0.00     0.274 HD
ATOM     49  H11 UNL     1     -33.597   1.223  -5.697  1.00  0.00     0.274 HD
ENDBRANCH  45  46
ENDBRANCH  42  45
ENDBRANCH  40  41
ENDBRANCH   1  40
BRANCH   5  50
HETATM   50  O6  UNL     1     -35.228   9.641  -5.361  1.00  0.00    -0.391 OA
ATOM     51  H6  UNL     1     -36.098   9.498  -5.716  1.00  0.00     0.210 HD
ENDBRANCH   5  50
BRANCH   6  52
HETATM   52  O7  UNL     1     -35.847   7.639  -7.431  1.00  0.00    -0.390 OA
ATOM     53  H7  UNL     1     -36.761   7.617  -7.173  1.00  0.00     0.210 HD
ENDBRANCH   6  52
TORSDOF 14
ENDMDL
