MODEL 1
REMARK VINA RESULT: -6.236105751      0.000      0.000
REMARK  2 active torsions:
REMARK  status: ('A' for Active; 'I' for Inactive)
REMARK    1  A    between atoms: N3_4  and  N4_6 
REMARK    2  A    between atoms: C2_8  and  C3_9 
ROOT
HETATM    1  C3  UNL     1      -7.662  12.865  49.547  1.00  0.00     0.090 A 
HETATM    2  C4  UNL     1      -7.138  13.416  50.699  1.00  0.00     0.137 A 
HETATM    3  N5  UNL     1      -7.883  13.298  51.898  1.00  0.00    -0.081 NA
HETATM    4  N6  UNL     1      -5.956  14.032  50.617  1.00  0.00    -0.296 N 
ATOM      5  H6  UNL     1      -5.545  14.449  51.453  1.00  0.00     0.171 HD
HETATM    6  C5  UNL     1      -5.301  14.107  49.444  1.00  0.00     0.328 A 
HETATM    7  O1  UNL     1      -4.172  14.704  49.402  1.00  0.00    -0.247 OA
HETATM    8  N7  UNL     1      -5.779  13.583  48.300  1.00  0.00    -0.275 N 
ATOM      9  H7  UNL     1      -5.261  13.656  47.424  1.00  0.00     0.173 HD
HETATM   10  C6  UNL     1      -6.970  12.958  48.363  1.00  0.00     0.264 A 
HETATM   11  O2  UNL     1      -7.441  12.457  47.308  1.00  0.00    -0.267 OA
ENDROOT
BRANCH   1  12
HETATM   12  C2  UNL     1      -8.948  12.183  49.589  1.00  0.00     0.127 C 
HETATM   13  N4  UNL     1      -9.109  10.992  49.169  1.00  0.00    -0.309 N 
ATOM     14  H4  UNL     1      -8.307  10.491  48.787  1.00  0.00     0.186 HD
BRANCH  13  15
HETATM   15  N3  UNL     1     -10.346  10.348  49.215  1.00  0.00    -0.276 N 
HETATM   16  C1  UNL     1     -10.879   9.764  48.204  1.00  0.00     0.215 C 
HETATM   17  N1  UNL     1     -10.255   9.714  46.928  1.00  0.00    -0.065 NA
HETATM   18  N2  UNL     1     -12.153   9.145  48.402  1.00  0.00    -0.065 NA
ATOM     19  H3  UNL     1     -10.854  10.341  50.099  1.00  0.00     0.189 HD
ENDBRANCH  13  15
ENDBRANCH   1  12
TORSDOF 2
ENDMDL
MODEL 2
REMARK VINA RESULT: -6.207145512      1.656      2.051
REMARK  2 active torsions:
REMARK  status: ('A' for Active; 'I' for Inactive)
REMARK    1  A    between atoms: N3_4  and  N4_6 
REMARK    2  A    between atoms: C2_8  and  C3_9 
ROOT
HETATM    1  C3  UNL     1      -7.656  12.993  49.695  1.00  0.00     0.090 A 
HETATM    2  C4  UNL     1      -6.943  13.616  50.699  1.00  0.00     0.137 A 
HETATM    3  N5  UNL     1      -7.529  13.698  51.986  1.00  0.00    -0.081 NA
HETATM    4  N6  UNL     1      -5.739  14.109  50.399  1.00  0.00    -0.296 N 
ATOM      5  H6  UNL     1      -5.190  14.576  51.121  1.00  0.00     0.171 HD
HETATM    6  C5  UNL     1      -5.242  13.996  49.153  1.00  0.00     0.328 A 
HETATM    7  O1  UNL     1      -4.086  14.479  48.900  1.00  0.00    -0.247 OA
HETATM    8  N7  UNL     1      -5.907  13.395  48.148  1.00  0.00    -0.275 N 
ATOM      9  H7  UNL     1      -5.506  13.325  47.213  1.00  0.00     0.173 HD
HETATM   10  C6  UNL     1      -7.123  12.893  48.431  1.00  0.00     0.264 A 
HETATM   11  O2  UNL     1      -7.767  12.324  47.511  1.00  0.00    -0.267 OA
ENDROOT
BRANCH   1  12
HETATM   12  C2  UNL     1      -8.974  12.440  49.977  1.00  0.00     0.127 C 
HETATM   13  N4  UNL     1      -9.155  11.219  50.290  1.00  0.00    -0.309 N 
ATOM     14  H4  UNL     1      -8.346  10.599  50.347  1.00  0.00     0.186 HD
BRANCH  13  15
HETATM   15  N3  UNL     1     -10.422  10.700  50.559  1.00  0.00    -0.276 N 
HETATM   16  C1  UNL     1     -10.744  10.160  51.677  1.00  0.00     0.215 C 
HETATM   17  N1  UNL     1      -9.835  10.038  52.762  1.00  0.00    -0.065 NA
HETATM   18  N2  UNL     1     -12.082   9.673  51.807  1.00  0.00    -0.065 NA
ATOM     19  H3  UNL     1     -11.130  10.753  49.827  1.00  0.00     0.189 HD
ENDBRANCH  13  15
ENDBRANCH   1  12
TORSDOF 2
ENDMDL
MODEL 3
REMARK VINA RESULT: -6.109476863      1.248      1.248
REMARK  2 active torsions:
REMARK  status: ('A' for Active; 'I' for Inactive)
REMARK    1  A    between atoms: N3_4  and  N4_6 
REMARK    2  A    between atoms: C2_8  and  C3_9 
ROOT
HETATM    1  C3  UNL     1      -7.667  12.925  49.559  1.00  0.00     0.090 A 
HETATM    2  C4  UNL     1      -7.120  13.489  50.693  1.00  0.00     0.137 A 
HETATM    3  N5  UNL     1      -7.860  13.422  51.899  1.00  0.00    -0.081 NA
HETATM    4  N6  UNL     1      -5.921  14.068  50.589  1.00  0.00    -0.296 N 
ATOM      5  H6  UNL     1      -5.493  14.494  51.412  1.00  0.00     0.171 HD
HETATM    6  C5  UNL     1      -5.273  14.096  49.411  1.00  0.00     0.328 A 
HETATM    7  O1  UNL     1      -4.127  14.658  49.347  1.00  0.00    -0.247 OA
HETATM    8  N7  UNL     1      -5.773  13.557  48.283  1.00  0.00    -0.275 N 
ATOM      9  H7  UNL     1      -5.259  13.594  47.402  1.00  0.00     0.173 HD
HETATM   10  C6  UNL     1      -6.981  12.969  48.368  1.00  0.00     0.264 A 
HETATM   11  O2  UNL     1      -7.473  12.456  47.329  1.00  0.00    -0.267 OA
ENDROOT
BRANCH   1  12
HETATM   12  C2  UNL     1      -8.972  12.281  49.625  1.00  0.00     0.127 C 
HETATM   13  N4  UNL     1     -10.037  12.842  49.211  1.00  0.00    -0.309 N 
ATOM     14  H4  UNL     1      -9.979  13.781  48.816  1.00  0.00     0.186 HD
BRANCH  13  15
HETATM   15  N3  UNL     1     -11.282  12.216  49.279  1.00  0.00    -0.276 N 
HETATM   16  C1  UNL     1     -11.874  11.701  48.263  1.00  0.00     0.215 C 
HETATM   17  N1  UNL     1     -11.313  11.718  46.957  1.00  0.00    -0.065 NA
HETATM   18  N2  UNL     1     -13.148  11.092  48.486  1.00  0.00    -0.065 NA
ATOM     19  H3  UNL     1     -11.747  12.164  50.185  1.00  0.00     0.189 HD
ENDBRANCH  13  15
ENDBRANCH   1  12
TORSDOF 2
ENDMDL
MODEL 4
REMARK VINA RESULT: -6.096298798      1.465      2.155
REMARK  2 active torsions:
REMARK  status: ('A' for Active; 'I' for Inactive)
REMARK    1  A    between atoms: N3_4  and  N4_6 
REMARK    2  A    between atoms: C2_8  and  C3_9 
ROOT
HETATM    1  C3  UNL     1      -7.595  13.038  49.874  1.00  0.00     0.090 A 
HETATM    2  C4  UNL     1      -6.830  13.205  48.738  1.00  0.00     0.137 A 
HETATM    3  N5  UNL     1      -7.323  12.685  47.516  1.00  0.00    -0.081 NA
HETATM    4  N6  UNL     1      -5.665  13.848  48.855  1.00  0.00    -0.296 N 
ATOM      5  H6  UNL     1      -5.079  13.985  48.032  1.00  0.00     0.171 HD
HETATM    6  C5  UNL     1      -5.258  14.316  50.049  1.00  0.00     0.328 A 
HETATM    7  O1  UNL     1      -4.138  14.927  50.126  1.00  0.00    -0.247 OA
HETATM    8  N7  UNL     1      -5.975  14.174  51.179  1.00  0.00    -0.275 N 
ATOM      9  H7  UNL     1      -5.641  14.538  52.071  1.00  0.00     0.173 HD
HETATM   10  C6  UNL     1      -7.152  13.528  51.081  1.00  0.00     0.264 A 
HETATM   11  O2  UNL     1      -7.845  13.380  52.122  1.00  0.00    -0.267 OA
ENDROOT
BRANCH   1  12
HETATM   12  C2  UNL     1      -8.873  12.344  49.794  1.00  0.00     0.127 C 
HETATM   13  N4  UNL     1      -8.976  11.136  49.404  1.00  0.00    -0.309 N 
ATOM     14  H4  UNL     1      -8.131  10.630  49.136  1.00  0.00     0.186 HD
BRANCH  13  15
HETATM   15  N3  UNL     1     -10.205  10.480  49.331  1.00  0.00    -0.276 N 
HETATM   16  C1  UNL     1     -10.740  10.096  48.230  1.00  0.00     0.215 C 
HETATM   17  N1  UNL     1     -10.125  10.301  46.965  1.00  0.00    -0.065 NA
HETATM   18  N2  UNL     1     -12.005   9.435  48.312  1.00  0.00    -0.065 NA
ATOM     19  H3  UNL     1     -10.706  10.296  50.200  1.00  0.00     0.189 HD
ENDBRANCH  13  15
ENDBRANCH   1  12
TORSDOF 2
ENDMDL
MODEL 5
REMARK VINA RESULT: -6.078706197      1.712      2.464
REMARK  2 active torsions:
REMARK  status: ('A' for Active; 'I' for Inactive)
REMARK    1  A    between atoms: N3_4  and  N4_6 
REMARK    2  A    between atoms: C2_8  and  C3_9 
ROOT
HETATM    1  C3  UNL     1      -7.513  13.154  49.937  1.00  0.00     0.090 A 
HETATM    2  C4  UNL     1      -7.077  13.012  48.635  1.00  0.00     0.137 A 
HETATM    3  N5  UNL     1      -7.936  12.373  47.707  1.00  0.00    -0.081 NA
HETATM    4  N6  UNL     1      -5.867  13.483  48.324  1.00  0.00    -0.296 N 
ATOM      5  H6  UNL     1      -5.519  13.391  47.370  1.00  0.00     0.171 HD
HETATM    6  C5  UNL     1      -5.103  14.080  49.257  1.00  0.00     0.328 A 
HETATM    7  O1  UNL     1      -3.950  14.520  48.925  1.00  0.00    -0.247 OA
HETATM    8  N7  UNL     1      -5.492  14.238  50.536  1.00  0.00    -0.275 N 
ATOM      9  H7  UNL     1      -4.891  14.693  51.223  1.00  0.00     0.173 HD
HETATM   10  C6  UNL     1      -6.709  13.768  50.869  1.00  0.00     0.264 A 
HETATM   11  O2  UNL     1      -7.101  13.903  52.058  1.00  0.00    -0.267 OA
ENDROOT
BRANCH   1  12
HETATM   12  C2  UNL     1      -8.826  12.655  50.321  1.00  0.00     0.127 C 
HETATM   13  N4  UNL     1      -9.009  11.481  50.777  1.00  0.00    -0.309 N 
ATOM     14  H4  UNL     1      -8.206  10.860  50.878  1.00  0.00     0.186 HD
BRANCH  13  15
HETATM   15  N3  UNL     1     -10.272  11.013  51.143  1.00  0.00    -0.276 N 
HETATM   16  C1  UNL     1     -10.974  10.223  50.415  1.00  0.00     0.215 C 
HETATM   17  N1  UNL     1     -10.529   9.742  49.154  1.00  0.00    -0.065 NA
HETATM   18  N2  UNL     1     -12.251   9.828  50.922  1.00  0.00    -0.065 NA
ATOM     19  H3  UNL     1     -10.658  11.315  52.037  1.00  0.00     0.189 HD
ENDBRANCH  13  15
ENDBRANCH   1  12
TORSDOF 2
ENDMDL
