MODEL 1
REMARK VINA RESULT: -7.161260327      0.000      0.000
REMARK  3 active torsions:
REMARK  status: ('A' for Active; 'I' for Inactive)
REMARK    1  A    between atoms: C1_4  and  C2_6 
REMARK    2  A    between atoms: C4_10  and  S1_11 
REMARK    3  A    between atoms: S1_11  and  N4_12 
ROOT
HETATM    1  C2  UNL     1      -6.634  13.600  50.090  1.00  0.00     0.088 A 
HETATM    2  C3  UNL     1      -7.706  13.015  50.696  1.00  0.00     0.111 A 
HETATM    3  N3  UNL     1      -8.539  12.254  49.942  1.00  0.00    -0.340 N 
ATOM      4  H3  UNL     1      -9.343  11.813  50.390  1.00  0.00     0.167 HD
HETATM    5  C4  UNL     1      -8.342  12.062  48.632  1.00  0.00     0.226 A 
HETATM    6  N5  UNL     1      -7.294  12.624  48.005  1.00  0.00    -0.298 N 
ATOM      7  H5  UNL     1      -7.143  12.476  47.007  1.00  0.00     0.171 HD
HETATM    8  C5  UNL     1      -6.448  13.385  48.724  1.00  0.00     0.262 A 
HETATM    9  O3  UNL     1      -5.463  13.922  48.164  1.00  0.00    -0.267 OA
ENDROOT
BRANCH   5  10
HETATM   10  S1  UNL     1      -9.502  11.057  47.805  1.00  0.00     0.289 S 
HETATM   11  O1  UNL     1     -10.591  11.891  47.199  1.00  0.00    -0.198 OA
HETATM   12  O2  UNL     1      -8.746  10.288  46.747  1.00  0.00    -0.198 OA
BRANCH  10  13
HETATM   13  N4  UNL     1     -10.238   9.932  48.907  1.00  0.00    -0.322 N 
ATOM     14  H42 UNL     1     -10.423  10.137  49.889  1.00  0.00     0.169 HD
ATOM     15  H41 UNL     1     -10.452   9.053  48.435  1.00  0.00     0.169 HD
ENDBRANCH  10  13
ENDBRANCH   5  10
BRANCH   1  16
HETATM   16  C1  UNL     1      -5.711  14.422  50.844  1.00  0.00     0.127 C 
HETATM   17  N1  UNL     1      -4.470  14.530  50.600  1.00  0.00    -0.387 N 
ATOM     18  H12 UNL     1      -3.819  15.109  51.131  1.00  0.00     0.157 HD
ATOM     19  H11 UNL     1      -4.080  14.004  49.817  1.00  0.00     0.157 HD
HETATM   20  N2  UNL     1      -6.263  15.166  51.953  1.00  0.00    -0.082 NA
ENDBRANCH   1  16
TORSDOF 3
ENDMDL
MODEL 2
REMARK VINA RESULT: -6.957760178      0.975      1.150
REMARK  3 active torsions:
REMARK  status: ('A' for Active; 'I' for Inactive)
REMARK    1  A    between atoms: C1_4  and  C2_6 
REMARK    2  A    between atoms: C4_10  and  S1_11 
REMARK    3  A    between atoms: S1_11  and  N4_12 
ROOT
HETATM    1  C2  UNL     1      -6.646  13.595  50.154  1.00  0.00     0.088 A 
HETATM    2  C3  UNL     1      -7.690  13.001  50.801  1.00  0.00     0.111 A 
HETATM    3  N3  UNL     1      -8.535  12.220  50.083  1.00  0.00    -0.340 N 
ATOM      4  H3  UNL     1      -9.317  11.773  50.561  1.00  0.00     0.167 HD
HETATM    5  C4  UNL     1      -8.378  12.016  48.769  1.00  0.00     0.226 A 
HETATM    6  N5  UNL     1      -7.360  12.586  48.102  1.00  0.00    -0.298 N 
ATOM      7  H5  UNL     1      -7.239  12.430  47.101  1.00  0.00     0.171 HD
HETATM    8  C5  UNL     1      -6.502  13.368  48.785  1.00  0.00     0.262 A 
HETATM    9  O3  UNL     1      -5.543  13.913  48.188  1.00  0.00    -0.267 OA
ENDROOT
BRANCH   5  10
HETATM   10  S1  UNL     1      -9.550  10.986  47.991  1.00  0.00     0.289 S 
HETATM   11  O1  UNL     1      -8.962  10.337  46.774  1.00  0.00    -0.198 OA
HETATM   12  O2  UNL     1      -9.977   9.957  49.011  1.00  0.00    -0.198 OA
BRANCH  10  13
HETATM   13  N4  UNL     1     -10.940  11.903  47.493  1.00  0.00    -0.322 N 
ATOM     14  H42 UNL     1     -11.435  12.558  48.098  1.00  0.00     0.169 HD
ATOM     15  H41 UNL     1     -11.184  11.691  46.525  1.00  0.00     0.169 HD
ENDBRANCH  10  13
ENDBRANCH   5  10
BRANCH   1  16
HETATM   16  C1  UNL     1      -5.712  14.438  50.869  1.00  0.00     0.127 C 
HETATM   17  N1  UNL     1      -4.473  14.534  50.606  1.00  0.00    -0.387 N 
ATOM     18  H12 UNL     1      -3.814  15.128  51.110  1.00  0.00     0.157 HD
ATOM     19  H11 UNL     1      -4.095  13.981  49.836  1.00  0.00     0.157 HD
HETATM   20  N2  UNL     1      -6.247  15.220  51.960  1.00  0.00    -0.082 NA
ENDBRANCH   1  16
TORSDOF 3
ENDMDL
MODEL 3
REMARK VINA RESULT: -6.651429061      1.208      1.942
REMARK  3 active torsions:
REMARK  status: ('A' for Active; 'I' for Inactive)
REMARK    1  A    between atoms: C1_4  and  C2_6 
REMARK    2  A    between atoms: C4_10  and  S1_11 
REMARK    3  A    between atoms: S1_11  and  N4_12 
ROOT
HETATM    1  C2  UNL     1      -6.521  13.638  49.982  1.00  0.00     0.088 A 
HETATM    2  C3  UNL     1      -6.409  13.371  48.649  1.00  0.00     0.111 A 
HETATM    3  N3  UNL     1      -7.355  12.594  48.064  1.00  0.00    -0.340 N 
ATOM      4  H3  UNL     1      -7.277  12.391  47.067  1.00  0.00     0.167 HD
HETATM    5  C4  UNL     1      -8.386  12.084  48.749  1.00  0.00     0.226 A 
HETATM    6  N5  UNL     1      -8.525  12.329  50.063  1.00  0.00    -0.298 N 
ATOM      7  H5  UNL     1      -9.311  11.942  50.586  1.00  0.00     0.171 HD
HETATM    8  C5  UNL     1      -7.604  13.097  50.675  1.00  0.00     0.262 A 
HETATM    9  O3  UNL     1      -7.708  13.340  51.901  1.00  0.00    -0.267 OA
ENDROOT
BRANCH   5  10
HETATM   10  S1  UNL     1      -9.516  11.106  47.852  1.00  0.00     0.289 S 
HETATM   11  O1  UNL     1     -10.606  11.954  47.268  1.00  0.00    -0.198 OA
HETATM   12  O2  UNL     1      -8.728  10.403  46.771  1.00  0.00    -0.198 OA
BRANCH  10  13
HETATM   13  N4  UNL     1     -10.253   9.916  48.881  1.00  0.00    -0.322 N 
ATOM     14  H42 UNL     1     -11.254   9.721  48.898  1.00  0.00     0.169 HD
ATOM     15  H41 UNL     1      -9.550   9.451  49.456  1.00  0.00     0.169 HD
ENDBRANCH  10  13
ENDBRANCH   5  10
BRANCH   1  16
HETATM   16  C1  UNL     1      -5.542  14.461  50.659  1.00  0.00     0.127 C 
HETATM   17  N1  UNL     1      -5.689  14.957  51.819  1.00  0.00    -0.387 N 
ATOM     18  H12 UNL     1      -4.999  15.538  52.296  1.00  0.00     0.157 HD
ATOM     19  H11 UNL     1      -6.556  14.770  52.322  1.00  0.00     0.157 HD
HETATM   20  N2  UNL     1      -4.313  14.727  49.946  1.00  0.00    -0.082 NA
ENDBRANCH   1  16
TORSDOF 3
ENDMDL
MODEL 4
REMARK VINA RESULT: -6.494010805      1.569      2.264
REMARK  3 active torsions:
REMARK  status: ('A' for Active; 'I' for Inactive)
REMARK    1  A    between atoms: C1_4  and  C2_6 
REMARK    2  A    between atoms: C4_10  and  S1_11 
REMARK    3  A    between atoms: S1_11  and  N4_12 
ROOT
HETATM    1  C2  UNL     1      -6.550  13.639  50.046  1.00  0.00     0.088 A 
HETATM    2  C3  UNL     1      -6.468  13.347  48.715  1.00  0.00     0.111 A 
HETATM    3  N3  UNL     1      -7.417  12.547  48.170  1.00  0.00    -0.340 N 
ATOM      4  H3  UNL     1      -7.362  12.325  47.176  1.00  0.00     0.167 HD
HETATM    5  C4  UNL     1      -8.424  12.036  48.892  1.00  0.00     0.226 A 
HETATM    6  N5  UNL     1      -8.533  12.305  50.204  1.00  0.00    -0.298 N 
ATOM      7  H5  UNL     1      -9.300  11.918  50.754  1.00  0.00     0.171 HD
HETATM    8  C5  UNL     1      -7.607  13.097  50.777  1.00  0.00     0.262 A 
HETATM    9  O3  UNL     1      -7.684  13.364  52.000  1.00  0.00    -0.267 OA
ENDROOT
BRANCH   5  10
HETATM   10  S1  UNL     1      -9.562  11.025  48.043  1.00  0.00     0.289 S 
HETATM   11  O1  UNL     1      -8.933  10.428  46.819  1.00  0.00    -0.198 OA
HETATM   12  O2  UNL     1     -10.007   9.954  49.011  1.00  0.00    -0.198 OA
BRANCH  10  13
HETATM   13  N4  UNL     1     -10.947  11.946  47.540  1.00  0.00    -0.322 N 
ATOM     14  H42 UNL     1     -10.890  12.807  46.996  1.00  0.00     0.169 HD
ATOM     15  H41 UNL     1     -11.809  11.507  47.863  1.00  0.00     0.169 HD
ENDBRANCH  10  13
ENDBRANCH   5  10
BRANCH   1  16
HETATM   16  C1  UNL     1      -5.565  14.489  50.681  1.00  0.00     0.127 C 
HETATM   17  N1  UNL     1      -5.699  15.024  51.825  1.00  0.00    -0.387 N 
ATOM     18  H12 UNL     1      -5.006  15.623  52.273  1.00  0.00     0.157 HD
ATOM     19  H11 UNL     1      -6.559  14.850  52.346  1.00  0.00     0.157 HD
HETATM   20  N2  UNL     1      -4.347  14.736  49.943  1.00  0.00    -0.082 NA
ENDBRANCH   1  16
TORSDOF 3
ENDMDL
MODEL 5
REMARK VINA RESULT: -6.030535027      1.006      1.158
REMARK  3 active torsions:
REMARK  status: ('A' for Active; 'I' for Inactive)
REMARK    1  A    between atoms: C1_4  and  C2_6 
REMARK    2  A    between atoms: C4_10  and  S1_11 
REMARK    3  A    between atoms: S1_11  and  N4_12 
ROOT
HETATM    1  C2  UNL     1      -6.891  13.566  50.122  1.00  0.00     0.088 A 
HETATM    2  C3  UNL     1      -7.995  13.152  50.806  1.00  0.00     0.111 A 
HETATM    3  N3  UNL     1      -8.972  12.502  50.126  1.00  0.00    -0.340 N 
ATOM      4  H3  UNL     1      -9.801  12.190  50.633  1.00  0.00     0.167 HD
HETATM    5  C4  UNL     1      -8.886  12.256  48.812  1.00  0.00     0.226 A 
HETATM    6  N5  UNL     1      -7.811  12.649  48.109  1.00  0.00    -0.298 N 
ATOM      7  H5  UNL     1      -7.744  12.461  47.109  1.00  0.00     0.171 HD
HETATM    8  C5  UNL     1      -6.823  13.298  48.754  1.00  0.00     0.262 A 
HETATM    9  O3  UNL     1      -5.808  13.677  48.122  1.00  0.00    -0.267 OA
ENDROOT
BRANCH   5  10
HETATM   10  S1  UNL     1     -10.226  11.409  48.086  1.00  0.00     0.289 S 
HETATM   11  O1  UNL     1     -11.235  11.019  49.124  1.00  0.00    -0.198 OA
HETATM   12  O2  UNL     1     -10.827  12.337  47.056  1.00  0.00    -0.198 OA
BRANCH  10  13
HETATM   13  N4  UNL     1      -9.681   9.961  47.295  1.00  0.00    -0.322 N 
ATOM     14  H42 UNL     1      -9.240   9.180  47.780  1.00  0.00     0.169 HD
ATOM     15  H41 UNL     1      -9.865  10.006  46.292  1.00  0.00     0.169 HD
ENDBRANCH  10  13
ENDBRANCH   5  10
BRANCH   1  16
HETATM   16  C1  UNL     1      -5.817  14.263  50.796  1.00  0.00     0.127 C 
HETATM   17  N1  UNL     1      -4.595  14.219  50.452  1.00  0.00    -0.387 N 
ATOM     18  H12 UNL     1      -3.838  14.711  50.927  1.00  0.00     0.157 HD
ATOM     19  H11 UNL     1      -4.337  13.654  49.643  1.00  0.00     0.157 HD
HETATM   20  N2  UNL     1      -6.182  15.064  51.942  1.00  0.00    -0.082 NA
ENDBRANCH   1  16
TORSDOF 3
ENDMDL
