MODEL 1
REMARK VINA RESULT: -5.395693343      0.000      0.000
REMARK  7 active torsions:
REMARK  status: ('A' for Active; 'I' for Inactive)
REMARK    1  A    between atoms: N1_2  and  C2_4 
REMARK    2  A    between atoms: C3_7  and  N3_8 
REMARK    3  A    between atoms: N3_8  and  N4_10 
REMARK    4  A    between atoms: C4_15  and  N6_16 
REMARK    5  A    between atoms: N6_16  and  C5_18 
REMARK    6  A    between atoms: C5_18  and  C7_20 
REMARK    7  A    between atoms: C7_20  and  N7_21 
ROOT
HETATM    1  C2  UNL     1      -7.655  12.827  49.520  1.00  0.00     0.706 A 
HETATM    2  N2  UNL     1      -6.672  13.657  49.887  1.00  0.00    -0.020 N 
ATOM      3  H2  UNL     1      -5.976  13.945  49.201  1.00  0.00     0.203 HD
HETATM    4  C3  UNL     1      -6.588  14.119  51.151  1.00  0.00     0.725 A 
HETATM    5  N5  UNL     1      -7.516  13.728  52.046  1.00  0.00    -0.020 N 
ATOM      6  H5  UNL     1      -7.462  14.073  53.004  1.00  0.00     0.203 HD
HETATM    7  C4  UNL     1      -8.511  12.893  51.699  1.00  0.00     0.707 A 
HETATM    8  N8  UNL     1      -8.566  12.452  50.431  1.00  0.00    -0.022 N 
ATOM      9  H8  UNL     1      -9.317  11.819  50.156  1.00  0.00     0.203 HD
ENDROOT
BRANCH   7  10
HETATM   10  N6  UNL     1      -9.406  12.502  52.519  1.00  0.00    -0.219 N 
ATOM     11  H6  UNL     1      -9.429  12.964  53.427  1.00  0.00     0.178 HD
BRANCH  10  12
HETATM   12  C5  UNL     1     -10.379  11.483  52.293  1.00  0.00     0.120 C 
HETATM   13  C6  UNL     1      -9.775  10.167  52.800  1.00  0.00     0.034 C 
BRANCH  12  14
HETATM   14  C7  UNL     1     -11.658  11.706  53.079  1.00  0.00     0.254 C 
BRANCH  14  15
HETATM   15  N7  UNL     1     -11.434  12.819  53.992  1.00  0.00    -0.077 N 
ATOM     16  H73 UNL     1     -10.816  13.532  53.602  1.00  0.00     0.274 HD
ATOM     17  H72 UNL     1     -12.260  13.407  54.109  1.00  0.00     0.274 HD
ATOM     18  H71 UNL     1     -11.092  12.437  54.873  1.00  0.00     0.274 HD
ENDBRANCH  14  15
ENDBRANCH  12  14
ENDBRANCH  10  12
ENDBRANCH   7  10
BRANCH   4  19
HETATM   19  N3  UNL     1      -5.628  14.924  51.485  1.00  0.00    -0.138 N 
ATOM     20  H3  UNL     1      -5.783  15.630  52.204  1.00  0.00     0.205 HD
BRANCH  19  21
HETATM   21  N4  UNL     1      -4.396  14.827  50.869  1.00  0.00    -0.331 N 
ATOM     22  H42 UNL     1      -3.684  14.225  51.281  1.00  0.00     0.177 HD
ATOM     23  H41 UNL     1      -4.209  15.352  50.014  1.00  0.00     0.177 HD
ENDBRANCH  19  21
ENDBRANCH   4  19
BRANCH   1  24
HETATM   24  N1  UNL     1      -7.735  12.391  48.329  1.00  0.00    -0.229 N 
HETATM   25  C1  UNL     1      -8.735  11.394  48.011  1.00  0.00     0.165 C 
ATOM     26  H1  UNL     1      -7.103  12.738  47.608  1.00  0.00     0.177 HD
ENDBRANCH   1  24
TORSDOF 7
ENDMDL
MODEL 2
REMARK VINA RESULT: -5.367549545      1.812      4.809
REMARK  7 active torsions:
REMARK  status: ('A' for Active; 'I' for Inactive)
REMARK    1  A    between atoms: N1_2  and  C2_4 
REMARK    2  A    between atoms: C3_7  and  N3_8 
REMARK    3  A    between atoms: N3_8  and  N4_10 
REMARK    4  A    between atoms: C4_15  and  N6_16 
REMARK    5  A    between atoms: N6_16  and  C5_18 
REMARK    6  A    between atoms: C5_18  and  C7_20 
REMARK    7  A    between atoms: C7_20  and  N7_21 
ROOT
HETATM    1  C2  UNL     1      -9.254  11.113  49.345  1.00  0.00     0.706 A 
HETATM    2  N2  UNL     1      -9.673  10.811  50.579  1.00  0.00    -0.020 N 
ATOM      3  H2  UNL     1     -10.345  10.055  50.709  1.00  0.00     0.203 HD
HETATM    4  C3  UNL     1      -9.223  11.490  51.653  1.00  0.00     0.725 A 
HETATM    5  N5  UNL     1      -8.337  12.487  51.463  1.00  0.00    -0.020 N 
ATOM      6  H5  UNL     1      -7.990  13.007  52.268  1.00  0.00     0.203 HD
HETATM    7  C4  UNL     1      -7.903  12.809  50.231  1.00  0.00     0.707 A 
HETATM    8  N8  UNL     1      -8.372  12.112  49.183  1.00  0.00    -0.022 N 
ATOM      9  H8  UNL     1      -8.050  12.346  48.244  1.00  0.00     0.203 HD
ENDROOT
BRANCH   7  10
HETATM   10  N6  UNL     1      -7.066  13.746  50.013  1.00  0.00    -0.219 N 
ATOM     11  H6  UNL     1      -7.448  14.684  49.896  1.00  0.00     0.178 HD
BRANCH  10  12
HETATM   12  C5  UNL     1      -5.649  13.614  49.916  1.00  0.00     0.120 C 
HETATM   13  C6  UNL     1      -5.283  13.777  48.436  1.00  0.00     0.034 C 
BRANCH  12  14
HETATM   14  C7  UNL     1      -4.904  14.701  50.670  1.00  0.00     0.254 C 
BRANCH  14  15
HETATM   15  N7  UNL     1      -5.672  15.022  51.866  1.00  0.00    -0.077 N 
ATOM     16  H73 UNL     1      -6.392  15.726  51.697  1.00  0.00     0.274 HD
ATOM     17  H72 UNL     1      -6.289  14.263  52.156  1.00  0.00     0.274 HD
ATOM     18  H71 UNL     1      -5.014  15.298  52.596  1.00  0.00     0.274 HD
ENDBRANCH  14  15
ENDBRANCH  12  14
ENDBRANCH  10  12
ENDBRANCH   7  10
BRANCH   4  19
HETATM   19  N3  UNL     1      -9.642  11.180  52.839  1.00  0.00    -0.138 N 
ATOM     20  H3  UNL     1     -10.197  11.848  53.374  1.00  0.00     0.205 HD
BRANCH  19  21
HETATM   21  N4  UNL     1      -9.339   9.947  53.382  1.00  0.00    -0.331 N 
ATOM     22  H42 UNL     1      -8.710   9.325  52.873  1.00  0.00     0.177 HD
ATOM     23  H41 UNL     1      -9.740   9.668  54.277  1.00  0.00     0.177 HD
ENDBRANCH  19  21
ENDBRANCH   4  19
BRANCH   1  24
HETATM   24  N1  UNL     1      -9.678  10.474  48.332  1.00  0.00    -0.229 N 
HETATM   25  C1  UNL     1     -10.787   9.559  48.492  1.00  0.00     0.165 C 
ATOM     26  H1  UNL     1      -9.243  10.604  47.419  1.00  0.00     0.177 HD
ENDBRANCH   1  24
TORSDOF 7
ENDMDL
MODEL 3
REMARK VINA RESULT: -5.322328655      2.041      4.267
REMARK  7 active torsions:
REMARK  status: ('A' for Active; 'I' for Inactive)
REMARK    1  A    between atoms: N1_2  and  C2_4 
REMARK    2  A    between atoms: C3_7  and  N3_8 
REMARK    3  A    between atoms: N3_8  and  N4_10 
REMARK    4  A    between atoms: C4_15  and  N6_16 
REMARK    5  A    between atoms: N6_16  and  C5_18 
REMARK    6  A    between atoms: C5_18  and  C7_20 
REMARK    7  A    between atoms: C7_20  and  N7_21 
ROOT
HETATM    1  C2  UNL     1      -7.767  13.018  50.362  1.00  0.00     0.706 A 
HETATM    2  N2  UNL     1      -6.726  13.573  49.731  1.00  0.00    -0.020 N 
ATOM      3  H2  UNL     1      -6.130  14.232  50.231  1.00  0.00     0.203 HD
HETATM    4  C3  UNL     1      -6.453  13.274  48.445  1.00  0.00     0.725 A 
HETATM    5  N5  UNL     1      -7.252  12.404  47.800  1.00  0.00    -0.020 N 
ATOM      6  H5  UNL     1      -7.054  12.171  46.827  1.00  0.00     0.203 HD
HETATM    7  C4  UNL     1      -8.305  11.836  48.414  1.00  0.00     0.707 A 
HETATM    8  N8  UNL     1      -8.549  12.154  49.696  1.00  0.00    -0.022 N 
ATOM      9  H8  UNL     1      -9.344  11.730  50.173  1.00  0.00     0.203 HD
ENDROOT
BRANCH   7  10
HETATM   10  N6  UNL     1      -9.083  11.007  47.835  1.00  0.00    -0.219 N 
ATOM     11  H6  UNL     1      -8.716  10.536  47.008  1.00  0.00     0.178 HD
BRANCH  10  12
HETATM   12  C5  UNL     1     -10.413  10.674  48.226  1.00  0.00     0.120 C 
HETATM   13  C6  UNL     1     -11.353  11.629  47.480  1.00  0.00     0.034 C 
BRANCH  12  14
HETATM   14  C7  UNL     1     -10.811   9.266  47.820  1.00  0.00     0.254 C 
BRANCH  14  15
HETATM   15  N7  UNL     1     -10.155   8.964  46.554  1.00  0.00    -0.077 N 
ATOM     16  H73 UNL     1      -9.682   9.774  46.150  1.00  0.00     0.274 HD
ATOM     17  H72 UNL     1      -9.333   8.370  46.666  1.00  0.00     0.274 HD
ATOM     18  H71 UNL     1     -10.853   8.561  45.928  1.00  0.00     0.274 HD
ENDBRANCH  14  15
ENDBRANCH  12  14
ENDBRANCH  10  12
ENDBRANCH   7  10
BRANCH   4  19
HETATM   19  N3  UNL     1      -5.438  13.823  47.854  1.00  0.00    -0.138 N 
ATOM     20  H3  UNL     1      -5.501  14.079  46.869  1.00  0.00     0.205 HD
BRANCH  19  21
HETATM   21  N4  UNL     1      -4.272  14.060  48.554  1.00  0.00    -0.331 N 
ATOM     22  H42 UNL     1      -4.327  14.253  49.554  1.00  0.00     0.177 HD
ATOM     23  H41 UNL     1      -3.373  14.041  48.073  1.00  0.00     0.177 HD
ENDBRANCH  19  21
ENDBRANCH   4  19
BRANCH   1  24
HETATM   24  N1  UNL     1      -8.026  13.299  51.575  1.00  0.00    -0.229 N 
HETATM   25  C1  UNL     1      -9.196  12.718  52.196  1.00  0.00     0.165 C 
ATOM     26  H1  UNL     1      -7.416  13.924  52.102  1.00  0.00     0.177 HD
ENDBRANCH   1  24
TORSDOF 7
ENDMDL
MODEL 4
REMARK VINA RESULT: -5.310982006      1.551      1.997
REMARK  7 active torsions:
REMARK  status: ('A' for Active; 'I' for Inactive)
REMARK    1  A    between atoms: N1_2  and  C2_4 
REMARK    2  A    between atoms: C3_7  and  N3_8 
REMARK    3  A    between atoms: N3_8  and  N4_10 
REMARK    4  A    between atoms: C4_15  and  N6_16 
REMARK    5  A    between atoms: N6_16  and  C5_18 
REMARK    6  A    between atoms: C5_18  and  C7_20 
REMARK    7  A    between atoms: C7_20  and  N7_21 
ROOT
HETATM    1  C2  UNL     1      -7.212  13.048  48.980  1.00  0.00     0.706 A 
HETATM    2  N2  UNL     1      -6.791  13.947  49.876  1.00  0.00    -0.020 N 
ATOM      3  H2  UNL     1      -6.091  14.637  49.604  1.00  0.00     0.203 HD
HETATM    4  C3  UNL     1      -7.276  13.956  51.134  1.00  0.00     0.725 A 
HETATM    5  N5  UNL     1      -8.198  13.037  51.477  1.00  0.00    -0.020 N 
ATOM      6  H5  UNL     1      -8.572  13.034  52.426  1.00  0.00     0.203 HD
HETATM    7  C4  UNL     1      -8.635  12.122  50.593  1.00  0.00     0.707 A 
HETATM    8  N8  UNL     1      -8.132  12.142  49.347  1.00  0.00    -0.022 N 
ATOM      9  H8  UNL     1      -8.455  11.455  48.668  1.00  0.00     0.203 HD
ENDROOT
BRANCH   7  10
HETATM   10  N6  UNL     1      -9.507  11.238  50.883  1.00  0.00    -0.219 N 
ATOM     11  H6  UNL     1      -9.683  10.521  50.179  1.00  0.00     0.178 HD
BRANCH  10  12
HETATM   12  C5  UNL     1     -10.260  11.150  52.091  1.00  0.00     0.120 C 
HETATM   13  C6  UNL     1     -11.699  11.560  51.753  1.00  0.00     0.034 C 
BRANCH  12  14
HETATM   14  C7  UNL     1     -10.329   9.737  52.640  1.00  0.00     0.254 C 
BRANCH  14  15
HETATM   15  N7  UNL     1      -9.326   9.617  53.692  1.00  0.00    -0.077 N 
ATOM     16  H73 UNL     1      -8.595  10.325  53.623  1.00  0.00     0.274 HD
ATOM     17  H72 UNL     1      -9.684   9.880  54.610  1.00  0.00     0.274 HD
ATOM     18  H71 UNL     1      -8.960   8.665  53.667  1.00  0.00     0.274 HD
ENDBRANCH  14  15
ENDBRANCH  12  14
ENDBRANCH  10  12
ENDBRANCH   7  10
BRANCH   4  19
HETATM   19  N3  UNL     1      -6.854  14.837  51.986  1.00  0.00    -0.138 N 
ATOM     20  H3  UNL     1      -7.509  15.270  52.636  1.00  0.00     0.205 HD
BRANCH  19  21
HETATM   21  N4  UNL     1      -5.520  15.191  52.014  1.00  0.00    -0.331 N 
ATOM     22  H42 UNL     1      -5.154  15.796  51.279  1.00  0.00     0.177 HD
ATOM     23  H41 UNL     1      -4.915  14.849  52.761  1.00  0.00     0.177 HD
ENDBRANCH  19  21
ENDBRANCH   4  19
BRANCH   1  24
HETATM   24  N1  UNL     1      -6.756  13.039  47.794  1.00  0.00    -0.229 N 
HETATM   25  C1  UNL     1      -5.664  13.927  47.454  1.00  0.00     0.165 C 
ATOM     26  H1  UNL     1      -7.153  12.415  47.091  1.00  0.00     0.177 HD
ENDBRANCH   1  24
TORSDOF 7
ENDMDL
MODEL 5
REMARK VINA RESULT: -5.237318779      0.963      1.034
REMARK  7 active torsions:
REMARK  status: ('A' for Active; 'I' for Inactive)
REMARK    1  A    between atoms: N1_2  and  C2_4 
REMARK    2  A    between atoms: C3_7  and  N3_8 
REMARK    3  A    between atoms: N3_8  and  N4_10 
REMARK    4  A    between atoms: C4_15  and  N6_16 
REMARK    5  A    between atoms: N6_16  and  C5_18 
REMARK    6  A    between atoms: C5_18  and  C7_20 
REMARK    7  A    between atoms: C7_20  and  N7_21 
ROOT
HETATM    1  C2  UNL     1      -8.124  12.497  49.749  1.00  0.00     0.706 A 
HETATM    2  N2  UNL     1      -7.489  13.618  50.108  1.00  0.00    -0.020 N 
ATOM      3  H2  UNL     1      -6.955  14.137  49.411  1.00  0.00     0.203 HD
HETATM    4  C3  UNL     1      -7.542  14.073  51.376  1.00  0.00     0.725 A 
HETATM    5  N5  UNL     1      -8.250  13.375  52.284  1.00  0.00    -0.020 N 
ATOM      6  H5  UNL     1      -8.297  13.710  53.246  1.00  0.00     0.203 HD
HETATM    7  C4  UNL     1      -8.896  12.244  51.946  1.00  0.00     0.707 A 
HETATM    8  N8  UNL     1      -8.823  11.819  50.673  1.00  0.00    -0.022 N 
ATOM      9  H8  UNL     1      -9.309  10.964  50.404  1.00  0.00     0.203 HD
ENDROOT
BRANCH   7  10
HETATM   10  N6  UNL     1      -9.576  11.558  52.778  1.00  0.00    -0.219 N 
ATOM     11  H6  UNL     1      -9.555  11.865  53.750  1.00  0.00     0.178 HD
BRANCH  10  12
HETATM   12  C5  UNL     1     -10.361  10.403  52.487  1.00  0.00     0.120 C 
HETATM   13  C6  UNL     1      -9.798   9.253  53.331  1.00  0.00     0.034 C 
BRANCH  12  14
HETATM   14  C7  UNL     1     -11.816  10.565  52.888  1.00  0.00     0.254 C 
BRANCH  14  15
HETATM   15  N7  UNL     1     -11.852  11.255  54.171  1.00  0.00    -0.077 N 
ATOM     16  H73 UNL     1     -11.287  10.793  54.884  1.00  0.00     0.274 HD
ATOM     17  H72 UNL     1     -11.352  12.144  54.157  1.00  0.00     0.274 HD
ATOM     18  H71 UNL     1     -12.830  11.355  54.445  1.00  0.00     0.274 HD
ENDBRANCH  14  15
ENDBRANCH  12  14
ENDBRANCH  10  12
ENDBRANCH   7  10
BRANCH   4  19
HETATM   19  N3  UNL     1      -6.919  15.162  51.701  1.00  0.00    -0.138 N 
ATOM     20  H3  UNL     1      -7.436  16.035  51.796  1.00  0.00     0.205 HD
BRANCH  19  21
HETATM   21  N4  UNL     1      -5.555  15.142  51.920  1.00  0.00    -0.331 N 
ATOM     22  H42 UNL     1      -5.197  15.443  52.826  1.00  0.00     0.177 HD
ATOM     23  H41 UNL     1      -4.923  14.831  51.183  1.00  0.00     0.177 HD
ENDBRANCH  19  21
ENDBRANCH   4  19
BRANCH   1  24
HETATM   24  N1  UNL     1      -8.075  12.068  48.554  1.00  0.00    -0.229 N 
HETATM   25  C1  UNL     1      -9.068  11.115  48.108  1.00  0.00     0.165 C 
ATOM     26  H1  UNL     1      -7.345  12.390  47.919  1.00  0.00     0.177 HD
ENDBRANCH   1  24
TORSDOF 7
ENDMDL
