MODEL 1
REMARK VINA RESULT: -5.058326653      0.000      0.000
REMARK  5 active torsions:
REMARK  status: ('A' for Active; 'I' for Inactive)
REMARK    1  A    between atoms: O1_2  and  C2_3 
REMARK    2  A    between atoms: C2_3  and  C3_4 
REMARK    3  A    between atoms: C3_4  and  O2_5 
REMARK    4  A    between atoms: O2_5  and  C4_6 
REMARK    5  A    between atoms: C9_15  and  N2_16 
ROOT
HETATM    1  C4  UNL     1     -20.662  12.266 -21.166  1.00  0.00     0.122 A 
HETATM    2  C5  UNL     1     -22.015  12.457 -20.973  1.00  0.00     0.115 A 
HETATM    3 BR1  UNL     1     -23.276  11.057 -21.254  1.00  0.00    -0.028 Br
HETATM    4  N1  UNL     1     -22.221  13.730 -20.580  1.00  0.00    -0.347 N 
ATOM      5  H1  UNL     1     -23.130  14.142 -20.368  1.00  0.00     0.167 HD
HETATM    6  C6  UNL     1     -21.022  14.384 -20.511  1.00  0.00     0.056 A 
HETATM    7  C7  UNL     1     -20.753  15.685 -20.158  1.00  0.00     0.076 A 
HETATM    8  C8  UNL     1     -19.541  16.287 -20.105  1.00  0.00     0.151 A 
HETATM    9  F1  UNL     1     -19.465  17.614 -19.724  1.00  0.00    -0.203 F 
HETATM   10  C9  UNL     1     -18.323  15.708 -20.397  1.00  0.00     0.107 A 
HETATM   11  S1  UNL     1     -18.455  14.072 -20.861  1.00  0.00    -0.065 SA
HETATM   12  C10 UNL     1     -20.054  13.493 -20.870  1.00  0.00     0.070 A 
ENDROOT
BRANCH   1  13
HETATM   13  O2  UNL     1     -19.933  11.183 -21.556  1.00  0.00    -0.345 OA
BRANCH  13  14
HETATM   14  C3  UNL     1     -19.806  10.688 -22.858  1.00  0.00     0.202 C 
BRANCH  14  15
HETATM   15  C2  UNL     1     -19.755   9.182 -22.822  1.00  0.00     0.193 C 
BRANCH  15  16
HETATM   16  O1  UNL     1     -20.977   8.566 -22.698  1.00  0.00    -0.394 OA
HETATM   17  C1  UNL     1     -21.726   8.604 -23.840  1.00  0.00     0.201 C 
ENDBRANCH  15  16
ENDBRANCH  14  15
ENDBRANCH  13  14
ENDBRANCH   1  13
BRANCH  10  18
HETATM   18  N2  UNL     1     -17.233  16.382 -20.310  1.00  0.00    -0.391 N 
ATOM     19  H22 UNL     1     -16.467  16.202 -19.660  1.00  0.00     0.157 HD
ATOM     20  H21 UNL     1     -17.059  17.182 -20.919  1.00  0.00     0.157 HD
ENDBRANCH  10  18
TORSDOF 5
ENDMDL
MODEL 2
REMARK VINA RESULT: -4.967480985      4.215      6.634
REMARK  5 active torsions:
REMARK  status: ('A' for Active; 'I' for Inactive)
REMARK    1  A    between atoms: O1_2  and  C2_3 
REMARK    2  A    between atoms: C2_3  and  C3_4 
REMARK    3  A    between atoms: C3_4  and  O2_5 
REMARK    4  A    between atoms: O2_5  and  C4_6 
REMARK    5  A    between atoms: C9_15  and  N2_16 
ROOT
HETATM    1  C4  UNL     1     -20.524  14.945 -20.273  1.00  0.00     0.122 A 
HETATM    2  C5  UNL     1     -19.161  15.065 -20.444  1.00  0.00     0.115 A 
HETATM    3 BR1  UNL     1     -18.224  16.651 -19.957  1.00  0.00    -0.028 Br
HETATM    4  N1  UNL     1     -18.689  13.921 -20.979  1.00  0.00    -0.347 N 
ATOM      5  H1  UNL     1     -17.712  13.737 -21.210  1.00  0.00     0.167 HD
HETATM    6  C6  UNL     1     -19.723  13.046 -21.165  1.00  0.00     0.056 A 
HETATM    7  C7  UNL     1     -19.710  11.771 -21.679  1.00  0.00     0.076 A 
HETATM    8  C8  UNL     1     -20.768  10.941 -21.843  1.00  0.00     0.151 A 
HETATM    9  F1  UNL     1     -20.561   9.685 -22.380  1.00  0.00    -0.203 F 
HETATM   10  C9  UNL     1     -22.082  11.214 -21.522  1.00  0.00     0.107 A 
HETATM   11  S1  UNL     1     -22.300  12.772 -20.861  1.00  0.00    -0.065 SA
HETATM   12  C10 UNL     1     -20.860  13.665 -20.734  1.00  0.00     0.070 A 
ENDROOT
BRANCH   1  13
HETATM   13  O2  UNL     1     -21.467  15.796 -19.779  1.00  0.00    -0.345 OA
BRANCH  13  14
HETATM   14  C3  UNL     1     -22.332  16.605 -20.524  1.00  0.00     0.202 C 
BRANCH  14  15
HETATM   15  C2  UNL     1     -21.777  18.005 -20.595  1.00  0.00     0.193 C 
BRANCH  15  16
HETATM   16  O1  UNL     1     -22.705  18.982 -20.860  1.00  0.00    -0.394 OA
HETATM   17  C1  UNL     1     -23.753  18.993 -19.983  1.00  0.00     0.201 C 
ENDBRANCH  15  16
ENDBRANCH  14  15
ENDBRANCH  13  14
ENDBRANCH   1  13
BRANCH  10  18
HETATM   18  N2  UNL     1     -23.006  10.343 -21.723  1.00  0.00    -0.391 N 
ATOM     19  H22 UNL     1     -23.123   9.466 -21.215  1.00  0.00     0.157 HD
ATOM     20  H21 UNL     1     -23.716  10.487 -22.441  1.00  0.00     0.157 HD
ENDBRANCH  10  18
TORSDOF 5
ENDMDL
MODEL 3
REMARK VINA RESULT: -4.938452158      3.486      4.865
REMARK  5 active torsions:
REMARK  status: ('A' for Active; 'I' for Inactive)
REMARK    1  A    between atoms: O1_2  and  C2_3 
REMARK    2  A    between atoms: C2_3  and  C3_4 
REMARK    3  A    between atoms: C3_4  and  O2_5 
REMARK    4  A    between atoms: O2_5  and  C4_6 
REMARK    5  A    between atoms: C9_15  and  N2_16 
ROOT
HETATM    1  C4  UNL     1     -20.037  15.669 -19.884  1.00  0.00     0.122 A 
HETATM    2  C5  UNL     1     -19.300  16.766 -20.279  1.00  0.00     0.115 A 
HETATM    3 BR1  UNL     1     -17.413  16.675 -20.515  1.00  0.00    -0.028 Br
HETATM    4  N1  UNL     1     -20.135  17.812 -20.444  1.00  0.00    -0.347 N 
ATOM      5  H1  UNL     1     -19.856  18.750 -20.733  1.00  0.00     0.167 HD
HETATM    6  C6  UNL     1     -21.415  17.421 -20.162  1.00  0.00     0.056 A 
HETATM    7  C7  UNL     1     -22.581  18.148 -20.196  1.00  0.00     0.076 A 
HETATM    8  C8  UNL     1     -23.830  17.711 -19.907  1.00  0.00     0.151 A 
HETATM    9  F1  UNL     1     -24.889  18.594 -19.997  1.00  0.00    -0.203 F 
HETATM   10  C9  UNL     1     -24.183  16.435 -19.517  1.00  0.00     0.107 A 
HETATM   11  S1  UNL     1     -22.851  15.373 -19.418  1.00  0.00    -0.065 SA
HETATM   12  C10 UNL     1     -21.368  16.102 -19.816  1.00  0.00     0.070 A 
ENDROOT
BRANCH   1  13
HETATM   13  O2  UNL     1     -19.688  14.385 -19.589  1.00  0.00    -0.345 OA
BRANCH  13  14
HETATM   14  C3  UNL     1     -19.174  13.435 -20.479  1.00  0.00     0.202 C 
BRANCH  14  15
HETATM   15  C2  UNL     1     -20.310  12.730 -21.175  1.00  0.00     0.193 C 
BRANCH  15  16
HETATM   16  O1  UNL     1     -20.016  12.259 -22.431  1.00  0.00    -0.394 OA
HETATM   17  C1  UNL     1     -19.868  10.901 -22.484  1.00  0.00     0.201 C 
ENDBRANCH  15  16
ENDBRANCH  14  15
ENDBRANCH  13  14
ENDBRANCH   1  13
BRANCH  10  18
HETATM   18  N2  UNL     1     -25.408  16.135 -19.269  1.00  0.00    -0.391 N 
ATOM     19  H22 UNL     1     -26.140  15.983 -19.963  1.00  0.00     0.157 HD
ATOM     20  H21 UNL     1     -25.738  16.026 -18.310  1.00  0.00     0.157 HD
ENDBRANCH  10  18
TORSDOF 5
ENDMDL
MODEL 4
REMARK VINA RESULT: -4.896141759      2.859      3.778
REMARK  5 active torsions:
REMARK  status: ('A' for Active; 'I' for Inactive)
REMARK    1  A    between atoms: O1_2  and  C2_3 
REMARK    2  A    between atoms: C2_3  and  C3_4 
REMARK    3  A    between atoms: C3_4  and  O2_5 
REMARK    4  A    between atoms: O2_5  and  C4_6 
REMARK    5  A    between atoms: C9_15  and  N2_16 
ROOT
HETATM    1  C4  UNL     1     -22.556  15.409 -19.376  1.00  0.00     0.122 A 
HETATM    2  C5  UNL     1     -23.095  16.653 -19.125  1.00  0.00     0.115 A 
HETATM    3 BR1  UNL     1     -24.891  16.868 -18.529  1.00  0.00    -0.028 Br
HETATM    4  N1  UNL     1     -22.157  17.590 -19.373  1.00  0.00    -0.347 N 
ATOM      5  H1  UNL     1     -22.287  18.596 -19.270  1.00  0.00     0.167 HD
HETATM    6  C6  UNL     1     -21.004  16.980 -19.785  1.00  0.00     0.056 A 
HETATM    7  C7  UNL     1     -19.799  17.535 -20.143  1.00  0.00     0.076 A 
HETATM    8  C8  UNL     1     -18.682  16.884 -20.546  1.00  0.00     0.151 A 
HETATM    9  F1  UNL     1     -17.555  17.617 -20.868  1.00  0.00    -0.203 F 
HETATM   10  C9  UNL     1     -18.531  15.519 -20.678  1.00  0.00     0.107 A 
HETATM   11  S1  UNL     1     -19.941  14.647 -20.272  1.00  0.00    -0.065 SA
HETATM   12  C10 UNL     1     -21.238  15.636 -19.791  1.00  0.00     0.070 A 
ENDROOT
BRANCH   1  13
HETATM   13  O2  UNL     1     -23.070  14.150 -19.285  1.00  0.00    -0.345 OA
BRANCH  13  14
HETATM   14  C3  UNL     1     -23.889  13.513 -20.223  1.00  0.00     0.202 C 
BRANCH  14  15
HETATM   15  C2  UNL     1     -23.083  12.496 -20.989  1.00  0.00     0.193 C 
BRANCH  15  16
HETATM   16  O1  UNL     1     -22.229  11.740 -20.224  1.00  0.00    -0.394 OA
HETATM   17  C1  UNL     1     -21.290  11.067 -20.955  1.00  0.00     0.201 C 
ENDBRANCH  15  16
ENDBRANCH  14  15
ENDBRANCH  13  14
ENDBRANCH   1  13
BRANCH  10  18
HETATM   18  N2  UNL     1     -17.417  15.012 -21.070  1.00  0.00    -0.391 N 
ATOM     19  H22 UNL     1     -17.259  14.036 -21.324  1.00  0.00     0.157 HD
ATOM     20  H21 UNL     1     -16.579  15.587 -21.155  1.00  0.00     0.157 HD
ENDBRANCH  10  18
TORSDOF 5
ENDMDL
MODEL 5
REMARK VINA RESULT: -4.888059215      3.944      5.874
REMARK  5 active torsions:
REMARK  status: ('A' for Active; 'I' for Inactive)
REMARK    1  A    between atoms: O1_2  and  C2_3 
REMARK    2  A    between atoms: C2_3  and  C3_4 
REMARK    3  A    between atoms: C3_4  and  O2_5 
REMARK    4  A    between atoms: O2_5  and  C4_6 
REMARK    5  A    between atoms: C9_15  and  N2_16 
ROOT
HETATM    1  C4  UNL     1     -21.651  14.104 -20.768  1.00  0.00     0.122 A 
HETATM    2  C5  UNL     1     -22.777  14.704 -21.291  1.00  0.00     0.115 A 
HETATM    3 BR1  UNL     1     -23.246  16.501 -20.868  1.00  0.00    -0.028 Br
HETATM    4  N1  UNL     1     -23.407  13.819 -22.090  1.00  0.00    -0.347 N 
ATOM      5  H1  UNL     1     -24.269  14.000 -22.605  1.00  0.00     0.167 HD
HETATM    6  C6  UNL     1     -22.712  12.642 -22.101  1.00  0.00     0.056 A 
HETATM    7  C7  UNL     1     -22.981  11.472 -22.770  1.00  0.00     0.076 A 
HETATM    8  C8  UNL     1     -22.257  10.328 -22.747  1.00  0.00     0.151 A 
HETATM    9  F1  UNL     1     -22.686   9.244 -23.491  1.00  0.00    -0.203 F 
HETATM   10  C9  UNL     1     -21.092  10.107 -22.040  1.00  0.00     0.107 A 
HETATM   11  S1  UNL     1     -20.592  11.465 -21.136  1.00  0.00    -0.065 SA
HETATM   12  C10 UNL     1     -21.627  12.805 -21.289  1.00  0.00     0.070 A 
ENDROOT
BRANCH   1  13
HETATM   13  O2  UNL     1     -20.682  14.551 -19.919  1.00  0.00    -0.345 OA
BRANCH  13  14
HETATM   14  C3  UNL     1     -19.641  15.432 -20.231  1.00  0.00     0.202 C 
BRANCH  14  15
HETATM   15  C2  UNL     1     -18.473  14.656 -20.785  1.00  0.00     0.193 C 
BRANCH  15  16
HETATM   16  O1  UNL     1     -17.411  15.424 -21.196  1.00  0.00    -0.394 OA
HETATM   17  C1  UNL     1     -17.448  16.705 -20.721  1.00  0.00     0.201 C 
ENDBRANCH  15  16
ENDBRANCH  14  15
ENDBRANCH  13  14
ENDBRANCH   1  13
BRANCH  10  18
HETATM   18  N2  UNL     1     -20.489   8.974 -22.097  1.00  0.00    -0.391 N 
ATOM     19  H22 UNL     1     -20.198   8.409 -21.298  1.00  0.00     0.157 HD
ATOM     20  H21 UNL     1     -20.251   8.549 -22.993  1.00  0.00     0.157 HD
ENDBRANCH  10  18
TORSDOF 5
ENDMDL
