MODEL 1
REMARK VINA RESULT: -5.132489027      0.000      0.000
REMARK  7 active torsions:
REMARK  status: ('A' for Active; 'I' for Inactive)
REMARK    1  A    between atoms: C2_2  and  C4_4 
REMARK    2  A    between atoms: C2_2  and  C10_20 
REMARK    3  A    between atoms: C6_9  and  C7_10 
REMARK    4  A    between atoms: C7_10  and  N2_11 
REMARK    5  A    between atoms: C7_10  and  C8_15 
REMARK    6  A    between atoms: C8_15  and  C9_16 
REMARK    7  A    between atoms: C9_16  and  O1_17 
ROOT
HETATM    1  C4  UNL     1     -20.561  17.860 -16.612  1.00  0.00     0.137 A 
HETATM    2  N1  UNL     1     -21.638  18.190 -17.325  1.00  0.00    -0.331 N 
ATOM      3  H1  UNL     1     -22.465  18.652 -16.945  1.00  0.00     0.168 HD
HETATM    4  C5  UNL     1     -21.486  17.834 -18.602  1.00  0.00     0.113 A 
HETATM    5 BR1  UNL     1     -22.618  18.025 -20.117  1.00  0.00    -0.028 Br
HETATM    6  C6  UNL     1     -20.225  17.254 -18.646  1.00  0.00     0.119 A 
HETATM    7  O2  UNL     1     -19.711  17.289 -17.443  1.00  0.00    -0.296 OA
ENDROOT
BRANCH   6   8
HETATM    8  C7  UNL     1     -19.583  16.703 -19.879  1.00  0.00     0.245 C 
BRANCH   8   9
HETATM    9  N2  UNL     1     -19.930  15.270 -19.837  1.00  0.00    -0.069 N 
ATOM     10  H23 UNL     1     -19.993  14.879 -18.898  1.00  0.00     0.275 HD
ATOM     11  H22 UNL     1     -20.890  15.061 -20.106  1.00  0.00     0.275 HD
ATOM     12  H21 UNL     1     -19.220  14.836 -20.429  1.00  0.00     0.275 HD
ENDBRANCH   8   9
BRANCH   8  13
HETATM   13  C8  UNL     1     -18.055  16.788 -19.802  1.00  0.00     0.066 C 
BRANCH  13  14
HETATM   14  C9  UNL     1     -17.436  16.474 -21.131  1.00  0.00     0.166 C 
BRANCH  14  15
HETATM   15  O1  UNL     1     -17.478  15.081 -21.368  1.00  0.00    -0.401 OA
ATOM     16  H1  UNL     1     -18.294  14.848 -21.796  1.00  0.00     0.209 HD
ENDBRANCH  14  15
ENDBRANCH  13  14
ENDBRANCH   8  13
ENDBRANCH   6   8
BRANCH   1  17
HETATM   17  C2  UNL     1     -20.335  18.086 -15.163  1.00  0.00     0.062 C 
HETATM   18  C1  UNL     1     -19.189  17.210 -14.678  1.00  0.00     0.028 C 
HETATM   19  C3  UNL     1     -21.596  17.707 -14.377  1.00  0.00     0.028 C 
BRANCH  17  20
HETATM   20  C10 UNL     1     -19.959  19.518 -14.912  1.00  0.00     0.281 C 
HETATM   21  F1  UNL     1     -18.750  19.870 -15.428  1.00  0.00    -0.232 F 
HETATM   22 CL1  UNL     1     -19.899  19.717 -13.111  1.00  0.00    -0.088 Cl
ENDBRANCH  17  20
ENDBRANCH   1  17
TORSDOF 7
ENDMDL
MODEL 2
REMARK VINA RESULT: -4.999487084      3.378      5.489
REMARK  7 active torsions:
REMARK  status: ('A' for Active; 'I' for Inactive)
REMARK    1  A    between atoms: C2_2  and  C4_4 
REMARK    2  A    between atoms: C2_2  and  C10_20 
REMARK    3  A    between atoms: C6_9  and  C7_10 
REMARK    4  A    between atoms: C7_10  and  N2_11 
REMARK    5  A    between atoms: C7_10  and  C8_15 
REMARK    6  A    between atoms: C8_15  and  C9_16 
REMARK    7  A    between atoms: C9_16  and  O1_17 
ROOT
HETATM    1  C4  UNL     1     -20.615  17.421 -18.275  1.00  0.00     0.137 A 
HETATM    2  N1  UNL     1     -21.747  17.899 -17.758  1.00  0.00    -0.331 N 
ATOM      3  H1  UNL     1     -22.629  17.977 -18.264  1.00  0.00     0.168 HD
HETATM    4  C5  UNL     1     -21.568  18.259 -16.485  1.00  0.00     0.113 A 
HETATM    5 BR1  UNL     1     -22.756  18.985 -15.191  1.00  0.00    -0.028 Br
HETATM    6  C6  UNL     1     -20.233  17.970 -16.234  1.00  0.00     0.119 A 
HETATM    7  O2  UNL     1     -19.704  17.476 -17.324  1.00  0.00    -0.296 OA
ENDROOT
BRANCH   6   8
HETATM    8  C7  UNL     1     -19.546  18.186 -14.923  1.00  0.00     0.245 C 
BRANCH   8   9
HETATM    9  N2  UNL     1     -18.376  19.010 -15.279  1.00  0.00    -0.069 N 
ATOM     10  H23 UNL     1     -18.605  19.915 -15.687  1.00  0.00     0.275 HD
ATOM     11  H22 UNL     1     -17.861  19.380 -14.480  1.00  0.00     0.275 HD
ATOM     12  H21 UNL     1     -17.830  18.399 -15.887  1.00  0.00     0.275 HD
ENDBRANCH   8   9
BRANCH   8  13
HETATM   13  C8  UNL     1     -19.001  16.873 -14.352  1.00  0.00     0.066 C 
BRANCH  13  14
HETATM   14  C9  UNL     1     -18.259  17.115 -13.072  1.00  0.00     0.166 C 
BRANCH  14  15
HETATM   15  O1  UNL     1     -16.911  17.441 -13.348  1.00  0.00    -0.401 OA
ATOM     16  H1  UNL     1     -16.338  16.757 -13.023  1.00  0.00     0.209 HD
ENDBRANCH  14  15
ENDBRANCH  13  14
ENDBRANCH   8  13
ENDBRANCH   6   8
BRANCH   1  17
HETATM   17  C2  UNL     1     -20.398  16.916 -19.654  1.00  0.00     0.062 C 
HETATM   18  C1  UNL     1     -20.966  17.904 -20.661  1.00  0.00     0.028 C 
HETATM   19  C3  UNL     1     -21.123  15.576 -19.834  1.00  0.00     0.028 C 
BRANCH  17  20
HETATM   20  C10 UNL     1     -18.929  16.770 -19.929  1.00  0.00     0.281 C 
HETATM   21  F1  UNL     1     -18.460  17.619 -20.883  1.00  0.00    -0.232 F 
HETATM   22 CL1  UNL     1     -18.687  15.067 -20.501  1.00  0.00    -0.088 Cl
ENDBRANCH  17  20
ENDBRANCH   1  17
TORSDOF 7
ENDMDL
MODEL 3
REMARK VINA RESULT: -4.855368288      5.944      7.500
REMARK  7 active torsions:
REMARK  status: ('A' for Active; 'I' for Inactive)
REMARK    1  A    between atoms: C2_2  and  C4_4 
REMARK    2  A    between atoms: C2_2  and  C10_20 
REMARK    3  A    between atoms: C6_9  and  C7_10 
REMARK    4  A    between atoms: C7_10  and  N2_11 
REMARK    5  A    between atoms: C7_10  and  C8_15 
REMARK    6  A    between atoms: C8_15  and  C9_16 
REMARK    7  A    between atoms: C9_16  and  O1_17 
ROOT
HETATM    1  C4  UNL     1     -17.031  14.515 -12.242  1.00  0.00     0.137 A 
HETATM    2  N1  UNL     1     -16.014  15.294 -11.872  1.00  0.00    -0.331 N 
ATOM      3  H1  UNL     1     -15.200  14.974 -11.347  1.00  0.00     0.168 HD
HETATM    4  C5  UNL     1     -16.207  16.549 -12.285  1.00  0.00     0.113 A 
HETATM    5 BR1  UNL     1     -15.153  18.120 -12.107  1.00  0.00    -0.028 Br
HETATM    6  C6  UNL     1     -17.426  16.505 -12.949  1.00  0.00     0.119 A 
HETATM    7  O2  UNL     1     -17.881  15.280 -12.899  1.00  0.00    -0.296 OA
ENDROOT
BRANCH   6   8
HETATM    8  C7  UNL     1     -18.077  17.677 -13.612  1.00  0.00     0.245 C 
BRANCH   8   9
HETATM    9  N2  UNL     1     -18.830  18.318 -12.518  1.00  0.00    -0.069 N 
ATOM     10  H23 UNL     1     -19.803  18.023 -12.445  1.00  0.00     0.275 HD
ATOM     11  H22 UNL     1     -18.556  18.015 -11.583  1.00  0.00     0.275 HD
ATOM     12  H21 UNL     1     -18.703  19.315 -12.693  1.00  0.00     0.275 HD
ENDBRANCH   8   9
BRANCH   8  13
HETATM   13  C8  UNL     1     -19.110  17.231 -14.652  1.00  0.00     0.066 C 
BRANCH  13  14
HETATM   14  C9  UNL     1     -19.057  18.107 -15.867  1.00  0.00     0.166 C 
BRANCH  14  15
HETATM   15  O1  UNL     1     -18.293  19.265 -15.597  1.00  0.00    -0.401 OA
ATOM     16  H1  UNL     1     -18.721  20.030 -15.964  1.00  0.00     0.209 HD
ENDBRANCH  14  15
ENDBRANCH  13  14
ENDBRANCH   8  13
ENDBRANCH   6   8
BRANCH   1  17
HETATM   17  C2  UNL     1     -17.196  13.064 -11.981  1.00  0.00     0.062 C 
HETATM   18  C1  UNL     1     -18.462  12.559 -12.657  1.00  0.00     0.028 C 
HETATM   19  C3  UNL     1     -17.327  12.821 -10.472  1.00  0.00     0.028 C 
BRANCH  17  20
HETATM   20  C10 UNL     1     -16.034  12.298 -12.546  1.00  0.00     0.281 C 
HETATM   21  F1  UNL     1     -15.947  12.350 -13.903  1.00  0.00    -0.232 F 
HETATM   22 CL1  UNL     1     -16.275  10.572 -12.048  1.00  0.00    -0.088 Cl
ENDBRANCH  17  20
ENDBRANCH   1  17
TORSDOF 7
ENDMDL
MODEL 4
REMARK VINA RESULT: -4.845178918      3.716      5.828
REMARK  7 active torsions:
REMARK  status: ('A' for Active; 'I' for Inactive)
REMARK    1  A    between atoms: C2_2  and  C4_4 
REMARK    2  A    between atoms: C2_2  and  C10_20 
REMARK    3  A    between atoms: C6_9  and  C7_10 
REMARK    4  A    between atoms: C7_10  and  N2_11 
REMARK    5  A    between atoms: C7_10  and  C8_15 
REMARK    6  A    between atoms: C8_15  and  C9_16 
REMARK    7  A    between atoms: C9_16  and  O1_17 
ROOT
HETATM    1  C4  UNL     1     -20.126  17.367 -18.312  1.00  0.00     0.137 A 
HETATM    2  N1  UNL     1     -19.164  17.419 -17.391  1.00  0.00    -0.331 N 
ATOM      3  H1  UNL     1     -18.195  17.143 -17.548  1.00  0.00     0.168 HD
HETATM    4  C5  UNL     1     -19.644  17.882 -16.234  1.00  0.00     0.113 A 
HETATM    5 BR1  UNL     1     -18.815  18.212 -14.556  1.00  0.00    -0.028 Br
HETATM    6  C6  UNL     1     -20.986  18.124 -16.495  1.00  0.00     0.119 A 
HETATM    7  O2  UNL     1     -21.231  17.803 -17.740  1.00  0.00    -0.296 OA
ENDROOT
BRANCH   6   8
HETATM    8  C7  UNL     1     -21.962  18.672 -15.503  1.00  0.00     0.245 C 
BRANCH   8   9
HETATM    9  N2  UNL     1     -23.167  17.848 -15.714  1.00  0.00    -0.069 N 
ATOM     10  H23 UNL     1     -23.153  17.291 -16.567  1.00  0.00     0.275 HD
ATOM     11  H22 UNL     1     -23.257  17.060 -15.073  1.00  0.00     0.275 HD
ATOM     12  H21 UNL     1     -23.930  18.524 -15.662  1.00  0.00     0.275 HD
ENDBRANCH   8   9
BRANCH   8  13
HETATM   13  C8  UNL     1     -22.353  20.115 -15.838  1.00  0.00     0.066 C 
BRANCH  13  14
HETATM   14  C9  UNL     1     -23.678  20.161 -16.537  1.00  0.00     0.166 C 
BRANCH  14  15
HETATM   15  O1  UNL     1     -23.510  19.883 -17.913  1.00  0.00    -0.401 OA
ATOM     16  H1  UNL     1     -24.122  20.397 -18.426  1.00  0.00     0.209 HD
ENDBRANCH  14  15
ENDBRANCH  13  14
ENDBRANCH   8  13
ENDBRANCH   6   8
BRANCH   1  17
HETATM   17  C2  UNL     1     -20.001  16.914 -19.720  1.00  0.00     0.062 C 
HETATM   18  C1  UNL     1     -20.684  17.911 -20.645  1.00  0.00     0.028 C 
HETATM   19  C3  UNL     1     -20.688  15.553 -19.889  1.00  0.00     0.028 C 
BRANCH  17  20
HETATM   20  C10 UNL     1     -18.554  16.834 -20.115  1.00  0.00     0.281 C 
HETATM   21  F1  UNL     1     -18.198  17.720 -21.085  1.00  0.00    -0.232 F 
HETATM   22 CL1  UNL     1     -18.292  15.154 -20.742  1.00  0.00    -0.088 Cl
ENDBRANCH  17  20
ENDBRANCH   1  17
TORSDOF 7
ENDMDL
MODEL 5
REMARK VINA RESULT: -4.811506660      5.683      7.350
REMARK  7 active torsions:
REMARK  status: ('A' for Active; 'I' for Inactive)
REMARK    1  A    between atoms: C2_2  and  C4_4 
REMARK    2  A    between atoms: C2_2  and  C10_20 
REMARK    3  A    between atoms: C6_9  and  C7_10 
REMARK    4  A    between atoms: C7_10  and  N2_11 
REMARK    5  A    between atoms: C7_10  and  C8_15 
REMARK    6  A    between atoms: C8_15  and  C9_16 
REMARK    7  A    between atoms: C9_16  and  O1_17 
ROOT
HETATM    1  C4  UNL     1     -20.456  13.337 -20.932  1.00  0.00     0.137 A 
HETATM    2  N1  UNL     1     -19.228  13.849 -21.019  1.00  0.00    -0.331 N 
ATOM      3  H1  UNL     1     -18.434  13.381 -21.456  1.00  0.00     0.168 HD
HETATM    4  C5  UNL     1     -19.182  15.060 -20.457  1.00  0.00     0.113 A 
HETATM    5 BR1  UNL     1     -17.768  16.315 -20.261  1.00  0.00    -0.028 Br
HETATM    6  C6  UNL     1     -20.477  15.277 -20.009  1.00  0.00     0.119 A 
HETATM    7  O2  UNL     1     -21.201  14.229 -20.310  1.00  0.00    -0.296 OA
ENDROOT
BRANCH   6   8
HETATM    8  C7  UNL     1     -20.942  16.517 -19.313  1.00  0.00     0.245 C 
BRANCH   8   9
HETATM    9  N2  UNL     1     -22.307  16.174 -18.873  1.00  0.00    -0.069 N 
ATOM     10  H23 UNL     1     -22.607  15.232 -19.122  1.00  0.00     0.275 HD
ATOM     11  H22 UNL     1     -22.408  16.056 -17.865  1.00  0.00     0.275 HD
ATOM     12  H21 UNL     1     -22.880  16.919 -19.271  1.00  0.00     0.275 HD
ENDBRANCH   8   9
BRANCH   8  13
HETATM   13  C8  UNL     1     -21.077  17.691 -20.288  1.00  0.00     0.066 C 
BRANCH  13  14
HETATM   14  C9  UNL     1     -22.417  18.349 -20.150  1.00  0.00     0.166 C 
BRANCH  14  15
HETATM   15  O1  UNL     1     -23.258  17.963 -21.219  1.00  0.00    -0.401 OA
ATOM     16  H1  UNL     1     -24.071  17.605 -20.880  1.00  0.00     0.209 HD
ENDBRANCH  14  15
ENDBRANCH  13  14
ENDBRANCH   8  13
ENDBRANCH   6   8
BRANCH   1  17
HETATM   17  C2  UNL     1     -20.920  12.020 -21.434  1.00  0.00     0.062 C 
HETATM   18  C1  UNL     1     -21.996  12.222 -22.492  1.00  0.00     0.028 C 
HETATM   19  C3  UNL     1     -21.527  11.211 -20.281  1.00  0.00     0.028 C 
BRANCH  17  20
HETATM   20  C10 UNL     1     -19.782  11.275 -22.071  1.00  0.00     0.281 C 
HETATM   21  F1  UNL     1     -19.350  11.821 -23.239  1.00  0.00    -0.232 F 
HETATM   22 CL1  UNL     1     -20.397   9.603 -22.406  1.00  0.00    -0.088 Cl
ENDBRANCH  17  20
ENDBRANCH   1  17
TORSDOF 7
ENDMDL
