MODEL 1
REMARK VINA RESULT: -6.500231957      0.000      0.000
REMARK  5 active torsions:
REMARK  status: ('A' for Active; 'I' for Inactive)
REMARK    1  A    between atoms: C2_2  and  C3_3 
REMARK    2  A    between atoms: C5_5  and  N1_6 
REMARK    3  A    between atoms: N1_6  and  C6_9 
REMARK    4  A    between atoms: C10_13  and  N2_14 
REMARK    5  A    between atoms: C12_21  and  C13_22 
ROOT
HETATM    1  C3  UNL     1     -21.092   9.558 -21.913  1.00  0.00     0.032 C 
HETATM    2  C4  UNL     1     -21.583   8.538 -20.926  1.00  0.00     0.043 C 
HETATM    3  C5  UNL     1     -21.863   9.138 -19.592  1.00  0.00     0.186 C 
HETATM    4  C8  UNL     1     -23.023  10.118 -19.893  1.00  0.00     0.035 C 
HETATM    5  C9  UNL     1     -22.433  11.263 -20.616  1.00  0.00     0.028 C 
HETATM    6  C10 UNL     1     -21.406  10.968 -21.652  1.00  0.00     0.091 C 
ENDROOT
BRANCH   6   7
HETATM    7  N2  UNL     1     -20.222  11.710 -21.309  1.00  0.00    -0.364 N 
HETATM    8  C11 UNL     1     -20.192  12.972 -20.978  1.00  0.00     0.161 A 
HETATM    9  N3  UNL     1     -21.161  13.878 -20.868  1.00  0.00    -0.279 N 
HETATM   10  S1  UNL     1     -18.811  13.916 -20.527  1.00  0.00    -0.032 SA
HETATM   11  N4  UNL     1     -20.874  15.060 -20.507  1.00  0.00    -0.290 N 
ATOM     12  H3  UNL     1     -22.127  13.624 -21.073  1.00  0.00     0.189 HD
HETATM   13  C12 UNL     1     -19.618  15.389 -20.240  1.00  0.00     0.141 A 
ATOM     14  H4  UNL     1     -21.612  15.758 -20.421  1.00  0.00     0.187 HD
ATOM     15  H2  UNL     1     -19.333  11.208 -21.325  1.00  0.00     0.162 HD
BRANCH  13  16
HETATM   16  C13 UNL     1     -19.091  16.732 -19.790  1.00  0.00     0.289 C 
HETATM   17  C14 UNL     1     -17.629  16.761 -20.160  1.00  0.00     0.098 C 
HETATM   18  F1  UNL     1     -19.818  17.688 -20.467  1.00  0.00    -0.199 F 
HETATM   19  F2  UNL     1     -19.300  16.757 -18.430  1.00  0.00    -0.199 F 
ENDBRANCH  13  16
ENDBRANCH   6   7
BRANCH   1  20
HETATM   20  C2  UNL     1     -21.675   9.143 -23.245  1.00  0.00    -0.030 C 
HETATM   21  C1  UNL     1     -22.807   8.523 -23.394  1.00  0.00     0.007 C 
ENDBRANCH   1  20
BRANCH   3  22
HETATM   22  N1  UNL     1     -22.288   8.198 -18.588  1.00  0.00    -0.071 N 
ATOM     23  H12 UNL     1     -21.873   7.276 -18.723  1.00  0.00     0.277 HD
ATOM     24  H11 UNL     1     -21.889   8.405 -17.673  1.00  0.00     0.277 HD
BRANCH  22  25
HETATM   25  C6  UNL     1     -23.730   8.149 -18.557  1.00  0.00     0.228 C 
HETATM   26  C7  UNL     1     -24.127   6.707 -18.191  1.00  0.00     0.034 C 
ENDBRANCH  22  25
ENDBRANCH   3  22
TORSDOF 5
ENDMDL
MODEL 2
REMARK VINA RESULT: -6.486987229      1.777      3.049
REMARK  5 active torsions:
REMARK  status: ('A' for Active; 'I' for Inactive)
REMARK    1  A    between atoms: C2_2  and  C3_3 
REMARK    2  A    between atoms: C5_5  and  N1_6 
REMARK    3  A    between atoms: N1_6  and  C6_9 
REMARK    4  A    between atoms: C10_13  and  N2_14 
REMARK    5  A    between atoms: C12_21  and  C13_22 
ROOT
HETATM    1  C3  UNL     1     -22.559  11.528 -22.203  1.00  0.00     0.032 C 
HETATM    2  C4  UNL     1     -22.770  10.375 -23.141  1.00  0.00     0.043 C 
HETATM    3  C5  UNL     1     -21.754   9.303 -22.949  1.00  0.00     0.186 C 
HETATM    4  C8  UNL     1     -22.039   8.814 -21.507  1.00  0.00     0.035 C 
HETATM    5  C9  UNL     1     -21.539   9.864 -20.598  1.00  0.00     0.028 C 
HETATM    6  C10 UNL     1     -21.789  11.281 -20.977  1.00  0.00     0.091 C 
ENDROOT
BRANCH   6   7
HETATM    7  N2  UNL     1     -20.516  11.948 -21.020  1.00  0.00    -0.364 N 
HETATM    8  C11 UNL     1     -20.317  13.212 -20.758  1.00  0.00     0.161 A 
HETATM    9  N3  UNL     1     -21.157  14.182 -20.404  1.00  0.00    -0.279 N 
HETATM   10  S1  UNL     1     -18.812  14.069 -20.762  1.00  0.00    -0.032 SA
HETATM   11  N4  UNL     1     -20.708  15.348 -20.184  1.00  0.00    -0.290 N 
ATOM     12  H3  UNL     1     -22.154  13.989 -20.310  1.00  0.00     0.189 HD
HETATM   13  C12 UNL     1     -19.412  15.598 -20.306  1.00  0.00     0.141 A 
ATOM     14  H4  UNL     1     -21.347  16.095 -19.913  1.00  0.00     0.187 HD
ATOM     15  H2  UNL     1     -19.702  11.388 -21.275  1.00  0.00     0.162 HD
BRANCH  13  16
HETATM   16  C13 UNL     1     -18.699  16.911 -20.077  1.00  0.00     0.289 C 
HETATM   17  C14 UNL     1     -17.281  16.712 -20.550  1.00  0.00     0.098 C 
HETATM   18  F1  UNL     1     -19.368  17.857 -20.822  1.00  0.00    -0.199 F 
HETATM   19  F2  UNL     1     -18.787  17.130 -18.721  1.00  0.00    -0.199 F 
ENDBRANCH  13  16
ENDBRANCH   6   7
BRANCH   1  20
HETATM   20  C2  UNL     1     -23.945  12.017 -21.846  1.00  0.00    -0.030 C 
HETATM   21  C1  UNL     1     -24.323  12.354 -20.650  1.00  0.00     0.007 C 
ENDBRANCH   1  20
BRANCH   3  22
HETATM   22  N1  UNL     1     -21.874   8.192 -23.856  1.00  0.00    -0.071 N 
ATOM     23  H12 UNL     1     -21.316   8.321 -24.700  1.00  0.00     0.277 HD
ATOM     24  H11 UNL     1     -21.413   7.354 -23.503  1.00  0.00     0.277 HD
BRANCH  22  25
HETATM   25  C6  UNL     1     -23.268   7.964 -24.153  1.00  0.00     0.228 C 
HETATM   26  C7  UNL     1     -23.374   7.721 -25.670  1.00  0.00     0.034 C 
ENDBRANCH  22  25
ENDBRANCH   3  22
TORSDOF 5
ENDMDL
MODEL 3
REMARK VINA RESULT: -6.303750220      1.704      3.195
REMARK  5 active torsions:
REMARK  status: ('A' for Active; 'I' for Inactive)
REMARK    1  A    between atoms: C2_2  and  C3_3 
REMARK    2  A    between atoms: C5_5  and  N1_6 
REMARK    3  A    between atoms: N1_6  and  C6_9 
REMARK    4  A    between atoms: C10_13  and  N2_14 
REMARK    5  A    between atoms: C12_21  and  C13_22 
ROOT
HETATM    1  C3  UNL     1     -22.285   9.979 -20.666  1.00  0.00     0.032 C 
HETATM    2  C4  UNL     1     -22.977   9.220 -21.761  1.00  0.00     0.043 C 
HETATM    3  C5  UNL     1     -22.759   9.840 -23.098  1.00  0.00     0.186 C 
HETATM    4  C8  UNL     1     -21.231   9.694 -23.299  1.00  0.00     0.035 C 
HETATM    5  C9  UNL     1     -20.591  10.681 -22.406  1.00  0.00     0.028 C 
HETATM    6  C10 UNL     1     -21.161  10.846 -21.040  1.00  0.00     0.091 C 
ENDROOT
BRANCH   6   7
HETATM    7  N2  UNL     1     -21.498  12.235 -20.878  1.00  0.00    -0.364 N 
HETATM    8  C11 UNL     1     -20.644  13.197 -20.650  1.00  0.00     0.161 A 
HETATM    9  N3  UNL     1     -19.321  13.186 -20.510  1.00  0.00    -0.279 N 
HETATM   10  S1  UNL     1     -20.978  14.887 -20.474  1.00  0.00    -0.032 SA
HETATM   11  N4  UNL     1     -18.705  14.277 -20.307  1.00  0.00    -0.290 N 
ATOM     12  H3  UNL     1     -18.805  12.308 -20.565  1.00  0.00     0.189 HD
HETATM   13  C12 UNL     1     -19.376  15.418 -20.236  1.00  0.00     0.141 A 
ATOM     14  H4  UNL     1     -17.691  14.275 -20.199  1.00  0.00     0.187 HD
ATOM     15  H2  UNL     1     -22.484  12.489 -20.947  1.00  0.00     0.162 HD
BRANCH  13  16
HETATM   16  C13 UNL     1     -18.818  16.805 -20.014  1.00  0.00     0.289 C 
HETATM   17  C14 UNL     1     -17.397  16.777 -20.518  1.00  0.00     0.098 C 
HETATM   18  F1  UNL     1     -19.610  17.669 -20.737  1.00  0.00    -0.199 F 
HETATM   19  F2  UNL     1     -18.900  17.006 -18.654  1.00  0.00    -0.199 F 
ENDBRANCH  13  16
ENDBRANCH   6   7
BRANCH   1  20
HETATM   20  C2  UNL     1     -21.817   8.931 -19.682  1.00  0.00    -0.030 C 
HETATM   21  C1  UNL     1     -22.602   8.109 -19.052  1.00  0.00     0.007 C 
ENDBRANCH   1  20
BRANCH   3  22
HETATM   22  N1  UNL     1     -23.442   9.185 -24.182  1.00  0.00    -0.071 N 
ATOM     23  H12 UNL     1     -24.456   9.208 -24.070  1.00  0.00     0.277 HD
ATOM     24  H11 UNL     1     -23.379   9.712 -25.053  1.00  0.00     0.277 HD
BRANCH  22  25
HETATM   25  C6  UNL     1     -22.939   7.839 -24.322  1.00  0.00     0.228 C 
HETATM   26  C7  UNL     1     -23.640   7.218 -25.545  1.00  0.00     0.034 C 
ENDBRANCH  22  25
ENDBRANCH   3  22
TORSDOF 5
ENDMDL
MODEL 4
REMARK VINA RESULT: -5.997908376      4.478      7.255
REMARK  5 active torsions:
REMARK  status: ('A' for Active; 'I' for Inactive)
REMARK    1  A    between atoms: C2_2  and  C3_3 
REMARK    2  A    between atoms: C5_5  and  N1_6 
REMARK    3  A    between atoms: N1_6  and  C6_9 
REMARK    4  A    between atoms: C10_13  and  N2_14 
REMARK    5  A    between atoms: C12_21  and  C13_22 
ROOT
HETATM    1  C3  UNL     1     -19.704  16.443 -19.155  1.00  0.00     0.032 C 
HETATM    2  C4  UNL     1     -20.244  15.357 -20.040  1.00  0.00     0.043 C 
HETATM    3  C5  UNL     1     -21.733  15.328 -20.048  1.00  0.00     0.186 C 
HETATM    4  C8  UNL     1     -22.100  16.695 -20.677  1.00  0.00     0.035 C 
HETATM    5  C9  UNL     1     -21.828  17.720 -19.650  1.00  0.00     0.028 C 
HETATM    6  C10 UNL     1     -20.589  17.571 -18.839  1.00  0.00     0.091 C 
ENDROOT
BRANCH   6   7
HETATM    7  N2  UNL     1     -20.979  17.555 -17.454  1.00  0.00    -0.364 N 
HETATM    8  C11 UNL     1     -20.187  17.794 -16.444  1.00  0.00     0.161 A 
HETATM    9  N3  UNL     1     -18.892  18.099 -16.392  1.00  0.00    -0.279 N 
HETATM   10  S1  UNL     1     -20.596  17.820 -14.762  1.00  0.00    -0.032 SA
HETATM   11  N4  UNL     1     -18.344  18.307 -15.268  1.00  0.00    -0.290 N 
ATOM     12  H3  UNL     1     -18.345  18.165 -17.251  1.00  0.00     0.189 HD
HETATM   13  C12 UNL     1     -19.056  18.221 -14.153  1.00  0.00     0.141 A 
ATOM     14  H4  UNL     1     -17.352  18.540 -15.221  1.00  0.00     0.187 HD
ATOM     15  H2  UNL     1     -21.954  17.338 -17.245  1.00  0.00     0.162 HD
BRANCH  13  16
HETATM   16  C13 UNL     1     -18.581  18.443 -12.735  1.00  0.00     0.289 C 
HETATM   17  C14 UNL     1     -19.006  17.228 -11.949  1.00  0.00     0.098 C 
HETATM   18  F1  UNL     1     -17.211  18.573 -12.793  1.00  0.00    -0.199 F 
HETATM   19  F2  UNL     1     -19.216  19.595 -12.325  1.00  0.00    -0.199 F 
ENDBRANCH  13  16
ENDBRANCH   6   7
BRANCH   1  20
HETATM   20  C2  UNL     1     -18.459  16.948 -19.849  1.00  0.00    -0.030 C 
HETATM   21  C1  UNL     1     -17.751  16.255 -20.690  1.00  0.00     0.007 C 
ENDBRANCH   1  20
BRANCH   3  22
HETATM   22  N1  UNL     1     -22.309  14.274 -20.841  1.00  0.00    -0.071 N 
ATOM     23  H12 UNL     1     -23.138  13.872 -20.403  1.00  0.00     0.277 HD
ATOM     24  H11 UNL     1     -22.750  14.626 -21.690  1.00  0.00     0.277 HD
BRANCH  22  25
HETATM   25  C6  UNL     1     -21.301  13.279 -21.121  1.00  0.00     0.228 C 
HETATM   26  C7  UNL     1     -21.884  12.332 -22.186  1.00  0.00     0.034 C 
ENDBRANCH  22  25
ENDBRANCH   3  22
TORSDOF 5
ENDMDL
MODEL 5
REMARK VINA RESULT: -5.917841879      1.348      1.612
REMARK  5 active torsions:
REMARK  status: ('A' for Active; 'I' for Inactive)
REMARK    1  A    between atoms: C2_2  and  C3_3 
REMARK    2  A    between atoms: C5_5  and  N1_6 
REMARK    3  A    between atoms: N1_6  and  C6_9 
REMARK    4  A    between atoms: C10_13  and  N2_14 
REMARK    5  A    between atoms: C12_21  and  C13_22 
ROOT
HETATM    1  C3  UNL     1     -21.172  10.542 -21.239  1.00  0.00     0.032 C 
HETATM    2  C4  UNL     1     -21.805   9.292 -20.698  1.00  0.00     0.043 C 
HETATM    3  C5  UNL     1     -23.285   9.411 -20.596  1.00  0.00     0.186 C 
HETATM    4  C8  UNL     1     -23.720   9.574 -22.073  1.00  0.00     0.035 C 
HETATM    5  C9  UNL     1     -23.338  10.941 -22.478  1.00  0.00     0.028 C 
HETATM    6  C10 UNL     1     -22.018  11.454 -22.019  1.00  0.00     0.091 C 
ENDROOT
BRANCH   6   7
HETATM    7  N2  UNL     1     -22.256  12.681 -21.307  1.00  0.00    -0.364 N 
HETATM    8  C11 UNL     1     -21.339  13.547 -20.969  1.00  0.00     0.161 A 
HETATM    9  N3  UNL     1     -20.022  13.557 -21.163  1.00  0.00    -0.279 N 
HETATM   10  S1  UNL     1     -21.559  15.052 -20.140  1.00  0.00    -0.032 SA
HETATM   11  N4  UNL     1     -19.337  14.540 -20.747  1.00  0.00    -0.290 N 
ATOM     12  H3  UNL     1     -19.567  12.781 -21.643  1.00  0.00     0.189 HD
HETATM   13  C12 UNL     1     -19.929  15.550 -20.123  1.00  0.00     0.141 A 
ATOM     14  H4  UNL     1     -18.328  14.554 -20.892  1.00  0.00     0.187 HD
ATOM     15  H2  UNL     1     -23.219  12.891 -21.044  1.00  0.00     0.162 HD
BRANCH  13  16
HETATM   16  C13 UNL     1     -19.284  16.800 -19.571  1.00  0.00     0.289 C 
HETATM   17  C14 UNL     1     -17.849  16.778 -20.035  1.00  0.00     0.098 C 
HETATM   18  F1  UNL     1     -19.983  17.867 -20.093  1.00  0.00    -0.199 F 
HETATM   19  F2  UNL     1     -19.408  16.690 -18.205  1.00  0.00    -0.199 F 
ENDBRANCH  13  16
ENDBRANCH   6   7
BRANCH   1  20
HETATM   20  C2  UNL     1     -20.010  10.073 -22.085  1.00  0.00    -0.030 C 
HETATM   21  C1  UNL     1     -20.070   9.101 -22.945  1.00  0.00     0.007 C 
ENDBRANCH   1  20
BRANCH   3  22
HETATM   22  N1  UNL     1     -23.943   8.261 -20.034  1.00  0.00    -0.071 N 
ATOM     23  H12 UNL     1     -24.939   8.423 -19.882  1.00  0.00     0.277 HD
ATOM     24  H11 UNL     1     -24.020   7.496 -20.703  1.00  0.00     0.277 HD
BRANCH  22  25
HETATM   25  C6  UNL     1     -23.263   7.863 -18.824  1.00  0.00     0.228 C 
HETATM   26  C7  UNL     1     -23.998   6.625 -18.278  1.00  0.00     0.034 C 
ENDBRANCH  22  25
ENDBRANCH   3  22
TORSDOF 5
ENDMDL
