MODEL 1
REMARK VINA RESULT: -6.837900912      0.000      0.000
REMARK  1 active torsions:
REMARK  status: ('A' for Active; 'I' for Inactive)
REMARK       I    between atoms: C1_2  and  N2_4 
REMARK    1  A    between atoms: N2_4  and  C2_6 
ROOT
HETATM    1  C2  UNL     1      76.953  87.636  19.300  1.00  0.00     0.195 A 
HETATM    2  N3  UNL     1      78.127  87.411  19.917  1.00  0.00    -0.266 N 
ATOM      3  H3  UNL     1      78.828  86.729  19.629  1.00  0.00     0.190 HD
HETATM    4  N4  UNL     1      78.220  88.214  20.947  1.00  0.00    -0.238 N 
ATOM      5  H4  UNL     1      79.018  88.241  21.583  1.00  0.00     0.208 HD
HETATM    6  N5  UNL     1      77.150  88.986  21.063  1.00  0.00    -0.249 N 
ATOM      7  H5  UNL     1      76.970  89.694  21.776  1.00  0.00     0.192 HD
HETATM    8  C3  UNL     1      76.345  88.633  20.033  1.00  0.00     0.306 A 
HETATM    9  O2  UNL     1      75.212  89.130  19.775  1.00  0.00    -0.262 OA
ENDROOT
BRANCH   1  10
HETATM   10  N2  UNL     1      76.462  87.061  18.241  1.00  0.00    -0.291 N 
HETATM   11  C1  UNL     1      77.306  86.833  17.118  1.00  0.00     0.334 C 
HETATM   12  N1  UNL     1      78.467  86.018  17.235  1.00  0.00    -0.040 NA
HETATM   13  O1  UNL     1      77.082  87.329  15.980  1.00  0.00    -0.251 OA
ATOM     14  H2  UNL     1      75.483  86.776  18.216  1.00  0.00     0.172 HD
ENDBRANCH   1  10
TORSDOF 1
ENDMDL
MODEL 2
REMARK VINA RESULT: -6.756782611      1.698      1.945
REMARK  1 active torsions:
REMARK  status: ('A' for Active; 'I' for Inactive)
REMARK       I    between atoms: C1_2  and  N2_4 
REMARK    1  A    between atoms: N2_4  and  C2_6 
ROOT
HETATM    1  C2  UNL     1      76.705  88.163  19.046  1.00  0.00     0.195 A 
HETATM    2  N3  UNL     1      75.778  89.136  19.101  1.00  0.00    -0.266 N 
ATOM      3  H3  UNL     1      75.009  89.263  18.442  1.00  0.00     0.190 HD
HETATM    4  N4  UNL     1      76.026  89.894  20.140  1.00  0.00    -0.238 N 
ATOM      5  H4  UNL     1      75.466  90.705  20.404  1.00  0.00     0.208 HD
HETATM    6  N5  UNL     1      77.093  89.477  20.805  1.00  0.00    -0.249 N 
ATOM      7  H5  UNL     1      77.498  89.888  21.647  1.00  0.00     0.192 HD
HETATM    8  C3  UNL     1      77.530  88.389  20.128  1.00  0.00     0.306 A 
HETATM    9  O2  UNL     1      78.534  87.684  20.429  1.00  0.00    -0.262 OA
ENDROOT
BRANCH   1  10
HETATM   10  N2  UNL     1      76.830  87.201  18.179  1.00  0.00    -0.291 N 
HETATM   11  C1  UNL     1      77.443  87.471  16.924  1.00  0.00     0.334 C 
HETATM   12  N1  UNL     1      78.785  87.940  16.857  1.00  0.00    -0.040 NA
HETATM   13  O1  UNL     1      76.848  87.315  15.822  1.00  0.00    -0.251 OA
ATOM     14  H2  UNL     1      76.493  86.263  18.397  1.00  0.00     0.172 HD
ENDBRANCH   1  10
TORSDOF 1
ENDMDL
MODEL 3
REMARK VINA RESULT: -6.589722511      2.348      4.056
REMARK  1 active torsions:
REMARK  status: ('A' for Active; 'I' for Inactive)
REMARK       I    between atoms: C1_2  and  N2_4 
REMARK    1  A    between atoms: N2_4  and  C2_6 
ROOT
HETATM    1  C2  UNL     1      78.542  88.313  19.562  1.00  0.00     0.195 A 
HETATM    2  N3  UNL     1      78.896  89.093  18.526  1.00  0.00    -0.266 N 
ATOM      3  H3  UNL     1      78.712  90.094  18.445  1.00  0.00     0.190 HD
HETATM    4  N4  UNL     1      79.514  88.356  17.637  1.00  0.00    -0.238 N 
ATOM      5  H4  UNL     1      79.884  88.711  16.755  1.00  0.00     0.208 HD
HETATM    6  N5  UNL     1      79.600  87.092  18.025  1.00  0.00    -0.249 N 
ATOM      7  H5  UNL     1      80.031  86.317  17.521  1.00  0.00     0.192 HD
HETATM    8  C3  UNL     1      78.991  87.051  19.235  1.00  0.00     0.306 A 
HETATM    9  O2  UNL     1      78.852  86.024  19.958  1.00  0.00    -0.262 OA
ENDROOT
BRANCH   1  10
HETATM   10  N2  UNL     1      77.911  88.638  20.654  1.00  0.00    -0.291 N 
HETATM   11  C1  UNL     1      76.774  89.488  20.573  1.00  0.00     0.334 C 
HETATM   12  N1  UNL     1      75.629  89.100  19.822  1.00  0.00    -0.040 NA
HETATM   13  O1  UNL     1      76.713  90.609  21.148  1.00  0.00    -0.251 OA
ATOM     14  H2  UNL     1      78.230  88.287  21.556  1.00  0.00     0.172 HD
ENDBRANCH   1  10
TORSDOF 1
ENDMDL
MODEL 4
REMARK VINA RESULT: -6.290372280      1.919      2.251
REMARK  1 active torsions:
REMARK  status: ('A' for Active; 'I' for Inactive)
REMARK       I    between atoms: C1_2  and  N2_4 
REMARK    1  A    between atoms: N2_4  and  C2_6 
ROOT
HETATM    1  C2  UNL     1      77.428  87.990  19.113  1.00  0.00     0.195 A 
HETATM    2  N3  UNL     1      76.429  88.334  18.281  1.00  0.00    -0.266 N 
ATOM      3  H3  UNL     1      76.264  87.939  17.356  1.00  0.00     0.190 HD
HETATM    4  N4  UNL     1      75.704  89.259  18.857  1.00  0.00    -0.238 N 
ATOM      5  H4  UNL     1      74.882  89.691  18.433  1.00  0.00     0.208 HD
HETATM    6  N5  UNL     1      76.168  89.567  20.059  1.00  0.00    -0.249 N 
ATOM      7  H5  UNL     1      75.790  90.252  20.714  1.00  0.00     0.192 HD
HETATM    8  C3  UNL     1      77.253  88.775  20.233  1.00  0.00     0.306 A 
HETATM    9  O2  UNL     1      77.996  88.752  21.255  1.00  0.00    -0.262 OA
ENDROOT
BRANCH   1  10
HETATM   10  N2  UNL     1      78.374  87.113  18.937  1.00  0.00    -0.291 N 
HETATM   11  C1  UNL     1      78.920  86.930  17.636  1.00  0.00     0.334 C 
HETATM   12  N1  UNL     1      79.556  88.008  16.958  1.00  0.00    -0.040 NA
HETATM   13  O1  UNL     1      78.875  85.829  17.022  1.00  0.00    -0.251 OA
ATOM     14  H2  UNL     1      78.719  86.563  19.723  1.00  0.00     0.172 HD
ENDBRANCH   1  10
TORSDOF 1
ENDMDL
MODEL 5
REMARK VINA RESULT: -6.282060807      2.393      2.879
REMARK  1 active torsions:
REMARK  status: ('A' for Active; 'I' for Inactive)
REMARK       I    between atoms: C1_2  and  N2_4 
REMARK    1  A    between atoms: N2_4  and  C2_6 
ROOT
HETATM    1  C2  UNL     1      77.550  87.309  19.400  1.00  0.00     0.195 A 
HETATM    2  N3  UNL     1      77.430  87.517  18.077  1.00  0.00    -0.266 N 
ATOM      3  H3  UNL     1      77.946  87.024  17.348  1.00  0.00     0.190 HD
HETATM    4  N4  UNL     1      76.542  88.459  17.880  1.00  0.00    -0.238 N 
ATOM      5  H4  UNL     1      76.267  88.804  16.960  1.00  0.00     0.208 HD
HETATM    6  N5  UNL     1      76.043  88.908  19.022  1.00  0.00    -0.249 N 
ATOM      7  H5  UNL     1      75.340  89.636  19.148  1.00  0.00     0.192 HD
HETATM    8  C3  UNL     1      76.670  88.193  19.987  1.00  0.00     0.306 A 
HETATM    9  O2  UNL     1      76.485  88.309  21.232  1.00  0.00    -0.262 OA
ENDROOT
BRANCH   1  10
HETATM   10  N2  UNL     1      78.318  86.467  20.029  1.00  0.00    -0.291 N 
HETATM   11  C1  UNL     1      78.087  85.071  19.882  1.00  0.00     0.334 C 
HETATM   12  N1  UNL     1      78.165  84.453  18.602  1.00  0.00    -0.040 NA
HETATM   13  O1  UNL     1      77.807  84.316  20.853  1.00  0.00    -0.251 OA
ATOM     14  H2  UNL     1      79.077  86.804  20.621  1.00  0.00     0.172 HD
ENDBRANCH   1  10
TORSDOF 1
ENDMDL
