MODEL 1
REMARK VINA RESULT: -5.640443935      0.000      0.000
REMARK  1 active torsions:
REMARK  status: ('A' for Active; 'I' for Inactive)
REMARK       I    between atoms: N1_2  and  C2_4 
REMARK       I    between atoms: C2_4  and  N2_6 
REMARK    1  A    between atoms: N6_13  and  N7_14 
ROOT
HETATM    1  C1  UNL     1      76.896  89.668  20.778  1.00  0.00     0.151 C 
HETATM    2  N1  UNL     1      76.404  89.084  19.548  1.00  0.00    -0.347 N 
ATOM      3  H1  UNL     1      75.409  89.083  19.330  1.00  0.00     0.163 HD
HETATM    4  C2  UNL     1      77.347  88.514  18.657  1.00  0.00     0.322 C 
HETATM    5  O1  UNL     1      78.567  88.525  18.944  1.00  0.00    -0.247 OA
HETATM    6  N2  UNL     1      76.830  87.951  17.463  1.00  0.00    -0.277 N 
ATOM      7  H2  UNL     1      76.228  88.544  16.893  1.00  0.00     0.173 HD
HETATM    8  C3  UNL     1      77.050  86.782  17.045  1.00  0.00     0.235 C 
HETATM    9  N3  UNL     1      77.844  85.775  17.649  1.00  0.00    -0.254 N 
ATOM     10  H3  UNL     1      78.189  85.748  18.609  1.00  0.00     0.187 HD
HETATM   11  N4  UNL     1      78.050  84.822  16.637  1.00  0.00    -0.004 NA
HETATM   12  N5  UNL     1      76.863  84.798  15.894  1.00  0.00     0.017 NA
HETATM   13  N6  UNL     1      76.552  86.186  15.858  1.00  0.00    -0.153 N 
ENDROOT
BRANCH  13  14
HETATM   14  N7  UNL     1      75.878  86.890  14.857  1.00  0.00    -0.323 N 
ATOM     15  H72 UNL     1      76.231  87.173  13.943  1.00  0.00     0.178 HD
ATOM     16  H71 UNL     1      74.913  87.210  14.938  1.00  0.00     0.178 HD
ENDBRANCH  13  14
TORSDOF 1
ENDMDL
MODEL 2
REMARK VINA RESULT: -5.545433755      2.218      4.629
REMARK  1 active torsions:
REMARK  status: ('A' for Active; 'I' for Inactive)
REMARK       I    between atoms: N1_2  and  C2_4 
REMARK       I    between atoms: C2_4  and  N2_6 
REMARK    1  A    between atoms: N6_13  and  N7_14 
ROOT
HETATM    1  C1  UNL     1      76.854  83.814  15.769  1.00  0.00     0.151 C 
HETATM    2  N1  UNL     1      76.555  85.130  16.290  1.00  0.00    -0.347 N 
ATOM      3  H1  UNL     1      76.335  85.905  15.664  1.00  0.00     0.163 HD
HETATM    4  C2  UNL     1      76.576  85.313  17.695  1.00  0.00     0.322 C 
HETATM    5  O1  UNL     1      76.850  84.348  18.448  1.00  0.00    -0.247 OA
HETATM    6  N2  UNL     1      76.279  86.615  18.170  1.00  0.00    -0.277 N 
ATOM      7  H2  UNL     1      75.412  87.041  17.846  1.00  0.00     0.173 HD
HETATM    8  C3  UNL     1      76.993  87.292  18.958  1.00  0.00     0.235 C 
HETATM    9  N3  UNL     1      78.231  86.927  19.544  1.00  0.00    -0.254 N 
ATOM     10  H3  UNL     1      78.849  86.164  19.268  1.00  0.00     0.187 HD
HETATM   11  N4  UNL     1      78.421  87.848  20.589  1.00  0.00    -0.004 NA
HETATM   12  N5  UNL     1      77.894  89.059  20.125  1.00  0.00     0.017 NA
HETATM   13  N6  UNL     1      76.728  88.594  19.454  1.00  0.00    -0.153 N 
ENDROOT
BRANCH  13  14
HETATM   14  N7  UNL     1      75.512  89.260  19.284  1.00  0.00    -0.323 N 
ATOM     15  H72 UNL     1      74.770  89.396  19.970  1.00  0.00     0.178 HD
ATOM     16  H71 UNL     1      75.224  89.703  18.412  1.00  0.00     0.178 HD
ENDBRANCH  13  14
TORSDOF 1
ENDMDL
MODEL 3
REMARK VINA RESULT: -5.540759478      1.929      4.842
REMARK  1 active torsions:
REMARK  status: ('A' for Active; 'I' for Inactive)
REMARK       I    between atoms: N1_2  and  C2_4 
REMARK       I    between atoms: C2_4  and  N2_6 
REMARK    1  A    between atoms: N6_13  and  N7_14 
ROOT
HETATM    1  C1  UNL     1      76.281  85.067  14.999  1.00  0.00     0.151 C 
HETATM    2  N1  UNL     1      76.855  85.344  16.298  1.00  0.00    -0.347 N 
ATOM      3  H1  UNL     1      77.131  84.587  16.923  1.00  0.00     0.163 HD
HETATM    4  C2  UNL     1      77.024  86.699  16.677  1.00  0.00     0.322 C 
HETATM    5  O1  UNL     1      76.679  87.616  15.895  1.00  0.00    -0.247 OA
HETATM    6  N2  UNL     1      77.589  86.934  17.956  1.00  0.00    -0.277 N 
ATOM      7  H2  UNL     1      78.473  86.472  18.165  1.00  0.00     0.173 HD
HETATM    8  C3  UNL     1      77.093  87.664  18.857  1.00  0.00     0.235 C 
HETATM    9  N3  UNL     1      75.886  88.405  18.812  1.00  0.00    -0.254 N 
ATOM     10  H3  UNL     1      75.121  88.308  18.144  1.00  0.00     0.187 HD
HETATM   11  N4  UNL     1      75.973  89.303  19.890  1.00  0.00    -0.004 NA
HETATM   12  N5  UNL     1      76.642  88.609  20.905  1.00  0.00     0.017 NA
HETATM   13  N6  UNL     1      77.629  87.922  20.144  1.00  0.00    -0.153 N 
ENDROOT
BRANCH  13  14
HETATM   14  N7  UNL     1      78.912  87.544  20.544  1.00  0.00    -0.323 N 
ATOM     15  H72 UNL     1      79.546  88.040  21.171  1.00  0.00     0.178 HD
ATOM     16  H71 UNL     1      79.375  86.689  20.237  1.00  0.00     0.178 HD
ENDBRANCH  13  14
TORSDOF 1
ENDMDL
MODEL 4
REMARK VINA RESULT: -5.437905179      2.118      4.638
REMARK  1 active torsions:
REMARK  status: ('A' for Active; 'I' for Inactive)
REMARK       I    between atoms: N1_2  and  C2_4 
REMARK       I    between atoms: C2_4  and  N2_6 
REMARK    1  A    between atoms: N6_13  and  N7_14 
ROOT
HETATM    1  C1  UNL     1      75.148  85.979  14.193  1.00  0.00     0.151 C 
HETATM    2  N1  UNL     1      75.645  85.687  15.520  1.00  0.00    -0.347 N 
ATOM      3  H1  UNL     1      75.340  84.854  16.022  1.00  0.00     0.163 HD
HETATM    4  C2  UNL     1      76.566  86.593  16.102  1.00  0.00     0.322 C 
HETATM    5  O1  UNL     1      76.927  87.613  15.469  1.00  0.00    -0.247 OA
HETATM    6  N2  UNL     1      77.031  86.276  17.403  1.00  0.00    -0.277 N 
ATOM      7  H2  UNL     1      77.426  85.346  17.542  1.00  0.00     0.173 HD
HETATM    8  C3  UNL     1      76.998  87.042  18.404  1.00  0.00     0.235 C 
HETATM    9  N3  UNL     1      76.503  88.369  18.470  1.00  0.00    -0.254 N 
ATOM     10  H3  UNL     1      75.905  88.844  17.793  1.00  0.00     0.187 HD
HETATM   11  N4  UNL     1      77.015  88.886  19.673  1.00  0.00    -0.004 NA
HETATM   12  N5  UNL     1      77.021  87.813  20.572  1.00  0.00     0.017 NA
HETATM   13  N6  UNL     1      77.453  86.760  19.717  1.00  0.00    -0.153 N 
ENDROOT
BRANCH  13  14
HETATM   14  N7  UNL     1      78.195  85.627  20.058  1.00  0.00    -0.323 N 
ATOM     15  H72 UNL     1      78.051  84.996  20.847  1.00  0.00     0.178 HD
ATOM     16  H71 UNL     1      79.000  85.294  19.528  1.00  0.00     0.178 HD
ENDBRANCH  13  14
TORSDOF 1
ENDMDL
MODEL 5
REMARK VINA RESULT: -5.361488525      2.896      4.242
REMARK  1 active torsions:
REMARK  status: ('A' for Active; 'I' for Inactive)
REMARK       I    between atoms: N1_2  and  C2_4 
REMARK       I    between atoms: C2_4  and  N2_6 
REMARK    1  A    between atoms: N6_13  and  N7_14 
ROOT
HETATM    1  C1  UNL     1      78.488  82.067  19.721  1.00  0.00     0.151 C 
HETATM    2  N1  UNL     1      78.138  83.106  18.775  1.00  0.00    -0.347 N 
ATOM      3  H1  UNL     1      78.010  82.893  17.786  1.00  0.00     0.163 HD
HETATM    4  C2  UNL     1      77.979  84.426  19.263  1.00  0.00     0.322 C 
HETATM    5  O1  UNL     1      78.142  84.667  20.483  1.00  0.00    -0.247 OA
HETATM    6  N2  UNL     1      77.638  85.418  18.310  1.00  0.00    -0.277 N 
ATOM      7  H2  UNL     1      76.824  85.237  17.722  1.00  0.00     0.173 HD
HETATM    8  C3  UNL     1      78.251  86.504  18.125  1.00  0.00     0.235 C 
HETATM    9  N3  UNL     1      79.398  86.984  18.805  1.00  0.00    -0.254 N 
ATOM     10  H3  UNL     1      80.038  86.453  19.397  1.00  0.00     0.187 HD
HETATM   11  N4  UNL     1      79.462  88.351  18.486  1.00  0.00    -0.004 NA
HETATM   12  N5  UNL     1      79.012  88.451  17.164  1.00  0.00     0.017 NA
HETATM   13  N6  UNL     1      77.939  87.517  17.183  1.00  0.00    -0.153 N 
ENDROOT
BRANCH  13  14
HETATM   14  N7  UNL     1      76.762  87.545  16.430  1.00  0.00    -0.323 N 
ATOM     15  H72 UNL     1      75.957  86.924  16.502  1.00  0.00     0.178 HD
ATOM     16  H71 UNL     1      76.576  88.223  15.692  1.00  0.00     0.178 HD
ENDBRANCH  13  14
TORSDOF 1
ENDMDL
