MODEL 1
REMARK VINA RESULT: -6.225269261      0.000      0.000
REMARK  2 active torsions:
REMARK  status: ('A' for Active; 'I' for Inactive)
REMARK    1  A    between atoms: C1_2  and  C2_4 
REMARK    2  A    between atoms: C2_4  and  N2_5 
ROOT
HETATM    1  C2  UNL     1      76.969  87.758  18.866  1.00  0.00     0.346 A 
HETATM    2  N3  UNL     1      77.206  88.527  17.637  1.00  0.00    -0.308 N 
ATOM      3  H3  UNL     1      76.638  89.098  17.009  1.00  0.00     0.166 HD
HETATM    4  C3  UNL     1      78.596  88.120  17.703  1.00  0.00     0.295 A 
HETATM    5  O2  UNL     1      79.584  88.311  16.979  1.00  0.00    -0.264 OA
HETATM    6  C4  UNL     1      78.346  87.373  18.950  1.00  0.00     0.282 A 
HETATM    7  O3  UNL     1      79.125  86.707  19.712  1.00  0.00    -0.282 OA
ENDROOT
BRANCH   1   8
HETATM    8  C1  UNL     1      76.237  88.507  19.877  1.00  0.00     0.296 C 
HETATM    9  N1  UNL     1      76.586  88.403  21.249  1.00  0.00    -0.058 NA
HETATM   10  O1  UNL     1      75.281  89.279  19.551  1.00  0.00    -0.271 OA
ENDBRANCH   1   8
BRANCH   1  11
HETATM   11  N2  UNL     1      76.113  86.601  18.455  1.00  0.00    -0.036 N 
ATOM     12  H23 UNL     1      76.557  85.699  18.621  1.00  0.00     0.278 HD
ATOM     13  H22 UNL     1      75.307  86.466  19.065  1.00  0.00     0.278 HD
ATOM     14  H21 UNL     1      75.854  86.744  17.479  1.00  0.00     0.278 HD
ENDBRANCH   1  11
TORSDOF 2
ENDMDL
MODEL 2
REMARK VINA RESULT: -6.209277316      1.610      3.434
REMARK  2 active torsions:
REMARK  status: ('A' for Active; 'I' for Inactive)
REMARK    1  A    between atoms: C1_2  and  C2_4 
REMARK    2  A    between atoms: C2_4  and  N2_5 
ROOT
HETATM    1  C2  UNL     1      78.022  87.872  18.450  1.00  0.00     0.346 A 
HETATM    2  N3  UNL     1      76.682  88.218  17.957  1.00  0.00    -0.308 N 
ATOM      3  H3  UNL     1      76.211  88.215  17.052  1.00  0.00     0.166 HD
HETATM    4  C3  UNL     1      76.319  88.564  19.318  1.00  0.00     0.295 A 
HETATM    5  O2  UNL     1      75.295  89.016  19.848  1.00  0.00    -0.264 OA
HETATM    6  C4  UNL     1      77.663  88.189  19.799  1.00  0.00     0.282 A 
HETATM    7  O3  UNL     1      78.174  88.180  20.969  1.00  0.00    -0.282 OA
ENDROOT
BRANCH   1   8
HETATM    8  C1  UNL     1      78.487  86.576  17.980  1.00  0.00     0.296 C 
HETATM    9  N1  UNL     1      78.070  85.381  18.623  1.00  0.00    -0.058 NA
HETATM   10  O1  UNL     1      79.263  86.485  16.977  1.00  0.00    -0.271 OA
ENDBRANCH   1   8
BRANCH   1  11
HETATM   11  N2  UNL     1      78.936  88.911  17.879  1.00  0.00    -0.036 N 
ATOM     12  H23 UNL     1      79.193  89.629  18.556  1.00  0.00     0.278 HD
ATOM     13  H22 UNL     1      79.875  88.558  17.697  1.00  0.00     0.278 HD
ATOM     14  H21 UNL     1      78.486  89.291  17.046  1.00  0.00     0.278 HD
ENDBRANCH   1  11
TORSDOF 2
ENDMDL
MODEL 3
REMARK VINA RESULT: -6.192734771      1.387      1.387
REMARK  2 active torsions:
REMARK  status: ('A' for Active; 'I' for Inactive)
REMARK    1  A    between atoms: C1_2  and  C2_4 
REMARK    2  A    between atoms: C2_4  and  N2_5 
ROOT
HETATM    1  C2  UNL     1      77.451  88.134  19.000  1.00  0.00     0.346 A 
HETATM    2  N3  UNL     1      78.421  88.846  18.157  1.00  0.00    -0.308 N 
ATOM      3  H3  UNL     1      78.407  89.678  17.566  1.00  0.00     0.166 HD
HETATM    4  C3  UNL     1      79.408  87.852  18.531  1.00  0.00     0.295 A 
HETATM    5  O2  UNL     1      80.593  87.656  18.224  1.00  0.00    -0.264 OA
HETATM    6  C4  UNL     1      78.427  87.163  19.391  1.00  0.00     0.282 A 
HETATM    7  O3  UNL     1      78.530  86.137  20.145  1.00  0.00    -0.282 OA
ENDROOT
BRANCH   1   8
HETATM    8  C1  UNL     1      76.723  89.014  19.901  1.00  0.00     0.296 C 
HETATM    9  N1  UNL     1      75.304  89.057  19.881  1.00  0.00    -0.058 NA
HETATM   10  O1  UNL     1      77.339  89.751  20.733  1.00  0.00    -0.271 OA
ENDBRANCH   1   8
BRANCH   1  11
HETATM   11  N2  UNL     1      76.457  87.542  18.049  1.00  0.00    -0.036 N 
ATOM     12  H23 UNL     1      76.894  87.015  17.294  1.00  0.00     0.278 HD
ATOM     13  H22 UNL     1      75.926  86.773  18.457  1.00  0.00     0.278 HD
ATOM     14  H21 UNL     1      75.864  88.301  17.714  1.00  0.00     0.278 HD
ENDBRANCH   1  11
TORSDOF 2
ENDMDL
MODEL 4
REMARK VINA RESULT: -6.130605143      1.804      3.503
REMARK  2 active torsions:
REMARK  status: ('A' for Active; 'I' for Inactive)
REMARK    1  A    between atoms: C1_2  and  C2_4 
REMARK    2  A    between atoms: C2_4  and  N2_5 
ROOT
HETATM    1  C2  UNL     1      77.933  87.906  18.663  1.00  0.00     0.346 A 
HETATM    2  N3  UNL     1      76.628  88.232  18.072  1.00  0.00    -0.308 N 
ATOM      3  H3  UNL     1      76.208  88.170  17.144  1.00  0.00     0.166 HD
HETATM    4  C3  UNL     1      76.196  88.679  19.382  1.00  0.00     0.295 A 
HETATM    5  O2  UNL     1      75.151  89.181  19.820  1.00  0.00    -0.264 OA
HETATM    6  C4  UNL     1      77.505  88.324  19.964  1.00  0.00     0.282 A 
HETATM    7  O3  UNL     1      77.950  88.392  21.159  1.00  0.00    -0.282 OA
ENDROOT
BRANCH   1   8
HETATM    8  C1  UNL     1      78.403  86.574  18.314  1.00  0.00     0.296 C 
HETATM    9  N1  UNL     1      78.914  86.305  17.017  1.00  0.00    -0.058 NA
HETATM   10  O1  UNL     1      78.378  85.629  19.164  1.00  0.00    -0.271 OA
ENDBRANCH   1   8
BRANCH   1  11
HETATM   11  N2  UNL     1      78.894  88.891  18.073  1.00  0.00    -0.036 N 
ATOM     12  H23 UNL     1      79.865  88.586  18.137  1.00  0.00     0.278 HD
ATOM     13  H22 UNL     1      78.837  88.942  17.056  1.00  0.00     0.278 HD
ATOM     14  H21 UNL     1      78.729  89.789  18.526  1.00  0.00     0.278 HD
ENDBRANCH   1  11
TORSDOF 2
ENDMDL
MODEL 5
REMARK VINA RESULT: -6.074705228      1.682      3.558
REMARK  2 active torsions:
REMARK  status: ('A' for Active; 'I' for Inactive)
REMARK    1  A    between atoms: C1_2  and  C2_4 
REMARK    2  A    between atoms: C2_4  and  N2_5 
ROOT
HETATM    1  C2  UNL     1      77.790  87.837  18.040  1.00  0.00     0.346 A 
HETATM    2  N3  UNL     1      76.548  88.602  17.867  1.00  0.00    -0.308 N 
ATOM      3  H3  UNL     1      76.049  89.021  17.082  1.00  0.00     0.166 HD
HETATM    4  C3  UNL     1      76.339  88.500  19.299  1.00  0.00     0.295 A 
HETATM    5  O2  UNL     1      75.474  88.930  20.076  1.00  0.00    -0.264 OA
HETATM    6  C4  UNL     1      77.577  87.713  19.450  1.00  0.00     0.282 A 
HETATM    7  O3  UNL     1      78.125  87.179  20.473  1.00  0.00    -0.282 OA
ENDROOT
BRANCH   1   8
HETATM    8  C1  UNL     1      77.916  86.731  17.102  1.00  0.00     0.296 C 
HETATM    9  N1  UNL     1      77.036  86.620  15.993  1.00  0.00    -0.058 NA
HETATM   10  O1  UNL     1      78.822  85.852  17.247  1.00  0.00    -0.271 OA
ENDBRANCH   1   8
BRANCH   1  11
HETATM   11  N2  UNL     1      78.896  88.802  17.747  1.00  0.00    -0.036 N 
ATOM     12  H23 UNL     1      78.670  89.759  18.017  1.00  0.00     0.278 HD
ATOM     13  H22 UNL     1      79.704  88.679  18.357  1.00  0.00     0.278 HD
ATOM     14  H21 UNL     1      79.127  88.712  16.758  1.00  0.00     0.278 HD
ENDBRANCH   1  11
TORSDOF 2
ENDMDL
