MODEL 1
REMARK VINA RESULT: -5.748389301      0.000      0.000
REMARK  2 active torsions:
REMARK  status: ('A' for Active; 'I' for Inactive)
REMARK       I    between atoms: N1_1  and  C1_4 
REMARK       I    between atoms: C1_4  and  N3_6 
REMARK    1  A    between atoms: N3_6  and  N4_8 
REMARK    2  A    between atoms: N4_8  and  N5_9 
ROOT
HETATM    1  N4  UNL     1      79.483  88.461  20.535  1.00  0.00     0.018 NA
ENDROOT
BRANCH   1   2
HETATM    2  N3  UNL     1      80.470  88.659  19.574  1.00  0.00    -0.255 N 
HETATM    3  C1  UNL     1      80.196  88.255  18.239  1.00  0.00     0.199 C 
HETATM    4  N1  UNL     1      79.596  87.161  17.914  1.00  0.00    -0.373 N 
HETATM    5  N2  UNL     1      80.600  89.095  17.166  1.00  0.00    -0.063 NA
ATOM      6  H12 UNL     1      79.400  86.870  16.956  1.00  0.00     0.158 HD
ATOM      7  H11 UNL     1      79.305  86.557  18.684  1.00  0.00     0.158 HD
ATOM      8  H3  UNL     1      81.365  89.082  19.820  1.00  0.00     0.187 HD
ENDBRANCH   1   2
BRANCH   1   9
HETATM    9  N5  UNL     1      78.371  89.280  20.326  1.00  0.00    -0.098 N 
HETATM   10  N6  UNL     1      77.195  88.998  19.822  1.00  0.00    -0.262 N 
HETATM   11  C2  UNL     1      76.418  90.106  19.808  1.00  0.00     0.215 A 
ATOM     12  H6  UNL     1      76.906  88.078  19.489  1.00  0.00     0.190 HD
HETATM   13  N7  UNL     1      77.197  91.072  20.333  1.00  0.00    -0.276 N 
HETATM   14  N8  UNL     1      78.380  90.563  20.645  1.00  0.00     0.017 NA
ATOM     15  H7  UNL     1      76.920  92.044  20.468  1.00  0.00     0.185 HD
ENDBRANCH   1   9
TORSDOF 2
ENDMDL
MODEL 2
REMARK VINA RESULT: -5.721668665      1.058      1.609
REMARK  2 active torsions:
REMARK  status: ('A' for Active; 'I' for Inactive)
REMARK       I    between atoms: N1_1  and  C1_4 
REMARK       I    between atoms: C1_4  and  N3_6 
REMARK    1  A    between atoms: N3_6  and  N4_8 
REMARK    2  A    between atoms: N4_8  and  N5_9 
ROOT
HETATM    1  N4  UNL     1      78.845  87.814  19.930  1.00  0.00     0.018 NA
ENDROOT
BRANCH   1   2
HETATM    2  N3  UNL     1      79.288  87.695  18.616  1.00  0.00    -0.255 N 
HETATM    3  C1  UNL     1      80.135  88.714  18.100  1.00  0.00     0.199 C 
HETATM    4  N1  UNL     1      79.974  89.977  18.310  1.00  0.00    -0.373 N 
HETATM    5  N2  UNL     1      81.246  88.346  17.294  1.00  0.00    -0.063 NA
ATOM      6  H12 UNL     1      80.581  90.708  17.939  1.00  0.00     0.158 HD
ATOM      7  H11 UNL     1      79.177  90.241  18.889  1.00  0.00     0.158 HD
ATOM      8  H3  UNL     1      79.014  86.900  18.039  1.00  0.00     0.187 HD
ENDBRANCH   1   2
BRANCH   1   9
HETATM    9  N5  UNL     1      78.134  88.997  20.142  1.00  0.00    -0.098 N 
HETATM   10  N6  UNL     1      78.287  89.926  21.053  1.00  0.00    -0.262 N 
HETATM   11  C2  UNL     1      77.368  90.903  20.880  1.00  0.00     0.215 A 
ATOM     12  H6  UNL     1      78.997  89.915  21.787  1.00  0.00     0.190 HD
HETATM   13  N7  UNL     1      76.650  90.507  19.810  1.00  0.00    -0.276 N 
HETATM   14  N8  UNL     1      77.121  89.350  19.368  1.00  0.00     0.017 NA
ATOM     15  H7  UNL     1      75.867  91.018  19.405  1.00  0.00     0.185 HD
ENDBRANCH   1   9
TORSDOF 2
ENDMDL
MODEL 3
REMARK VINA RESULT: -5.694501050      1.061      3.883
REMARK  2 active torsions:
REMARK  status: ('A' for Active; 'I' for Inactive)
REMARK       I    between atoms: N1_1  and  C1_4 
REMARK       I    between atoms: C1_4  and  N3_6 
REMARK    1  A    between atoms: N3_6  and  N4_8 
REMARK    2  A    between atoms: N4_8  and  N5_9 
ROOT
HETATM    1  N4  UNL     1      79.289  89.143  20.992  1.00  0.00     0.018 NA
ENDROOT
BRANCH   1   2
HETATM    2  N3  UNL     1      77.899  89.152  21.058  1.00  0.00    -0.255 N 
HETATM    3  C1  UNL     1      77.215  90.316  20.612  1.00  0.00     0.199 C 
HETATM    4  N1  UNL     1      77.591  91.526  20.855  1.00  0.00    -0.373 N 
HETATM    5  N2  UNL     1      76.029  90.168  19.842  1.00  0.00    -0.063 NA
ATOM      6  H12 UNL     1      77.100  92.361  20.535  1.00  0.00     0.158 HD
ATOM      7  H11 UNL     1      78.442  91.632  21.407  1.00  0.00     0.158 HD
ATOM      8  H3  UNL     1      77.385  88.348  21.415  1.00  0.00     0.187 HD
ENDBRANCH   1   2
BRANCH   1   9
HETATM    9  N5  UNL     1      79.755  89.020  19.682  1.00  0.00    -0.098 N 
HETATM   10  N6  UNL     1      80.133  87.958  19.013  1.00  0.00    -0.262 N 
HETATM   11  C2  UNL     1      80.511  88.307  17.762  1.00  0.00     0.215 A 
ATOM     12  H6  UNL     1      80.142  87.007  19.383  1.00  0.00     0.190 HD
HETATM   13  N7  UNL     1      80.339  89.642  17.717  1.00  0.00    -0.276 N 
HETATM   14  N8  UNL     1      79.880  90.068  18.884  1.00  0.00     0.017 NA
ATOM     15  H7  UNL     1      80.533  90.234  16.909  1.00  0.00     0.185 HD
ENDBRANCH   1   9
TORSDOF 2
ENDMDL
MODEL 4
REMARK VINA RESULT: -5.683825469      1.203      4.028
REMARK  2 active torsions:
REMARK  status: ('A' for Active; 'I' for Inactive)
REMARK       I    between atoms: N1_1  and  C1_4 
REMARK       I    between atoms: C1_4  and  N3_6 
REMARK    1  A    between atoms: N3_6  and  N4_8 
REMARK    2  A    between atoms: N4_8  and  N5_9 
ROOT
HETATM    1  N4  UNL     1      77.357  88.625  18.750  1.00  0.00     0.018 NA
ENDROOT
BRANCH   1   2
HETATM    2  N3  UNL     1      76.839  89.787  19.316  1.00  0.00    -0.255 N 
HETATM    3  C1  UNL     1      77.238  90.124  20.638  1.00  0.00     0.199 C 
HETATM    4  N1  UNL     1      77.359  89.279  21.605  1.00  0.00    -0.373 N 
HETATM    5  N2  UNL     1      77.533  91.480  20.946  1.00  0.00    -0.063 NA
ATOM      6  H12 UNL     1      77.644  89.522  22.554  1.00  0.00     0.158 HD
ATOM      7  H11 UNL     1      77.147  88.306  21.385  1.00  0.00     0.158 HD
ATOM      8  H3  UNL     1      76.191  90.379  18.797  1.00  0.00     0.187 HD
ENDBRANCH   1   2
BRANCH   1   9
HETATM    9  N5  UNL     1      78.728  88.724  18.506  1.00  0.00    -0.098 N 
HETATM   10  N6  UNL     1      79.744  88.215  19.159  1.00  0.00    -0.262 N 
HETATM   11  C2  UNL     1      80.905  88.570  18.562  1.00  0.00     0.215 A 
ATOM     12  H6  UNL     1      79.671  87.636  19.996  1.00  0.00     0.190 HD
HETATM   13  N7  UNL     1      80.528  89.324  17.511  1.00  0.00    -0.276 N 
HETATM   14  N8  UNL     1      79.206  89.413  17.483  1.00  0.00     0.017 NA
ATOM     15  H7  UNL     1      81.162  89.760  16.841  1.00  0.00     0.185 HD
ENDBRANCH   1   9
TORSDOF 2
ENDMDL
MODEL 5
REMARK VINA RESULT: -5.549392356      1.876      3.726
REMARK  2 active torsions:
REMARK  status: ('A' for Active; 'I' for Inactive)
REMARK       I    between atoms: N1_1  and  C1_4 
REMARK       I    between atoms: C1_4  and  N3_6 
REMARK    1  A    between atoms: N3_6  and  N4_8 
REMARK    2  A    between atoms: N4_8  and  N5_9 
ROOT
HETATM    1  N4  UNL     1      79.692  89.131  19.238  1.00  0.00     0.018 NA
ENDROOT
BRANCH   1   2
HETATM    2  N3  UNL     1      79.212  89.159  20.545  1.00  0.00    -0.255 N 
HETATM    3  C1  UNL     1      78.025  89.897  20.807  1.00  0.00     0.199 C 
HETATM    4  N1  UNL     1      77.755  91.053  20.303  1.00  0.00    -0.373 N 
HETATM    5  N2  UNL     1      77.049  89.347  21.682  1.00  0.00    -0.063 NA
ATOM      6  H12 UNL     1      76.904  91.583  20.491  1.00  0.00     0.158 HD
ATOM      7  H11 UNL     1      78.455  91.448  19.675  1.00  0.00     0.158 HD
ATOM      8  H3  UNL     1      79.697  88.664  21.292  1.00  0.00     0.187 HD
ENDBRANCH   1   2
BRANCH   1   9
HETATM    9  N5  UNL     1      78.819  88.473  18.369  1.00  0.00    -0.098 N 
HETATM   10  N6  UNL     1      78.454  87.215  18.328  1.00  0.00    -0.262 N 
HETATM   11  C2  UNL     1      77.584  87.018  17.311  1.00  0.00     0.215 A 
ATOM     12  H6  UNL     1      78.778  86.490  18.968  1.00  0.00     0.190 HD
HETATM   13  N7  UNL     1      77.447  88.232  16.742  1.00  0.00    -0.276 N 
HETATM   14  N8  UNL     1      78.199  89.109  17.390  1.00  0.00     0.017 NA
ATOM     15  H7  UNL     1      76.857  88.442  15.937  1.00  0.00     0.185 HD
ENDBRANCH   1   9
TORSDOF 2
ENDMDL
