MODEL 1
REMARK VINA RESULT: -5.918808435      0.000      0.000
REMARK  2 active torsions:
REMARK  status: ('A' for Active; 'I' for Inactive)
REMARK       I    between atoms: C1_4  and  N3_6 
REMARK    1  A    between atoms: N3_6  and  N4_8 
REMARK    2  A    between atoms: N4_8  and  N5_9 
ROOT
HETATM    1  N4  UNL     1      79.379  88.946  20.598  1.00  0.00     0.004 NA
ENDROOT
BRANCH   1   2
HETATM    2  N3  UNL     1      78.237  89.385  21.218  1.00  0.00    -0.256 N 
HETATM    3  C1  UNL     1      77.373  90.329  20.640  1.00  0.00     0.199 C 
HETATM    4  N1  UNL     1      77.630  91.588  20.630  1.00  0.00    -0.373 N 
HETATM    5  N2  UNL     1      76.175  89.881  20.049  1.00  0.00    -0.063 NA
ATOM      6  H12 UNL     1      77.003  92.274  20.210  1.00  0.00     0.158 HD
ATOM      7  H11 UNL     1      78.497  91.913  21.057  1.00  0.00     0.158 HD
ATOM      8  H3  UNL     1      78.005  89.009  22.137  1.00  0.00     0.187 HD
ENDBRANCH   1   2
BRANCH   1   9
HETATM    9  N5  UNL     1      79.199  87.832  19.805  1.00  0.00    -0.175 N 
HETATM   10  C2  UNL     1      79.414  87.666  18.494  1.00  0.00     0.225 A 
HETATM   11  N6  UNL     1      79.108  86.419  18.120  1.00  0.00    -0.345 N 
HETATM   12  C3  UNL     1      78.689  85.778  19.218  1.00  0.00     0.200 A 
ATOM     13  H6  UNL     1      79.180  86.031  17.179  1.00  0.00     0.167 HD
HETATM   14  N7  UNL     1      78.755  86.662  20.230  1.00  0.00    -0.276 N 
ATOM     15  H7  UNL     1      78.497  86.457  21.195  1.00  0.00     0.189 HD
ENDBRANCH   1   9
TORSDOF 2
ENDMDL
MODEL 2
REMARK VINA RESULT: -5.484532449      1.021      1.250
REMARK  2 active torsions:
REMARK  status: ('A' for Active; 'I' for Inactive)
REMARK       I    between atoms: C1_4  and  N3_6 
REMARK    1  A    between atoms: N3_6  and  N4_8 
REMARK    2  A    between atoms: N4_8  and  N5_9 
ROOT
HETATM    1  N4  UNL     1      79.485  89.664  19.158  1.00  0.00     0.004 NA
ENDROOT
BRANCH   1   2
HETATM    2  N3  UNL     1      78.728  90.400  20.034  1.00  0.00    -0.256 N 
HETATM    3  C1  UNL     1      77.375  90.124  20.287  1.00  0.00     0.199 C 
HETATM    4  N1  UNL     1      76.435  90.463  19.478  1.00  0.00    -0.373 N 
HETATM    5  N2  UNL     1      77.030  89.451  21.476  1.00  0.00    -0.063 NA
ATOM      6  H12 UNL     1      75.452  90.262  19.662  1.00  0.00     0.158 HD
ATOM      7  H11 UNL     1      76.684  90.950  18.618  1.00  0.00     0.158 HD
ATOM      8  H3  UNL     1      79.167  91.181  20.521  1.00  0.00     0.187 HD
ENDBRANCH   1   2
BRANCH   1   9
HETATM    9  N5  UNL     1      79.158  88.324  19.117  1.00  0.00    -0.175 N 
HETATM   10  C2  UNL     1      78.785  87.561  18.082  1.00  0.00     0.225 A 
HETATM   11  N6  UNL     1      78.559  86.305  18.479  1.00  0.00    -0.345 N 
HETATM   12  C3  UNL     1      78.794  86.268  19.797  1.00  0.00     0.200 A 
ATOM     13  H6  UNL     1      78.264  85.525  17.892  1.00  0.00     0.167 HD
HETATM   14  N7  UNL     1      79.158  87.511  20.159  1.00  0.00    -0.276 N 
ATOM     15  H7  UNL     1      79.401  87.789  21.110  1.00  0.00     0.189 HD
ENDBRANCH   1   9
TORSDOF 2
ENDMDL
MODEL 3
REMARK VINA RESULT: -5.374196808      1.482      1.536
REMARK  2 active torsions:
REMARK  status: ('A' for Active; 'I' for Inactive)
REMARK       I    between atoms: C1_4  and  N3_6 
REMARK    1  A    between atoms: N3_6  and  N4_8 
REMARK    2  A    between atoms: N4_8  and  N5_9 
ROOT
HETATM    1  N4  UNL     1      79.663  89.113  19.554  1.00  0.00     0.004 NA
ENDROOT
BRANCH   1   2
HETATM    2  N3  UNL     1      79.164  89.527  20.763  1.00  0.00    -0.256 N 
HETATM    3  C1  UNL     1      77.882  90.080  20.907  1.00  0.00     0.199 C 
HETATM    4  N1  UNL     1      77.611  91.295  20.587  1.00  0.00    -0.373 N 
HETATM    5  N2  UNL     1      76.849  89.273  21.424  1.00  0.00    -0.063 NA
ATOM      6  H12 UNL     1      76.679  91.696  20.692  1.00  0.00     0.158 HD
ATOM      7  H11 UNL     1      78.358  91.879  20.212  1.00  0.00     0.158 HD
ATOM      8  H3  UNL     1      79.750  89.430  21.592  1.00  0.00     0.187 HD
ENDBRANCH   1   2
BRANCH   1   9
HETATM    9  N5  UNL     1      78.744  88.460  18.758  1.00  0.00    -0.175 N 
HETATM   10  C2  UNL     1      78.201  88.831  17.591  1.00  0.00     0.225 A 
HETATM   11  N6  UNL     1      77.349  87.899  17.152  1.00  0.00    -0.345 N 
HETATM   12  C3  UNL     1      77.350  86.915  18.059  1.00  0.00     0.200 A 
ATOM     13  H6  UNL     1      76.802  87.932  16.292  1.00  0.00     0.167 HD
HETATM   14  N7  UNL     1      78.210  87.282  19.026  1.00  0.00    -0.276 N 
ATOM     15  H7  UNL     1      78.420  86.727  19.855  1.00  0.00     0.189 HD
ENDBRANCH   1   9
TORSDOF 2
ENDMDL
MODEL 4
REMARK VINA RESULT: -5.370502177      1.623      1.786
REMARK  2 active torsions:
REMARK  status: ('A' for Active; 'I' for Inactive)
REMARK       I    between atoms: C1_4  and  N3_6 
REMARK    1  A    between atoms: N3_6  and  N4_8 
REMARK    2  A    between atoms: N4_8  and  N5_9 
ROOT
HETATM    1  N4  UNL     1      79.079  88.961  20.867  1.00  0.00     0.004 NA
ENDROOT
BRANCH   1   2
HETATM    2  N3  UNL     1      77.898  89.450  21.364  1.00  0.00    -0.256 N 
HETATM    3  C1  UNL     1      77.206  90.516  20.769  1.00  0.00     0.199 C 
HETATM    4  N1  UNL     1      77.562  91.742  20.917  1.00  0.00    -0.373 N 
HETATM    5  N2  UNL     1      76.073  90.234  19.980  1.00  0.00    -0.063 NA
ATOM      6  H12 UNL     1      77.059  92.517  20.485  1.00  0.00     0.158 HD
ATOM      7  H11 UNL     1      78.381  91.947  21.488  1.00  0.00     0.158 HD
ATOM      8  H3  UNL     1      77.507  89.020  22.203  1.00  0.00     0.187 HD
ENDBRANCH   1   2
BRANCH   1   9
HETATM    9  N5  UNL     1      79.157  88.967  19.489  1.00  0.00    -0.175 N 
HETATM   10  C2  UNL     1      80.073  89.518  18.682  1.00  0.00     0.225 A 
HETATM   11  N6  UNL     1      79.770  89.288  17.400  1.00  0.00    -0.345 N 
HETATM   12  C3  UNL     1      78.637  88.576  17.392  1.00  0.00     0.200 A 
ATOM     13  H6  UNL     1      80.301  89.597  16.585  1.00  0.00     0.167 HD
HETATM   14  N7  UNL     1      78.286  88.394  18.678  1.00  0.00    -0.276 N 
ATOM     15  H7  UNL     1      77.459  87.883  18.985  1.00  0.00     0.189 HD
ENDBRANCH   1   9
TORSDOF 2
ENDMDL
MODEL 5
REMARK VINA RESULT: -5.355900730      1.176      4.328
REMARK  2 active torsions:
REMARK  status: ('A' for Active; 'I' for Inactive)
REMARK       I    between atoms: C1_4  and  N3_6 
REMARK    1  A    between atoms: N3_6  and  N4_8 
REMARK    2  A    between atoms: N4_8  and  N5_9 
ROOT
HETATM    1  N4  UNL     1      78.608  87.557  20.112  1.00  0.00     0.004 NA
ENDROOT
BRANCH   1   2
HETATM    2  N3  UNL     1      79.227  87.290  18.918  1.00  0.00    -0.256 N 
HETATM    3  C1  UNL     1      78.693  86.408  17.965  1.00  0.00     0.199 C 
HETATM    4  N1  UNL     1      78.773  85.131  18.081  1.00  0.00    -0.373 N 
HETATM    5  N2  UNL     1      78.044  86.943  16.834  1.00  0.00    -0.063 NA
ATOM      6  H12 UNL     1      78.385  84.491  17.389  1.00  0.00     0.158 HD
ATOM      7  H11 UNL     1      79.242  84.744  18.899  1.00  0.00     0.158 HD
ATOM      8  H3  UNL     1      80.114  87.752  18.714  1.00  0.00     0.187 HD
ENDBRANCH   1   2
BRANCH   1   9
HETATM    9  N5  UNL     1      78.022  88.805  20.178  1.00  0.00    -0.175 N 
HETATM   10  C2  UNL     1      77.010  89.318  19.465  1.00  0.00     0.225 A 
HETATM   11  N6  UNL     1      76.752  90.571  19.850  1.00  0.00    -0.345 N 
HETATM   12  C3  UNL     1      77.618  90.862  20.828  1.00  0.00     0.200 A 
ATOM     13  H6  UNL     1      76.033  91.188  19.470  1.00  0.00     0.167 HD
HETATM   14  N7  UNL     1      78.379  89.768  21.008  1.00  0.00    -0.276 N 
ATOM     15  H7  UNL     1      79.130  89.692  21.693  1.00  0.00     0.189 HD
ENDBRANCH   1   9
TORSDOF 2
ENDMDL
