MODEL 1
REMARK VINA RESULT: -5.468121832      0.000      0.000
REMARK  3 active torsions:
REMARK  status: ('A' for Active; 'I' for Inactive)
REMARK       I    between atoms: C1_4  and  N3_6 
REMARK    1  A    between atoms: N3_6  and  N4_8 
REMARK       I    between atoms: N4_8  and  C2_10 
REMARK    2  A    between atoms: C2_10  and  C3_12 
REMARK    3  A    between atoms: N5_13  and  O2_15 
ROOT
HETATM    1  N4  UNL     1      77.348  88.939  18.239  1.00  0.00    -0.263 N 
ATOM      2  H4  UNL     1      76.329  88.967  18.215  1.00  0.00     0.190 HD
HETATM    3  C2  UNL     1      78.027  88.021  17.439  1.00  0.00     0.277 C 
HETATM    4  O1  UNL     1      79.267  87.917  17.396  1.00  0.00    -0.265 OA
ENDROOT
BRANCH   1   5
HETATM    5  N3  UNL     1      78.036  89.820  19.072  1.00  0.00    -0.271 N 
HETATM    6  C1  UNL     1      78.442  89.524  20.389  1.00  0.00     0.200 C 
HETATM    7  N1  UNL     1      77.749  89.873  21.412  1.00  0.00    -0.372 N 
HETATM    8  N2  UNL     1      79.655  88.816  20.617  1.00  0.00    -0.062 NA
ATOM      9  H12 UNL     1      78.043  89.659  22.365  1.00  0.00     0.158 HD
ATOM     10  H11 UNL     1      76.880  90.381  21.249  1.00  0.00     0.158 HD
ATOM     11  H3  UNL     1      78.261  90.744  18.703  1.00  0.00     0.189 HD
ENDBRANCH   1   5
BRANCH   3  12
HETATM   12  C3  UNL     1      77.267  87.091  16.563  1.00  0.00     0.189 C 
HETATM   13  N5  UNL     1      76.588  87.539  15.577  1.00  0.00    -0.275 N 
ATOM     14  H5  UNL     1      76.559  88.540  15.383  1.00  0.00     0.193 HD
BRANCH  13  15
HETATM   15  O2  UNL     1      75.901  86.662  14.787  1.00  0.00    -0.290 OA
ATOM     16  H2  UNL     1      76.344  86.250  14.055  1.00  0.00     0.244 HD
ENDBRANCH  13  15
ENDBRANCH   3  12
TORSDOF 3
ENDMDL
MODEL 2
REMARK VINA RESULT: -5.336343460      2.992      4.941
REMARK  3 active torsions:
REMARK  status: ('A' for Active; 'I' for Inactive)
REMARK       I    between atoms: C1_4  and  N3_6 
REMARK    1  A    between atoms: N3_6  and  N4_8 
REMARK       I    between atoms: N4_8  and  C2_10 
REMARK    2  A    between atoms: C2_10  and  C3_12 
REMARK    3  A    between atoms: N5_13  and  O2_15 
ROOT
HETATM    1  N4  UNL     1      78.532  87.238  20.171  1.00  0.00    -0.263 N 
ATOM      2  H4  UNL     1      77.711  87.376  20.760  1.00  0.00     0.190 HD
HETATM    3  C2  UNL     1      79.321  88.335  19.828  1.00  0.00     0.277 C 
HETATM    4  O1  UNL     1      80.344  88.266  19.122  1.00  0.00    -0.265 OA
ENDROOT
BRANCH   1   5
HETATM    5  N3  UNL     1      78.844  85.955  19.723  1.00  0.00    -0.271 N 
HETATM    6  C1  UNL     1      78.336  85.373  18.544  1.00  0.00     0.200 C 
HETATM    7  N1  UNL     1      77.318  84.590  18.554  1.00  0.00    -0.372 N 
HETATM    8  N2  UNL     1      78.952  85.649  17.292  1.00  0.00    -0.062 NA
ATOM      9  H12 UNL     1      76.950  84.169  17.701  1.00  0.00     0.158 HD
ATOM     10  H11 UNL     1      76.876  84.392  19.451  1.00  0.00     0.158 HD
ATOM     11  H3  UNL     1      79.486  85.399  20.288  1.00  0.00     0.189 HD
ENDBRANCH   1   5
BRANCH   3  12
HETATM   12  C3  UNL     1      78.962  89.692  20.318  1.00  0.00     0.189 C 
HETATM   13  N5  UNL     1      77.962  89.858  21.096  1.00  0.00    -0.275 N 
ATOM     14  H5  UNL     1      77.398  89.059  21.387  1.00  0.00     0.193 HD
BRANCH  13  15
HETATM   15  O2  UNL     1      77.656  91.115  21.532  1.00  0.00    -0.290 OA
ATOM     16  H2  UNL     1      76.813  91.492  21.309  1.00  0.00     0.244 HD
ENDBRANCH  13  15
ENDBRANCH   3  12
TORSDOF 3
ENDMDL
MODEL 3
REMARK VINA RESULT: -5.279711219      2.551      4.846
REMARK  3 active torsions:
REMARK  status: ('A' for Active; 'I' for Inactive)
REMARK       I    between atoms: C1_4  and  N3_6 
REMARK    1  A    between atoms: N3_6  and  N4_8 
REMARK       I    between atoms: N4_8  and  C2_10 
REMARK    2  A    between atoms: C2_10  and  C3_12 
REMARK    3  A    between atoms: N5_13  and  O2_15 
ROOT
HETATM    1  N4  UNL     1      77.105  88.313  18.820  1.00  0.00    -0.263 N 
ATOM      2  H4  UNL     1      76.590  89.138  18.514  1.00  0.00     0.190 HD
HETATM    3  C2  UNL     1      78.078  88.441  19.810  1.00  0.00     0.277 C 
HETATM    4  O1  UNL     1      78.753  87.493  20.253  1.00  0.00    -0.265 OA
ENDROOT
BRANCH   1   5
HETATM    5  N3  UNL     1      76.822  87.077  18.241  1.00  0.00    -0.271 N 
HETATM    6  C1  UNL     1      77.427  86.585  17.067  1.00  0.00     0.200 C 
HETATM    7  N1  UNL     1      76.873  86.700  15.914  1.00  0.00    -0.372 N 
HETATM    8  N2  UNL     1      78.693  85.940  17.136  1.00  0.00    -0.062 NA
ATOM      9  H12 UNL     1      77.311  86.344  15.064  1.00  0.00     0.158 HD
ATOM     10  H11 UNL     1      75.966  87.163  15.865  1.00  0.00     0.158 HD
ATOM     11  H3  UNL     1      76.128  86.486  18.699  1.00  0.00     0.189 HD
ENDBRANCH   1   5
BRANCH   3  12
HETATM   12  C3  UNL     1      78.361  89.773  20.408  1.00  0.00     0.189 C 
HETATM   13  N5  UNL     1      77.451  90.668  20.457  1.00  0.00    -0.275 N 
ATOM     14  H5  UNL     1      76.520  90.478  20.085  1.00  0.00     0.193 HD
BRANCH  13  15
HETATM   15  O2  UNL     1      77.737  91.882  21.013  1.00  0.00    -0.290 OA
ATOM     16  H2  UNL     1      77.204  92.635  20.786  1.00  0.00     0.244 HD
ENDBRANCH  13  15
ENDBRANCH   3  12
TORSDOF 3
ENDMDL
MODEL 4
REMARK VINA RESULT: -5.277588464      2.283      5.042
REMARK  3 active torsions:
REMARK  status: ('A' for Active; 'I' for Inactive)
REMARK       I    between atoms: C1_4  and  N3_6 
REMARK    1  A    between atoms: N3_6  and  N4_8 
REMARK       I    between atoms: N4_8  and  C2_10 
REMARK    2  A    between atoms: C2_10  and  C3_12 
REMARK    3  A    between atoms: N5_13  and  O2_15 
ROOT
HETATM    1  N4  UNL     1      76.992  87.485  17.382  1.00  0.00    -0.263 N 
ATOM      2  H4  UNL     1      76.156  87.329  17.945  1.00  0.00     0.190 HD
HETATM    3  C2  UNL     1      77.899  88.472  17.763  1.00  0.00     0.277 C 
HETATM    4  O1  UNL     1      78.949  88.731  17.147  1.00  0.00    -0.265 OA
ENDROOT
BRANCH   1   5
HETATM    5  N3  UNL     1      77.206  86.707  16.246  1.00  0.00    -0.271 N 
HETATM    6  C1  UNL     1      76.417  86.758  15.079  1.00  0.00     0.200 C 
HETATM    7  N1  UNL     1      75.459  85.929  14.866  1.00  0.00    -0.372 N 
HETATM    8  N2  UNL     1      76.667  87.753  14.094  1.00  0.00    -0.062 NA
ATOM      9  H12 UNL     1      74.888  85.966  14.022  1.00  0.00     0.158 HD
ATOM     10  H11 UNL     1      75.279  85.216  15.573  1.00  0.00     0.158 HD
ATOM     11  H3  UNL     1      77.990  86.054  16.259  1.00  0.00     0.189 HD
ENDBRANCH   1   5
BRANCH   3  12
HETATM   12  C3  UNL     1      77.643  89.289  18.979  1.00  0.00     0.189 C 
HETATM   13  N5  UNL     1      76.629  90.066  19.038  1.00  0.00    -0.275 N 
ATOM     14  H5  UNL     1      75.986  90.133  18.249  1.00  0.00     0.193 HD
BRANCH  13  15
HETATM   15  O2  UNL     1      76.417  90.803  20.167  1.00  0.00    -0.290 OA
ATOM     16  H2  UNL     1      77.149  90.997  20.740  1.00  0.00     0.244 HD
ENDBRANCH  13  15
ENDBRANCH   3  12
TORSDOF 3
ENDMDL
MODEL 5
REMARK VINA RESULT: -5.183541330      0.950      1.400
REMARK  3 active torsions:
REMARK  status: ('A' for Active; 'I' for Inactive)
REMARK       I    between atoms: C1_4  and  N3_6 
REMARK    1  A    between atoms: N3_6  and  N4_8 
REMARK       I    between atoms: N4_8  and  C2_10 
REMARK    2  A    between atoms: C2_10  and  C3_12 
REMARK    3  A    between atoms: N5_13  and  O2_15 
ROOT
HETATM    1  N4  UNL     1      77.917  87.478  19.029  1.00  0.00    -0.263 N 
ATOM      2  H4  UNL     1      77.392  86.643  19.286  1.00  0.00     0.190 HD
HETATM    3  C2  UNL     1      78.011  87.843  17.686  1.00  0.00     0.277 C 
HETATM    4  O1  UNL     1      78.622  88.846  17.276  1.00  0.00    -0.265 OA
ENDROOT
BRANCH   1   5
HETATM    5  N3  UNL     1      78.528  88.235  20.027  1.00  0.00    -0.271 N 
HETATM    6  C1  UNL     1      78.074  89.494  20.468  1.00  0.00     0.200 C 
HETATM    7  N1  UNL     1      78.564  90.593  20.018  1.00  0.00    -0.372 N 
HETATM    8  N2  UNL     1      77.039  89.577  21.440  1.00  0.00    -0.062 NA
ATOM      9  H12 UNL     1      78.235  91.504  20.337  1.00  0.00     0.158 HD
ATOM     10  H11 UNL     1      79.306  90.534  19.321  1.00  0.00     0.158 HD
ATOM     11  H3  UNL     1      79.364  87.851  20.469  1.00  0.00     0.189 HD
ENDBRANCH   1   5
BRANCH   3  12
HETATM   12  C3  UNL     1      77.350  87.014  16.643  1.00  0.00     0.189 C 
HETATM   13  N5  UNL     1      76.689  87.566  15.698  1.00  0.00    -0.275 N 
ATOM     14  H5  UNL     1      76.606  88.582  15.653  1.00  0.00     0.193 HD
BRANCH  13  15
HETATM   15  O2  UNL     1      76.094  86.782  14.752  1.00  0.00    -0.290 OA
ATOM     16  H2  UNL     1      76.349  86.878  13.842  1.00  0.00     0.244 HD
ENDBRANCH  13  15
ENDBRANCH   3  12
TORSDOF 3
ENDMDL
