MODEL 1
REMARK VINA RESULT: -5.812506493      0.000      0.000
REMARK  3 active torsions:
REMARK  status: ('A' for Active; 'I' for Inactive)
REMARK       I    between atoms: N2_3  and  C2_5 
REMARK       I    between atoms: C2_5  and  N5_15 
REMARK    1  A    between atoms: N3_6  and  C3_8 
REMARK    2  A    between atoms: C3_8  and  N4_9 
REMARK    3  A    between atoms: C3_8  and  O1_13 
ROOT
HETATM    1  N1  UNL     1      76.121  87.518  14.543  1.00  0.00    -0.171 NA
HETATM    2  C1  UNL     1      76.832  87.405  15.457  1.00  0.00     0.196 C 
HETATM    3  N2  UNL     1      77.683  87.281  16.559  1.00  0.00    -0.125 N 
ATOM      4  H2  UNL     1      78.105  86.374  16.753  1.00  0.00     0.197 HD
HETATM    5  C2  UNL     1      77.982  88.384  17.427  1.00  0.00     0.699 C 
HETATM    6  N3  UNL     1      77.136  88.657  18.332  1.00  0.00    -0.173 N 
ATOM      7  H3  UNL     1      76.307  88.063  18.364  1.00  0.00     0.182 HD
HETATM    8  N5  UNL     1      79.201  89.094  17.215  1.00  0.00    -0.125 N 
ATOM      9  H5  UNL     1      79.270  89.771  16.455  1.00  0.00     0.197 HD
HETATM   10  C4  UNL     1      80.301  88.865  18.045  1.00  0.00     0.196 C 
HETATM   11  N6  UNL     1      81.226  88.682  18.740  1.00  0.00    -0.171 NA
ENDROOT
BRANCH   6  12
HETATM   12  C3  UNL     1      77.202  89.688  19.303  1.00  0.00     0.438 C 
BRANCH  12  13
HETATM   13  N4  UNL     1      77.367  89.250  20.655  1.00  0.00    -0.034 N 
ATOM     14  H43 UNL     1      77.567  88.250  20.677  1.00  0.00     0.279 HD
ATOM     15  H42 UNL     1      78.240  89.617  21.036  1.00  0.00     0.279 HD
ATOM     16  H41 UNL     1      76.594  89.466  21.284  1.00  0.00     0.279 HD
ENDBRANCH  12  13
BRANCH  12  17
HETATM   17  O1  UNL     1      75.986  90.406  19.243  1.00  0.00    -0.354 OA
ATOM     18  H1  UNL     1      75.966  90.996  19.986  1.00  0.00     0.213 HD
ENDBRANCH  12  17
ENDBRANCH   6  12
TORSDOF 3
ENDMDL
MODEL 2
REMARK VINA RESULT: -5.796555756      2.074      3.265
REMARK  3 active torsions:
REMARK  status: ('A' for Active; 'I' for Inactive)
REMARK       I    between atoms: N2_3  and  C2_5 
REMARK       I    between atoms: C2_5  and  N5_15 
REMARK    1  A    between atoms: N3_6  and  C3_8 
REMARK    2  A    between atoms: C3_8  and  N4_9 
REMARK    3  A    between atoms: C3_8  and  O1_13 
ROOT
HETATM    1  N1  UNL     1      77.261  85.564  15.292  1.00  0.00    -0.171 NA
HETATM    2  C1  UNL     1      77.166  86.619  15.773  1.00  0.00     0.196 C 
HETATM    3  N2  UNL     1      77.062  87.883  16.359  1.00  0.00    -0.125 N 
ATOM      4  H2  UNL     1      76.432  88.567  15.941  1.00  0.00     0.197 HD
HETATM    5  C2  UNL     1      77.810  88.254  17.526  1.00  0.00     0.699 C 
HETATM    6  N3  UNL     1      79.011  88.626  17.352  1.00  0.00    -0.173 N 
ATOM      7  H3  UNL     1      79.344  88.629  16.387  1.00  0.00     0.182 HD
HETATM    8  N5  UNL     1      77.159  88.179  18.793  1.00  0.00    -0.125 N 
ATOM      9  H5  UNL     1      77.039  87.276  19.250  1.00  0.00     0.197 HD
HETATM   10  C4  UNL     1      76.688  89.340  19.410  1.00  0.00     0.196 C 
HETATM   11  N6  UNL     1      76.294  90.310  19.935  1.00  0.00    -0.171 NA
ENDROOT
BRANCH   6  12
HETATM   12  C3  UNL     1      79.946  89.037  18.335  1.00  0.00     0.438 C 
BRANCH  12  13
HETATM   13  N4  UNL     1      80.041  90.449  18.543  1.00  0.00    -0.034 N 
ATOM     14  H43 UNL     1      79.179  90.799  18.963  1.00  0.00     0.279 HD
ATOM     15  H42 UNL     1      80.702  90.648  19.294  1.00  0.00     0.279 HD
ATOM     16  H41 UNL     1      80.275  91.000  17.717  1.00  0.00     0.279 HD
ENDBRANCH  12  13
BRANCH  12  17
HETATM   17  O1  UNL     1      81.221  88.590  17.920  1.00  0.00    -0.354 OA
ATOM     18  H1  UNL     1      81.844  89.279  18.119  1.00  0.00     0.213 HD
ENDBRANCH  12  17
ENDBRANCH   6  12
TORSDOF 3
ENDMDL
MODEL 3
REMARK VINA RESULT: -5.796117011      1.663      3.195
REMARK  3 active torsions:
REMARK  status: ('A' for Active; 'I' for Inactive)
REMARK       I    between atoms: N2_3  and  C2_5 
REMARK       I    between atoms: C2_5  and  N5_15 
REMARK    1  A    between atoms: N3_6  and  C3_8 
REMARK    2  A    between atoms: C3_8  and  N4_9 
REMARK    3  A    between atoms: C3_8  and  O1_13 
ROOT
HETATM    1  N1  UNL     1      77.154  86.052  15.049  1.00  0.00    -0.171 NA
HETATM    2  C1  UNL     1      77.153  87.060  15.632  1.00  0.00     0.196 C 
HETATM    3  N2  UNL     1      77.161  88.264  16.340  1.00  0.00    -0.125 N 
ATOM      4  H2  UNL     1      76.672  89.067  15.947  1.00  0.00     0.197 HD
HETATM    5  C2  UNL     1      77.834  88.411  17.599  1.00  0.00     0.699 C 
HETATM    6  N3  UNL     1      79.085  88.623  17.568  1.00  0.00    -0.173 N 
ATOM      7  H3  UNL     1      79.508  88.671  16.640  1.00  0.00     0.182 HD
HETATM    8  N5  UNL     1      77.058  88.309  18.792  1.00  0.00    -0.125 N 
ATOM      9  H5  UNL     1      76.774  87.393  19.136  1.00  0.00     0.197 HD
HETATM   10  C4  UNL     1      76.686  89.461  19.489  1.00  0.00     0.196 C 
HETATM   11  N6  UNL     1      76.375  90.423  20.081  1.00  0.00    -0.171 NA
ENDROOT
BRANCH   6  12
HETATM   12  C3  UNL     1      79.965  88.801  18.664  1.00  0.00     0.438 C 
BRANCH  12  13
HETATM   13  N4  UNL     1      81.360  88.751  18.349  1.00  0.00    -0.034 N 
ATOM     14  H43 UNL     1      81.818  89.610  18.654  1.00  0.00     0.279 HD
ATOM     15  H42 UNL     1      81.829  88.073  18.950  1.00  0.00     0.279 HD
ATOM     16  H41 UNL     1      81.583  88.564  17.372  1.00  0.00     0.279 HD
ENDBRANCH  12  13
BRANCH  12  17
HETATM   17  O1  UNL     1      79.709  87.763  19.587  1.00  0.00    -0.354 OA
ATOM     18  H1  UNL     1      80.386  87.798  20.252  1.00  0.00     0.213 HD
ENDBRANCH  12  17
ENDBRANCH   6  12
TORSDOF 3
ENDMDL
MODEL 4
REMARK VINA RESULT: -5.667323262      1.911      4.161
REMARK  3 active torsions:
REMARK  status: ('A' for Active; 'I' for Inactive)
REMARK       I    between atoms: N2_3  and  C2_5 
REMARK       I    between atoms: C2_5  and  N5_15 
REMARK    1  A    between atoms: N3_6  and  C3_8 
REMARK    2  A    between atoms: C3_8  and  N4_9 
REMARK    3  A    between atoms: C3_8  and  O1_13 
ROOT
HETATM    1  N1  UNL     1      76.194  90.880  20.260  1.00  0.00    -0.171 NA
HETATM    2  C1  UNL     1      76.489  89.846  19.814  1.00  0.00     0.196 C 
HETATM    3  N2  UNL     1      76.854  88.611  19.274  1.00  0.00    -0.125 N 
ATOM      4  H2  UNL     1      76.377  87.771  19.602  1.00  0.00     0.197 HD
HETATM    5  C2  UNL     1      77.876  88.480  18.275  1.00  0.00     0.699 C 
HETATM    6  N3  UNL     1      79.080  88.464  18.674  1.00  0.00    -0.173 N 
ATOM      7  H3  UNL     1      79.219  88.546  19.682  1.00  0.00     0.182 HD
HETATM    8  N5  UNL     1      77.472  88.379  16.910  1.00  0.00    -0.125 N 
ATOM      9  H5  UNL     1      77.187  89.216  16.401  1.00  0.00     0.197 HD
HETATM   10  C4  UNL     1      77.467  87.138  16.268  1.00  0.00     0.196 C 
HETATM   11  N6  UNL     1      77.465  86.102  15.723  1.00  0.00    -0.171 NA
ENDROOT
BRANCH   6  12
HETATM   12  C3  UNL     1      80.256  88.346  17.891  1.00  0.00     0.438 C 
BRANCH  12  13
HETATM   13  N4  UNL     1      81.485  88.574  18.587  1.00  0.00    -0.034 N 
ATOM     14  H43 UNL     1      81.497  89.517  18.976  1.00  0.00     0.279 HD
ATOM     15  H42 UNL     1      81.506  88.024  19.447  1.00  0.00     0.279 HD
ATOM     16  H41 UNL     1      82.333  88.408  18.046  1.00  0.00     0.279 HD
ENDBRANCH  12  13
BRANCH  12  17
HETATM   17  O1  UNL     1      80.177  89.309  16.860  1.00  0.00    -0.354 OA
ATOM     18  H1  UNL     1      79.314  89.237  16.468  1.00  0.00     0.213 HD
ENDBRANCH  12  17
ENDBRANCH   6  12
TORSDOF 3
ENDMDL
MODEL 5
REMARK VINA RESULT: -5.513836792      2.652      3.675
REMARK  3 active torsions:
REMARK  status: ('A' for Active; 'I' for Inactive)
REMARK       I    between atoms: N2_3  and  C2_5 
REMARK       I    between atoms: C2_5  and  N5_15 
REMARK    1  A    between atoms: N3_6  and  C3_8 
REMARK    2  A    between atoms: C3_8  and  N4_9 
REMARK    3  A    between atoms: C3_8  and  O1_13 
ROOT
HETATM    1  N1  UNL     1      76.858  84.555  18.205  1.00  0.00    -0.171 NA
HETATM    2  C1  UNL     1      76.843  85.716  18.282  1.00  0.00     0.196 C 
HETATM    3  N2  UNL     1      76.840  87.110  18.376  1.00  0.00    -0.125 N 
ATOM      4  H2  UNL     1      76.005  87.619  18.088  1.00  0.00     0.197 HD
HETATM    5  C2  UNL     1      77.969  87.851  18.862  1.00  0.00     0.699 C 
HETATM    6  N3  UNL     1      78.908  88.083  18.041  1.00  0.00    -0.173 N 
ATOM      7  H3  UNL     1      78.778  87.719  17.096  1.00  0.00     0.182 HD
HETATM    8  N5  UNL     1      77.960  88.272  20.225  1.00  0.00    -0.125 N 
ATOM      9  H5  UNL     1      78.175  87.604  20.965  1.00  0.00     0.197 HD
HETATM   10  C4  UNL     1      77.658  89.597  20.549  1.00  0.00     0.196 C 
HETATM   11  N6  UNL     1      77.410  90.707  20.827  1.00  0.00    -0.171 NA
ENDROOT
BRANCH   6  12
HETATM   12  C3  UNL     1      80.116  88.786  18.276  1.00  0.00     0.438 C 
BRANCH  12  13
HETATM   13  N4  UNL     1      80.006  90.213  18.290  1.00  0.00    -0.034 N 
ATOM     14  H43 UNL     1      79.794  90.557  17.353  1.00  0.00     0.279 HD
ATOM     15  H42 UNL     1      79.156  90.493  18.781  1.00  0.00     0.279 HD
ATOM     16  H41 UNL     1      80.809  90.712  18.672  1.00  0.00     0.279 HD
ENDBRANCH  12  13
BRANCH  12  17
HETATM   17  O1  UNL     1      81.013  88.448  17.237  1.00  0.00    -0.354 OA
ATOM     18  H1  UNL     1      81.844  88.866  17.430  1.00  0.00     0.213 HD
ENDBRANCH  12  17
ENDBRANCH   6  12
TORSDOF 3
ENDMDL
