MODEL 1
REMARK VINA RESULT: -4.965849342      0.000      0.000
REMARK  5 active torsions:
REMARK  status: ('A' for Active; 'I' for Inactive)
REMARK    1  A    between atoms: N1_1  and  N2_4 
REMARK    2  A    between atoms: N2_4  and  C1_6 
REMARK    3  A    between atoms: C1_6  and  N3_8 
REMARK    4  A    between atoms: N3_8  and  N4_10 
REMARK       I    between atoms: N4_10  and  C2_12 
REMARK    5  A    between atoms: C2_12  and  C3_14 
ROOT
HETATM    1  N3  UNL     1      79.546  88.298  20.255  1.00  0.00    -0.272 N 
ATOM      2  H3  UNL     1      80.443  88.285  20.740  1.00  0.00     0.189 HD
ENDROOT
BRANCH   1   3
HETATM    3  C1  UNL     1      79.038  89.543  19.818  1.00  0.00     0.205 C 
HETATM    4  S1  UNL     1      77.920  90.353  20.692  1.00  0.00    -0.038 SA
BRANCH   3   5
HETATM    5  N2  UNL     1      79.475  90.135  18.612  1.00  0.00    -0.282 N 
ATOM      6  H2  UNL     1      78.974  90.952  18.264  1.00  0.00     0.189 HD
BRANCH   5   7
HETATM    7  N1  UNL     1      80.562  89.655  17.872  1.00  0.00    -0.343 N 
ATOM      8  H12 UNL     1      80.460  88.743  17.426  1.00  0.00     0.176 HD
ATOM      9  H11 UNL     1      81.436  90.170  17.764  1.00  0.00     0.176 HD
ENDBRANCH   5   7
ENDBRANCH   3   5
ENDBRANCH   1   3
BRANCH   1  10
HETATM   10  N4  UNL     1      78.884  87.089  20.058  1.00  0.00    -0.262 N 
HETATM   11  C2  UNL     1      78.938  86.460  18.809  1.00  0.00     0.297 C 
HETATM   12  O1  UNL     1      79.577  86.977  17.871  1.00  0.00    -0.263 OA
ATOM     13  H4  UNL     1      78.361  86.663  20.823  1.00  0.00     0.190 HD
BRANCH  11  14
HETATM   14  C3  UNL     1      78.256  85.204  18.587  1.00  0.00     0.334 C 
HETATM   15  O2  UNL     1      78.908  84.130  18.513  1.00  0.00    -0.296 OA
ENDBRANCH  11  14
ENDBRANCH   1  10
TORSDOF 5
ENDMDL
MODEL 2
REMARK VINA RESULT: -4.841211982      3.603      4.565
REMARK  5 active torsions:
REMARK  status: ('A' for Active; 'I' for Inactive)
REMARK    1  A    between atoms: N1_1  and  N2_4 
REMARK    2  A    between atoms: N2_4  and  C1_6 
REMARK    3  A    between atoms: C1_6  and  N3_8 
REMARK    4  A    between atoms: N3_8  and  N4_10 
REMARK       I    between atoms: N4_10  and  C2_12 
REMARK    5  A    between atoms: C2_12  and  C3_14 
ROOT
HETATM    1  N3  UNL     1      77.761  89.246  17.407  1.00  0.00    -0.272 N 
ATOM      2  H3  UNL     1      78.157  89.928  16.760  1.00  0.00     0.189 HD
ENDROOT
BRANCH   1   3
HETATM    3  C1  UNL     1      77.729  87.889  17.013  1.00  0.00     0.205 C 
HETATM    4  S1  UNL     1      78.612  86.761  17.799  1.00  0.00    -0.038 SA
BRANCH   3   5
HETATM    5  N2  UNL     1      76.935  87.455  15.929  1.00  0.00    -0.282 N 
ATOM      6  H2  UNL     1      76.610  86.488  15.922  1.00  0.00     0.189 HD
BRANCH   5   7
HETATM    7  N1  UNL     1      76.573  88.287  14.862  1.00  0.00    -0.343 N 
ATOM      8  H12 UNL     1      76.437  87.850  13.951  1.00  0.00     0.176 HD
ATOM      9  H11 UNL     1      76.442  89.294  14.959  1.00  0.00     0.176 HD
ENDBRANCH   5   7
ENDBRANCH   3   5
ENDBRANCH   1   3
BRANCH   1  10
HETATM   10  N4  UNL     1      77.280  89.701  18.631  1.00  0.00    -0.262 N 
HETATM   11  C2  UNL     1      78.174  89.996  19.667  1.00  0.00     0.297 C 
HETATM   12  O1  UNL     1      79.402  89.854  19.497  1.00  0.00    -0.263 OA
ATOM     13  H4  UNL     1      76.276  89.819  18.774  1.00  0.00     0.190 HD
BRANCH  11  14
HETATM   14  C3  UNL     1      77.691  90.468  20.946  1.00  0.00     0.334 C 
HETATM   15  O2  UNL     1      77.050  89.698  21.708  1.00  0.00    -0.296 OA
ENDBRANCH  11  14
ENDBRANCH   1  10
TORSDOF 5
ENDMDL
MODEL 3
REMARK VINA RESULT: -4.790126553      2.053      3.040
REMARK  5 active torsions:
REMARK  status: ('A' for Active; 'I' for Inactive)
REMARK    1  A    between atoms: N1_1  and  N2_4 
REMARK    2  A    between atoms: N2_4  and  C1_6 
REMARK    3  A    between atoms: C1_6  and  N3_8 
REMARK    4  A    between atoms: N3_8  and  N4_10 
REMARK       I    between atoms: N4_10  and  C2_12 
REMARK    5  A    between atoms: C2_12  and  C3_14 
ROOT
HETATM    1  N3  UNL     1      78.763  89.821  18.358  1.00  0.00    -0.272 N 
ATOM      2  H3  UNL     1      79.520  90.416  18.023  1.00  0.00     0.189 HD
ENDROOT
BRANCH   1   3
HETATM    3  C1  UNL     1      78.678  89.560  19.745  1.00  0.00     0.205 C 
HETATM    4  S1  UNL     1      77.765  90.494  20.726  1.00  0.00    -0.038 SA
BRANCH   3   5
HETATM    5  N2  UNL     1      79.378  88.486  20.336  1.00  0.00    -0.282 N 
ATOM      6  H2  UNL     1      80.264  88.682  20.803  1.00  0.00     0.189 HD
BRANCH   5   7
HETATM    7  N1  UNL     1      78.916  87.163  20.312  1.00  0.00    -0.343 N 
ATOM      8  H12 UNL     1      79.608  86.427  20.171  1.00  0.00     0.176 HD
ATOM      9  H11 UNL     1      77.934  86.913  20.428  1.00  0.00     0.176 HD
ENDBRANCH   5   7
ENDBRANCH   3   5
ENDBRANCH   1   3
BRANCH   1  10
HETATM   10  N4  UNL     1      77.866  89.307  17.425  1.00  0.00    -0.262 N 
HETATM   11  C2  UNL     1      78.032  88.004  16.942  1.00  0.00     0.297 C 
HETATM   12  O1  UNL     1      78.981  87.300  17.343  1.00  0.00    -0.263 OA
ATOM     13  H4  UNL     1      77.089  89.879  17.095  1.00  0.00     0.190 HD
BRANCH  11  14
HETATM   14  C3  UNL     1      77.110  87.455  15.972  1.00  0.00     0.334 C 
HETATM   15  O2  UNL     1      77.055  87.929  14.807  1.00  0.00    -0.296 OA
ENDBRANCH  11  14
ENDBRANCH   1  10
TORSDOF 5
ENDMDL
MODEL 4
REMARK VINA RESULT: -4.727797599      1.788      1.864
REMARK  5 active torsions:
REMARK  status: ('A' for Active; 'I' for Inactive)
REMARK    1  A    between atoms: N1_1  and  N2_4 
REMARK    2  A    between atoms: N2_4  and  C1_6 
REMARK    3  A    between atoms: C1_6  and  N3_8 
REMARK    4  A    between atoms: N3_8  and  N4_10 
REMARK       I    between atoms: N4_10  and  C2_12 
REMARK    5  A    between atoms: C2_12  and  C3_14 
ROOT
HETATM    1  N3  UNL     1      77.043  89.207  18.747  1.00  0.00    -0.272 N 
ATOM      2  H3  UNL     1      76.327  89.795  18.321  1.00  0.00     0.189 HD
ENDROOT
BRANCH   1   3
HETATM    3  C1  UNL     1      77.979  89.814  19.616  1.00  0.00     0.205 C 
HETATM    4  S1  UNL     1      77.491  90.690  20.905  1.00  0.00    -0.038 SA
BRANCH   3   5
HETATM    5  N2  UNL     1      79.370  89.687  19.404  1.00  0.00    -0.282 N 
ATOM      6  H2  UNL     1      79.938  89.281  20.146  1.00  0.00     0.189 HD
BRANCH   5   7
HETATM    7  N1  UNL     1      80.006  90.093  18.224  1.00  0.00    -0.343 N 
ATOM      8  H12 UNL     1      79.562  90.836  17.684  1.00  0.00     0.176 HD
ATOM      9  H11 UNL     1      80.878  89.683  17.889  1.00  0.00     0.176 HD
ENDBRANCH   5   7
ENDBRANCH   3   5
ENDBRANCH   1   3
BRANCH   1  10
HETATM   10  N4  UNL     1      77.047  87.849  18.444  1.00  0.00    -0.262 N 
HETATM   11  C2  UNL     1      77.771  87.382  17.340  1.00  0.00     0.297 C 
HETATM   12  O1  UNL     1      78.413  88.179  16.627  1.00  0.00    -0.263 OA
ATOM     13  H4  UNL     1      76.524  87.193  19.025  1.00  0.00     0.190 HD
BRANCH  11  14
HETATM   14  C3  UNL     1      77.785  85.974  17.011  1.00  0.00     0.334 C 
HETATM   15  O2  UNL     1      78.869  85.334  16.998  1.00  0.00    -0.296 OA
ENDBRANCH  11  14
ENDBRANCH   1  10
TORSDOF 5
ENDMDL
MODEL 5
REMARK VINA RESULT: -4.632184244      3.042      4.056
REMARK  5 active torsions:
REMARK  status: ('A' for Active; 'I' for Inactive)
REMARK    1  A    between atoms: N1_1  and  N2_4 
REMARK    2  A    between atoms: N2_4  and  C1_6 
REMARK    3  A    between atoms: C1_6  and  N3_8 
REMARK    4  A    between atoms: N3_8  and  N4_10 
REMARK       I    between atoms: N4_10  and  C2_12 
REMARK    5  A    between atoms: C2_12  and  C3_14 
ROOT
HETATM    1  N3  UNL     1      79.148  87.494  20.124  1.00  0.00    -0.272 N 
ATOM      2  H3  UNL     1      79.846  87.154  20.786  1.00  0.00     0.189 HD
ENDROOT
BRANCH   1   3
HETATM    3  C1  UNL     1      79.181  86.996  18.802  1.00  0.00     0.205 C 
HETATM    4  S1  UNL     1      78.417  85.608  18.402  1.00  0.00    -0.038 SA
BRANCH   3   5
HETATM    5  N2  UNL     1      79.875  87.675  17.776  1.00  0.00    -0.282 N 
ATOM      6  H2  UNL     1      79.549  87.567  16.816  1.00  0.00     0.189 HD
BRANCH   5   7
HETATM    7  N1  UNL     1      80.990  88.489  18.014  1.00  0.00    -0.343 N 
ATOM      8  H12 UNL     1      81.884  88.183  17.631  1.00  0.00     0.176 HD
ATOM      9  H11 UNL     1      80.944  89.360  18.544  1.00  0.00     0.176 HD
ENDBRANCH   5   7
ENDBRANCH   3   5
ENDBRANCH   1   3
BRANCH   1  10
HETATM   10  N4  UNL     1      78.213  88.423  20.570  1.00  0.00    -0.262 N 
HETATM   11  C2  UNL     1      78.395  89.784  20.296  1.00  0.00     0.297 C 
HETATM   12  O1  UNL     1      79.393  90.167  19.653  1.00  0.00    -0.263 OA
ATOM     13  H4  UNL     1      77.395  88.113  21.096  1.00  0.00     0.190 HD
BRANCH  11  14
HETATM   14  C3  UNL     1      77.433  90.762  20.753  1.00  0.00     0.334 C 
HETATM   15  O2  UNL     1      76.247  90.733  20.333  1.00  0.00    -0.296 OA
ENDBRANCH  11  14
ENDBRANCH   1  10
TORSDOF 5
ENDMDL
