MODEL 1
REMARK VINA RESULT: -6.106188014      0.000      0.000
REMARK  2 active torsions:
REMARK  status: ('A' for Active; 'I' for Inactive)
REMARK    1  A    between atoms: N2_3  and  S1_5 
REMARK    2  A    between atoms: S1_5  and  N3_8 
REMARK       I    between atoms: N3_8  and  C2_10 
ROOT
HETATM    1  N1  UNL     1      77.577  88.143  16.103  1.00  0.00    -0.171 NA
HETATM    2  C1  UNL     1      77.991  88.063  17.180  1.00  0.00     0.193 C 
HETATM    3  N2  UNL     1      78.484  87.949  18.462  1.00  0.00    -0.203 N 
ATOM      4  H2  UNL     1      78.201  87.164  19.048  1.00  0.00     0.192 HD
ENDROOT
BRANCH   3   5
HETATM    5  S1  UNL     1      79.574  89.124  19.074  1.00  0.00     0.333 S 
HETATM    6  O1  UNL     1      80.487  89.664  17.986  1.00  0.00    -0.181 OA
HETATM    7  O2  UNL     1      80.428  88.572  20.180  1.00  0.00    -0.181 OA
BRANCH   5   8
HETATM    8  N3  UNL     1      78.692  90.466  19.687  1.00  0.00    -0.240 N 
HETATM    9  C2  UNL     1      77.577  90.190  20.514  1.00  0.00     0.196 C 
HETATM   10  N4  UNL     1      77.762  89.634  21.664  1.00  0.00    -0.373 N 
HETATM   11  N5  UNL     1      76.277  90.522  20.081  1.00  0.00    -0.063 NA
ATOM     12  H42 UNL     1      78.702  89.392  21.977  1.00  0.00     0.158 HD
ATOM     13  H41 UNL     1      76.958  89.435  22.260  1.00  0.00     0.158 HD
ATOM     14  H3  UNL     1      78.962  91.425  19.464  1.00  0.00     0.183 HD
ENDBRANCH   5   8
ENDBRANCH   3   5
TORSDOF 2
ENDMDL
MODEL 2
REMARK VINA RESULT: -6.087330281      2.242      2.672
REMARK  2 active torsions:
REMARK  status: ('A' for Active; 'I' for Inactive)
REMARK    1  A    between atoms: N2_3  and  S1_5 
REMARK    2  A    between atoms: S1_5  and  N3_8 
REMARK       I    between atoms: N3_8  and  C2_10 
ROOT
HETATM    1  N1  UNL     1      80.770  88.961  17.003  1.00  0.00    -0.171 NA
HETATM    2  C1  UNL     1      80.381  88.891  18.090  1.00  0.00     0.193 C 
HETATM    3  N2  UNL     1      79.924  88.826  19.388  1.00  0.00    -0.203 N 
ATOM      4  H2  UNL     1      80.435  89.301  20.132  1.00  0.00     0.192 HD
ENDROOT
BRANCH   3   5
HETATM    5  S1  UNL     1      78.497  87.946  19.757  1.00  0.00     0.333 S 
HETATM    6  O1  UNL     1      78.809  86.657  20.499  1.00  0.00    -0.181 OA
HETATM    7  O2  UNL     1      77.715  87.607  18.521  1.00  0.00    -0.181 OA
BRANCH   5   8
HETATM    8  N3  UNL     1      77.495  88.881  20.795  1.00  0.00    -0.240 N 
HETATM    9  C2  UNL     1      77.144  90.183  20.363  1.00  0.00     0.196 C 
HETATM   10  N4  UNL     1      76.401  90.326  19.318  1.00  0.00    -0.373 N 
HETATM   11  N5  UNL     1      77.606  91.310  21.073  1.00  0.00    -0.063 NA
ATOM     12  H42 UNL     1      76.067  89.510  18.804  1.00  0.00     0.158 HD
ATOM     13  H41 UNL     1      76.148  91.264  19.007  1.00  0.00     0.158 HD
ATOM     14  H3  UNL     1      77.165  88.512  21.688  1.00  0.00     0.183 HD
ENDBRANCH   5   8
ENDBRANCH   3   5
TORSDOF 2
ENDMDL
MODEL 3
REMARK VINA RESULT: -6.056334650      2.336      3.752
REMARK  2 active torsions:
REMARK  status: ('A' for Active; 'I' for Inactive)
REMARK    1  A    between atoms: N2_3  and  S1_5 
REMARK    2  A    between atoms: S1_5  and  N3_8 
REMARK       I    between atoms: N3_8  and  C2_10 
ROOT
HETATM    1  N1  UNL     1      76.003  90.417  19.918  1.00  0.00    -0.171 NA
HETATM    2  C1  UNL     1      76.860  89.755  20.324  1.00  0.00     0.193 C 
HETATM    3  N2  UNL     1      77.874  88.968  20.827  1.00  0.00    -0.203 N 
ATOM      4  H2  UNL     1      78.201  89.109  21.782  1.00  0.00     0.192 HD
ENDROOT
BRANCH   3   5
HETATM    5  S1  UNL     1      78.585  87.751  19.849  1.00  0.00     0.333 S 
HETATM    6  O1  UNL     1      77.853  87.596  18.526  1.00  0.00    -0.181 OA
HETATM    7  O2  UNL     1      78.605  86.418  20.541  1.00  0.00    -0.181 OA
BRANCH   5   8
HETATM    8  N3  UNL     1      80.203  88.189  19.467  1.00  0.00    -0.240 N 
HETATM    9  C2  UNL     1      80.409  88.974  18.307  1.00  0.00     0.196 C 
HETATM   10  N4  UNL     1      79.947  90.178  18.266  1.00  0.00    -0.373 N 
HETATM   11  N5  UNL     1      81.115  88.440  17.210  1.00  0.00    -0.063 NA
ATOM     12  H42 UNL     1      79.435  90.564  19.059  1.00  0.00     0.158 HD
ATOM     13  H41 UNL     1      80.096  90.743  17.430  1.00  0.00     0.158 HD
ATOM     14  H3  UNL     1      80.984  87.894  20.054  1.00  0.00     0.183 HD
ENDBRANCH   5   8
ENDBRANCH   3   5
TORSDOF 2
ENDMDL
MODEL 4
REMARK VINA RESULT: -5.979389262      0.907      1.107
REMARK  2 active torsions:
REMARK  status: ('A' for Active; 'I' for Inactive)
REMARK    1  A    between atoms: N2_3  and  S1_5 
REMARK    2  A    between atoms: S1_5  and  N3_8 
REMARK       I    between atoms: N3_8  and  C2_10 
ROOT
HETATM    1  N1  UNL     1      78.946  85.808  17.602  1.00  0.00    -0.171 NA
HETATM    2  C1  UNL     1      78.715  86.919  17.822  1.00  0.00     0.193 C 
HETATM    3  N2  UNL     1      78.420  88.240  18.085  1.00  0.00    -0.203 N 
ATOM      4  H2  UNL     1      77.555  88.648  17.732  1.00  0.00     0.192 HD
ENDROOT
BRANCH   3   5
HETATM    5  S1  UNL     1      79.506  89.199  19.005  1.00  0.00     0.333 S 
HETATM    6  O1  UNL     1      80.592  89.808  18.133  1.00  0.00    -0.181 OA
HETATM    7  O2  UNL     1      80.162  88.407  20.099  1.00  0.00    -0.181 OA
BRANCH   5   8
HETATM    8  N3  UNL     1      78.655  90.511  19.719  1.00  0.00    -0.240 N 
HETATM    9  C2  UNL     1      77.524  90.199  20.512  1.00  0.00     0.196 C 
HETATM   10  N4  UNL     1      77.682  89.544  21.613  1.00  0.00    -0.373 N 
HETATM   11  N5  UNL     1      76.239  90.602  20.097  1.00  0.00    -0.063 NA
ATOM     12  H42 UNL     1      78.612  89.252  21.913  1.00  0.00     0.158 HD
ATOM     13  H41 UNL     1      76.867  89.320  22.184  1.00  0.00     0.158 HD
ATOM     14  H3  UNL     1      78.953  91.476  19.578  1.00  0.00     0.183 HD
ENDBRANCH   5   8
ENDBRANCH   3   5
TORSDOF 2
ENDMDL
MODEL 5
REMARK VINA RESULT: -5.825694366      1.314      1.366
REMARK  2 active torsions:
REMARK  status: ('A' for Active; 'I' for Inactive)
REMARK    1  A    between atoms: N2_3  and  S1_5 
REMARK    2  A    between atoms: S1_5  and  N3_8 
REMARK       I    between atoms: N3_8  and  C2_10 
ROOT
HETATM    1  N1  UNL     1      77.099  86.568  15.971  1.00  0.00    -0.171 NA
HETATM    2  C1  UNL     1      77.408  87.564  16.472  1.00  0.00     0.193 C 
HETATM    3  N2  UNL     1      77.758  88.755  17.071  1.00  0.00    -0.203 N 
ATOM      4  H2  UNL     1      77.141  89.563  16.995  1.00  0.00     0.192 HD
ENDROOT
BRANCH   3   5
HETATM    5  S1  UNL     1      79.228  88.880  17.947  1.00  0.00     0.333 S 
HETATM    6  O1  UNL     1      80.412  89.113  17.024  1.00  0.00    -0.181 OA
HETATM    7  O2  UNL     1      79.498  87.650  18.765  1.00  0.00    -0.181 OA
BRANCH   5   8
HETATM    8  N3  UNL     1      79.156  90.231  19.007  1.00  0.00    -0.240 N 
HETATM    9  C2  UNL     1      78.537  90.040  20.266  1.00  0.00     0.196 C 
HETATM   10  N4  UNL     1      79.079  89.244  21.124  1.00  0.00    -0.373 N 
HETATM   11  N5  UNL     1      77.339  90.716  20.573  1.00  0.00    -0.063 NA
ATOM     12  H42 UNL     1      79.946  88.753  20.902  1.00  0.00     0.158 HD
ATOM     13  H41 UNL     1      78.633  89.106  22.031  1.00  0.00     0.158 HD
ATOM     14  H3  UNL     1      79.544  91.137  18.739  1.00  0.00     0.183 HD
ENDBRANCH   5   8
ENDBRANCH   3   5
TORSDOF 2
ENDMDL
