MODEL 1
REMARK VINA RESULT: -5.839464370      0.000      0.000
REMARK  2 active torsions:
REMARK  status: ('A' for Active; 'I' for Inactive)
REMARK    1  A    between atoms: N1_2  and  C2_4 
REMARK    2  A    between atoms: C4_10  and  N4_11 
REMARK       I    between atoms: N4_11  and  C5_13 
REMARK       I    between atoms: C5_13  and  N5_14 
REMARK       I    between atoms: C5_13  and  N6_18 
ROOT
HETATM    1  C2  UNL     1      77.450  87.735  16.649  1.00  0.00     0.693 A 
HETATM    2  N2  UNL     1      78.133  86.647  17.068  1.00  0.00    -0.187 N 
ATOM      3  H2  UNL     1      78.087  85.798  16.504  1.00  0.00     0.185 HD
HETATM    4  C3  UNL     1      78.870  86.628  18.189  1.00  0.00     0.215 A 
HETATM    5  N3  UNL     1      78.905  87.784  18.916  1.00  0.00    -0.187 N 
ATOM      6  H3  UNL     1      79.454  87.809  19.775  1.00  0.00     0.185 HD
HETATM    7  C4  UNL     1      78.245  88.886  18.540  1.00  0.00     0.696 A 
HETATM    8  N7  UNL     1      77.529  88.828  17.405  1.00  0.00    -0.022 N 
ATOM      9  H7  UNL     1      77.021  89.662  17.108  1.00  0.00     0.203 HD
ENDROOT
BRANCH   7  10
HETATM   10  N4  UNL     1      78.315  89.950  19.267  1.00  0.00    -0.173 N 
HETATM   11  C5  UNL     1      77.358  90.239  20.310  1.00  0.00     0.494 C 
HETATM   12  N5  UNL     1      77.501  91.623  20.748  1.00  0.00    -0.032 N 
HETATM   13  N6  UNL     1      77.527  89.412  21.480  1.00  0.00    -0.032 N 
ATOM     14  H53 UNL     1      78.457  91.836  21.036  1.00  0.00     0.278 HD
ATOM     15  H52 UNL     1      77.430  92.279  19.971  1.00  0.00     0.278 HD
ATOM     16  H51 UNL     1      76.825  91.827  21.484  1.00  0.00     0.278 HD
ATOM     17  H63 UNL     1      77.507  88.423  21.231  1.00  0.00     0.278 HD
ATOM     18  H62 UNL     1      78.481  89.476  21.835  1.00  0.00     0.278 HD
ATOM     19  H61 UNL     1      76.851  89.616  22.216  1.00  0.00     0.278 HD
ATOM     20  H4  UNL     1      79.075  90.611  19.099  1.00  0.00     0.181 HD
ENDBRANCH   7  10
BRANCH   1  21
HETATM   21  N1  UNL     1      76.785  87.629  15.565  1.00  0.00    -0.230 N 
HETATM   22  C1  UNL     1      76.600  86.452  14.788  1.00  0.00     0.165 C 
ATOM     23  H1  UNL     1      76.338  88.478  15.220  1.00  0.00     0.177 HD
ENDBRANCH   1  21
TORSDOF 2
ENDMDL
MODEL 2
REMARK VINA RESULT: -5.823803529      1.394      4.695
REMARK  2 active torsions:
REMARK  status: ('A' for Active; 'I' for Inactive)
REMARK    1  A    between atoms: N1_2  and  C2_4 
REMARK    2  A    between atoms: C4_10  and  N4_11 
REMARK       I    between atoms: N4_11  and  C5_13 
REMARK       I    between atoms: C5_13  and  N5_14 
REMARK       I    between atoms: C5_13  and  N6_18 
ROOT
HETATM    1  C2  UNL     1      78.798  89.592  19.764  1.00  0.00     0.693 A 
HETATM    2  N2  UNL     1      80.056  89.124  19.598  1.00  0.00    -0.187 N 
ATOM      3  H2  UNL     1      80.732  89.277  20.347  1.00  0.00     0.185 HD
HETATM    4  C3  UNL     1      80.459  88.470  18.499  1.00  0.00     0.215 A 
HETATM    5  N3  UNL     1      79.524  88.288  17.520  1.00  0.00    -0.187 N 
ATOM      6  H3  UNL     1      79.792  87.796  16.668  1.00  0.00     0.185 HD
HETATM    7  C4  UNL     1      78.266  88.733  17.639  1.00  0.00     0.696 A 
HETATM    8  N7  UNL     1      77.938  89.379  18.770  1.00  0.00    -0.022 N 
ATOM      9  H7  UNL     1      76.983  89.723  18.873  1.00  0.00     0.203 HD
ENDROOT
BRANCH   7  10
HETATM   10  N4  UNL     1      77.426  88.532  16.681  1.00  0.00    -0.173 N 
HETATM   11  C5  UNL     1      77.220  87.228  16.095  1.00  0.00     0.494 C 
HETATM   12  N5  UNL     1      76.460  87.352  14.857  1.00  0.00    -0.032 N 
HETATM   13  N6  UNL     1      76.480  86.332  16.950  1.00  0.00    -0.032 N 
ATOM     14  H53 UNL     1      75.581  87.851  14.997  1.00  0.00     0.278 HD
ATOM     15  H52 UNL     1      76.897  88.000  14.203  1.00  0.00     0.278 HD
ATOM     16  H51 UNL     1      76.315  86.431  14.443  1.00  0.00     0.278 HD
ATOM     17  H63 UNL     1      76.925  86.253  17.865  1.00  0.00     0.278 HD
ATOM     18  H62 UNL     1      75.593  86.747  17.231  1.00  0.00     0.278 HD
ATOM     19  H61 UNL     1      76.335  85.411  16.536  1.00  0.00     0.278 HD
ATOM     20  H4  UNL     1      76.887  89.322  16.324  1.00  0.00     0.181 HD
ENDBRANCH   7  10
BRANCH   1  21
HETATM   21  N1  UNL     1      78.536  90.198  20.855  1.00  0.00    -0.230 N 
HETATM   22  C1  UNL     1      77.502  91.150  21.076  1.00  0.00     0.165 C 
ATOM     23  H1  UNL     1      79.130  89.977  21.654  1.00  0.00     0.177 HD
ENDBRANCH   1  21
TORSDOF 2
ENDMDL
MODEL 3
REMARK VINA RESULT: -5.692532284      1.611      2.232
REMARK  2 active torsions:
REMARK  status: ('A' for Active; 'I' for Inactive)
REMARK    1  A    between atoms: N1_2  and  C2_4 
REMARK    2  A    between atoms: C4_10  and  N4_11 
REMARK       I    between atoms: N4_11  and  C5_13 
REMARK       I    between atoms: C5_13  and  N5_14 
REMARK       I    between atoms: C5_13  and  N6_18 
ROOT
HETATM    1  C2  UNL     1      77.109  86.456  18.183  1.00  0.00     0.693 A 
HETATM    2  N2  UNL     1      77.153  86.532  16.835  1.00  0.00    -0.187 N 
ATOM      3  H2  UNL     1      77.019  85.675  16.297  1.00  0.00     0.185 HD
HETATM    4  C3  UNL     1      77.366  87.676  16.168  1.00  0.00     0.215 A 
HETATM    5  N3  UNL     1      77.542  88.799  16.926  1.00  0.00    -0.187 N 
ATOM      6  H3  UNL     1      77.708  89.689  16.455  1.00  0.00     0.185 HD
HETATM    7  C4  UNL     1      77.506  88.773  18.264  1.00  0.00     0.696 A 
HETATM    8  N7  UNL     1      77.288  87.589  18.859  1.00  0.00    -0.022 N 
ATOM      9  H7  UNL     1      77.258  87.556  19.879  1.00  0.00     0.203 HD
ENDROOT
BRANCH   7  10
HETATM   10  N4  UNL     1      77.679  89.867  18.927  1.00  0.00    -0.173 N 
HETATM   11  C5  UNL     1      77.704  89.900  20.371  1.00  0.00     0.494 C 
HETATM   12  N5  UNL     1      77.608  91.277  20.839  1.00  0.00    -0.032 N 
HETATM   13  N6  UNL     1      78.917  89.353  20.930  1.00  0.00    -0.032 N 
ATOM     14  H53 UNL     1      78.330  91.872  20.431  1.00  0.00     0.278 HD
ATOM     15  H52 UNL     1      76.790  91.754  20.460  1.00  0.00     0.278 HD
ATOM     16  H51 UNL     1      77.625  91.301  21.859  1.00  0.00     0.278 HD
ATOM     17  H63 UNL     1      79.081  88.407  20.585  1.00  0.00     0.278 HD
ATOM     18  H62 UNL     1      79.737  89.818  20.542  1.00  0.00     0.278 HD
ATOM     19  H61 UNL     1      78.934  89.377  21.950  1.00  0.00     0.278 HD
ATOM     20  H4  UNL     1      77.803  90.739  18.413  1.00  0.00     0.181 HD
ENDBRANCH   7  10
BRANCH   1  21
HETATM   21  N1  UNL     1      76.899  85.309  18.701  1.00  0.00    -0.230 N 
HETATM   22  C1  UNL     1      75.849  84.406  18.378  1.00  0.00     0.165 C 
ATOM     23  H1  UNL     1      77.553  85.008  19.423  1.00  0.00     0.177 HD
ENDBRANCH   1  21
TORSDOF 2
ENDMDL
MODEL 4
REMARK VINA RESULT: -5.600966989      1.197      2.363
REMARK  2 active torsions:
REMARK  status: ('A' for Active; 'I' for Inactive)
REMARK    1  A    between atoms: N1_2  and  C2_4 
REMARK    2  A    between atoms: C4_10  and  N4_11 
REMARK       I    between atoms: N4_11  and  C5_13 
REMARK       I    between atoms: C5_13  and  N5_14 
REMARK       I    between atoms: C5_13  and  N6_18 
ROOT
HETATM    1  C2  UNL     1      78.355  86.308  18.185  1.00  0.00     0.693 A 
HETATM    2  N2  UNL     1      77.846  86.289  16.933  1.00  0.00    -0.187 N 
ATOM      3  H2  UNL     1      77.823  85.400  16.433  1.00  0.00     0.185 HD
HETATM    4  C3  UNL     1      77.369  87.379  16.315  1.00  0.00     0.215 A 
HETATM    5  N3  UNL     1      77.419  88.550  17.018  1.00  0.00    -0.187 N 
ATOM      6  H3  UNL     1      77.067  89.402  16.582  1.00  0.00     0.185 HD
HETATM    7  C4  UNL     1      77.914  88.618  18.261  1.00  0.00     0.696 A 
HETATM    8  N7  UNL     1      78.372  87.482  18.813  1.00  0.00    -0.022 N 
ATOM      9  H7  UNL     1      78.751  87.521  19.759  1.00  0.00     0.203 HD
ENDROOT
BRANCH   7  10
HETATM   10  N4  UNL     1      77.934  89.752  18.877  1.00  0.00    -0.173 N 
HETATM   11  C5  UNL     1      77.723  89.862  20.301  1.00  0.00     0.494 C 
HETATM   12  N5  UNL     1      77.499  91.255  20.666  1.00  0.00    -0.032 N 
HETATM   13  N6  UNL     1      78.849  89.403  21.078  1.00  0.00    -0.032 N 
ATOM     14  H53 UNL     1      78.254  91.861  20.343  1.00  0.00     0.278 HD
ATOM     15  H52 UNL     1      76.736  91.672  20.133  1.00  0.00     0.278 HD
ATOM     16  H51 UNL     1      77.349  91.333  21.672  1.00  0.00     0.278 HD
ATOM     17  H63 UNL     1      79.104  88.450  20.821  1.00  0.00     0.278 HD
ATOM     18  H62 UNL     1      79.703  89.886  20.800  1.00  0.00     0.278 HD
ATOM     19  H61 UNL     1      78.700  89.481  22.085  1.00  0.00     0.278 HD
ATOM     20  H4  UNL     1      78.106  90.601  18.338  1.00  0.00     0.181 HD
ENDBRANCH   7  10
BRANCH   1  21
HETATM   21  N1  UNL     1      78.777  85.204  18.665  1.00  0.00    -0.230 N 
HETATM   22  C1  UNL     1      78.346  83.897  18.307  1.00  0.00     0.165 C 
ATOM     23  H1  UNL     1      79.501  85.266  19.380  1.00  0.00     0.177 HD
ENDBRANCH   1  21
TORSDOF 2
ENDMDL
MODEL 5
REMARK VINA RESULT: -5.582707727      1.726      2.507
REMARK  2 active torsions:
REMARK  status: ('A' for Active; 'I' for Inactive)
REMARK    1  A    between atoms: N1_2  and  C2_4 
REMARK    2  A    between atoms: C4_10  and  N4_11 
REMARK       I    between atoms: N4_11  and  C5_13 
REMARK       I    between atoms: C5_13  and  N5_14 
REMARK       I    between atoms: C5_13  and  N6_18 
ROOT
HETATM    1  C2  UNL     1      76.669  87.223  15.010  1.00  0.00     0.693 A 
HETATM    2  N2  UNL     1      76.984  86.004  15.500  1.00  0.00    -0.187 N 
ATOM      3  H2  UNL     1      76.721  85.181  14.957  1.00  0.00     0.185 HD
HETATM    4  C3  UNL     1      77.624  85.821  16.664  1.00  0.00     0.215 A 
HETATM    5  N3  UNL     1      77.956  86.948  17.362  1.00  0.00    -0.187 N 
ATOM      6  H3  UNL     1      78.442  86.850  18.253  1.00  0.00     0.185 HD
HETATM    7  C4  UNL     1      77.665  88.177  16.916  1.00  0.00     0.696 A 
HETATM    8  N7  UNL     1      77.023  88.279  15.741  1.00  0.00    -0.022 N 
ATOM      9  H7  UNL     1      76.796  89.210  15.391  1.00  0.00     0.203 HD
ENDROOT
BRANCH   7  10
HETATM   10  N4  UNL     1      78.005  89.205  17.618  1.00  0.00    -0.173 N 
HETATM   11  C5  UNL     1      79.222  89.243  18.395  1.00  0.00     0.494 C 
HETATM   12  N5  UNL     1      79.195  90.379  19.308  1.00  0.00    -0.032 N 
HETATM   13  N6  UNL     1      80.407  89.388  17.584  1.00  0.00    -0.032 N 
ATOM     14  H53 UNL     1      79.025  91.259  18.820  1.00  0.00     0.278 HD
ATOM     15  H52 UNL     1      78.364  90.375  19.900  1.00  0.00     0.278 HD
ATOM     16  H51 UNL     1      80.055  90.406  19.857  1.00  0.00     0.278 HD
ATOM     17  H63 UNL     1      80.452  88.658  16.873  1.00  0.00     0.278 HD
ATOM     18  H62 UNL     1      80.336  90.207  16.980  1.00  0.00     0.278 HD
ATOM     19  H61 UNL     1      81.267  89.415  18.133  1.00  0.00     0.278 HD
ATOM     20  H4  UNL     1      77.391  90.020  17.625  1.00  0.00     0.181 HD
ENDBRANCH   7  10
BRANCH   1  21
HETATM   21  N1  UNL     1      76.059  87.267  13.890  1.00  0.00    -0.230 N 
HETATM   22  C1  UNL     1      75.489  88.415  13.273  1.00  0.00     0.165 C 
ATOM     23  H1  UNL     1      75.972  86.387  13.384  1.00  0.00     0.177 HD
ENDBRANCH   1  21
TORSDOF 2
ENDMDL
