MODEL 1
REMARK VINA RESULT: -5.951492078      0.000      0.000
REMARK  4 active torsions:
REMARK  status: ('A' for Active; 'I' for Inactive)
REMARK    1  A    between atoms: C2_2  and  C3_4 
REMARK    2  A    between atoms: C3_4  and  N5_12 
REMARK    3  A    between atoms: N1_5  and  N2_7 
REMARK    4  A    between atoms: N5_12  and  N6_14 
ROOT
HETATM    1  C3  UNL     1      77.523  89.320  19.320  1.00  0.00     0.180 C 
HETATM    2  N1  UNL     1      76.874  88.465  18.680  1.00  0.00    -0.279 N 
ATOM      3  H1  UNL     1      75.898  88.699  18.499  1.00  0.00     0.189 HD
ENDROOT
BRANCH   1   4
HETATM    4  C2  UNL     1      78.915  89.190  19.680  1.00  0.00     0.191 C 
HETATM    5  C1  UNL     1      79.971  89.459  18.692  1.00  0.00     0.100 C 
HETATM    6  O1  UNL     1      79.259  88.844  20.843  1.00  0.00    -0.289 OA
ENDBRANCH   1   4
BRANCH   1   7
HETATM    7  N5  UNL     1      76.847  90.523  19.732  1.00  0.00    -0.288 N 
ATOM      8  H5  UNL     1      75.942  90.753  19.320  1.00  0.00     0.188 HD
BRANCH   7   9
HETATM    9  N6  UNL     1      77.396  91.371  20.670  1.00  0.00    -0.343 N 
ATOM     10  H62 UNL     1      77.455  91.050  21.636  1.00  0.00     0.176 HD
ATOM     11  H61 UNL     1      77.737  92.297  20.413  1.00  0.00     0.176 HD
ENDBRANCH   7   9
ENDBRANCH   1   7
BRANCH   2  12
HETATM   12  N2  UNL     1      77.288  87.267  18.190  1.00  0.00    -0.274 N 
HETATM   13  C4  UNL     1      77.601  87.128  16.954  1.00  0.00     0.215 C 
HETATM   14  N3  UNL     1      77.523  88.224  16.072  1.00  0.00    -0.065 NA
HETATM   15  N4  UNL     1      78.032  85.860  16.466  1.00  0.00    -0.065 NA
ATOM     16  H2  UNL     1      77.350  86.464  18.816  1.00  0.00     0.189 HD
ENDBRANCH   2  12
TORSDOF 4
ENDMDL
MODEL 2
REMARK VINA RESULT: -5.909241371      1.819      4.160
REMARK  4 active torsions:
REMARK  status: ('A' for Active; 'I' for Inactive)
REMARK    1  A    between atoms: C2_2  and  C3_4 
REMARK    2  A    between atoms: C3_4  and  N5_12 
REMARK    3  A    between atoms: N1_5  and  N2_7 
REMARK    4  A    between atoms: N5_12  and  N6_14 
ROOT
HETATM    1  C3  UNL     1      78.038  88.529  17.388  1.00  0.00     0.180 C 
HETATM    2  N1  UNL     1      77.561  89.462  18.069  1.00  0.00    -0.279 N 
ATOM      3  H1  UNL     1      76.698  89.871  17.710  1.00  0.00     0.189 HD
ENDROOT
BRANCH   1   4
HETATM    4  C2  UNL     1      79.247  87.813  17.717  1.00  0.00     0.191 C 
HETATM    5  C1  UNL     1      80.502  88.539  17.969  1.00  0.00     0.100 C 
HETATM    6  O1  UNL     1      79.261  86.555  17.795  1.00  0.00    -0.289 OA
ENDBRANCH   1   4
BRANCH   1   7
HETATM    7  N5  UNL     1      77.342  88.131  16.192  1.00  0.00    -0.288 N 
ATOM      8  H5  UNL     1      77.307  88.772  15.398  1.00  0.00     0.188 HD
BRANCH   7   9
HETATM    9  N6  UNL     1      76.722  86.904  16.096  1.00  0.00    -0.343 N 
ATOM     10  H62 UNL     1      76.235  86.543  16.917  1.00  0.00     0.176 HD
ATOM     11  H61 UNL     1      76.743  86.364  15.231  1.00  0.00     0.176 HD
ENDBRANCH   7   9
ENDBRANCH   1   7
BRANCH   2  12
HETATM   12  N2  UNL     1      78.030  90.008  19.222  1.00  0.00    -0.274 N 
HETATM   13  C4  UNL     1      77.232  90.361  20.162  1.00  0.00     0.215 C 
HETATM   14  N3  UNL     1      75.842  90.187  20.018  1.00  0.00    -0.065 NA
HETATM   15  N4  UNL     1      77.752  90.930  21.360  1.00  0.00    -0.065 NA
ATOM     16  H2  UNL     1      79.035  90.140  19.341  1.00  0.00     0.189 HD
ENDBRANCH   2  12
TORSDOF 4
ENDMDL
MODEL 3
REMARK VINA RESULT: -5.888114157      1.574      1.902
REMARK  4 active torsions:
REMARK  status: ('A' for Active; 'I' for Inactive)
REMARK    1  A    between atoms: C2_2  and  C3_4 
REMARK    2  A    between atoms: C3_4  and  N5_12 
REMARK    3  A    between atoms: N1_5  and  N2_7 
REMARK    4  A    between atoms: N5_12  and  N6_14 
ROOT
HETATM    1  C3  UNL     1      78.328  89.295  18.360  1.00  0.00     0.180 C 
HETATM    2  N1  UNL     1      77.414  88.885  17.612  1.00  0.00    -0.279 N 
ATOM      3  H1  UNL     1      76.470  89.165  17.878  1.00  0.00     0.189 HD
ENDROOT
BRANCH   1   4
HETATM    4  C2  UNL     1      79.730  89.017  18.165  1.00  0.00     0.191 C 
HETATM    5  C1  UNL     1      80.570  88.582  19.292  1.00  0.00     0.100 C 
HETATM    6  O1  UNL     1      80.269  89.139  17.032  1.00  0.00    -0.289 OA
ENDBRANCH   1   4
BRANCH   1   7
HETATM    7  N5  UNL     1      77.969  90.103  19.497  1.00  0.00    -0.288 N 
ATOM      8  H5  UNL     1      78.700  90.427  20.130  1.00  0.00     0.188 HD
BRANCH   7   9
HETATM    9  N6  UNL     1      76.658  90.446  19.748  1.00  0.00    -0.343 N 
ATOM     10  H62 UNL     1      76.070  89.778  20.248  1.00  0.00     0.176 HD
ATOM     11  H61 UNL     1      76.276  91.342  19.447  1.00  0.00     0.176 HD
ENDBRANCH   7   9
ENDBRANCH   1   7
BRANCH   2  12
HETATM   12  N2  UNL     1      77.502  88.117  16.493  1.00  0.00    -0.274 N 
HETATM   13  C4  UNL     1      77.313  86.850  16.542  1.00  0.00     0.215 C 
HETATM   14  N3  UNL     1      77.008  86.222  17.765  1.00  0.00    -0.065 NA
HETATM   15  N4  UNL     1      77.412  86.069  15.354  1.00  0.00    -0.065 NA
ATOM     16  H2  UNL     1      77.723  88.558  15.600  1.00  0.00     0.189 HD
ENDBRANCH   2  12
TORSDOF 4
ENDMDL
MODEL 4
REMARK VINA RESULT: -5.791533819      1.836      4.201
REMARK  4 active torsions:
REMARK  status: ('A' for Active; 'I' for Inactive)
REMARK    1  A    between atoms: C2_2  and  C3_4 
REMARK    2  A    between atoms: C3_4  and  N5_12 
REMARK    3  A    between atoms: N1_5  and  N2_7 
REMARK    4  A    between atoms: N5_12  and  N6_14 
ROOT
HETATM    1  C3  UNL     1      77.759  88.012  17.434  1.00  0.00     0.180 C 
HETATM    2  N1  UNL     1      77.446  89.135  17.886  1.00  0.00    -0.279 N 
ATOM      3  H1  UNL     1      76.662  89.594  17.420  1.00  0.00     0.189 HD
ENDROOT
BRANCH   1   4
HETATM    4  C2  UNL     1      78.832  87.195  17.946  1.00  0.00     0.191 C 
HETATM    5  C1  UNL     1      78.547  86.049  18.824  1.00  0.00     0.100 C 
HETATM    6  O1  UNL     1      80.035  87.441  17.658  1.00  0.00    -0.289 OA
ENDBRANCH   1   4
BRANCH   1   7
HETATM    7  N5  UNL     1      77.002  87.487  16.327  1.00  0.00    -0.288 N 
ATOM      8  H5  UNL     1      76.628  86.540  16.383  1.00  0.00     0.188 HD
BRANCH   7   9
HETATM    9  N6  UNL     1      76.773  88.237  15.194  1.00  0.00    -0.343 N 
ATOM     10  H62 UNL     1      75.810  88.488  14.966  1.00  0.00     0.176 HD
ATOM     11  H61 UNL     1      77.539  88.539  14.592  1.00  0.00     0.176 HD
ENDBRANCH   7   9
ENDBRANCH   1   7
BRANCH   2  12
HETATM   12  N2  UNL     1      78.004  89.832  18.912  1.00  0.00    -0.274 N 
HETATM   13  C4  UNL     1      77.294  90.243  19.897  1.00  0.00     0.215 C 
HETATM   14  N3  UNL     1      75.911  89.980  19.937  1.00  0.00    -0.065 NA
HETATM   15  N4  UNL     1      77.905  90.971  20.960  1.00  0.00    -0.065 NA
ATOM     16  H2  UNL     1      79.005  90.030  18.897  1.00  0.00     0.189 HD
ENDBRANCH   2  12
TORSDOF 4
ENDMDL
MODEL 5
REMARK VINA RESULT: -5.700546977      2.110      4.285
REMARK  4 active torsions:
REMARK  status: ('A' for Active; 'I' for Inactive)
REMARK    1  A    between atoms: C2_2  and  C3_4 
REMARK    2  A    between atoms: C3_4  and  N5_12 
REMARK    3  A    between atoms: N1_5  and  N2_7 
REMARK    4  A    between atoms: N5_12  and  N6_14 
ROOT
HETATM    1  C3  UNL     1      78.761  87.652  19.297  1.00  0.00     0.180 C 
HETATM    2  N1  UNL     1      78.312  88.142  20.356  1.00  0.00    -0.279 N 
ATOM      3  H1  UNL     1      77.797  87.496  20.955  1.00  0.00     0.189 HD
ENDROOT
BRANCH   1   4
HETATM    4  C2  UNL     1      79.517  88.388  18.313  1.00  0.00     0.191 C 
HETATM    5  C1  UNL     1      80.945  88.674  18.526  1.00  0.00     0.100 C 
HETATM    6  O1  UNL     1      78.978  88.804  17.252  1.00  0.00    -0.289 OA
ENDBRANCH   1   4
BRANCH   1   7
HETATM    7  N5  UNL     1      78.515  86.259  19.031  1.00  0.00    -0.288 N 
ATOM      8  H5  UNL     1      78.102  85.677  19.760  1.00  0.00     0.188 HD
BRANCH   7   9
HETATM    9  N6  UNL     1      78.826  85.694  17.813  1.00  0.00    -0.343 N 
ATOM     10  H62 UNL     1      79.022  84.693  17.780  1.00  0.00     0.176 HD
ATOM     11  H61 UNL     1      78.861  86.254  16.961  1.00  0.00     0.176 HD
ENDBRANCH   7   9
ENDBRANCH   1   7
BRANCH   2  12
HETATM   12  N2  UNL     1      78.413  89.415  20.821  1.00  0.00    -0.274 N 
HETATM   13  C4  UNL     1      77.453  90.253  20.674  1.00  0.00     0.215 C 
HETATM   14  N3  UNL     1      76.266  89.868  20.021  1.00  0.00    -0.065 NA
HETATM   15  N4  UNL     1      77.586  91.582  21.171  1.00  0.00    -0.065 NA
ATOM     16  H2  UNL     1      79.267  89.709  21.296  1.00  0.00     0.189 HD
ENDBRANCH   2  12
TORSDOF 4
ENDMDL
