MODEL 1
REMARK VINA RESULT: -6.119994899      0.000      0.000
REMARK  4 active torsions:
REMARK  status: ('A' for Active; 'I' for Inactive)
REMARK    1  A    between atoms: N3_4  and  N4_6 
REMARK    2  A    between atoms: N4_6  and  N5_7 
REMARK    3  A    between atoms: N4_6  and  N6_10 
REMARK       I    between atoms: N7_12  and  C2_14 
REMARK    4  A    between atoms: N9_16  and  O1_18 
ROOT
HETATM    1  N6  UNL     1      77.898  87.794  17.136  1.00  0.00    -0.204 N 
ATOM      2  H6  UNL     1      78.377  86.960  17.478  1.00  0.00     0.212 HD
HETATM    3  N7  UNL     1      77.025  87.661  16.223  1.00  0.00    -0.255 N 
ATOM      4  H7  UNL     1      76.518  88.462  15.846  1.00  0.00     0.191 HD
HETATM    5  C2  UNL     1      76.788  86.341  15.753  1.00  0.00     0.228 C 
HETATM    6  N8  UNL     1      77.259  85.883  14.501  1.00  0.00    -0.060 NA
HETATM    7  N9  UNL     1      76.109  85.536  16.521  1.00  0.00    -0.240 N 
ATOM      8  H9  UNL     1      75.932  84.585  16.198  1.00  0.00     0.197 HD
ENDROOT
BRANCH   1   9
HETATM    9  N4  UNL     1      78.233  89.039  17.695  1.00  0.00    -0.121 N 
BRANCH   9  10
HETATM   10  N3  UNL     1      77.290  89.794  18.393  1.00  0.00    -0.238 N 
HETATM   11  C1  UNL     1      77.134  89.669  19.656  1.00  0.00     0.218 C 
HETATM   12  N1  UNL     1      77.862  88.791  20.485  1.00  0.00    -0.065 NA
HETATM   13  N2  UNL     1      76.144  90.486  20.275  1.00  0.00    -0.065 NA
ATOM     14  H3  UNL     1      76.711  90.461  17.883  1.00  0.00     0.193 HD
ENDBRANCH   9  10
BRANCH   9  15
HETATM   15  N5  UNL     1      79.530  89.485  17.527  1.00  0.00    -0.308 N 
ATOM     16  H52 UNL     1      79.711  90.129  16.756  1.00  0.00     0.180 HD
ATOM     17  H51 UNL     1      80.280  89.184  18.150  1.00  0.00     0.180 HD
ENDBRANCH   9  15
ENDBRANCH   1   9
BRANCH   7  18
HETATM   18  O1  UNL     1      75.629  85.909  17.731  1.00  0.00    -0.287 OA
ATOM     19  H1  UNL     1      75.925  85.518  18.545  1.00  0.00     0.244 HD
ENDBRANCH   7  18
TORSDOF 4
ENDMDL
MODEL 2
REMARK VINA RESULT: -6.104236082      1.237      1.282
REMARK  4 active torsions:
REMARK  status: ('A' for Active; 'I' for Inactive)
REMARK    1  A    between atoms: N3_4  and  N4_6 
REMARK    2  A    between atoms: N4_6  and  N5_7 
REMARK    3  A    between atoms: N4_6  and  N6_10 
REMARK       I    between atoms: N7_12  and  C2_14 
REMARK    4  A    between atoms: N9_16  and  O1_18 
ROOT
HETATM    1  N6  UNL     1      78.651  88.350  17.319  1.00  0.00    -0.204 N 
ATOM      2  H6  UNL     1      79.148  87.483  17.113  1.00  0.00     0.212 HD
HETATM    3  N7  UNL     1      77.502  88.528  16.808  1.00  0.00    -0.255 N 
ATOM      4  H7  UNL     1      76.964  89.377  16.982  1.00  0.00     0.191 HD
HETATM    5  C2  UNL     1      77.002  87.485  15.981  1.00  0.00     0.228 C 
HETATM    6  N8  UNL     1      76.955  87.587  14.572  1.00  0.00    -0.060 NA
HETATM    7  N9  UNL     1      76.576  86.400  16.566  1.00  0.00    -0.240 N 
ATOM      8  H9  UNL     1      76.215  85.643  15.986  1.00  0.00     0.197 HD
ENDROOT
BRANCH   1   9
HETATM    9  N4  UNL     1      79.268  89.296  18.156  1.00  0.00    -0.121 N 
BRANCH   9  10
HETATM   10  N3  UNL     1      78.602  89.824  19.262  1.00  0.00    -0.238 N 
HETATM   11  C1  UNL     1      78.065  89.070  20.144  1.00  0.00     0.218 C 
HETATM   12  N1  UNL     1      78.073  87.660  20.125  1.00  0.00    -0.065 NA
HETATM   13  N2  UNL     1      77.408  89.708  21.236  1.00  0.00    -0.065 NA
ATOM     14  H3  UNL     1      78.541  90.837  19.368  1.00  0.00     0.193 HD
ENDBRANCH   9  10
BRANCH   9  15
HETATM   15  N5  UNL     1      80.558  89.681  17.842  1.00  0.00    -0.308 N 
ATOM     16  H52 UNL     1      81.321  89.217  18.335  1.00  0.00     0.180 HD
ATOM     17  H51 UNL     1      80.742  90.401  17.143  1.00  0.00     0.180 HD
ENDBRANCH   9  15
ENDBRANCH   1   9
BRANCH   7  18
HETATM   18  O1  UNL     1      76.592  86.237  17.910  1.00  0.00    -0.287 OA
ATOM     19  H1  UNL     1      75.830  86.392  18.456  1.00  0.00     0.244 HD
ENDBRANCH   7  18
TORSDOF 4
ENDMDL
MODEL 3
REMARK VINA RESULT: -6.023393125      2.015      4.731
REMARK  4 active torsions:
REMARK  status: ('A' for Active; 'I' for Inactive)
REMARK    1  A    between atoms: N3_4  and  N4_6 
REMARK    2  A    between atoms: N4_6  and  N5_7 
REMARK    3  A    between atoms: N4_6  and  N6_10 
REMARK       I    between atoms: N7_12  and  C2_14 
REMARK    4  A    between atoms: N9_16  and  O1_18 
ROOT
HETATM    1  N6  UNL     1      77.456  88.635  17.741  1.00  0.00    -0.204 N 
ATOM      2  H6  UNL     1      77.932  89.501  17.488  1.00  0.00     0.212 HD
HETATM    3  N7  UNL     1      77.202  88.418  18.966  1.00  0.00    -0.255 N 
ATOM      4  H7  UNL     1      76.729  87.568  19.272  1.00  0.00     0.191 HD
HETATM    5  C2  UNL     1      77.611  89.417  19.890  1.00  0.00     0.228 C 
HETATM    6  N8  UNL     1      78.729  89.257  20.740  1.00  0.00    -0.060 NA
HETATM    7  N9  UNL     1      76.913  90.518  19.940  1.00  0.00    -0.240 N 
ATOM      8  H9  UNL     1      77.195  91.245  20.598  1.00  0.00     0.197 HD
ENDROOT
BRANCH   1   9
HETATM    9  N4  UNL     1      77.109  87.735  16.719  1.00  0.00    -0.121 N 
BRANCH   9  10
HETATM   10  N3  UNL     1      76.937  86.375  16.983  1.00  0.00    -0.238 N 
HETATM   11  C1  UNL     1      77.901  85.648  17.404  1.00  0.00     0.218 C 
HETATM   12  N1  UNL     1      79.214  86.098  17.653  1.00  0.00    -0.065 NA
HETATM   13  N2  UNL     1      77.623  84.271  17.643  1.00  0.00    -0.065 NA
ATOM     14  H3  UNL     1      76.021  85.952  16.835  1.00  0.00     0.193 HD
ENDBRANCH   9  10
BRANCH   9  15
HETATM   15  N5  UNL     1      76.944  88.247  15.446  1.00  0.00    -0.308 N 
ATOM     16  H52 UNL     1      76.959  87.588  14.667  1.00  0.00     0.180 HD
ATOM     17  H51 UNL     1      76.812  89.246  15.289  1.00  0.00     0.180 HD
ENDBRANCH   9  15
ENDBRANCH   1   9
BRANCH   7  18
HETATM   18  O1  UNL     1      75.832  90.736  19.156  1.00  0.00    -0.287 OA
ATOM     19  H1  UNL     1      75.824  91.381  18.458  1.00  0.00     0.244 HD
ENDBRANCH   7  18
TORSDOF 4
ENDMDL
MODEL 4
REMARK VINA RESULT: -6.014255643      1.250      1.300
REMARK  4 active torsions:
REMARK  status: ('A' for Active; 'I' for Inactive)
REMARK    1  A    between atoms: N3_4  and  N4_6 
REMARK    2  A    between atoms: N4_6  and  N5_7 
REMARK    3  A    between atoms: N4_6  and  N6_10 
REMARK       I    between atoms: N7_12  and  C2_14 
REMARK    4  A    between atoms: N9_16  and  O1_18 
ROOT
HETATM    1  N6  UNL     1      77.833  87.949  16.765  1.00  0.00    -0.204 N 
ATOM      2  H6  UNL     1      78.311  87.875  15.866  1.00  0.00     0.212 HD
HETATM    3  N7  UNL     1      77.004  87.044  17.088  1.00  0.00    -0.255 N 
ATOM      4  H7  UNL     1      76.500  87.072  17.974  1.00  0.00     0.191 HD
HETATM    5  C2  UNL     1      76.812  85.989  16.154  1.00  0.00     0.228 C 
HETATM    6  N8  UNL     1      75.655  85.887  15.349  1.00  0.00    -0.060 NA
HETATM    7  N9  UNL     1      77.753  85.093  16.052  1.00  0.00    -0.240 N 
ATOM      8  H9  UNL     1      77.630  84.330  15.385  1.00  0.00     0.197 HD
ENDROOT
BRANCH   1   9
HETATM    9  N4  UNL     1      78.122  89.049  17.591  1.00  0.00    -0.121 N 
BRANCH   9  10
HETATM   10  N3  UNL     1      77.121  89.678  18.331  1.00  0.00    -0.238 N 
HETATM   11  C1  UNL     1      77.071  89.582  19.606  1.00  0.00     0.218 C 
HETATM   12  N1  UNL     1      77.980  88.862  20.406  1.00  0.00    -0.065 NA
HETATM   13  N2  UNL     1      76.008  90.262  20.269  1.00  0.00    -0.065 NA
ATOM     14  H3  UNL     1      76.412  90.226  17.844  1.00  0.00     0.193 HD
ENDBRANCH   9  10
BRANCH   9  15
HETATM   15  N5  UNL     1      79.434  89.483  17.641  1.00  0.00    -0.308 N 
ATOM     16  H52 UNL     1      79.767  89.873  18.522  1.00  0.00     0.180 HD
ATOM     17  H51 UNL     1      80.046  89.416  16.827  1.00  0.00     0.180 HD
ENDBRANCH   9  15
ENDBRANCH   1   9
BRANCH   7  18
HETATM   18  O1  UNL     1      78.885  85.130  16.792  1.00  0.00    -0.287 OA
ATOM     19  H1  UNL     1      79.546  84.448  16.757  1.00  0.00     0.244 HD
ENDBRANCH   7  18
TORSDOF 4
ENDMDL
MODEL 5
REMARK VINA RESULT: -5.972203852      2.446      4.827
REMARK  4 active torsions:
REMARK  status: ('A' for Active; 'I' for Inactive)
REMARK    1  A    between atoms: N3_4  and  N4_6 
REMARK    2  A    between atoms: N4_6  and  N5_7 
REMARK    3  A    between atoms: N4_6  and  N6_10 
REMARK       I    between atoms: N7_12  and  C2_14 
REMARK    4  A    between atoms: N9_16  and  O1_18 
ROOT
HETATM    1  N6  UNL     1      77.289  88.077  18.630  1.00  0.00    -0.204 N 
ATOM      2  H6  UNL     1      76.950  87.562  19.443  1.00  0.00     0.212 HD
HETATM    3  N7  UNL     1      77.484  89.327  18.740  1.00  0.00    -0.255 N 
ATOM      4  H7  UNL     1      77.822  89.887  17.957  1.00  0.00     0.191 HD
HETATM    5  C2  UNL     1      77.210  89.907  20.008  1.00  0.00     0.228 C 
HETATM    6  N8  UNL     1      76.064  90.698  20.251  1.00  0.00    -0.060 NA
HETATM    7  N9  UNL     1      78.060  89.687  20.972  1.00  0.00    -0.240 N 
ATOM      8  H9  UNL     1      77.876  90.096  21.888  1.00  0.00     0.197 HD
ENDROOT
BRANCH   1   9
HETATM    9  N4  UNL     1      77.519  87.372  17.436  1.00  0.00    -0.121 N 
BRANCH   9  10
HETATM   10  N3  UNL     1      77.953  86.046  17.453  1.00  0.00    -0.238 N 
HETATM   11  C1  UNL     1      78.509  85.537  18.487  1.00  0.00     0.218 C 
HETATM   12  N1  UNL     1      78.748  86.213  19.700  1.00  0.00    -0.065 NA
HETATM   13  N2  UNL     1      78.917  84.174  18.403  1.00  0.00    -0.065 NA
ATOM     14  H3  UNL     1      77.825  85.470  16.622  1.00  0.00     0.193 HD
ENDBRANCH   9  10
BRANCH   9  15
HETATM   15  N5  UNL     1      77.298  88.041  16.246  1.00  0.00    -0.308 N 
ATOM     16  H52 UNL     1      78.047  88.029  15.554  1.00  0.00     0.180 HD
ATOM     17  H51 UNL     1      76.420  88.528  16.067  1.00  0.00     0.180 HD
ENDBRANCH   9  15
ENDBRANCH   1   9
BRANCH   7  18
HETATM   18  O1  UNL     1      79.177  88.940  20.808  1.00  0.00    -0.287 OA
ATOM     19  H1  UNL     1      80.004  89.307  20.518  1.00  0.00     0.244 HD
ENDBRANCH   7  18
TORSDOF 4
ENDMDL
