MODEL 1
REMARK VINA RESULT: -5.958496798      0.000      0.000
REMARK  1 active torsions:
REMARK  status: ('A' for Active; 'I' for Inactive)
REMARK       I    between atoms: C1_4  and  N2_5 
REMARK       I    between atoms: C1_4  and  N4_10 
REMARK    1  A    between atoms: N2_5  and  N3_7 
ROOT
HETATM    1  N1  UNL     1      76.426  89.578  19.211  1.00  0.00    -0.230 N 
ATOM      2  H11 UNL     1      76.307  89.892  18.248  1.00  0.00     0.174 HD
ATOM      3  H12 UNL     1      75.681  89.805  19.870  1.00  0.00     0.174 HD
HETATM    4  C1  UNL     1      77.476  88.927  19.563  1.00  0.00     0.726 C 
HETATM    5  N2  UNL     1      77.643  88.493  20.899  1.00  0.00    -0.136 N 
ATOM      6  H2  UNL     1      78.302  87.743  21.108  1.00  0.00     0.205 HD
HETATM    7  N4  UNL     1      78.515  88.612  18.646  1.00  0.00    -0.011 N 
HETATM    8  N5  UNL     1      79.066  87.478  18.197  1.00  0.00    -0.214 N 
ATOM      9  H5  UNL     1      78.899  86.490  18.384  1.00  0.00     0.194 HD
HETATM   10  C2  UNL     1      79.908  88.132  17.418  1.00  0.00     0.357 A 
HETATM   11  O1  UNL     1      80.816  87.824  16.617  1.00  0.00    -0.244 OA
HETATM   12  N6  UNL     1      79.363  89.274  17.862  1.00  0.00    -0.214 N 
ATOM     13  H6  UNL     1      79.531  90.263  17.674  1.00  0.00     0.194 HD
ENDROOT
BRANCH   5  14
HETATM   14  N3  UNL     1      76.902  89.089  21.951  1.00  0.00    -0.331 N 
ATOM     15  H32 UNL     1      76.161  89.748  21.714  1.00  0.00     0.177 HD
ATOM     16  H31 UNL     1      77.106  88.862  22.924  1.00  0.00     0.177 HD
ENDBRANCH   5  14
TORSDOF 1
ENDMDL
MODEL 2
REMARK VINA RESULT: -5.610937327      2.336      2.396
REMARK  1 active torsions:
REMARK  status: ('A' for Active; 'I' for Inactive)
REMARK       I    between atoms: C1_4  and  N2_5 
REMARK       I    between atoms: C1_4  and  N4_10 
REMARK    1  A    between atoms: N2_5  and  N3_7 
ROOT
HETATM    1  N1  UNL     1      76.346  89.659  19.217  1.00  0.00    -0.230 N 
ATOM      2  H11 UNL     1      75.762  89.906  18.418  1.00  0.00     0.174 HD
ATOM      3  H12 UNL     1      76.338  90.297  20.013  1.00  0.00     0.174 HD
HETATM    4  C1  UNL     1      77.053  88.586  19.207  1.00  0.00     0.726 C 
HETATM    5  N2  UNL     1      77.862  88.244  20.315  1.00  0.00    -0.136 N 
ATOM      6  H2  UNL     1      78.176  87.280  20.432  1.00  0.00     0.205 HD
HETATM    7  N4  UNL     1      77.063  87.697  18.098  1.00  0.00    -0.011 N 
HETATM    8  N5  UNL     1      76.746  86.410  17.917  1.00  0.00    -0.214 N 
ATOM      9  H5  UNL     1      76.397  85.676  18.532  1.00  0.00     0.194 HD
HETATM   10  C2  UNL     1      77.058  86.457  16.635  1.00  0.00     0.357 A 
HETATM   11  O1  UNL     1      77.056  85.652  15.679  1.00  0.00    -0.244 OA
HETATM   12  N6  UNL     1      77.379  87.748  16.806  1.00  0.00    -0.214 N 
ATOM     13  H6  UNL     1      77.729  88.481  16.189  1.00  0.00     0.194 HD
ENDROOT
BRANCH   5  14
HETATM   14  N3  UNL     1      78.241  89.225  21.264  1.00  0.00    -0.331 N 
ATOM     15  H32 UNL     1      77.789  90.138  21.231  1.00  0.00     0.177 HD
ATOM     16  H31 UNL     1      78.952  89.022  21.968  1.00  0.00     0.177 HD
ENDBRANCH   5  14
TORSDOF 1
ENDMDL
MODEL 3
REMARK VINA RESULT: -5.290048673      1.193      1.832
REMARK  1 active torsions:
REMARK  status: ('A' for Active; 'I' for Inactive)
REMARK       I    between atoms: C1_4  and  N2_5 
REMARK       I    between atoms: C1_4  and  N4_10 
REMARK    1  A    between atoms: N2_5  and  N3_7 
ROOT
HETATM    1  N1  UNL     1      78.741  88.806  21.279  1.00  0.00    -0.230 N 
ATOM      2  H11 UNL     1      79.308  87.979  21.465  1.00  0.00     0.174 HD
ATOM      3  H12 UNL     1      78.245  89.218  22.069  1.00  0.00     0.174 HD
HETATM    4  C1  UNL     1      78.665  89.296  20.093  1.00  0.00     0.726 C 
HETATM    5  N2  UNL     1      77.878  90.443  19.835  1.00  0.00    -0.136 N 
ATOM      6  H2  UNL     1      78.049  90.993  18.994  1.00  0.00     0.205 HD
HETATM    7  N4  UNL     1      79.355  88.723  18.991  1.00  0.00    -0.011 N 
HETATM    8  N5  UNL     1      80.286  89.154  18.132  1.00  0.00    -0.214 N 
ATOM      9  H5  UNL     1      80.783  90.036  18.014  1.00  0.00     0.194 HD
HETATM   10  C2  UNL     1      80.313  87.997  17.497  1.00  0.00     0.357 A 
HETATM   11  O1  UNL     1      80.936  87.520  16.524  1.00  0.00    -0.244 OA
HETATM   12  N6  UNL     1      79.380  87.555  18.352  1.00  0.00    -0.214 N 
ATOM     13  H6  UNL     1      78.883  86.671  18.469  1.00  0.00     0.194 HD
ENDROOT
BRANCH   5  14
HETATM   14  N3  UNL     1      76.854  90.835  20.733  1.00  0.00    -0.331 N 
ATOM     15  H32 UNL     1      76.794  90.370  21.639  1.00  0.00     0.177 HD
ATOM     16  H31 UNL     1      76.191  91.567  20.479  1.00  0.00     0.177 HD
ENDBRANCH   5  14
TORSDOF 1
ENDMDL
MODEL 4
REMARK VINA RESULT: -5.237949218      2.026      2.428
REMARK  1 active torsions:
REMARK  status: ('A' for Active; 'I' for Inactive)
REMARK       I    between atoms: C1_4  and  N2_5 
REMARK       I    between atoms: C1_4  and  N4_10 
REMARK    1  A    between atoms: N2_5  and  N3_7 
ROOT
HETATM    1  N1  UNL     1      78.881  88.421  20.520  1.00  0.00    -0.230 N 
ATOM      2  H11 UNL     1      79.348  87.536  20.321  1.00  0.00     0.174 HD
ATOM      3  H12 UNL     1      79.103  88.875  21.406  1.00  0.00     0.174 HD
HETATM    4  C1  UNL     1      78.051  88.929  19.681  1.00  0.00     0.726 C 
HETATM    5  N2  UNL     1      77.403  90.156  19.958  1.00  0.00    -0.136 N 
ATOM      6  H2  UNL     1      76.994  90.694  19.194  1.00  0.00     0.205 HD
HETATM    7  N4  UNL     1      77.741  88.297  18.446  1.00  0.00    -0.011 N 
HETATM    8  N5  UNL     1      77.857  88.636  17.157  1.00  0.00    -0.214 N 
ATOM      9  H5  UNL     1      78.208  89.461  16.673  1.00  0.00     0.194 HD
HETATM   10  C2  UNL     1      77.341  87.489  16.754  1.00  0.00     0.357 A 
HETATM   11  O1  UNL     1      77.079  86.959  15.653  1.00  0.00    -0.244 OA
HETATM   12  N6  UNL     1      77.221  87.140  18.043  1.00  0.00    -0.214 N 
ATOM     13  H6  UNL     1      76.868  86.313  18.526  1.00  0.00     0.194 HD
ENDROOT
BRANCH   5  14
HETATM   14  N3  UNL     1      77.318  90.645  21.285  1.00  0.00    -0.331 N 
ATOM     15  H32 UNL     1      77.504  91.633  21.454  1.00  0.00     0.177 HD
ATOM     16  H31 UNL     1      77.075  90.022  22.055  1.00  0.00     0.177 HD
ENDBRANCH   5  14
TORSDOF 1
ENDMDL
MODEL 5
REMARK VINA RESULT: -5.186809831      2.849      3.917
REMARK  1 active torsions:
REMARK  status: ('A' for Active; 'I' for Inactive)
REMARK       I    between atoms: C1_4  and  N2_5 
REMARK       I    between atoms: C1_4  and  N4_10 
REMARK    1  A    between atoms: N2_5  and  N3_7 
ROOT
HETATM    1  N1  UNL     1      79.142  86.764  18.277  1.00  0.00    -0.230 N 
ATOM      2  H11 UNL     1      79.280  87.566  17.663  1.00  0.00     0.174 HD
ATOM      3  H12 UNL     1      79.454  85.856  17.933  1.00  0.00     0.174 HD
HETATM    4  C1  UNL     1      78.597  86.908  19.431  1.00  0.00     0.726 C 
HETATM    5  N2  UNL     1      78.405  85.795  20.283  1.00  0.00    -0.136 N 
ATOM      6  H2  UNL     1      78.259  85.942  21.282  1.00  0.00     0.205 HD
HETATM    7  N4  UNL     1      78.162  88.173  19.911  1.00  0.00    -0.011 N 
HETATM    8  N5  UNL     1      78.469  88.940  20.964  1.00  0.00    -0.214 N 
ATOM      9  H5  UNL     1      79.118  88.840  21.744  1.00  0.00     0.194 HD
HETATM   10  C2  UNL     1      77.610  89.875  20.602  1.00  0.00     0.357 A 
HETATM   11  O1  UNL     1      77.248  90.984  21.048  1.00  0.00    -0.244 OA
HETATM   12  N6  UNL     1      77.295  89.113  19.544  1.00  0.00    -0.214 N 
ATOM     13  H6  UNL     1      76.646  89.214  18.763  1.00  0.00     0.194 HD
ENDROOT
BRANCH   5  14
HETATM   14  N3  UNL     1      78.415  84.476  19.764  1.00  0.00    -0.331 N 
ATOM     15  H32 UNL     1      77.594  84.144  19.258  1.00  0.00     0.177 HD
ATOM     16  H31 UNL     1      79.226  83.872  19.893  1.00  0.00     0.177 HD
ENDBRANCH   5  14
TORSDOF 1
ENDMDL
