MODEL 1
REMARK VINA RESULT: -4.782402427      0.000      0.000
REMARK  3 active torsions:
REMARK  status: ('A' for Active; 'I' for Inactive)
REMARK    1  A    between atoms: N1_2  and  N2_3 
REMARK    2  A    between atoms: N1_2  and  C2_6 
REMARK    3  A    between atoms: N3_7  and  N4_9 
ROOT
HETATM    1  C2  UNL     1      77.076  88.742  19.341  1.00  0.00     0.215 C 
HETATM    2  N3  UNL     1      77.738  88.640  18.238  1.00  0.00    -0.293 N 
ATOM      3  H3  UNL     1      78.685  89.019  18.197  1.00  0.00     0.187 HD
ENDROOT
BRANCH   2   4
HETATM    4  N4  UNL     1      77.215  88.040  17.116  1.00  0.00    -0.275 N 
HETATM    5  C3  UNL     1      77.519  86.887  16.674  1.00  0.00     0.215 C 
HETATM    6  N5  UNL     1      78.476  86.103  17.351  1.00  0.00    -0.065 NA
HETATM    7  N6  UNL     1      76.912  86.376  15.508  1.00  0.00    -0.065 NA
ATOM      8  H4  UNL     1      76.517  88.568  16.591  1.00  0.00     0.189 HD
ENDBRANCH   2   4
BRANCH   1   9
HETATM    9  N1  UNL     1      77.719  89.378  20.427  1.00  0.00    -0.297 N 
HETATM   10  C1  UNL     1      77.257  90.674  20.858  1.00  0.00     0.178 C 
BRANCH   9  11
HETATM   11  N2  UNL     1      78.772  88.748  21.050  1.00  0.00    -0.342 N 
ATOM     12  H22 UNL     1      78.849  88.791  22.066  1.00  0.00     0.177 HD
ATOM     13  H21 UNL     1      79.478  88.241  20.517  1.00  0.00     0.177 HD
ENDBRANCH   9  11
ENDBRANCH   1   9
TORSDOF 3
ENDMDL
MODEL 2
REMARK VINA RESULT: -4.766003959      1.319      4.680
REMARK  3 active torsions:
REMARK  status: ('A' for Active; 'I' for Inactive)
REMARK    1  A    between atoms: N1_2  and  N2_3 
REMARK    2  A    between atoms: N1_2  and  C2_6 
REMARK    3  A    between atoms: N3_7  and  N4_9 
ROOT
HETATM    1  C2  UNL     1      77.586  88.057  17.637  1.00  0.00     0.215 C 
HETATM    2  N3  UNL     1      76.643  88.441  18.429  1.00  0.00    -0.293 N 
ATOM      3  H3  UNL     1      75.801  87.870  18.504  1.00  0.00     0.187 HD
ENDROOT
BRANCH   2   4
HETATM    4  N4  UNL     1      76.731  89.593  19.176  1.00  0.00    -0.275 N 
HETATM    5  C3  UNL     1      77.183  89.682  20.361  1.00  0.00     0.215 C 
HETATM    6  N5  UNL     1      77.650  88.530  21.026  1.00  0.00    -0.065 NA
HETATM    7  N6  UNL     1      77.223  90.925  21.028  1.00  0.00    -0.065 NA
ATOM      8  H4  UNL     1      76.405  90.455  18.739  1.00  0.00     0.189 HD
ENDBRANCH   2   4
BRANCH   1   9
HETATM    9  N1  UNL     1      77.382  86.855  16.921  1.00  0.00    -0.297 N 
HETATM   10  C1  UNL     1      77.934  85.626  17.435  1.00  0.00     0.178 C 
BRANCH   9  11
HETATM   11  N2  UNL     1      76.661  86.883  15.749  1.00  0.00    -0.342 N 
ATOM     12  H22 UNL     1      75.914  86.203  15.606  1.00  0.00     0.177 HD
ATOM     13  H21 UNL     1      76.858  87.568  15.020  1.00  0.00     0.177 HD
ENDBRANCH   9  11
ENDBRANCH   1   9
TORSDOF 3
ENDMDL
MODEL 3
REMARK VINA RESULT: -4.764861244      2.087      4.746
REMARK  3 active torsions:
REMARK  status: ('A' for Active; 'I' for Inactive)
REMARK    1  A    between atoms: N1_2  and  N2_3 
REMARK    2  A    between atoms: N1_2  and  C2_6 
REMARK    3  A    between atoms: N3_7  and  N4_9 
ROOT
HETATM    1  C2  UNL     1      78.646  87.132  19.480  1.00  0.00     0.215 C 
HETATM    2  N3  UNL     1      77.940  87.585  20.461  1.00  0.00    -0.293 N 
ATOM      3  H3  UNL     1      77.309  86.950  20.947  1.00  0.00     0.187 HD
ENDROOT
BRANCH   2   4
HETATM    4  N4  UNL     1      78.009  88.896  20.874  1.00  0.00    -0.275 N 
HETATM    5  C3  UNL     1      77.134  89.794  20.660  1.00  0.00     0.215 C 
HETATM    6  N5  UNL     1      75.964  89.480  19.939  1.00  0.00    -0.065 NA
HETATM    7  N6  UNL     1      77.317  91.109  21.136  1.00  0.00    -0.065 NA
ATOM      8  H4  UNL     1      78.838  89.174  21.400  1.00  0.00     0.189 HD
ENDBRANCH   2   4
BRANCH   1   9
HETATM    9  N1  UNL     1      78.490  85.767  19.147  1.00  0.00    -0.297 N 
HETATM   10  C1  UNL     1      78.280  84.804  20.200  1.00  0.00     0.178 C 
BRANCH   9  11
HETATM   11  N2  UNL     1      78.541  85.385  17.826  1.00  0.00    -0.342 N 
ATOM     12  H22 UNL     1      78.864  86.053  17.125  1.00  0.00     0.177 HD
ATOM     13  H21 UNL     1      78.263  84.449  17.532  1.00  0.00     0.177 HD
ENDBRANCH   9  11
ENDBRANCH   1   9
TORSDOF 3
ENDMDL
MODEL 4
REMARK VINA RESULT: -4.674035991      1.206      4.915
REMARK  3 active torsions:
REMARK  status: ('A' for Active; 'I' for Inactive)
REMARK    1  A    between atoms: N1_2  and  N2_3 
REMARK    2  A    between atoms: N1_2  and  C2_6 
REMARK    3  A    between atoms: N3_7  and  N4_9 
ROOT
HETATM    1  C2  UNL     1      77.726  87.128  17.289  1.00  0.00     0.215 C 
HETATM    2  N3  UNL     1      77.135  88.129  17.850  1.00  0.00    -0.293 N 
ATOM      3  H3  UNL     1      76.191  88.374  17.550  1.00  0.00     0.187 HD
ENDROOT
BRANCH   2   4
HETATM    4  N4  UNL     1      77.733  88.879  18.837  1.00  0.00    -0.275 N 
HETATM    5  C3  UNL     1      77.130  89.535  19.745  1.00  0.00     0.215 C 
HETATM    6  N5  UNL     1      75.721  89.534  19.798  1.00  0.00    -0.065 NA
HETATM    7  N6  UNL     1      77.854  90.269  20.707  1.00  0.00    -0.065 NA
ATOM      8  H4  UNL     1      78.752  88.911  18.841  1.00  0.00     0.189 HD
ENDBRANCH   2   4
BRANCH   1   9
HETATM    9  N1  UNL     1      77.011  86.433  16.287  1.00  0.00    -0.297 N 
HETATM   10  C1  UNL     1      76.908  84.997  16.362  1.00  0.00     0.178 C 
BRANCH   9  11
HETATM   11  N2  UNL     1      76.428  87.141  15.260  1.00  0.00    -0.342 N 
ATOM     12  H22 UNL     1      77.017  87.696  14.639  1.00  0.00     0.177 HD
ATOM     13  H21 UNL     1      75.420  87.123  15.108  1.00  0.00     0.177 HD
ENDBRANCH   9  11
ENDBRANCH   1   9
TORSDOF 3
ENDMDL
MODEL 5
REMARK VINA RESULT: -4.631964728      1.118      1.283
REMARK  3 active torsions:
REMARK  status: ('A' for Active; 'I' for Inactive)
REMARK    1  A    between atoms: N1_2  and  N2_3 
REMARK    2  A    between atoms: N1_2  and  C2_6 
REMARK    3  A    between atoms: N3_7  and  N4_9 
ROOT
HETATM    1  C2  UNL     1      76.963  88.800  19.005  1.00  0.00     0.215 C 
HETATM    2  N3  UNL     1      77.632  88.046  18.199  1.00  0.00    -0.293 N 
ATOM      3  H3  UNL     1      78.638  87.949  18.338  1.00  0.00     0.187 HD
ENDROOT
BRANCH   2   4
HETATM    4  N4  UNL     1      77.038  87.369  17.159  1.00  0.00    -0.275 N 
HETATM    5  C3  UNL     1      77.411  86.248  16.687  1.00  0.00     0.215 C 
HETATM    6  N5  UNL     1      78.530  85.590  17.235  1.00  0.00    -0.065 NA
HETATM    7  N6  UNL     1      76.718  85.649  15.614  1.00  0.00    -0.065 NA
ATOM      8  H4  UNL     1      76.222  87.805  16.728  1.00  0.00     0.189 HD
ENDBRANCH   2   4
BRANCH   1   9
HETATM    9  N1  UNL     1      77.684  89.445  20.036  1.00  0.00    -0.297 N 
HETATM   10  C1  UNL     1      78.888  88.835  20.543  1.00  0.00     0.178 C 
BRANCH   9  11
HETATM   11  N2  UNL     1      77.221  90.642  20.535  1.00  0.00    -0.342 N 
ATOM     12  H22 UNL     1      77.889  91.377  20.768  1.00  0.00     0.177 HD
ATOM     13  H21 UNL     1      76.226  90.808  20.677  1.00  0.00     0.177 HD
ENDBRANCH   9  11
ENDBRANCH   1   9
TORSDOF 3
ENDMDL
