MODEL 1
REMARK VINA RESULT: -6.451662600      0.000      0.000
REMARK  0 active torsions:
REMARK  status: ('A' for Active; 'I' for Inactive)
ROOT
HETATM    1  O1  UNL     1      75.750  90.094  20.120  1.00  0.00    -0.247 OA
HETATM    2  C1  UNL     1      76.509  89.143  19.732  1.00  0.00     0.328 A 
HETATM    3  N1  UNL     1      77.677  88.923  20.360  1.00  0.00    -0.273 N 
ATOM      4  H1  UNL     1      77.955  89.515  21.143  1.00  0.00     0.173 HD
HETATM    5  C2  UNL     1      78.482  87.916  19.952  1.00  0.00     0.280 A 
HETATM    6  O2  UNL     1      79.585  87.679  20.515  1.00  0.00    -0.265 OA
HETATM    7  C3  UNL     1      78.134  87.102  18.899  1.00  0.00     0.149 A 
HETATM    8  N2  UNL     1      78.702  86.045  18.271  1.00  0.00    -0.301 N 
ATOM      9  H2  UNL     1      79.602  85.633  18.516  1.00  0.00     0.171 HD
HETATM   10  C4  UNL     1      77.904  85.618  17.275  1.00  0.00     0.326 A 
HETATM   11  O3  UNL     1      78.136  84.649  16.490  1.00  0.00    -0.247 OA
HETATM   12  N3  UNL     1      76.830  86.428  17.296  1.00  0.00    -0.292 N 
ATOM     13  H3  UNL     1      76.041  86.354  16.654  1.00  0.00     0.172 HD
HETATM   14  C5  UNL     1      76.930  87.344  18.268  1.00  0.00     0.146 A 
HETATM   15  N4  UNL     1      76.138  88.364  18.699  1.00  0.00    -0.292 N 
ATOM     16  H4  UNL     1      75.249  88.541  18.230  1.00  0.00     0.172 HD
ENDROOT
TORSDOF 0
ENDMDL
MODEL 2
REMARK VINA RESULT: -6.447676739      1.799      4.264
REMARK  0 active torsions:
REMARK  status: ('A' for Active; 'I' for Inactive)
ROOT
HETATM    1  O1  UNL     1      78.173  84.377  18.235  1.00  0.00    -0.247 OA
HETATM    2  C1  UNL     1      78.266  85.633  18.449  1.00  0.00     0.328 A 
HETATM    3  N1  UNL     1      78.995  86.398  17.617  1.00  0.00    -0.273 N 
ATOM      4  H1  UNL     1      79.472  85.975  16.821  1.00  0.00     0.173 HD
HETATM    5  C2  UNL     1      79.096  87.727  17.841  1.00  0.00     0.280 A 
HETATM    6  O2  UNL     1      79.771  88.477  17.084  1.00  0.00    -0.265 OA
HETATM    7  C3  UNL     1      78.464  88.326  18.907  1.00  0.00     0.149 A 
HETATM    8  N2  UNL     1      78.372  89.589  19.386  1.00  0.00    -0.301 N 
ATOM      9  H2  UNL     1      78.821  90.406  18.971  1.00  0.00     0.171 HD
HETATM   10  C4  UNL     1      77.603  89.608  20.489  1.00  0.00     0.326 A 
HETATM   11  O3  UNL     1      77.313  90.628  21.184  1.00  0.00    -0.247 OA
HETATM   12  N3  UNL     1      77.218  88.334  20.688  1.00  0.00    -0.292 N 
ATOM     13  H3  UNL     1      76.621  88.026  21.455  1.00  0.00     0.172 HD
HETATM   14  C5  UNL     1      77.720  87.523  19.748  1.00  0.00     0.146 A 
HETATM   15  N4  UNL     1      77.635  86.187  19.501  1.00  0.00    -0.292 N 
ATOM     16  H4  UNL     1      77.085  85.596  20.124  1.00  0.00     0.172 HD
ENDROOT
TORSDOF 0
ENDMDL
MODEL 3
REMARK VINA RESULT: -6.413647879      1.753      1.893
REMARK  0 active torsions:
REMARK  status: ('A' for Active; 'I' for Inactive)
ROOT
HETATM    1  O1  UNL     1      77.649  90.366  21.008  1.00  0.00    -0.247 OA
HETATM    2  C1  UNL     1      77.988  89.421  20.218  1.00  0.00     0.328 A 
HETATM    3  N1  UNL     1      78.851  89.668  19.217  1.00  0.00    -0.273 N 
ATOM      4  H1  UNL     1      79.231  90.606  19.090  1.00  0.00     0.173 HD
HETATM    5  C2  UNL     1      79.212  88.670  18.380  1.00  0.00     0.280 A 
HETATM    6  O2  UNL     1      80.018  88.862  17.429  1.00  0.00    -0.265 OA
HETATM    7  C3  UNL     1      78.715  87.395  18.526  1.00  0.00     0.149 A 
HETATM    8  N2  UNL     1      78.876  86.218  17.875  1.00  0.00    -0.301 N 
ATOM      9  H2  UNL     1      79.475  86.078  17.061  1.00  0.00     0.171 HD
HETATM   10  C4  UNL     1      78.131  85.264  18.460  1.00  0.00     0.326 A 
HETATM   11  O3  UNL     1      78.050  84.050  18.101  1.00  0.00    -0.247 OA
HETATM   12  N3  UNL     1      77.503  85.867  19.485  1.00  0.00    -0.292 N 
ATOM     13  H3  UNL     1      76.861  85.398  20.123  1.00  0.00     0.172 HD
HETATM   14  C5  UNL     1      77.831  87.163  19.560  1.00  0.00     0.146 A 
HETATM   15  N4  UNL     1      77.483  88.185  20.390  1.00  0.00    -0.292 N 
ATOM     16  H4  UNL     1      76.830  88.011  21.154  1.00  0.00     0.172 HD
ENDROOT
TORSDOF 0
ENDMDL
MODEL 4
REMARK VINA RESULT: -6.337527548      1.723      4.398
REMARK  0 active torsions:
REMARK  status: ('A' for Active; 'I' for Inactive)
ROOT
HETATM    1  O1  UNL     1      78.510  83.921  18.604  1.00  0.00    -0.247 OA
HETATM    2  C1  UNL     1      78.052  85.105  18.467  1.00  0.00     0.328 A 
HETATM    3  N1  UNL     1      77.927  85.633  17.237  1.00  0.00    -0.273 N 
ATOM      4  H1  UNL     1      78.198  85.089  16.418  1.00  0.00     0.173 HD
HETATM    5  C2  UNL     1      77.442  86.886  17.089  1.00  0.00     0.280 A 
HETATM    6  O2  UNL     1      77.310  87.415  15.952  1.00  0.00    -0.265 OA
HETATM    7  C3  UNL     1      77.068  87.644  18.174  1.00  0.00     0.149 A 
HETATM    8  N2  UNL     1      76.563  88.888  18.352  1.00  0.00    -0.301 N 
ATOM      9  H2  UNL     1      76.354  89.547  17.602  1.00  0.00     0.171 HD
HETATM   10  C4  UNL     1      76.379  89.127  19.663  1.00  0.00     0.326 A 
HETATM   11  O3  UNL     1      75.922  90.194  20.174  1.00  0.00    -0.247 OA
HETATM   12  N3  UNL     1      76.777  88.009  20.297  1.00  0.00    -0.292 N 
ATOM     13  H3  UNL     1      76.757  87.884  21.309  1.00  0.00     0.172 HD
HETATM   14  C5  UNL     1      77.203  87.083  19.428  1.00  0.00     0.146 A 
HETATM   15  N4  UNL     1      77.695  85.819  19.551  1.00  0.00    -0.292 N 
ATOM     16  H4  UNL     1      77.794  85.408  20.479  1.00  0.00     0.172 HD
ENDROOT
TORSDOF 0
ENDMDL
MODEL 5
REMARK VINA RESULT: -6.280381422      2.147      3.719
REMARK  0 active torsions:
REMARK  status: ('A' for Active; 'I' for Inactive)
ROOT
HETATM    1  O1  UNL     1      80.656  88.483  16.357  1.00  0.00    -0.247 OA
HETATM    2  C1  UNL     1      79.871  88.442  17.364  1.00  0.00     0.328 A 
HETATM    3  N1  UNL     1      80.352  88.091  18.569  1.00  0.00    -0.273 N 
ATOM      4  H1  UNL     1      81.339  87.857  18.677  1.00  0.00     0.173 HD
HETATM    5  C2  UNL     1      79.524  88.047  19.637  1.00  0.00     0.280 A 
HETATM    6  O2  UNL     1      79.937  87.721  20.783  1.00  0.00    -0.265 OA
HETATM    7  C3  UNL     1      78.188  88.356  19.522  1.00  0.00     0.149 A 
HETATM    8  N2  UNL     1      77.135  88.406  20.372  1.00  0.00    -0.301 N 
ATOM      9  H2  UNL     1      77.177  88.191  21.369  1.00  0.00     0.171 HD
HETATM   10  C4  UNL     1      76.026  88.781  19.709  1.00  0.00     0.326 A 
HETATM   11  O3  UNL     1      74.868  88.925  20.206  1.00  0.00    -0.247 OA
HETATM   12  N3  UNL     1      76.408  88.963  18.432  1.00  0.00    -0.292 N 
ATOM     13  H3  UNL     1      75.783  89.252  17.680  1.00  0.00     0.172 HD
HETATM   14  C5  UNL     1      77.715  88.715  18.276  1.00  0.00     0.146 A 
HETATM   15  N4  UNL     1      78.570  88.751  17.217  1.00  0.00    -0.292 N 
ATOM     16  H4  UNL     1      78.217  89.017  16.297  1.00  0.00     0.172 HD
ENDROOT
TORSDOF 0
ENDMDL
