MODEL 1
REMARK VINA RESULT: -5.750862146      0.000      0.000
REMARK  2 active torsions:
REMARK  status: ('A' for Active; 'I' for Inactive)
REMARK    1  A    between atoms: N1_2  and  C2_4 
REMARK    2  A    between atoms: C2_4  and  C3_8 
ROOT
HETATM    1  C3  UNL     1      78.115  88.106  18.931  1.00  0.00     0.091 A 
HETATM    2  C4  UNL     1      76.943  87.400  18.713  1.00  0.00     0.113 A 
HETATM    3  N3  UNL     1      76.546  87.265  17.440  1.00  0.00    -0.318 N 
ATOM      4  H3  UNL     1      75.686  86.749  17.251  1.00  0.00     0.170 HD
HETATM    5  C5  UNL     1      77.229  87.778  16.397  1.00  0.00     0.327 A 
HETATM    6  O1  UNL     1      76.820  87.628  15.215  1.00  0.00    -0.247 OA
HETATM    7  N4  UNL     1      78.377  88.470  16.604  1.00  0.00    -0.275 N 
ATOM      8  H4  UNL     1      78.894  88.857  15.814  1.00  0.00     0.173 HD
HETATM    9  C6  UNL     1      78.827  88.640  17.857  1.00  0.00     0.264 A 
HETATM   10  O2  UNL     1      79.883  89.278  18.044  1.00  0.00    -0.267 OA
ENDROOT
BRANCH   1  11
HETATM   11  C2  UNL     1      78.634  88.312  20.277  1.00  0.00     0.111 C 
HETATM   12  N2  UNL     1      79.788  87.841  20.599  1.00  0.00    -0.385 N 
ATOM     13  H22 UNL     1      80.151  87.985  21.542  1.00  0.00     0.157 HD
ATOM     14  H21 UNL     1      80.372  87.321  19.944  1.00  0.00     0.157 HD
BRANCH  11  15
HETATM   15  N1  UNL     1      77.820  89.037  21.190  1.00  0.00    -0.380 N 
HETATM   16  C1  UNL     1      77.305  90.321  20.732  1.00  0.00     0.147 C 
ATOM     17  H1  UNL     1      77.607  88.677  22.120  1.00  0.00     0.160 HD
ENDBRANCH  11  15
ENDBRANCH   1  11
TORSDOF 2
ENDMDL
MODEL 2
REMARK VINA RESULT: -5.746378484      1.867      4.191
REMARK  2 active torsions:
REMARK  status: ('A' for Active; 'I' for Inactive)
REMARK    1  A    between atoms: N1_2  and  C2_4 
REMARK    2  A    between atoms: C2_4  and  C3_8 
ROOT
HETATM    1  C3  UNL     1      77.366  87.708  17.702  1.00  0.00     0.091 A 
HETATM    2  C4  UNL     1      76.495  87.705  18.780  1.00  0.00     0.113 A 
HETATM    3  N3  UNL     1      76.830  88.465  19.831  1.00  0.00    -0.318 N 
ATOM      4  H3  UNL     1      76.207  88.481  20.638  1.00  0.00     0.170 HD
HETATM    5  C5  UNL     1      77.953  89.212  19.872  1.00  0.00     0.327 A 
HETATM    6  O1  UNL     1      78.230  89.913  20.880  1.00  0.00    -0.247 OA
HETATM    7  N4  UNL     1      78.808  89.220  18.820  1.00  0.00    -0.275 N 
ATOM      8  H4  UNL     1      79.657  89.785  18.851  1.00  0.00     0.173 HD
HETATM    9  C6  UNL     1      78.529  88.477  17.738  1.00  0.00     0.264 A 
HETATM   10  O2  UNL     1      79.318  88.486  16.772  1.00  0.00    -0.267 OA
ENDROOT
BRANCH   1  11
HETATM   11  C2  UNL     1      77.095  86.915  16.510  1.00  0.00     0.111 C 
HETATM   12  N2  UNL     1      77.354  85.654  16.505  1.00  0.00    -0.385 N 
ATOM     13  H22 UNL     1      77.165  85.099  15.671  1.00  0.00     0.157 HD
ATOM     14  H21 UNL     1      77.747  85.170  17.313  1.00  0.00     0.157 HD
BRANCH  11  15
HETATM   15  N1  UNL     1      76.547  87.589  15.384  1.00  0.00    -0.380 N 
HETATM   16  C1  UNL     1      75.959  86.756  14.343  1.00  0.00     0.147 C 
ATOM     17  H1  UNL     1      76.564  88.606  15.309  1.00  0.00     0.160 HD
ENDBRANCH  11  15
ENDBRANCH   1  11
TORSDOF 2
ENDMDL
MODEL 3
REMARK VINA RESULT: -5.526078191      1.929      4.295
REMARK  2 active torsions:
REMARK  status: ('A' for Active; 'I' for Inactive)
REMARK    1  A    between atoms: N1_2  and  C2_4 
REMARK    2  A    between atoms: C2_4  and  C3_8 
ROOT
HETATM    1  C3  UNL     1      77.381  87.685  17.716  1.00  0.00     0.091 A 
HETATM    2  C4  UNL     1      76.545  87.644  18.820  1.00  0.00     0.113 A 
HETATM    3  N3  UNL     1      76.903  88.386  19.877  1.00  0.00    -0.318 N 
ATOM      4  H3  UNL     1      76.306  88.375  20.703  1.00  0.00     0.170 HD
HETATM    5  C5  UNL     1      78.016  89.148  19.899  1.00  0.00     0.327 A 
HETATM    6  O1  UNL     1      78.316  89.830  20.914  1.00  0.00    -0.247 OA
HETATM    7  N4  UNL     1      78.838  89.191  18.821  1.00  0.00    -0.275 N 
ATOM      8  H4  UNL     1      79.679  89.768  18.838  1.00  0.00     0.173 HD
HETATM    9  C6  UNL     1      78.534  88.469  17.732  1.00  0.00     0.264 A 
HETATM   10  O2  UNL     1      79.292  88.511  16.741  1.00  0.00    -0.267 OA
ENDROOT
BRANCH   1  11
HETATM   11  C2  UNL     1      77.083  86.914  16.514  1.00  0.00     0.111 C 
HETATM   12  N2  UNL     1      76.605  87.505  15.475  1.00  0.00    -0.385 N 
ATOM     13  H22 UNL     1      76.397  86.966  14.634  1.00  0.00     0.157 HD
ATOM     14  H21 UNL     1      76.421  88.508  15.448  1.00  0.00     0.157 HD
BRANCH  11  15
HETATM   15  N1  UNL     1      77.340  85.516  16.552  1.00  0.00    -0.380 N 
HETATM   16  C1  UNL     1      76.897  84.737  15.403  1.00  0.00     0.147 C 
ATOM     17  H1  UNL     1      77.812  85.080  17.343  1.00  0.00     0.160 HD
ENDBRANCH  11  15
ENDBRANCH   1  11
TORSDOF 2
ENDMDL
MODEL 4
REMARK VINA RESULT: -5.524756632      1.957      3.955
REMARK  2 active torsions:
REMARK  status: ('A' for Active; 'I' for Inactive)
REMARK    1  A    between atoms: N1_2  and  C2_4 
REMARK    2  A    between atoms: C2_4  and  C3_8 
ROOT
HETATM    1  C3  UNL     1      77.477  87.927  18.447  1.00  0.00     0.091 A 
HETATM    2  C4  UNL     1      76.261  88.192  19.056  1.00  0.00     0.113 A 
HETATM    3  N3  UNL     1      76.253  89.135  20.007  1.00  0.00    -0.318 N 
ATOM      4  H3  UNL     1      75.371  89.350  20.471  1.00  0.00     0.170 HD
HETATM    5  C5  UNL     1      77.357  89.815  20.379  1.00  0.00     0.327 A 
HETATM    6  O1  UNL     1      77.306  90.695  21.279  1.00  0.00    -0.247 OA
HETATM    7  N4  UNL     1      78.550  89.560  19.787  1.00  0.00    -0.275 N 
ATOM      8  H4  UNL     1      79.385  90.075  20.069  1.00  0.00     0.173 HD
HETATM    9  C6  UNL     1      78.623  88.626  18.827  1.00  0.00     0.264 A 
HETATM   10  O2  UNL     1      79.723  88.393  18.285  1.00  0.00    -0.267 OA
ENDROOT
BRANCH   1  11
HETATM   11  C2  UNL     1      77.595  86.919  17.401  1.00  0.00     0.111 C 
HETATM   12  N2  UNL     1      76.964  87.071  16.289  1.00  0.00    -0.385 N 
ATOM     13  H22 UNL     1      77.047  86.365  15.557  1.00  0.00     0.157 HD
ATOM     14  H21 UNL     1      76.373  87.880  16.098  1.00  0.00     0.157 HD
BRANCH  11  15
HETATM   15  N1  UNL     1      78.420  85.792  17.667  1.00  0.00    -0.380 N 
HETATM   16  C1  UNL     1      77.961  84.874  18.701  1.00  0.00     0.147 C 
ATOM     17  H1  UNL     1      79.290  85.633  17.159  1.00  0.00     0.160 HD
ENDBRANCH  11  15
ENDBRANCH   1  11
TORSDOF 2
ENDMDL
MODEL 5
REMARK VINA RESULT: -5.476451324      2.080      2.466
REMARK  2 active torsions:
REMARK  status: ('A' for Active; 'I' for Inactive)
REMARK    1  A    between atoms: N1_2  and  C2_4 
REMARK    2  A    between atoms: C2_4  and  C3_8 
ROOT
HETATM    1  C3  UNL     1      78.016  87.747  18.601  1.00  0.00     0.091 A 
HETATM    2  C4  UNL     1      77.283  87.809  17.427  1.00  0.00     0.113 A 
HETATM    3  N3  UNL     1      76.629  86.698  17.063  1.00  0.00    -0.318 N 
ATOM      4  H3  UNL     1      76.082  86.715  16.203  1.00  0.00     0.170 HD
HETATM    5  C5  UNL     1      76.660  85.556  17.781  1.00  0.00     0.327 A 
HETATM    6  O1  UNL     1      76.031  84.533  17.403  1.00  0.00    -0.247 OA
HETATM    7  N4  UNL     1      77.376  85.490  18.931  1.00  0.00    -0.275 N 
ATOM      8  H4  UNL     1      77.399  84.627  19.474  1.00  0.00     0.173 HD
HETATM    9  C6  UNL     1      78.053  86.571  19.348  1.00  0.00     0.264 A 
HETATM   10  O2  UNL     1      78.711  86.507  20.407  1.00  0.00    -0.267 OA
ENDROOT
BRANCH   1  11
HETATM   11  C2  UNL     1      78.764  88.901  19.085  1.00  0.00     0.111 C 
HETATM   12  N2  UNL     1      79.596  89.500  18.307  1.00  0.00    -0.385 N 
ATOM     13  H22 UNL     1      80.120  90.307  18.646  1.00  0.00     0.157 HD
ATOM     14  H21 UNL     1      79.762  89.202  17.346  1.00  0.00     0.157 HD
BRANCH  11  15
HETATM   15  N1  UNL     1      78.533  89.316  20.426  1.00  0.00    -0.380 N 
HETATM   16  C1  UNL     1      77.269  89.990  20.694  1.00  0.00     0.147 C 
ATOM     17  H1  UNL     1      79.218  89.151  21.163  1.00  0.00     0.160 HD
ENDBRANCH  11  15
ENDBRANCH   1  11
TORSDOF 2
ENDMDL
