MODEL 1
REMARK VINA RESULT: -5.677037647      0.000      0.000
REMARK  4 active torsions:
REMARK  status: ('A' for Active; 'I' for Inactive)
REMARK    1  A    between atoms: N1_1  and  N2_4 
REMARK    2  A    between atoms: N2_4  and  C1_6 
REMARK    3  A    between atoms: C1_6  and  N3_8 
REMARK    4  A    between atoms: N3_8  and  C2_10 
ROOT
HETATM    1  C2  UNL     1      76.860  88.106  19.358  1.00  0.00     0.703 A 
HETATM    2  N4  UNL     1      77.801  87.758  20.236  1.00  0.00    -0.128 N 
ATOM      3  H4  UNL     1      78.226  86.835  20.331  1.00  0.00     0.205 HD
HETATM    4  N5  UNL     1      78.083  88.822  20.957  1.00  0.00    -0.237 N 
ATOM      5  H5  UNL     1      78.770  88.850  21.710  1.00  0.00     0.192 HD
HETATM    6  C3  UNL     1      77.337  89.864  20.560  1.00  0.00     0.353 A 
HETATM    7  O1  UNL     1      77.352  91.045  21.037  1.00  0.00    -0.245 OA
HETATM    8  N6  UNL     1      76.576  89.399  19.557  1.00  0.00    -0.139 N 
ATOM      9  H6  UNL     1      75.892  89.943  19.031  1.00  0.00     0.189 HD
ENDROOT
BRANCH   1  10
HETATM   10  N3  UNL     1      76.352  87.307  18.498  1.00  0.00    -0.163 N 
ATOM     11  H3  UNL     1      75.435  86.914  18.709  1.00  0.00     0.186 HD
BRANCH  10  12
HETATM   12  C1  UNL     1      76.954  86.924  17.284  1.00  0.00     0.204 C 
HETATM   13  S1  UNL     1      77.639  85.451  17.163  1.00  0.00    -0.039 SA
BRANCH  12  14
HETATM   14  N2  UNL     1      77.000  87.762  16.137  1.00  0.00    -0.282 N 
ATOM     15  H2  UNL     1      77.574  88.604  16.149  1.00  0.00     0.189 HD
BRANCH  14  16
HETATM   16  N1  UNL     1      76.268  87.442  14.993  1.00  0.00    -0.343 N 
ATOM     17  H12 UNL     1      76.692  87.600  14.079  1.00  0.00     0.176 HD
ATOM     18  H11 UNL     1      75.326  87.057  15.070  1.00  0.00     0.176 HD
ENDBRANCH  14  16
ENDBRANCH  12  14
ENDBRANCH  10  12
ENDBRANCH   1  10
TORSDOF 4
ENDMDL
MODEL 2
REMARK VINA RESULT: -5.671275579      2.910      4.716
REMARK  4 active torsions:
REMARK  status: ('A' for Active; 'I' for Inactive)
REMARK    1  A    between atoms: N1_1  and  N2_4 
REMARK    2  A    between atoms: N2_4  and  C1_6 
REMARK    3  A    between atoms: C1_6  and  N3_8 
REMARK    4  A    between atoms: N3_8  and  C2_10 
ROOT
HETATM    1  C2  UNL     1      76.964  87.552  18.133  1.00  0.00     0.703 A 
HETATM    2  N4  UNL     1      76.995  88.588  17.293  1.00  0.00    -0.128 N 
ATOM      3  H4  UNL     1      77.042  89.573  17.552  1.00  0.00     0.205 HD
HETATM    4  N5  UNL     1      76.956  88.105  16.070  1.00  0.00    -0.237 N 
ATOM      5  H5  UNL     1      76.966  88.669  15.220  1.00  0.00     0.192 HD
HETATM    6  C3  UNL     1      76.900  86.765  16.099  1.00  0.00     0.353 A 
HETATM    7  O1  UNL     1      76.852  85.976  15.100  1.00  0.00    -0.245 OA
HETATM    8  N6  UNL     1      76.906  86.434  17.400  1.00  0.00    -0.139 N 
ATOM      9  H6  UNL     1      76.872  85.484  17.770  1.00  0.00     0.189 HD
ENDROOT
BRANCH   1  10
HETATM   10  N3  UNL     1      76.988  87.664  19.408  1.00  0.00    -0.163 N 
ATOM     11  H3  UNL     1      76.228  87.226  19.930  1.00  0.00     0.186 HD
BRANCH  10  12
HETATM   12  C1  UNL     1      77.975  88.340  20.150  1.00  0.00     0.204 C 
HETATM   13  S1  UNL     1      79.546  88.008  19.874  1.00  0.00    -0.039 SA
BRANCH  12  14
HETATM   14  N2  UNL     1      77.678  89.311  21.144  1.00  0.00    -0.282 N 
ATOM     15  H2  UNL     1      77.742  89.060  22.131  1.00  0.00     0.189 HD
BRANCH  14  16
HETATM   16  N1  UNL     1      77.298  90.604  20.782  1.00  0.00    -0.343 N 
ATOM     17  H12 UNL     1      76.368  90.749  20.388  1.00  0.00     0.176 HD
ATOM     18  H11 UNL     1      77.938  91.388  20.910  1.00  0.00     0.176 HD
ENDBRANCH  14  16
ENDBRANCH  12  14
ENDBRANCH  10  12
ENDBRANCH   1  10
TORSDOF 4
ENDMDL
MODEL 3
REMARK VINA RESULT: -5.487906529      1.397      1.838
REMARK  4 active torsions:
REMARK  status: ('A' for Active; 'I' for Inactive)
REMARK    1  A    between atoms: N1_1  and  N2_4 
REMARK    2  A    between atoms: N2_4  and  C1_6 
REMARK    3  A    between atoms: C1_6  and  N3_8 
REMARK    4  A    between atoms: N3_8  and  C2_10 
ROOT
HETATM    1  C2  UNL     1      77.189  88.050  18.205  1.00  0.00     0.703 A 
HETATM    2  N4  UNL     1      76.555  89.223  18.165  1.00  0.00    -0.128 N 
ATOM      3  H4  UNL     1      76.383  89.787  17.333  1.00  0.00     0.205 HD
HETATM    4  N5  UNL     1      76.193  89.518  19.396  1.00  0.00    -0.237 N 
ATOM      5  H5  UNL     1      75.690  90.362  19.668  1.00  0.00     0.192 HD
HETATM    6  C3  UNL     1      76.581  88.550  20.240  1.00  0.00     0.353 A 
HETATM    7  O1  UNL     1      76.396  88.511  21.500  1.00  0.00    -0.245 OA
HETATM    8  N6  UNL     1      77.203  87.638  19.478  1.00  0.00    -0.139 N 
ATOM      9  H6  UNL     1      77.620  86.769  19.815  1.00  0.00     0.189 HD
ENDROOT
BRANCH   1  10
HETATM   10  N3  UNL     1      77.676  87.464  17.177  1.00  0.00    -0.163 N 
ATOM     11  H3  UNL     1      78.563  87.815  16.816  1.00  0.00     0.186 HD
BRANCH  10  12
HETATM   12  C1  UNL     1      77.090  86.375  16.503  1.00  0.00     0.204 C 
HETATM   13  S1  UNL     1      77.431  84.859  16.991  1.00  0.00    -0.039 SA
BRANCH  12  14
HETATM   14  N2  UNL     1      76.205  86.524  15.401  1.00  0.00    -0.282 N 
ATOM     15  H2  UNL     1      75.595  85.751  15.135  1.00  0.00     0.189 HD
BRANCH  14  16
HETATM   16  N1  UNL     1      76.160  87.718  14.681  1.00  0.00    -0.343 N 
ATOM     17  H12 UNL     1      76.703  88.514  15.018  1.00  0.00     0.176 HD
ATOM     18  H11 UNL     1      75.597  87.793  13.834  1.00  0.00     0.176 HD
ENDBRANCH  14  16
ENDBRANCH  12  14
ENDBRANCH  10  12
ENDBRANCH   1  10
TORSDOF 4
ENDMDL
MODEL 4
REMARK VINA RESULT: -5.368927036      2.969      4.736
REMARK  4 active torsions:
REMARK  status: ('A' for Active; 'I' for Inactive)
REMARK    1  A    between atoms: N1_1  and  N2_4 
REMARK    2  A    between atoms: N2_4  and  C1_6 
REMARK    3  A    between atoms: C1_6  and  N3_8 
REMARK    4  A    between atoms: N3_8  and  C2_10 
ROOT
HETATM    1  C2  UNL     1      77.145  87.875  17.716  1.00  0.00     0.703 A 
HETATM    2  N4  UNL     1      76.462  86.826  18.177  1.00  0.00    -0.128 N 
ATOM      3  H4  UNL     1      76.146  86.687  19.137  1.00  0.00     0.205 HD
HETATM    4  N5  UNL     1      76.269  86.005  17.167  1.00  0.00    -0.237 N 
ATOM      5  H5  UNL     1      75.774  85.116  17.225  1.00  0.00     0.192 HD
HETATM    6  C3  UNL     1      76.817  86.506  16.049  1.00  0.00     0.353 A 
HETATM    7  O1  UNL     1      76.818  85.976  14.890  1.00  0.00    -0.245 OA
HETATM    8  N6  UNL     1      77.362  87.678  16.411  1.00  0.00    -0.139 N 
ATOM      9  H6  UNL     1      77.861  88.316  15.790  1.00  0.00     0.189 HD
ENDROOT
BRANCH   1  10
HETATM   10  N3  UNL     1      77.504  88.869  18.438  1.00  0.00    -0.163 N 
ATOM     11  H3  UNL     1      77.125  89.784  18.195  1.00  0.00     0.186 HD
BRANCH  10  12
HETATM   12  C1  UNL     1      78.378  88.804  19.541  1.00  0.00     0.204 C 
HETATM   13  S1  UNL     1      79.825  88.077  19.369  1.00  0.00    -0.039 SA
BRANCH  12  14
HETATM   14  N2  UNL     1      78.066  89.345  20.817  1.00  0.00    -0.282 N 
ATOM     15  H2  UNL     1      78.405  88.881  21.660  1.00  0.00     0.189 HD
BRANCH  14  16
HETATM   16  N1  UNL     1      77.300  90.506  20.929  1.00  0.00    -0.343 N 
ATOM     17  H12 UNL     1      77.778  91.403  21.008  1.00  0.00     0.176 HD
ATOM     18  H11 UNL     1      76.281  90.458  20.932  1.00  0.00     0.176 HD
ENDBRANCH  14  16
ENDBRANCH  12  14
ENDBRANCH  10  12
ENDBRANCH   1  10
TORSDOF 4
ENDMDL
MODEL 5
REMARK VINA RESULT: -5.294726335      3.217      4.932
REMARK  4 active torsions:
REMARK  status: ('A' for Active; 'I' for Inactive)
REMARK    1  A    between atoms: N1_1  and  N2_4 
REMARK    2  A    between atoms: N2_4  and  C1_6 
REMARK    3  A    between atoms: C1_6  and  N3_8 
REMARK    4  A    between atoms: N3_8  and  C2_10 
ROOT
HETATM    1  C2  UNL     1      77.627  86.422  18.833  1.00  0.00     0.703 A 
HETATM    2  N4  UNL     1      76.514  86.613  18.123  1.00  0.00    -0.128 N 
ATOM      3  H4  UNL     1      75.749  87.244  18.360  1.00  0.00     0.205 HD
HETATM    4  N5  UNL     1      76.585  85.838  17.061  1.00  0.00    -0.237 N 
ATOM      5  H5  UNL     1      75.869  85.775  16.338  1.00  0.00     0.192 HD
HETATM    6  C3  UNL     1      77.733  85.143  17.068  1.00  0.00     0.353 A 
HETATM    7  O1  UNL     1      78.126  84.303  16.195  1.00  0.00    -0.245 OA
HETATM    8  N6  UNL     1      78.374  85.521  18.184  1.00  0.00    -0.139 N 
ATOM      9  H6  UNL     1      79.285  85.177  18.490  1.00  0.00     0.189 HD
ENDROOT
BRANCH   1  10
HETATM   10  N3  UNL     1      77.886  87.022  19.933  1.00  0.00    -0.163 N 
ATOM     11  H3  UNL     1      77.676  86.523  20.798  1.00  0.00     0.186 HD
BRANCH  10  12
HETATM   12  C1  UNL     1      78.436  88.313  20.050  1.00  0.00     0.204 C 
HETATM   13  S1  UNL     1      79.529  88.816  18.951  1.00  0.00    -0.039 SA
BRANCH  12  14
HETATM   14  N2  UNL     1      78.089  89.219  21.088  1.00  0.00    -0.282 N 
ATOM     15  H2  UNL     1      78.374  89.021  22.047  1.00  0.00     0.189 HD
BRANCH  14  16
HETATM   16  N1  UNL     1      77.363  90.377  20.807  1.00  0.00    -0.343 N 
ATOM     17  H12 UNL     1      76.360  90.299  20.643  1.00  0.00     0.176 HD
ATOM     18  H11 UNL     1      77.828  91.284  20.767  1.00  0.00     0.176 HD
ENDBRANCH  14  16
ENDBRANCH  12  14
ENDBRANCH  10  12
ENDBRANCH   1  10
TORSDOF 4
ENDMDL
