MODEL 1
REMARK VINA RESULT: -5.975861734      0.000      0.000
REMARK  2 active torsions:
REMARK  status: ('A' for Active; 'I' for Inactive)
REMARK       I    between atoms: C1_2  and  N2_4 
REMARK    1  A    between atoms: N2_4  and  C2_6 
REMARK    2  A    between atoms: C4_10  and  C5_11 
ROOT
HETATM    1  C2  UNL     1      77.370  87.896  17.074  1.00  0.00     0.686 A 
HETATM    2  N3  UNL     1      78.658  88.217  17.254  1.00  0.00    -0.199 N 
ATOM      3  H3  UNL     1      79.416  88.080  16.586  1.00  0.00     0.183 HD
HETATM    4  C3  UNL     1      78.761  88.749  18.468  1.00  0.00     0.141 A 
HETATM    5  C4  UNL     1      77.528  88.774  19.087  1.00  0.00     0.130 A 
HETATM    6  N5  UNL     1      76.674  88.227  18.175  1.00  0.00    -0.185 N 
ATOM      7  H5  UNL     1      75.672  88.090  18.307  1.00  0.00     0.184 HD
ENDROOT
BRANCH   1   8
HETATM    8  N2  UNL     1      76.814  87.356  16.044  1.00  0.00    -0.143 N 
HETATM    9  C1  UNL     1      76.609  85.978  15.886  1.00  0.00     0.346 C 
HETATM   10  N1  UNL     1      76.932  85.262  14.693  1.00  0.00    -0.039 NA
HETATM   11  O1  UNL     1      76.113  85.315  16.837  1.00  0.00    -0.250 OA
ATOM     12  H2  UNL     1      76.501  87.972  15.293  1.00  0.00     0.188 HD
ENDBRANCH   1   8
BRANCH   5  13
HETATM   13  C5  UNL     1      77.213  89.272  20.416  1.00  0.00     0.283 C 
HETATM   14  N4  UNL     1      76.457  88.461  21.289  1.00  0.00    -0.056 NA
HETATM   15  O2  UNL     1      77.593  90.391  20.801  1.00  0.00    -0.269 OA
ENDBRANCH   5  13
TORSDOF 2
ENDMDL
MODEL 2
REMARK VINA RESULT: -5.679357457      1.868      1.868
REMARK  2 active torsions:
REMARK  status: ('A' for Active; 'I' for Inactive)
REMARK       I    between atoms: C1_2  and  N2_4 
REMARK    1  A    between atoms: N2_4  and  C2_6 
REMARK    2  A    between atoms: C4_10  and  C5_11 
ROOT
HETATM    1  C2  UNL     1      77.322  86.351  17.563  1.00  0.00     0.686 A 
HETATM    2  N3  UNL     1      78.305  86.104  18.437  1.00  0.00    -0.199 N 
ATOM      3  H3  UNL     1      79.073  85.443  18.317  1.00  0.00     0.183 HD
HETATM    4  C3  UNL     1      78.091  86.883  19.493  1.00  0.00     0.141 A 
HETATM    5  C4  UNL     1      76.956  87.644  19.306  1.00  0.00     0.130 A 
HETATM    6  N5  UNL     1      76.497  87.280  18.074  1.00  0.00    -0.185 N 
ATOM      7  H5  UNL     1      75.665  87.651  17.616  1.00  0.00     0.184 HD
ENDROOT
BRANCH   1   8
HETATM    8  N2  UNL     1      77.130  85.823  16.401  1.00  0.00    -0.143 N 
HETATM    9  C1  UNL     1      76.446  86.449  15.350  1.00  0.00     0.346 C 
HETATM   10  N1  UNL     1      75.435  85.810  14.571  1.00  0.00    -0.039 NA
HETATM   11  O1  UNL     1      76.725  87.645  15.058  1.00  0.00    -0.250 OA
ATOM     12  H2  UNL     1      77.500  84.886  16.236  1.00  0.00     0.188 HD
ENDBRANCH   1   8
BRANCH   5  13
HETATM   13  C5  UNL     1      76.379  88.617  20.220  1.00  0.00     0.283 C 
HETATM   14  N4  UNL     1      75.653  89.705  19.691  1.00  0.00    -0.056 NA
HETATM   15  O2  UNL     1      76.507  88.511  21.451  1.00  0.00    -0.269 OA
ENDBRANCH   5  13
TORSDOF 2
ENDMDL
MODEL 3
REMARK VINA RESULT: -5.671287129      1.548      5.093
REMARK  2 active torsions:
REMARK  status: ('A' for Active; 'I' for Inactive)
REMARK       I    between atoms: C1_2  and  N2_4 
REMARK    1  A    between atoms: N2_4  and  C2_6 
REMARK    2  A    between atoms: C4_10  and  C5_11 
ROOT
HETATM    1  C2  UNL     1      77.138  87.899  18.547  1.00  0.00     0.686 A 
HETATM    2  N3  UNL     1      77.239  88.619  17.422  1.00  0.00    -0.199 N 
ATOM      3  H3  UNL     1      77.301  89.634  17.355  1.00  0.00     0.183 HD
HETATM    4  C3  UNL     1      77.243  87.758  16.408  1.00  0.00     0.141 A 
HETATM    5  C4  UNL     1      77.142  86.464  16.877  1.00  0.00     0.130 A 
HETATM    6  N5  UNL     1      77.078  86.594  18.233  1.00  0.00    -0.185 N 
ATOM      7  H5  UNL     1      76.998  85.827  18.900  1.00  0.00     0.184 HD
ENDROOT
BRANCH   1   8
HETATM    8  N2  UNL     1      77.098  88.318  19.766  1.00  0.00    -0.143 N 
HETATM    9  C1  UNL     1      76.621  89.576  20.156  1.00  0.00     0.346 C 
HETATM   10  N1  UNL     1      77.311  90.438  21.061  1.00  0.00    -0.039 NA
HETATM   11  O1  UNL     1      75.522  89.990  19.695  1.00  0.00    -0.250 OA
ATOM     12  H2  UNL     1      77.437  87.690  20.497  1.00  0.00     0.188 HD
ENDBRANCH   1   8
BRANCH   5  13
HETATM   13  C5  UNL     1      77.111  85.238  16.097  1.00  0.00     0.283 C 
HETATM   14  N4  UNL     1      78.198  84.343  16.187  1.00  0.00    -0.056 NA
HETATM   15  O2  UNL     1      76.152  84.960  15.357  1.00  0.00    -0.269 OA
ENDBRANCH   5  13
TORSDOF 2
ENDMDL
MODEL 4
REMARK VINA RESULT: -5.639756422      1.794      4.910
REMARK  2 active torsions:
REMARK  status: ('A' for Active; 'I' for Inactive)
REMARK       I    between atoms: C1_2  and  N2_4 
REMARK    1  A    between atoms: N2_4  and  C2_6 
REMARK    2  A    between atoms: C4_10  and  C5_11 
ROOT
HETATM    1  C2  UNL     1      77.887  88.409  18.477  1.00  0.00     0.686 A 
HETATM    2  N3  UNL     1      77.472  88.788  17.262  1.00  0.00    -0.199 N 
ATOM      3  H3  UNL     1      77.345  89.746  16.936  1.00  0.00     0.183 HD
HETATM    4  C3  UNL     1      77.256  87.679  16.561  1.00  0.00     0.141 A 
HETATM    5  C4  UNL     1      77.533  86.565  17.327  1.00  0.00     0.130 A 
HETATM    6  N5  UNL     1      77.928  87.067  18.532  1.00  0.00    -0.185 N 
ATOM      7  H5  UNL     1      78.209  86.515  19.342  1.00  0.00     0.184 HD
ENDROOT
BRANCH   1   8
HETATM    8  N2  UNL     1      78.211  89.150  19.482  1.00  0.00    -0.143 N 
HETATM    9  C1  UNL     1      77.348  89.474  20.538  1.00  0.00     0.346 C 
HETATM   10  N1  UNL     1      77.181  90.798  21.045  1.00  0.00    -0.039 NA
HETATM   11  O1  UNL     1      76.674  88.559  21.086  1.00  0.00    -0.250 OA
ATOM     12  H2  UNL     1      79.159  89.526  19.510  1.00  0.00     0.188 HD
ENDBRANCH   1   8
BRANCH   5  13
HETATM   13  C5  UNL     1      77.424  85.169  16.935  1.00  0.00     0.283 C 
HETATM   14  N4  UNL     1      76.233  84.470  17.220  1.00  0.00    -0.056 NA
HETATM   15  O2  UNL     1      78.353  84.580  16.356  1.00  0.00    -0.269 OA
ENDBRANCH   5  13
TORSDOF 2
ENDMDL
MODEL 5
REMARK VINA RESULT: -5.626748478      1.453      1.453
REMARK  2 active torsions:
REMARK  status: ('A' for Active; 'I' for Inactive)
REMARK       I    between atoms: C1_2  and  N2_4 
REMARK    1  A    between atoms: N2_4  and  C2_6 
REMARK    2  A    between atoms: C4_10  and  C5_11 
ROOT
HETATM    1  C2  UNL     1      76.919  86.653  17.280  1.00  0.00     0.686 A 
HETATM    2  N3  UNL     1      77.989  87.444  17.136  1.00  0.00    -0.199 N 
ATOM      3  H3  UNL     1      78.720  87.354  16.431  1.00  0.00     0.183 HD
HETATM    4  C3  UNL     1      77.918  88.371  18.087  1.00  0.00     0.141 A 
HETATM    5  C4  UNL     1      76.791  88.181  18.859  1.00  0.00     0.130 A 
HETATM    6  N5  UNL     1      76.185  87.085  18.319  1.00  0.00    -0.185 N 
ATOM      7  H5  UNL     1      75.317  86.662  18.649  1.00  0.00     0.184 HD
ENDROOT
BRANCH   1   8
HETATM    8  N2  UNL     1      76.581  85.624  16.577  1.00  0.00    -0.143 N 
HETATM    9  C1  UNL     1      77.487  84.788  15.912  1.00  0.00     0.346 C 
HETATM   10  N1  UNL     1      77.328  84.368  14.557  1.00  0.00    -0.039 NA
HETATM   11  O1  UNL     1      78.506  84.368  16.527  1.00  0.00    -0.250 OA
ATOM     12  H2  UNL     1      75.587  85.406  16.500  1.00  0.00     0.188 HD
ENDBRANCH   1   8
BRANCH   5  13
HETATM   13  C5  UNL     1      76.351  88.972  19.996  1.00  0.00     0.283 C 
HETATM   14  N4  UNL     1      76.690  88.547  21.298  1.00  0.00    -0.056 NA
HETATM   15  O2  UNL     1      75.686  90.012  19.849  1.00  0.00    -0.269 OA
ENDBRANCH   5  13
TORSDOF 2
ENDMDL
