MODEL 1
REMARK VINA RESULT: -6.707968497      0.000      0.000
REMARK  1 active torsions:
REMARK  status: ('A' for Active; 'I' for Inactive)
REMARK    1  A    between atoms: C2_2  and  C3_3 
ROOT
HETATM    1  C1  UNL     1      78.932  88.816  20.226  1.00  0.00     0.074 C 
HETATM    2  C2  UNL     1      77.673  88.234  19.564  1.00  0.00     0.188 C 
HETATM    3  N2  UNL     1      77.732  86.809  19.781  1.00  0.00    -0.308 N 
ATOM      4  H2  UNL     1      78.022  86.477  20.700  1.00  0.00     0.167 HD
HETATM    5  C4  UNL     1      77.412  85.839  18.792  1.00  0.00     0.326 C 
HETATM    6  O2  UNL     1      77.275  84.629  19.041  1.00  0.00    -0.247 OA
HETATM    7  N3  UNL     1      77.234  86.271  17.432  1.00  0.00    -0.261 N 
ATOM      8  H3  UNL     1      77.004  85.604  16.695  1.00  0.00     0.175 HD
HETATM    9  C5  UNL     1      77.390  87.656  17.145  1.00  0.00     0.326 C 
HETATM   10  O3  UNL     1      77.233  88.031  15.941  1.00  0.00    -0.247 OA
HETATM   11  N4  UNL     1      77.712  88.590  18.170  1.00  0.00    -0.308 N 
ATOM     12  H4  UNL     1      77.977  89.539  17.910  1.00  0.00     0.167 HD
ENDROOT
BRANCH   2  13
HETATM   13  C3  UNL     1      76.530  88.800  20.288  1.00  0.00     0.280 C 
HETATM   14  N1  UNL     1      75.628  89.728  19.703  1.00  0.00    -0.058 NA
HETATM   15  O1  UNL     1      76.359  88.434  21.481  1.00  0.00    -0.272 OA
ENDBRANCH   2  13
TORSDOF 1
ENDMDL
MODEL 2
REMARK VINA RESULT: -6.611698583      1.887      3.766
REMARK  1 active torsions:
REMARK  status: ('A' for Active; 'I' for Inactive)
REMARK    1  A    between atoms: C2_2  and  C3_3 
ROOT
HETATM    1  C1  UNL     1      76.583  85.910  17.804  1.00  0.00     0.074 C 
HETATM    2  C2  UNL     1      77.214  87.291  18.042  1.00  0.00     0.188 C 
HETATM    3  N2  UNL     1      78.343  87.069  18.911  1.00  0.00    -0.308 N 
ATOM      4  H2  UNL     1      78.940  86.264  18.723  1.00  0.00     0.167 HD
HETATM    5  C4  UNL     1      78.676  87.902  20.013  1.00  0.00     0.326 C 
HETATM    6  O2  UNL     1      79.750  87.820  20.633  1.00  0.00    -0.247 OA
HETATM    7  N3  UNL     1      77.727  88.894  20.442  1.00  0.00    -0.261 N 
ATOM      8  H3  UNL     1      77.929  89.511  21.229  1.00  0.00     0.175 HD
HETATM    9  C5  UNL     1      76.495  88.990  19.734  1.00  0.00     0.326 C 
HETATM   10  O3  UNL     1      75.661  89.868  20.117  1.00  0.00    -0.247 OA
HETATM   11  N4  UNL     1      76.208  88.132  18.635  1.00  0.00    -0.308 N 
ATOM     12  H4  UNL     1      75.261  88.112  18.257  1.00  0.00     0.167 HD
ENDROOT
BRANCH   2  13
HETATM   13  C3  UNL     1      77.680  87.760  16.732  1.00  0.00     0.280 C 
HETATM   14  N1  UNL     1      77.017  87.442  15.517  1.00  0.00    -0.058 NA
HETATM   15  O1  UNL     1      78.716  88.475  16.706  1.00  0.00    -0.272 OA
ENDBRANCH   2  13
TORSDOF 1
ENDMDL
MODEL 3
REMARK VINA RESULT: -6.472507724      1.029      1.029
REMARK  1 active torsions:
REMARK  status: ('A' for Active; 'I' for Inactive)
REMARK    1  A    between atoms: C2_2  and  C3_3 
ROOT
HETATM    1  C1  UNL     1      78.919  89.176  19.781  1.00  0.00     0.074 C 
HETATM    2  C2  UNL     1      77.738  88.357  19.237  1.00  0.00     0.188 C 
HETATM    3  N2  UNL     1      78.062  86.975  19.490  1.00  0.00    -0.308 N 
ATOM      4  H2  UNL     1      78.471  86.737  20.393  1.00  0.00     0.167 HD
HETATM    5  C4  UNL     1      77.846  85.923  18.558  1.00  0.00     0.326 C 
HETATM    6  O2  UNL     1      77.944  84.719  18.852  1.00  0.00    -0.247 OA
HETATM    7  N3  UNL     1      77.498  86.259  17.204  1.00  0.00    -0.261 N 
ATOM      8  H3  UNL     1      77.336  85.532  16.507  1.00  0.00     0.175 HD
HETATM    9  C5  UNL     1      77.386  87.638  16.865  1.00  0.00     0.326 C 
HETATM   10  O3  UNL     1      77.078  87.928  15.668  1.00  0.00    -0.247 OA
HETATM   11  N4  UNL     1      77.612  88.655  17.835  1.00  0.00    -0.308 N 
ATOM     12  H4  UNL     1      77.686  89.625  17.527  1.00  0.00     0.167 HD
ENDROOT
BRANCH   2  13
HETATM   13  C3  UNL     1      76.568  88.747  20.032  1.00  0.00     0.280 C 
HETATM   14  N1  UNL     1      76.429  88.429  21.410  1.00  0.00    -0.058 NA
HETATM   15  O1  UNL     1      75.657  89.391  19.449  1.00  0.00    -0.272 OA
ENDBRANCH   2  13
TORSDOF 1
ENDMDL
MODEL 4
REMARK VINA RESULT: -6.269576581      1.988      3.435
REMARK  1 active torsions:
REMARK  status: ('A' for Active; 'I' for Inactive)
REMARK    1  A    between atoms: C2_2  and  C3_3 
ROOT
HETATM    1  C1  UNL     1      77.451  87.752  16.413  1.00  0.00     0.074 C 
HETATM    2  C2  UNL     1      77.855  88.222  17.820  1.00  0.00     0.188 C 
HETATM    3  N2  UNL     1      77.911  87.034  18.635  1.00  0.00    -0.308 N 
ATOM      4  H2  UNL     1      78.341  86.199  18.235  1.00  0.00     0.167 HD
HETATM    5  C4  UNL     1      77.406  86.952  19.961  1.00  0.00     0.326 C 
HETATM    6  O2  UNL     1      77.632  85.995  20.721  1.00  0.00    -0.247 OA
HETATM    7  N3  UNL     1      76.590  88.028  20.457  1.00  0.00    -0.261 N 
ATOM      8  H3  UNL     1      76.209  88.005  21.403  1.00  0.00     0.175 HD
HETATM    9  C5  UNL     1      76.330  89.125  19.588  1.00  0.00     0.326 C 
HETATM   10  O3  UNL     1      75.608  90.071  20.032  1.00  0.00    -0.247 OA
HETATM   11  N4  UNL     1      76.859  89.160  18.267  1.00  0.00    -0.308 N 
ATOM     12  H4  UNL     1      76.524  89.872  17.618  1.00  0.00     0.167 HD
ENDROOT
BRANCH   2  13
HETATM   13  C3  UNL     1      79.196  88.800  17.689  1.00  0.00     0.280 C 
HETATM   14  N1  UNL     1      80.120  88.393  16.689  1.00  0.00    -0.058 NA
HETATM   15  O1  UNL     1      79.526  89.696  18.511  1.00  0.00    -0.272 OA
ENDBRANCH   2  13
TORSDOF 1
ENDMDL
MODEL 5
REMARK VINA RESULT: -6.269053184      1.687      2.517
REMARK  1 active torsions:
REMARK  status: ('A' for Active; 'I' for Inactive)
REMARK    1  A    between atoms: C2_2  and  C3_3 
ROOT
HETATM    1  C1  UNL     1      77.513  86.327  20.113  1.00  0.00     0.074 C 
HETATM    2  C2  UNL     1      77.439  87.671  19.370  1.00  0.00     0.188 C 
HETATM    3  N2  UNL     1      76.914  87.374  18.061  1.00  0.00    -0.308 N 
ATOM      4  H2  UNL     1      76.139  86.714  17.994  1.00  0.00     0.167 HD
HETATM    5  C4  UNL     1      77.409  87.944  16.856  1.00  0.00     0.326 C 
HETATM    6  O2  UNL     1      76.830  87.837  15.761  1.00  0.00    -0.247 OA
HETATM    7  N3  UNL     1      78.642  88.683  16.897  1.00  0.00    -0.261 N 
ATOM      8  H3  UNL     1      79.029  89.107  16.053  1.00  0.00     0.175 HD
HETATM    9  C5  UNL     1      79.306  88.807  18.150  1.00  0.00     0.326 C 
HETATM   10  O3  UNL     1      80.394  89.461  18.179  1.00  0.00    -0.247 OA
HETATM   11  N4  UNL     1      78.769  88.217  19.330  1.00  0.00    -0.308 N 
ATOM     12  H4  UNL     1      79.345  88.182  20.171  1.00  0.00     0.167 HD
ENDROOT
BRANCH   2  13
HETATM   13  C3  UNL     1      76.482  88.497  20.114  1.00  0.00     0.280 C 
HETATM   14  N1  UNL     1      75.666  89.481  19.495  1.00  0.00    -0.058 NA
HETATM   15  O1  UNL     1      76.396  88.311  21.357  1.00  0.00    -0.272 OA
ENDBRANCH   2  13
TORSDOF 1
ENDMDL
