MODEL 1
REMARK VINA RESULT: -5.942213926      0.000      0.000
REMARK  3 active torsions:
REMARK  status: ('A' for Active; 'I' for Inactive)
REMARK    1  A    between atoms: N1_1  and  O1_4 
REMARK    2  A    between atoms: O1_4  and  N2_5 
REMARK       I    between atoms: N2_5  and  C1_7 
REMARK       I    between atoms: C1_7  and  N3_9 
REMARK    3  A    between atoms: N3_9  and  C2_11 
ROOT
HETATM    1  N2  UNL     1      76.372  87.290  14.779  1.00  0.00    -0.191 N 
ATOM      2  H2  UNL     1      75.941  88.199  14.610  1.00  0.00     0.201 HD
HETATM    3  C1  UNL     1      77.107  87.079  16.038  1.00  0.00     0.360 C 
HETATM    4  O2  UNL     1      77.595  85.939  16.154  1.00  0.00    -0.244 OA
HETATM    5  N3  UNL     1      77.195  88.059  16.928  1.00  0.00    -0.138 N 
ATOM      6  H3  UNL     1      76.987  88.897  16.383  1.00  0.00     0.189 HD
ENDROOT
BRANCH   5   7
HETATM    7  C2  UNL     1      77.392  88.493  18.057  1.00  0.00     0.705 A 
HETATM    8  N4  UNL     1      78.468  89.149  18.571  1.00  0.00    -0.128 N 
HETATM    9  N5  UNL     1      78.276  89.396  19.846  1.00  0.00    -0.237 N 
ATOM     10  H4  UNL     1      79.301  89.411  18.042  1.00  0.00     0.205 HD
HETATM   11  C3  UNL     1      77.089  88.919  20.225  1.00  0.00     0.353 A 
ATOM     12  H5  UNL     1      78.936  89.880  20.455  1.00  0.00     0.192 HD
HETATM   13  O3  UNL     1      76.619  89.002  21.400  1.00  0.00    -0.245 OA
HETATM   14  N6  UNL     1      76.544  88.370  19.144  1.00  0.00    -0.138 N 
ATOM     15  H6  UNL     1      75.628  87.921  19.120  1.00  0.00     0.189 HD
ENDBRANCH   5   7
BRANCH   1  16
HETATM   16  O1  UNL     1      76.245  86.336  13.848  1.00  0.00    -0.160 OA
BRANCH  16  17
HETATM   17  N1  UNL     1      75.239  85.516  14.192  1.00  0.00    -0.286 N 
ATOM     18  H12 UNL     1      75.093  85.137  15.128  1.00  0.00     0.186 HD
ATOM     19  H11 UNL     1      74.656  85.339  13.374  1.00  0.00     0.186 HD
ENDBRANCH  16  17
ENDBRANCH   1  16
TORSDOF 3
ENDMDL
MODEL 2
REMARK VINA RESULT: -5.840073560      1.381      1.461
REMARK  3 active torsions:
REMARK  status: ('A' for Active; 'I' for Inactive)
REMARK    1  A    between atoms: N1_1  and  O1_4 
REMARK    2  A    between atoms: O1_4  and  N2_5 
REMARK       I    between atoms: N2_5  and  C1_7 
REMARK       I    between atoms: C1_7  and  N3_9 
REMARK    3  A    between atoms: N3_9  and  C2_11 
ROOT
HETATM    1  N2  UNL     1      76.491  86.213  16.062  1.00  0.00    -0.191 N 
ATOM      2  H2  UNL     1      75.787  85.721  16.612  1.00  0.00     0.201 HD
HETATM    3  C1  UNL     1      77.211  87.340  16.680  1.00  0.00     0.360 C 
HETATM    4  O2  UNL     1      78.050  87.875  15.931  1.00  0.00    -0.244 OA
HETATM    5  N3  UNL     1      76.944  87.692  17.931  1.00  0.00    -0.138 N 
ATOM      6  H3  UNL     1      76.026  87.284  18.104  1.00  0.00     0.189 HD
ENDROOT
BRANCH   5   7
HETATM    7  C2  UNL     1      77.216  88.248  18.988  1.00  0.00     0.705 A 
HETATM    8  N4  UNL     1      77.893  87.787  20.075  1.00  0.00    -0.128 N 
HETATM    9  N5  UNL     1      77.918  88.707  21.012  1.00  0.00    -0.237 N 
ATOM     10  H4  UNL     1      78.319  86.863  20.151  1.00  0.00     0.205 HD
HETATM   11  C3  UNL     1      77.267  89.795  20.594  1.00  0.00     0.353 A 
ATOM     12  H5  UNL     1      78.368  88.605  21.921  1.00  0.00     0.192 HD
HETATM   13  O3  UNL     1      77.118  90.853  21.277  1.00  0.00    -0.245 OA
HETATM   14  N6  UNL     1      76.839  89.526  19.366  1.00  0.00    -0.138 N 
ATOM     15  H6  UNL     1      76.306  90.171  18.782  1.00  0.00     0.189 HD
ENDBRANCH   5   7
BRANCH   1  16
HETATM   16  O1  UNL     1      76.722  85.810  14.807  1.00  0.00    -0.160 OA
BRANCH  16  17
HETATM   17  N1  UNL     1      76.135  86.666  13.954  1.00  0.00    -0.286 N 
ATOM     18  H12 UNL     1      76.632  87.233  13.268  1.00  0.00     0.186 HD
ATOM     19  H11 UNL     1      75.126  86.652  14.106  1.00  0.00     0.186 HD
ENDBRANCH  16  17
ENDBRANCH   1  16
TORSDOF 3
ENDMDL
MODEL 3
REMARK VINA RESULT: -5.773544004      1.846      2.123
REMARK  3 active torsions:
REMARK  status: ('A' for Active; 'I' for Inactive)
REMARK    1  A    between atoms: N1_1  and  O1_4 
REMARK    2  A    between atoms: O1_4  and  N2_5 
REMARK       I    between atoms: N2_5  and  C1_7 
REMARK       I    between atoms: C1_7  and  N3_9 
REMARK    3  A    between atoms: N3_9  and  C2_11 
ROOT
HETATM    1  N2  UNL     1      77.223  85.313  16.102  1.00  0.00    -0.191 N 
ATOM      2  H2  UNL     1      76.220  85.342  15.913  1.00  0.00     0.201 HD
HETATM    3  C1  UNL     1      77.798  86.313  17.019  1.00  0.00     0.360 C 
HETATM    4  O2  UNL     1      79.026  86.195  17.188  1.00  0.00    -0.244 OA
HETATM    5  N3  UNL     1      77.016  87.223  17.584  1.00  0.00    -0.138 N 
ATOM      6  H3  UNL     1      76.187  87.231  16.989  1.00  0.00     0.189 HD
ENDROOT
BRANCH   5   7
HETATM    7  C2  UNL     1      76.760  88.059  18.442  1.00  0.00     0.705 A 
HETATM    8  N4  UNL     1      76.101  89.246  18.345  1.00  0.00    -0.128 N 
HETATM    9  N5  UNL     1      76.089  89.850  19.510  1.00  0.00    -0.237 N 
ATOM     10  H4  UNL     1      75.679  89.612  17.491  1.00  0.00     0.205 HD
HETATM   11  C3  UNL     1      76.732  89.105  20.412  1.00  0.00     0.353 A 
ATOM     12  H5  UNL     1      75.654  90.753  19.698  1.00  0.00     0.192 HD
HETATM   13  O3  UNL     1      76.890  89.422  21.630  1.00  0.00    -0.245 OA
HETATM   14  N6  UNL     1      77.141  88.014  19.773  1.00  0.00    -0.138 N 
ATOM     15  H6  UNL     1      77.663  87.251  20.203  1.00  0.00     0.189 HD
ENDBRANCH   5   7
BRANCH   1  16
HETATM   16  O1  UNL     1      77.961  84.368  15.508  1.00  0.00    -0.160 OA
BRANCH  16  17
HETATM   17  N1  UNL     1      78.351  83.470  16.429  1.00  0.00    -0.286 N 
ATOM     18  H12 UNL     1      78.852  83.700  17.287  1.00  0.00     0.186 HD
ATOM     19  H11 UNL     1      78.066  82.538  16.129  1.00  0.00     0.186 HD
ENDBRANCH  16  17
ENDBRANCH   1  16
TORSDOF 3
ENDMDL
MODEL 4
REMARK VINA RESULT: -5.720328502      3.395      3.870
REMARK  3 active torsions:
REMARK  status: ('A' for Active; 'I' for Inactive)
REMARK    1  A    between atoms: N1_1  and  O1_4 
REMARK    2  A    between atoms: O1_4  and  N2_5 
REMARK       I    between atoms: N2_5  and  C1_7 
REMARK       I    between atoms: C1_7  and  N3_9 
REMARK    3  A    between atoms: N3_9  and  C2_11 
ROOT
HETATM    1  N2  UNL     1      78.467  84.414  18.627  1.00  0.00    -0.191 N 
ATOM      2  H2  UNL     1      78.368  84.668  17.643  1.00  0.00     0.201 HD
HETATM    3  C1  UNL     1      78.219  85.445  19.650  1.00  0.00     0.360 C 
HETATM    4  O2  UNL     1      78.364  85.040  20.820  1.00  0.00    -0.244 OA
HETATM    5  N3  UNL     1      77.869  86.672  19.286  1.00  0.00    -0.138 N 
ATOM      6  H3  UNL     1      78.165  86.726  18.312  1.00  0.00     0.189 HD
ENDROOT
BRANCH   5   7
HETATM    7  C2  UNL     1      77.378  87.773  19.500  1.00  0.00     0.705 A 
HETATM    8  N4  UNL     1      76.393  88.440  18.838  1.00  0.00    -0.128 N 
HETATM    9  N5  UNL     1      76.206  89.620  19.383  1.00  0.00    -0.237 N 
ATOM     10  H4  UNL     1      75.876  88.077  18.037  1.00  0.00     0.205 HD
HETATM   11  C3  UNL     1      77.046  89.783  20.407  1.00  0.00     0.353 A 
ATOM     12  H5  UNL     1      75.521  90.308  19.071  1.00  0.00     0.192 HD
HETATM   13  O3  UNL     1      77.107  90.822  21.132  1.00  0.00    -0.245 OA
HETATM   14  N6  UNL     1      77.761  88.666  20.487  1.00  0.00    -0.138 N 
ATOM     15  H6  UNL     1      78.490  88.491  21.179  1.00  0.00     0.189 HD
ENDBRANCH   5   7
BRANCH   1  16
HETATM   16  O1  UNL     1      78.817  83.160  18.935  1.00  0.00    -0.160 OA
BRANCH  16  17
HETATM   17  N1  UNL     1      77.727  82.484  19.333  1.00  0.00    -0.286 N 
ATOM     18  H12 UNL     1      77.515  81.521  19.073  1.00  0.00     0.186 HD
ATOM     19  H11 UNL     1      77.157  83.086  19.927  1.00  0.00     0.186 HD
ENDBRANCH  16  17
ENDBRANCH   1  16
TORSDOF 3
ENDMDL
MODEL 5
REMARK VINA RESULT: -5.640975614      3.605      3.894
REMARK  3 active torsions:
REMARK  status: ('A' for Active; 'I' for Inactive)
REMARK    1  A    between atoms: N1_1  and  O1_4 
REMARK    2  A    between atoms: O1_4  and  N2_5 
REMARK       I    between atoms: N2_5  and  C1_7 
REMARK       I    between atoms: C1_7  and  N3_9 
REMARK    3  A    between atoms: N3_9  and  C2_11 
ROOT
HETATM    1  N2  UNL     1      78.636  84.454  18.712  1.00  0.00    -0.191 N 
ATOM      2  H2  UNL     1      78.647  84.834  17.765  1.00  0.00     0.201 HD
HETATM    3  C1  UNL     1      78.400  85.373  19.839  1.00  0.00     0.360 C 
HETATM    4  O2  UNL     1      78.403  84.816  20.954  1.00  0.00    -0.244 OA
HETATM    5  N3  UNL     1      78.200  86.665  19.612  1.00  0.00    -0.138 N 
ATOM      6  H3  UNL     1      78.583  86.806  18.677  1.00  0.00     0.189 HD
ENDROOT
BRANCH   5   7
HETATM    7  C2  UNL     1      77.799  87.778  19.930  1.00  0.00     0.705 A 
HETATM    8  N4  UNL     1      78.348  88.706  20.762  1.00  0.00    -0.128 N 
HETATM    9  N5  UNL     1      77.558  89.751  20.850  1.00  0.00    -0.237 N 
ATOM     10  H4  UNL     1      79.240  88.603  21.245  1.00  0.00     0.205 HD
HETATM   11  C3  UNL     1      76.472  89.563  20.098  1.00  0.00     0.353 A 
ATOM     12  H5  UNL     1      77.748  90.583  21.409  1.00  0.00     0.192 HD
HETATM   13  O3  UNL     1      75.523  90.396  19.979  1.00  0.00    -0.245 OA
HETATM   14  N6  UNL     1      76.610  88.368  19.534  1.00  0.00    -0.138 N 
ATOM     15  H6  UNL     1      75.934  87.944  18.898  1.00  0.00     0.189 HD
ENDBRANCH   5   7
BRANCH   1  16
HETATM   16  O1  UNL     1      78.837  83.142  18.880  1.00  0.00    -0.160 OA
BRANCH  16  17
HETATM   17  N1  UNL     1      77.676  82.558  19.220  1.00  0.00    -0.286 N 
ATOM     18  H12 UNL     1      77.408  81.608  18.965  1.00  0.00     0.186 HD
ATOM     19  H11 UNL     1      77.118  83.215  19.766  1.00  0.00     0.186 HD
ENDBRANCH  16  17
ENDBRANCH   1  16
TORSDOF 3
ENDMDL
