MODEL 1
REMARK VINA RESULT: -5.707348945      0.000      0.000
REMARK  3 active torsions:
REMARK  status: ('A' for Active; 'I' for Inactive)
REMARK    1  A    between atoms: C3_3  and  N1_4 
REMARK    2  A    between atoms: C3_3  and  C4_8 
REMARK       I    between atoms: C4_8  and  N2_10 
REMARK    3  A    between atoms: N2_10  and  N3_12 
ROOT
HETATM    1  C1  UNL     1      77.506  89.817  20.668  1.00  0.00     0.015 C 
HETATM    2  C2  UNL     1      78.361  89.351  19.951  1.00  0.00    -0.075 C 
HETATM    3  C3  UNL     1      79.403  88.812  19.079  1.00  0.00     0.353 C 
ENDROOT
BRANCH   3   4
HETATM    4  N1  UNL     1      80.069  87.700  19.719  1.00  0.00    -0.056 N 
ATOM      5  H13 UNL     1      80.415  87.948  20.646  1.00  0.00     0.276 HD
ATOM      6  H12 UNL     1      79.412  86.970  19.995  1.00  0.00     0.276 HD
ATOM      7  H11 UNL     1      80.811  87.338  19.120  1.00  0.00     0.276 HD
ENDBRANCH   3   4
BRANCH   3   8
HETATM    8  C4  UNL     1      78.879  88.440  17.739  1.00  0.00     0.278 C 
HETATM    9  O1  UNL     1      79.723  88.374  16.802  1.00  0.00    -0.268 OA
HETATM   10  N2  UNL     1      77.506  88.168  17.508  1.00  0.00    -0.265 N 
ATOM     11  H2  UNL     1      76.837  88.225  18.274  1.00  0.00     0.190 HD
BRANCH  10  12
HETATM   12  N3  UNL     1      77.083  87.829  16.244  1.00  0.00    -0.273 N 
HETATM   13  C5  UNL     1      76.914  86.645  15.802  1.00  0.00     0.215 C 
HETATM   14  N4  UNL     1      77.134  85.462  16.535  1.00  0.00    -0.065 NA
HETATM   15  N5  UNL     1      76.465  86.510  14.450  1.00  0.00    -0.065 NA
ATOM     16  H3  UNL     1      76.885  88.596  15.601  1.00  0.00     0.189 HD
ENDBRANCH  10  12
ENDBRANCH   3   8
TORSDOF 3
ENDMDL
MODEL 2
REMARK VINA RESULT: -5.390448508      1.545      1.782
REMARK  3 active torsions:
REMARK  status: ('A' for Active; 'I' for Inactive)
REMARK    1  A    between atoms: C3_3  and  N1_4 
REMARK    2  A    between atoms: C3_3  and  C4_8 
REMARK       I    between atoms: C4_8  and  N2_10 
REMARK    3  A    between atoms: N2_10  and  N3_12 
ROOT
HETATM    1  C1  UNL     1      78.363  85.482  20.139  1.00  0.00     0.015 C 
HETATM    2  C2  UNL     1      78.650  86.517  19.584  1.00  0.00    -0.075 C 
HETATM    3  C3  UNL     1      78.976  87.781  18.925  1.00  0.00     0.353 C 
ENDROOT
BRANCH   3   4
HETATM    4  N1  UNL     1      80.401  88.018  18.971  1.00  0.00    -0.056 N 
ATOM      5  H13 UNL     1      80.638  88.965  18.677  1.00  0.00     0.276 HD
ATOM      6  H12 UNL     1      80.748  88.067  19.929  1.00  0.00     0.276 HD
ATOM      7  H11 UNL     1      80.896  87.314  18.423  1.00  0.00     0.276 HD
ENDBRANCH   3   4
BRANCH   3   8
HETATM    8  C4  UNL     1      78.454  87.843  17.536  1.00  0.00     0.278 C 
HETATM    9  O1  UNL     1      79.243  88.285  16.656  1.00  0.00    -0.268 OA
HETATM   10  N2  UNL     1      77.140  87.429  17.198  1.00  0.00    -0.265 N 
ATOM     11  H2  UNL     1      76.514  87.073  17.919  1.00  0.00     0.190 HD
BRANCH  10  12
HETATM   12  N3  UNL     1      76.714  87.510  15.893  1.00  0.00    -0.273 N 
HETATM   13  C5  UNL     1      76.683  86.552  15.052  1.00  0.00     0.215 C 
HETATM   14  N4  UNL     1      77.084  85.227  15.312  1.00  0.00    -0.065 NA
HETATM   15  N5  UNL     1      76.203  86.851  13.737  1.00  0.00    -0.065 NA
ATOM     16  H3  UNL     1      76.394  88.422  15.567  1.00  0.00     0.189 HD
ENDBRANCH  10  12
ENDBRANCH   3   8
TORSDOF 3
ENDMDL
MODEL 3
REMARK VINA RESULT: -5.371351166      1.405      1.882
REMARK  3 active torsions:
REMARK  status: ('A' for Active; 'I' for Inactive)
REMARK    1  A    between atoms: C3_3  and  N1_4 
REMARK    2  A    between atoms: C3_3  and  C4_8 
REMARK       I    between atoms: C4_8  and  N2_10 
REMARK    3  A    between atoms: N2_10  and  N3_12 
ROOT
HETATM    1  C1  UNL     1      78.693  88.753  20.359  1.00  0.00     0.015 C 
HETATM    2  C2  UNL     1      78.876  88.653  19.169  1.00  0.00    -0.075 C 
HETATM    3  C3  UNL     1      79.080  88.550  17.724  1.00  0.00     0.353 C 
ENDROOT
BRANCH   3   4
HETATM    4  N1  UNL     1      80.492  88.487  17.420  1.00  0.00    -0.056 N 
ATOM      5  H13 UNL     1      81.033  89.136  17.990  1.00  0.00     0.276 HD
ATOM      6  H12 UNL     1      80.912  87.616  17.743  1.00  0.00     0.276 HD
ATOM      7  H11 UNL     1      80.646  88.637  16.422  1.00  0.00     0.276 HD
ENDBRANCH   3   4
BRANCH   3   8
HETATM    8  C4  UNL     1      78.338  87.408  17.131  1.00  0.00     0.278 C 
HETATM    9  O1  UNL     1      78.922  86.289  17.143  1.00  0.00    -0.268 OA
HETATM   10  N2  UNL     1      77.041  87.550  16.575  1.00  0.00    -0.265 N 
ATOM     11  H2  UNL     1      76.582  88.460  16.573  1.00  0.00     0.190 HD
BRANCH  10  12
HETATM   12  N3  UNL     1      76.406  86.454  16.040  1.00  0.00    -0.273 N 
HETATM   13  C5  UNL     1      76.094  86.290  14.815  1.00  0.00     0.215 C 
HETATM   14  N4  UNL     1      76.348  87.212  13.780  1.00  0.00    -0.065 NA
HETATM   15  N5  UNL     1      75.433  85.070  14.465  1.00  0.00    -0.065 NA
ATOM     16  H3  UNL     1      76.159  85.702  16.684  1.00  0.00     0.189 HD
ENDBRANCH  10  12
ENDBRANCH   3   8
TORSDOF 3
ENDMDL
MODEL 4
REMARK VINA RESULT: -5.344163320      2.103      4.693
REMARK  3 active torsions:
REMARK  status: ('A' for Active; 'I' for Inactive)
REMARK    1  A    between atoms: C3_3  and  N1_4 
REMARK    2  A    between atoms: C3_3  and  C4_8 
REMARK       I    between atoms: C4_8  and  N2_10 
REMARK    3  A    between atoms: N2_10  and  N3_12 
ROOT
HETATM    1  C1  UNL     1      76.503  84.535  17.746  1.00  0.00     0.015 C 
HETATM    2  C2  UNL     1      76.857  85.535  17.167  1.00  0.00    -0.075 C 
HETATM    3  C3  UNL     1      77.308  86.738  16.470  1.00  0.00     0.353 C 
ENDROOT
BRANCH   3   4
HETATM    4  N1  UNL     1      76.481  86.987  15.311  1.00  0.00    -0.056 N 
ATOM      5  H13 UNL     1      75.812  86.234  15.153  1.00  0.00     0.276 HD
ATOM      6  H12 UNL     1      75.819  87.746  15.472  1.00  0.00     0.276 HD
ATOM      7  H11 UNL     1      77.063  87.158  14.490  1.00  0.00     0.276 HD
ENDBRANCH   3   4
BRANCH   3   8
HETATM    8  C4  UNL     1      77.367  87.921  17.366  1.00  0.00     0.278 C 
HETATM    9  O1  UNL     1      78.304  88.741  17.158  1.00  0.00    -0.268 OA
HETATM   10  N2  UNL     1      76.427  88.134  18.407  1.00  0.00    -0.265 N 
ATOM     11  H2  UNL     1      75.675  87.464  18.563  1.00  0.00     0.190 HD
BRANCH  10  12
HETATM   12  N3  UNL     1      76.534  89.249  19.204  1.00  0.00    -0.273 N 
HETATM   13  C5  UNL     1      77.266  89.363  20.243  1.00  0.00     0.215 C 
HETATM   14  N4  UNL     1      78.102  88.356  20.764  1.00  0.00    -0.065 NA
HETATM   15  N5  UNL     1      77.232  90.616  20.933  1.00  0.00    -0.065 NA
ATOM     16  H3  UNL     1      75.976  90.062  18.940  1.00  0.00     0.189 HD
ENDBRANCH  10  12
ENDBRANCH   3   8
TORSDOF 3
ENDMDL
MODEL 5
REMARK VINA RESULT: -5.292842251      1.952      2.225
REMARK  3 active torsions:
REMARK  status: ('A' for Active; 'I' for Inactive)
REMARK    1  A    between atoms: C3_3  and  N1_4 
REMARK    2  A    between atoms: C3_3  and  C4_8 
REMARK       I    between atoms: C4_8  and  N2_10 
REMARK    3  A    between atoms: N2_10  and  N3_12 
ROOT
HETATM    1  C1  UNL     1      80.093  87.845  20.196  1.00  0.00     0.015 C 
HETATM    2  C2  UNL     1      78.965  88.279  20.160  1.00  0.00    -0.075 C 
HETATM    3  C3  UNL     1      77.593  88.781  20.126  1.00  0.00     0.353 C 
ENDROOT
BRANCH   3   4
HETATM    4  N1  UNL     1      77.547  90.150  20.588  1.00  0.00    -0.056 N 
ATOM      5  H13 UNL     1      76.656  90.373  21.030  1.00  0.00     0.276 HD
ATOM      6  H12 UNL     1      78.156  90.301  21.393  1.00  0.00     0.276 HD
ATOM      7  H11 UNL     1      77.763  90.790  19.823  1.00  0.00     0.276 HD
ENDBRANCH   3   4
BRANCH   3   8
HETATM    8  C4  UNL     1      76.971  88.634  18.785  1.00  0.00     0.278 C 
HETATM    9  O1  UNL     1      75.851  89.191  18.618  1.00  0.00    -0.268 OA
HETATM   10  N2  UNL     1      77.592  87.909  17.735  1.00  0.00    -0.265 N 
ATOM     11  H2  UNL     1      78.497  87.466  17.884  1.00  0.00     0.190 HD
BRANCH  10  12
HETATM   12  N3  UNL     1      76.966  87.809  16.514  1.00  0.00    -0.273 N 
HETATM   13  C5  UNL     1      76.944  86.778  15.764  1.00  0.00     0.215 C 
HETATM   14  N4  UNL     1      77.564  85.546  16.055  1.00  0.00    -0.065 NA
HETATM   15  N5  UNL     1      76.232  86.884  14.527  1.00  0.00    -0.065 NA
ATOM     16  H3  UNL     1      76.473  88.637  16.177  1.00  0.00     0.189 HD
ENDBRANCH  10  12
ENDBRANCH   3   8
TORSDOF 3
ENDMDL
