MODEL 1
REMARK VINA RESULT: -6.476121319      0.000      0.000
REMARK  3 active torsions:
REMARK  status: ('A' for Active; 'I' for Inactive)
REMARK    1  A    between atoms: C3_5  and  C4_6 
REMARK    2  A    between atoms: C4_6  and  N2_7 
REMARK    3  A    between atoms: N2_7  and  N3_9 
ROOT
HETATM    1  C1  UNL     1      77.983  85.089  19.545  1.00  0.00     0.047 C 
HETATM    2  C2  UNL     1      78.269  86.357  19.218  1.00  0.00     0.080 A 
HETATM    3  N1  UNL     1      78.021  87.369  20.067  1.00  0.00    -0.339 N 
ATOM      4  H1  UNL     1      77.607  87.146  20.972  1.00  0.00     0.167 HD
HETATM    5  C3  UNL     1      78.284  88.643  19.795  1.00  0.00     0.125 A 
HETATM    6  N4  UNL     1      78.828  88.937  18.606  1.00  0.00    -0.305 N 
ATOM      7  H4  UNL     1      79.039  89.908  18.376  1.00  0.00     0.170 HD
HETATM    8  C5  UNL     1      79.102  87.965  17.708  1.00  0.00     0.299 A 
HETATM    9  O1  UNL     1      79.605  88.212  16.602  1.00  0.00    -0.264 OA
HETATM   10  C6  UNL     1      78.824  86.627  17.998  1.00  0.00     0.265 A 
HETATM   11  O2  UNL     1      79.090  85.740  17.142  1.00  0.00    -0.280 OA
ENDROOT
BRANCH   5  12
HETATM   12  C4  UNL     1      78.024  89.613  20.661  1.00  0.00     0.155 C 
BRANCH  12  13
HETATM   13  N2  UNL     1      76.974  90.523  20.476  1.00  0.00    -0.315 N 
ATOM     14  H2  UNL     1      77.029  91.455  20.887  1.00  0.00     0.185 HD
BRANCH  13  15
HETATM   15  N3  UNL     1      75.861  90.160  19.735  1.00  0.00    -0.345 N 
ATOM     16  H32 UNL     1      75.010  89.883  20.226  1.00  0.00     0.176 HD
ATOM     17  H31 UNL     1      75.898  90.171  18.716  1.00  0.00     0.176 HD
ENDBRANCH  13  15
ENDBRANCH  12  13
ENDBRANCH   5  12
TORSDOF 3
ENDMDL
MODEL 2
REMARK VINA RESULT: -6.410653292      3.255      4.228
REMARK  3 active torsions:
REMARK  status: ('A' for Active; 'I' for Inactive)
REMARK    1  A    between atoms: C3_5  and  C4_6 
REMARK    2  A    between atoms: C4_6  and  N2_7 
REMARK    3  A    between atoms: N2_7  and  N3_9 
ROOT
HETATM    1  C1  UNL     1      79.685  87.927  20.186  1.00  0.00     0.047 C 
HETATM    2  C2  UNL     1      78.595  88.219  19.463  1.00  0.00     0.080 A 
HETATM    3  N1  UNL     1      78.550  87.980  18.141  1.00  0.00    -0.339 N 
ATOM      4  H1  UNL     1      79.372  87.568  17.700  1.00  0.00     0.167 HD
HETATM    5  C3  UNL     1      77.497  88.250  17.377  1.00  0.00     0.125 A 
HETATM    6  N4  UNL     1      76.416  88.791  17.956  1.00  0.00    -0.305 N 
ATOM      7  H4  UNL     1      75.597  89.006  17.388  1.00  0.00     0.170 HD
HETATM    8  C5  UNL     1      76.397  89.056  19.281  1.00  0.00     0.299 A 
HETATM    9  O1  UNL     1      75.409  89.556  19.839  1.00  0.00    -0.264 OA
HETATM   10  C6  UNL     1      77.507  88.770  20.081  1.00  0.00     0.265 A 
HETATM   11  O2  UNL     1      77.462  89.027  21.315  1.00  0.00    -0.280 OA
ENDROOT
BRANCH   5  12
HETATM   12  C4  UNL     1      77.493  87.999  16.074  1.00  0.00     0.155 C 
BRANCH  12  13
HETATM   13  N2  UNL     1      76.599  87.094  15.486  1.00  0.00    -0.315 N 
ATOM     14  H2  UNL     1      76.266  86.289  16.017  1.00  0.00     0.185 HD
BRANCH  13  15
HETATM   15  N3  UNL     1      76.166  87.290  14.184  1.00  0.00    -0.345 N 
ATOM     16  H32 UNL     1      76.407  86.599  13.475  1.00  0.00     0.176 HD
ATOM     17  H31 UNL     1      75.614  88.114  13.947  1.00  0.00     0.176 HD
ENDBRANCH  13  15
ENDBRANCH  12  13
ENDBRANCH   5  12
TORSDOF 3
ENDMDL
MODEL 3
REMARK VINA RESULT: -6.050440050      1.474      1.572
REMARK  3 active torsions:
REMARK  status: ('A' for Active; 'I' for Inactive)
REMARK    1  A    between atoms: C3_5  and  C4_6 
REMARK    2  A    between atoms: C4_6  and  N2_7 
REMARK    3  A    between atoms: N2_7  and  N3_9 
ROOT
HETATM    1  C1  UNL     1      78.408  85.483  19.702  1.00  0.00     0.047 C 
HETATM    2  C2  UNL     1      77.894  86.482  18.971  1.00  0.00     0.080 A 
HETATM    3  N1  UNL     1      77.117  87.426  19.529  1.00  0.00    -0.339 N 
ATOM      4  H1  UNL     1      76.928  87.362  20.529  1.00  0.00     0.167 HD
HETATM    5  C3  UNL     1      76.582  88.437  18.852  1.00  0.00     0.125 A 
HETATM    6  N4  UNL     1      76.829  88.521  17.538  1.00  0.00    -0.305 N 
ATOM      7  H4  UNL     1      76.428  89.289  16.999  1.00  0.00     0.170 HD
HETATM    8  C5  UNL     1      77.602  87.604  16.916  1.00  0.00     0.299 A 
HETATM    9  O1  UNL     1      77.846  87.660  15.702  1.00  0.00    -0.264 OA
HETATM   10  C6  UNL     1      78.164  86.543  17.632  1.00  0.00     0.265 A 
HETATM   11  O2  UNL     1      78.882  85.701  17.027  1.00  0.00    -0.280 OA
ENDROOT
BRANCH   5  12
HETATM   12  C4  UNL     1      75.819  89.349  19.441  1.00  0.00     0.155 C 
BRANCH  12  13
HETATM   13  N2  UNL     1      76.356  90.449  20.125  1.00  0.00    -0.315 N 
ATOM     14  H2  UNL     1      75.853  91.336  20.136  1.00  0.00     0.185 HD
BRANCH  13  15
HETATM   15  N3  UNL     1      77.568  90.333  20.786  1.00  0.00    -0.345 N 
ATOM     16  H32 UNL     1      77.644  90.677  21.743  1.00  0.00     0.176 HD
ATOM     17  H31 UNL     1      78.368  89.907  20.317  1.00  0.00     0.176 HD
ENDBRANCH  13  15
ENDBRANCH  12  13
ENDBRANCH   5  12
TORSDOF 3
ENDMDL
MODEL 4
REMARK VINA RESULT: -5.980485372      1.510      1.601
REMARK  3 active torsions:
REMARK  status: ('A' for Active; 'I' for Inactive)
REMARK    1  A    between atoms: C3_5  and  C4_6 
REMARK    2  A    between atoms: C4_6  and  N2_7 
REMARK    3  A    between atoms: N2_7  and  N3_9 
ROOT
HETATM    1  C1  UNL     1      76.384  84.907  18.036  1.00  0.00     0.047 C 
HETATM    2  C2  UNL     1      76.926  86.133  18.033  1.00  0.00     0.080 A 
HETATM    3  N1  UNL     1      76.301  87.173  18.611  1.00  0.00    -0.339 N 
ATOM      4  H1  UNL     1      75.398  87.005  19.055  1.00  0.00     0.167 HD
HETATM    5  C3  UNL     1      76.792  88.408  18.638  1.00  0.00     0.125 A 
HETATM    6  N4  UNL     1      77.978  88.631  18.055  1.00  0.00    -0.305 N 
ATOM      7  H4  UNL     1      78.373  89.571  18.064  1.00  0.00     0.170 HD
HETATM    8  C5  UNL     1      78.657  87.627  17.457  1.00  0.00     0.299 A 
HETATM    9  O1  UNL     1      79.756  87.809  16.911  1.00  0.00    -0.264 OA
HETATM   10  C6  UNL     1      78.137  86.331  17.432  1.00  0.00     0.265 A 
HETATM   11  O2  UNL     1      78.792  85.413  16.867  1.00  0.00    -0.280 OA
ENDROOT
BRANCH   5  12
HETATM   12  C4  UNL     1      76.143  89.408  19.219  1.00  0.00     0.155 C 
BRANCH  12  13
HETATM   13  N2  UNL     1      76.705  90.168  20.255  1.00  0.00    -0.315 N 
ATOM     14  H2  UNL     1      76.645  91.186  20.230  1.00  0.00     0.185 HD
BRANCH  13  15
HETATM   15  N3  UNL     1      77.344  89.539  21.311  1.00  0.00    -0.345 N 
ATOM     16  H32 UNL     1      77.167  88.548  21.476  1.00  0.00     0.176 HD
ATOM     17  H31 UNL     1      77.980  90.064  21.911  1.00  0.00     0.176 HD
ENDBRANCH  13  15
ENDBRANCH  12  13
ENDBRANCH   5  12
TORSDOF 3
ENDMDL
MODEL 5
REMARK VINA RESULT: -5.762644522      0.982      1.013
REMARK  3 active torsions:
REMARK  status: ('A' for Active; 'I' for Inactive)
REMARK    1  A    between atoms: C3_5  and  C4_6 
REMARK    2  A    between atoms: C4_6  and  N2_7 
REMARK    3  A    between atoms: N2_7  and  N3_9 
ROOT
HETATM    1  C1  UNL     1      78.335  84.601  20.252  1.00  0.00     0.047 C 
HETATM    2  C2  UNL     1      78.342  85.767  19.590  1.00  0.00     0.080 A 
HETATM    3  N1  UNL     1      78.399  86.939  20.244  1.00  0.00    -0.339 N 
ATOM      4  H1  UNL     1      78.437  86.919  21.264  1.00  0.00     0.167 HD
HETATM    5  C3  UNL     1      78.409  88.123  19.640  1.00  0.00     0.125 A 
HETATM    6  N4  UNL     1      78.359  88.150  18.301  1.00  0.00    -0.305 N 
ATOM      7  H4  UNL     1      78.366  89.048  17.816  1.00  0.00     0.170 HD
HETATM    8  C5  UNL     1      78.301  87.006  17.584  1.00  0.00     0.299 A 
HETATM    9  O1  UNL     1      78.255  87.006  16.345  1.00  0.00    -0.264 OA
HETATM   10  C6  UNL     1      78.292  85.764  18.224  1.00  0.00     0.265 A 
HETATM   11  O2  UNL     1      78.237  84.712  17.531  1.00  0.00    -0.280 OA
ENDROOT
BRANCH   5  12
HETATM   12  C4  UNL     1      78.466  89.259  20.323  1.00  0.00     0.155 C 
BRANCH  12  13
HETATM   13  N2  UNL     1      77.326  89.863  20.872  1.00  0.00    -0.315 N 
ATOM     14  H2  UNL     1      77.268  90.021  21.878  1.00  0.00     0.185 HD
BRANCH  13  15
HETATM   15  N3  UNL     1      76.277  90.244  20.051  1.00  0.00    -0.345 N 
ATOM     16  H32 UNL     1      75.904  89.571  19.382  1.00  0.00     0.176 HD
ATOM     17  H31 UNL     1      75.889  91.185  20.120  1.00  0.00     0.176 HD
ENDBRANCH  13  15
ENDBRANCH  12  13
ENDBRANCH   5  12
TORSDOF 3
ENDMDL
